MODEL 1
REMARK VINA RESULT:     -12.3      0.000      0.000
REMARK SMILES O=C(CCC(=O)N1Cc2[nH]cnc2C[C@H]1C(=O)NCc1ccccc1)NCCCCCCNC(=O)c1ccc(-c2c3nc(c(-c4c(F)c(F)c(F)c(F)c4F)c4ccc([nH]4)c(-c4c(F)c(F)c(F)c(F)c4F)c4nc(c(-c5c(F)c(F)c(F)c(F)c5F)c5ccc2[nH]5)C=C4)C=C3)cc1
REMARK SMILES IDX 27 1 26 2 1 3 2 4 3 6 4 7 5 8 6 9 7 10 8 11 15 12 9 13 14 14
REMARK SMILES IDX 10 15 13 16 11 17 12 19 16 20 17 21 18 22 19 24 20 25 21 26
REMARK SMILES IDX 25 27 22 28 24 29 23 30 28 31 29 32 30 33 31 34 32 35 33 36
REMARK SMILES IDX 34 37 35 39 36 40 37 41 98 42 38 43 97 44 39 45 40 46 41 47
REMARK SMILES IDX 91 48 42 49 96 50 90 51 92 52 43 53 95 54 89 55 88 56 44 58
REMARK SMILES IDX 76 59 56 60 75 61 57 62 60 63 74 64 93 65 58 66 59 67 73 69
REMARK SMILES IDX 94 70 61 71 45 72 46 73 54 74 47 75 48 76 52 77 55 78 49 79
REMARK SMILES IDX 50 80 53 81 51 82 77 83 78 84 86 85 79 86 80 87 84 88 87 89
REMARK SMILES IDX 81 90 82 91 85 92 83 93 62 94 63 95 71 96 64 97 65 98 69 99
REMARK SMILES IDX 72 100 66 101 67 102 70 103 68 104
REMARK H PARENT 26 5 10 18 18 23 33 38 92 57 60 68
REMARK Flexibility Score: inf
ROOT
ATOM      1  C   UNL A   1      34.628  29.252  26.877  1.00  0.00     0.116 C 
ENDROOT
BRANCH   1   2
ATOM      2  N   UNL A   1      33.662  29.597  25.835  1.00  0.00    -0.356 N 
ATOM      3  O   UNL A   1      31.866  28.853  27.060  1.00  0.00    -0.275 OA
ATOM      4  C   UNL A   1      32.295  29.466  26.087  1.00  0.00     0.220 C 
ATOM      5  H   UNL A   1      33.974  29.918  24.959  1.00  0.00     0.163 HD
BRANCH   4   6
ATOM      6  C   UNL A   1      31.352  30.238  25.150  1.00  0.00     0.110 C 
BRANCH   6   7
ATOM      7  C   UNL A   1      30.694  29.324  24.082  1.00  0.00     0.110 C 
BRANCH   7   8
ATOM      8  C   UNL A   1      31.643  28.504  23.179  1.00  0.00     0.224 C 
ATOM      9  O   UNL A   1      32.387  29.090  22.389  1.00  0.00    -0.275 OA
BRANCH   8  10
ATOM     10  N   UNL A   1      31.660  27.117  23.286  1.00  0.00    -0.324 N 
ATOM     11  C   UNL A   1      30.491  26.379  23.823  1.00  0.00     0.176 C 
ATOM     12  C   UNL A   1      32.923  26.365  23.231  1.00  0.00     0.180 C 
ATOM     13  C   UNL A   1      30.963  25.532  24.965  1.00  0.00     0.058 A 
ATOM     14  C   UNL A   1      33.349  26.078  24.667  1.00  0.00     0.093 C 
ATOM     15  N   UNL A   1      30.277  24.653  25.759  1.00  0.00    -0.347 N 
ATOM     16  C   UNL A   1      32.270  25.384  25.361  1.00  0.00     0.066 A 
ATOM     17  C   UNL A   1      31.201  24.025  26.564  1.00  0.00     0.197 A 
ATOM     18  H   UNL A   1      29.304  24.499  25.755  1.00  0.00     0.167 HD
ATOM     19  N   UNL A   1      32.421  24.458  26.342  1.00  0.00    -0.242 NA
BRANCH  12  20
ATOM     20  C   UNL A   1      33.167  25.432  22.023  1.00  0.00     0.243 C 
ATOM     21  O   UNL A   1      33.278  25.951  20.900  1.00  0.00    -0.273 OA
ATOM     22  N   UNL A   1      33.234  24.091  22.005  1.00  0.00    -0.350 N 
ATOM     23  H   UNL A   1      33.561  23.745  21.143  1.00  0.00     0.163 HD
BRANCH  22  24
ATOM     24  C   UNL A   1      32.943  23.035  22.943  1.00  0.00     0.151 C 
BRANCH  24  25
ATOM     25  C   UNL A   1      34.223  22.567  23.589  1.00  0.00    -0.029 A 
ATOM     26  C   UNL A   1      34.201  21.593  24.594  1.00  0.00     0.005 A 
ATOM     27  C   UNL A   1      35.465  23.042  23.142  1.00  0.00     0.005 A 
ATOM     28  C   UNL A   1      35.385  21.097  25.137  1.00  0.00     0.000 A 
ATOM     29  C   UNL A   1      36.651  22.551  23.689  1.00  0.00     0.000 A 
ATOM     30  C   UNL A   1      36.610  21.575  24.683  1.00  0.00     0.000 A 
ENDBRANCH  24  25
ENDBRANCH  22  24
ENDBRANCH  12  20
ENDBRANCH   8  10
ENDBRANCH   7   8
ENDBRANCH   6   7
ENDBRANCH   4   6
ENDBRANCH   1   2
BRANCH   1  31
ATOM     31  C   UNL A   1      34.897  30.286  27.994  1.00  0.00     0.021 C 
BRANCH  31  32
ATOM     32  C   UNL A   1      34.874  31.808  27.709  1.00  0.00     0.002 C 
BRANCH  32  33
ATOM     33  C   UNL A   1      33.662  32.628  28.200  1.00  0.00     0.002 C 
BRANCH  33  34
ATOM     34  C   UNL A   1      33.658  34.148  28.071  1.00  0.00     0.021 C 
BRANCH  34  35
ATOM     35  C   UNL A   1      34.343  34.920  29.195  1.00  0.00     0.116 C 
BRANCH  35  36
ATOM     36  N   UNL A   1      33.451  35.596  30.143  1.00  0.00    -0.352 N 
ATOM     37  C   UNL A   1      33.277  35.274  31.485  1.00  0.00     0.251 C 
ATOM     38  H   UNL A   1      32.923  36.350  29.796  1.00  0.00     0.163 HD
ATOM     39  O   UNL A   1      32.307  35.617  32.131  1.00  0.00    -0.269 OA
BRANCH  37  40
ATOM     40  C   UNL A   1      34.359  34.482  32.100  1.00  0.00     0.039 A 
ATOM     41  C   UNL A   1      34.381  33.092  31.981  1.00  0.00     0.014 A 
ATOM     42  C   UNL A   1      35.480  35.201  32.495  1.00  0.00     0.014 A 
ATOM     43  C   UNL A   1      35.602  32.429  32.116  1.00  0.00     0.010 A 
ATOM     44  C   UNL A   1      36.699  34.553  32.502  1.00  0.00     0.010 A 
ATOM     45  C   UNL A   1      36.784  33.167  32.305  1.00  0.00    -0.014 A 
BRANCH  45  46
ATOM     46  C   UNL A   1      38.098  32.523  32.122  1.00  0.00     0.031 A 
ATOM     47  C   UNL A   1      38.930  32.256  33.344  1.00  0.00     0.074 A 
ATOM     48  C   UNL A   1      38.498  31.940  30.970  1.00  0.00     0.049 A 
ATOM     49  N   UNL A   1      40.148  32.639  33.570  1.00  0.00    -0.248 NA
ATOM     50  C   UNL A   1      38.349  31.475  34.447  1.00  0.00     0.031 C 
ATOM     51  C   UNL A   1      37.770  31.812  29.704  1.00  0.00     0.029 A 
ATOM     52  N   UNL A   1      39.631  31.212  30.740  1.00  0.00    -0.354 N 
ATOM     53  C   UNL A   1      40.547  32.047  34.770  1.00  0.00     0.074 A 
ATOM     54  C   UNL A   1      39.370  31.407  35.307  1.00  0.00     0.031 C 
ATOM     55  C   UNL A   1      38.347  30.859  28.945  1.00  0.00     0.029 A 
ATOM     56  C   UNL A   1      39.587  30.456  29.578  1.00  0.00     0.049 A 
ATOM     57  H   UNL A   1      40.409  31.222  31.344  1.00  0.00     0.167 HD
ATOM     58  C   UNL A   1      41.856  31.996  35.153  1.00  0.00     0.037 A 
ATOM     59  C   UNL A   1      40.501  29.561  29.141  1.00  0.00     0.037 A 
ATOM     60  C   UNL A   1      42.664  32.924  34.407  1.00  0.00     0.049 A 
ATOM     61  C   UNL A   1      41.794  29.901  29.775  1.00  0.00     0.074 A 
ATOM     62  C   UNL A   1      42.652  34.293  34.212  1.00  0.00     0.029 A 
ATOM     63  N   UNL A   1      43.516  32.437  33.448  1.00  0.00    -0.354 N 
ATOM     64  N   UNL A   1      42.477  30.976  29.499  1.00  0.00    -0.248 NA
ATOM     65  C   UNL A   1      42.159  29.229  31.012  1.00  0.00     0.031 C 
ATOM     66  C   UNL A   1      43.047  34.471  32.852  1.00  0.00     0.029 A 
ATOM     67  C   UNL A   1      43.313  33.205  32.332  1.00  0.00     0.049 A 
ATOM     68  H   UNL A   1      44.146  31.686  33.543  1.00  0.00     0.167 HD
ATOM     69  C   UNL A   1      43.032  31.356  30.710  1.00  0.00     0.074 A 
ATOM     70  C   UNL A   1      42.916  30.180  31.565  1.00  0.00     0.031 C 
ATOM     71  C   UNL A   1      43.272  32.670  30.993  1.00  0.00     0.037 A 
BRANCH  58  72
ATOM     72  C   UNL A   1      42.490  30.911  35.994  1.00  0.00     0.064 A 
ATOM     73  C   UNL A   1      43.349  31.266  37.060  1.00  0.00     0.173 A 
ATOM     74  C   UNL A   1      42.539  29.558  35.604  1.00  0.00     0.173 A 
ATOM     75  F   UNL A   1      43.399  32.531  37.506  1.00  0.00    -0.203 F 
ATOM     76  C   UNL A   1      44.246  30.356  37.625  1.00  0.00     0.198 A 
ATOM     77  C   UNL A   1      43.400  28.639  36.208  1.00  0.00     0.198 A 
ATOM     78  F   UNL A   1      41.841  29.102  34.556  1.00  0.00    -0.203 F 
ATOM     79  F   UNL A   1      45.132  30.774  38.541  1.00  0.00    -0.200 F 
ATOM     80  C   UNL A   1      44.277  29.044  37.193  1.00  0.00     0.200 A 
ATOM     81  F   UNL A   1      43.427  27.373  35.766  1.00  0.00    -0.200 F 
ATOM     82  F   UNL A   1      45.180  28.187  37.686  1.00  0.00    -0.200 F 
ENDBRANCH  58  72
BRANCH  59  83
ATOM     83  C   UNL A   1      40.286  28.365  28.302  1.00  0.00     0.064 A 
ATOM     84  C   UNL A   1      40.929  28.214  27.066  1.00  0.00     0.173 A 
ATOM     85  C   UNL A   1      39.628  27.228  28.814  1.00  0.00     0.173 A 
ATOM     86  F   UNL A   1      41.614  29.235  26.530  1.00  0.00    -0.203 F 
ATOM     87  C   UNL A   1      40.927  26.991  26.386  1.00  0.00     0.198 A 
ATOM     88  C   UNL A   1      39.617  26.013  28.130  1.00  0.00     0.198 A 
ATOM     89  F   UNL A   1      39.055  27.251  30.027  1.00  0.00    -0.203 F 
ATOM     90  F   UNL A   1      41.599  26.869  25.233  1.00  0.00    -0.200 F 
ATOM     91  C   UNL A   1      40.277  25.891  26.922  1.00  0.00     0.200 A 
ATOM     92  F   UNL A   1      39.010  24.949  28.675  1.00  0.00    -0.200 F 
ATOM     93  F   UNL A   1      40.322  24.707  26.297  1.00  0.00    -0.200 F 
ENDBRANCH  59  83
BRANCH  71  94
ATOM     94  C   UNL A   1      43.201  33.661  29.867  1.00  0.00     0.064 A 
ATOM     95  C   UNL A   1      42.031  34.351  29.504  1.00  0.00     0.173 A 
ATOM     96  C   UNL A   1      44.389  34.027  29.221  1.00  0.00     0.173 A 
ATOM     97  F   UNL A   1      40.879  34.144  30.149  1.00  0.00    -0.203 F 
ATOM     98  C   UNL A   1      42.041  35.318  28.501  1.00  0.00     0.198 A 
ATOM     99  C   UNL A   1      44.404  35.020  28.245  1.00  0.00     0.198 A 
ATOM    100  F   UNL A   1      45.549  33.449  29.569  1.00  0.00    -0.203 F 
ATOM    101  F   UNL A   1      40.905  35.947  28.163  1.00  0.00    -0.200 F 
ATOM    102  C   UNL A   1      43.229  35.655  27.876  1.00  0.00     0.200 A 
ATOM    103  F   UNL A   1      45.565  35.380  27.679  1.00  0.00    -0.200 F 
ATOM    104  F   UNL A   1      43.247  36.612  26.937  1.00  0.00    -0.200 F 
ENDBRANCH  71  94
ENDBRANCH  45  46
ENDBRANCH  37  40
ENDBRANCH  35  36
ENDBRANCH  34  35
ENDBRANCH  33  34
ENDBRANCH  32  33
ENDBRANCH  31  32
ENDBRANCH   1  31
TORSDOF 19
ENDMDL
MODEL 2
REMARK VINA RESULT:     -12.1      1.276      1.705
REMARK SMILES O=C(CCC(=O)N1Cc2[nH]cnc2C[C@H]1C(=O)NCc1ccccc1)NCCCCCCNC(=O)c1ccc(-c2c3nc(c(-c4c(F)c(F)c(F)c(F)c4F)c4ccc([nH]4)c(-c4c(F)c(F)c(F)c(F)c4F)c4nc(c(-c5c(F)c(F)c(F)c(F)c5F)c5ccc2[nH]5)C=C4)C=C3)cc1
REMARK SMILES IDX 27 1 26 2 1 3 2 4 3 6 4 7 5 8 6 9 7 10 8 11 15 12 9 13 14 14
REMARK SMILES IDX 10 15 13 16 11 17 12 19 16 20 17 21 18 22 19 24 20 25 21 26
REMARK SMILES IDX 25 27 22 28 24 29 23 30 28 31 29 32 30 33 31 34 32 35 33 36
REMARK SMILES IDX 34 37 35 39 36 40 37 41 98 42 38 43 97 44 39 45 40 46 41 47
REMARK SMILES IDX 91 48 42 49 96 50 90 51 92 52 43 53 95 54 89 55 88 56 44 58
REMARK SMILES IDX 76 59 56 60 75 61 57 62 60 63 74 64 93 65 58 66 59 67 73 69
REMARK SMILES IDX 94 70 61 71 45 72 46 73 54 74 47 75 48 76 52 77 55 78 49 79
REMARK SMILES IDX 50 80 53 81 51 82 77 83 78 84 86 85 79 86 80 87 84 88 87 89
REMARK SMILES IDX 81 90 82 91 85 92 83 93 62 94 63 95 71 96 64 97 65 98 69 99
REMARK SMILES IDX 72 100 66 101 67 102 70 103 68 104
REMARK H PARENT 26 5 10 18 18 23 33 38 92 57 60 68
REMARK Flexibility Score: inf
ROOT
ATOM      1  C   UNL A   1      33.202  30.185  26.738  1.00  0.00     0.116 C 
ENDROOT
BRANCH   1   2
ATOM      2  N   UNL A   1      33.323  29.204  25.660  1.00  0.00    -0.356 N 
ATOM      3  O   UNL A   1      31.301  29.775  24.728  1.00  0.00    -0.275 OA
ATOM      4  C   UNL A   1      32.368  29.174  24.642  1.00  0.00     0.220 C 
ATOM      5  H   UNL A   1      34.073  28.567  25.653  1.00  0.00     0.163 HD
BRANCH   4   6
ATOM      6  C   UNL A   1      32.775  28.450  23.348  1.00  0.00     0.110 C 
BRANCH   6   7
ATOM      7  C   UNL A   1      33.756  27.275  23.606  1.00  0.00     0.110 C 
BRANCH   7   8
ATOM      8  C   UNL A   1      33.515  25.972  22.810  1.00  0.00     0.224 C 
ATOM      9  O   UNL A   1      33.538  25.999  21.577  1.00  0.00    -0.275 OA
BRANCH   8  10
ATOM     10  N   UNL A   1      33.297  24.782  23.497  1.00  0.00    -0.324 N 
ATOM     11  C   UNL A   1      31.970  24.119  23.472  1.00  0.00     0.176 C 
ATOM     12  C   UNL A   1      34.218  24.331  24.551  1.00  0.00     0.180 C 
ATOM     13  C   UNL A   1      31.524  23.922  24.888  1.00  0.00     0.058 A 
ATOM     14  C   UNL A   1      33.621  24.746  25.891  1.00  0.00     0.093 C 
ATOM     15  N   UNL A   1      30.394  23.331  25.387  1.00  0.00    -0.347 N 
ATOM     16  C   UNL A   1      32.270  24.203  26.006  1.00  0.00     0.066 A 
ATOM     17  C   UNL A   1      30.534  23.278  26.756  1.00  0.00     0.197 A 
ATOM     18  H   UNL A   1      29.625  23.005  24.864  1.00  0.00     0.167 HD
ATOM     19  N   UNL A   1      31.668  23.808  27.156  1.00  0.00    -0.242 NA
BRANCH  12  20
ATOM     20  C   UNL A   1      35.047  23.051  24.299  1.00  0.00     0.243 C 
ATOM     21  O   UNL A   1      36.165  23.176  23.771  1.00  0.00    -0.273 OA
ATOM     22  N   UNL A   1      34.705  21.775  24.538  1.00  0.00    -0.350 N 
ATOM     23  H   UNL A   1      35.468  21.160  24.444  1.00  0.00     0.163 HD
BRANCH  22  24
ATOM     24  C   UNL A   1      33.489  21.088  24.896  1.00  0.00     0.151 C 
BRANCH  24  25
ATOM     25  C   UNL A   1      33.466  19.729  24.241  1.00  0.00    -0.029 A 
ATOM     26  C   UNL A   1      34.388  18.743  24.610  1.00  0.00     0.005 A 
ATOM     27  C   UNL A   1      32.471  19.404  23.306  1.00  0.00     0.005 A 
ATOM     28  C   UNL A   1      34.319  17.460  24.067  1.00  0.00     0.000 A 
ATOM     29  C   UNL A   1      32.406  18.122  22.759  1.00  0.00     0.000 A 
ATOM     30  C   UNL A   1      33.327  17.149  23.143  1.00  0.00     0.000 A 
ENDBRANCH  24  25
ENDBRANCH  22  24
ENDBRANCH  12  20
ENDBRANCH   8  10
ENDBRANCH   7   8
ENDBRANCH   6   7
ENDBRANCH   4   6
ENDBRANCH   1   2
BRANCH   1  31
ATOM     31  C   UNL A   1      34.465  30.521  27.563  1.00  0.00     0.021 C 
BRANCH  31  32
ATOM     32  C   UNL A   1      34.720  31.949  28.105  1.00  0.00     0.002 C 
BRANCH  32  33
ATOM     33  C   UNL A   1      33.563  32.968  28.059  1.00  0.00     0.002 C 
BRANCH  33  34
ATOM     34  C   UNL A   1      33.851  34.464  28.143  1.00  0.00     0.021 C 
BRANCH  34  35
ATOM     35  C   UNL A   1      34.503  34.953  29.433  1.00  0.00     0.116 C 
BRANCH  35  36
ATOM     36  N   UNL A   1      33.599  35.559  30.417  1.00  0.00    -0.352 N 
ATOM     37  C   UNL A   1      33.404  35.138  31.728  1.00  0.00     0.251 C 
ATOM     38  H   UNL A   1      33.078  36.340  30.119  1.00  0.00     0.163 HD
ATOM     39  O   UNL A   1      32.425  35.436  32.383  1.00  0.00    -0.269 OA
BRANCH  37  40
ATOM     40  C   UNL A   1      34.474  34.297  32.297  1.00  0.00     0.039 A 
ATOM     41  C   UNL A   1      34.481  32.917  32.092  1.00  0.00     0.014 A 
ATOM     42  C   UNL A   1      35.602  34.978  32.740  1.00  0.00     0.014 A 
ATOM     43  C   UNL A   1      35.694  32.233  32.190  1.00  0.00     0.010 A 
ATOM     44  C   UNL A   1      36.812  34.317  32.712  1.00  0.00     0.010 A 
ATOM     45  C   UNL A   1      36.883  32.945  32.430  1.00  0.00    -0.014 A 
BRANCH  45  46
ATOM     46  C   UNL A   1      38.191  32.298  32.213  1.00  0.00     0.031 A 
ATOM     47  C   UNL A   1      39.032  31.984  33.418  1.00  0.00     0.074 A 
ATOM     48  C   UNL A   1      38.576  31.751  31.038  1.00  0.00     0.049 A 
ATOM     49  N   UNL A   1      40.255  32.350  33.645  1.00  0.00    -0.248 NA
ATOM     50  C   UNL A   1      38.455  31.170  34.499  1.00  0.00     0.031 C 
ATOM     51  C   UNL A   1      37.836  31.672  29.776  1.00  0.00     0.029 A 
ATOM     52  N   UNL A   1      39.702  31.024  30.773  1.00  0.00    -0.354 N 
ATOM     53  C   UNL A   1      40.660  31.715  34.820  1.00  0.00     0.074 A 
ATOM     54  C   UNL A   1      39.484  31.066  35.346  1.00  0.00     0.031 C 
ATOM     55  C   UNL A   1      38.398  30.741  28.979  1.00  0.00     0.029 A 
ATOM     56  C   UNL A   1      39.641  30.308  29.587  1.00  0.00     0.049 A 
ATOM     57  H   UNL A   1      40.485  31.008  31.370  1.00  0.00     0.167 HD
ATOM     58  C   UNL A   1      41.972  31.643  35.189  1.00  0.00     0.037 A 
ATOM     59  C   UNL A   1      40.545  29.423  29.111  1.00  0.00     0.037 A 
ATOM     60  C   UNL A   1      42.781  32.589  34.468  1.00  0.00     0.049 A 
ATOM     61  C   UNL A   1      41.846  29.731  29.744  1.00  0.00     0.074 A 
ATOM     62  C   UNL A   1      42.776  33.964  34.319  1.00  0.00     0.029 A 
ATOM     63  N   UNL A   1      43.620  32.129  33.484  1.00  0.00    -0.354 N 
ATOM     64  N   UNL A   1      42.534  30.810  29.499  1.00  0.00    -0.248 NA
ATOM     65  C   UNL A   1      42.217  29.015  30.954  1.00  0.00     0.031 C 
ATOM     66  C   UNL A   1      43.160  34.186  32.962  1.00  0.00     0.029 A 
ATOM     67  C   UNL A   1      43.413  32.936  32.397  1.00  0.00     0.049 A 
ATOM     68  H   UNL A   1      44.245  31.371  33.548  1.00  0.00     0.167 HD
ATOM     69  C   UNL A   1      43.103  31.146  30.716  1.00  0.00     0.074 A 
ATOM     70  C   UNL A   1      42.986  29.942  31.531  1.00  0.00     0.031 C 
ATOM     71  C   UNL A   1      43.355  32.447  31.041  1.00  0.00     0.037 A 
BRANCH  58  72
ATOM     72  C   UNL A   1      42.606  30.525  35.987  1.00  0.00     0.064 A 
ATOM     73  C   UNL A   1      43.481  30.838  37.053  1.00  0.00     0.173 A 
ATOM     74  C   UNL A   1      42.637  29.184  35.553  1.00  0.00     0.173 A 
ATOM     75  F   UNL A   1      43.549  32.087  37.539  1.00  0.00    -0.203 F 
ATOM     76  C   UNL A   1      44.377  29.902  37.577  1.00  0.00     0.198 A 
ATOM     77  C   UNL A   1      43.497  28.239  36.116  1.00  0.00     0.198 A 
ATOM     78  F   UNL A   1      41.923  28.769  34.500  1.00  0.00    -0.203 F 
ATOM     79  F   UNL A   1      45.277  30.282  38.495  1.00  0.00    -0.200 F 
ATOM     80  C   UNL A   1      44.390  28.605  37.103  1.00  0.00     0.200 A 
ATOM     81  F   UNL A   1      43.507  26.988  35.633  1.00  0.00    -0.200 F 
ATOM     82  F   UNL A   1      45.291  27.723  37.557  1.00  0.00    -0.200 F 
ENDBRANCH  58  72
BRANCH  59  83
ATOM     83  C   UNL A   1      40.314  28.257  28.234  1.00  0.00     0.064 A 
ATOM     84  C   UNL A   1      40.953  28.138  26.992  1.00  0.00     0.173 A 
ATOM     85  C   UNL A   1      39.642  27.112  28.710  1.00  0.00     0.173 A 
ATOM     86  F   UNL A   1      41.650  29.167  26.489  1.00  0.00    -0.203 F 
ATOM     87  C   UNL A   1      40.934  26.939  26.273  1.00  0.00     0.198 A 
ATOM     88  C   UNL A   1      39.615  25.920  27.986  1.00  0.00     0.198 A 
ATOM     89  F   UNL A   1      39.072  27.103  29.924  1.00  0.00    -0.203 F 
ATOM     90  F   UNL A   1      41.603  26.845  25.116  1.00  0.00    -0.200 F 
ATOM     91  C   UNL A   1      40.272  25.830  26.775  1.00  0.00     0.200 A 
ATOM     92  F   UNL A   1      38.995  24.847  28.498  1.00  0.00    -0.200 F 
ATOM     93  F   UNL A   1      40.301  24.666  26.111  1.00  0.00    -0.200 F 
ENDBRANCH  59  83
BRANCH  71  94
ATOM     94  C   UNL A   1      43.281  33.477  29.950  1.00  0.00     0.064 A 
ATOM     95  C   UNL A   1      42.115  34.195  29.629  1.00  0.00     0.173 A 
ATOM     96  C   UNL A   1      44.464  33.847  29.297  1.00  0.00     0.173 A 
ATOM     97  F   UNL A   1      40.971  33.982  30.286  1.00  0.00    -0.203 F 
ATOM     98  C   UNL A   1      42.124  35.195  28.659  1.00  0.00     0.198 A 
ATOM     99  C   UNL A   1      44.478  34.873  28.356  1.00  0.00     0.198 A 
ATOM    100  F   UNL A   1      45.621  33.241  29.608  1.00  0.00    -0.203 F 
ATOM    101  F   UNL A   1      40.993  35.850  28.360  1.00  0.00    -0.200 F 
ATOM    102  C   UNL A   1      43.307  35.536  28.026  1.00  0.00     0.200 A 
ATOM    103  F   UNL A   1      45.635  35.235  27.783  1.00  0.00    -0.200 F 
ATOM    104  F   UNL A   1      43.324  36.523  27.120  1.00  0.00    -0.200 F 
ENDBRANCH  71  94
ENDBRANCH  45  46
ENDBRANCH  37  40
ENDBRANCH  35  36
ENDBRANCH  34  35
ENDBRANCH  33  34
ENDBRANCH  32  33
ENDBRANCH  31  32
ENDBRANCH   1  31
TORSDOF 19
ENDMDL
MODEL 3
REMARK VINA RESULT:     -12.0      1.740      2.452
REMARK SMILES O=C(CCC(=O)N1Cc2[nH]cnc2C[C@H]1C(=O)NCc1ccccc1)NCCCCCCNC(=O)c1ccc(-c2c3nc(c(-c4c(F)c(F)c(F)c(F)c4F)c4ccc([nH]4)c(-c4c(F)c(F)c(F)c(F)c4F)c4nc(c(-c5c(F)c(F)c(F)c(F)c5F)c5ccc2[nH]5)C=C4)C=C3)cc1
REMARK SMILES IDX 27 1 26 2 1 3 2 4 3 6 4 7 5 8 6 9 7 10 8 11 15 12 9 13 14 14
REMARK SMILES IDX 10 15 13 16 11 17 12 19 16 20 17 21 18 22 19 24 20 25 21 26
REMARK SMILES IDX 25 27 22 28 24 29 23 30 28 31 29 32 30 33 31 34 32 35 33 36
REMARK SMILES IDX 34 37 35 39 36 40 37 41 98 42 38 43 97 44 39 45 40 46 41 47
REMARK SMILES IDX 91 48 42 49 96 50 90 51 92 52 43 53 95 54 89 55 88 56 44 58
REMARK SMILES IDX 76 59 56 60 75 61 57 62 60 63 74 64 93 65 58 66 59 67 73 69
REMARK SMILES IDX 94 70 61 71 45 72 46 73 54 74 47 75 48 76 52 77 55 78 49 79
REMARK SMILES IDX 50 80 53 81 51 82 77 83 78 84 86 85 79 86 80 87 84 88 87 89
REMARK SMILES IDX 81 90 82 91 85 92 83 93 62 94 63 95 71 96 64 97 65 98 69 99
REMARK SMILES IDX 72 100 66 101 67 102 70 103 68 104
REMARK H PARENT 26 5 10 18 18 23 33 38 92 57 60 68
REMARK Flexibility Score: inf
ROOT
ATOM      1  C   UNL A   1      33.466  28.836  27.141  1.00  0.00     0.116 C 
ENDROOT
BRANCH   1   2
ATOM      2  N   UNL A   1      32.883  28.174  25.974  1.00  0.00    -0.356 N 
ATOM      3  O   UNL A   1      31.515  26.835  27.244  1.00  0.00    -0.275 OA
ATOM      4  C   UNL A   1      31.827  27.277  26.142  1.00  0.00     0.220 C 
ATOM      5  H   UNL A   1      33.235  28.360  25.074  1.00  0.00     0.163 HD
BRANCH   4   6
ATOM      6  C   UNL A   1      30.991  26.966  24.890  1.00  0.00     0.110 C 
BRANCH   6   7
ATOM      7  C   UNL A   1      31.446  25.663  24.179  1.00  0.00     0.110 C 
BRANCH   7   8
ATOM      8  C   UNL A   1      32.968  25.396  24.111  1.00  0.00     0.224 C 
ATOM      9  O   UNL A   1      33.689  26.156  23.461  1.00  0.00    -0.275 OA
BRANCH   8  10
ATOM     10  N   UNL A   1      33.503  24.314  24.803  1.00  0.00    -0.324 N 
ATOM     11  C   UNL A   1      34.482  24.518  25.898  1.00  0.00     0.176 C 
ATOM     12  C   UNL A   1      33.423  22.950  24.261  1.00  0.00     0.180 C 
ATOM     13  C   UNL A   1      35.706  23.715  25.580  1.00  0.00     0.058 A 
ATOM     14  C   UNL A   1      34.750  22.650  23.572  1.00  0.00     0.093 C 
ATOM     15  N   UNL A   1      36.865  23.547  26.290  1.00  0.00    -0.347 N 
ATOM     16  C   UNL A   1      35.842  22.854  24.519  1.00  0.00     0.066 A 
ATOM     17  C   UNL A   1      37.611  22.596  25.631  1.00  0.00     0.197 A 
ATOM     18  H   UNL A   1      37.117  24.019  27.118  1.00  0.00     0.167 HD
ATOM     19  N   UNL A   1      37.009  22.163  24.547  1.00  0.00    -0.242 NA
BRANCH  12  20
ATOM     20  C   UNL A   1      32.551  21.916  25.010  1.00  0.00     0.243 C 
ATOM     21  O   UNL A   1      32.218  22.172  26.179  1.00  0.00    -0.273 OA
ATOM     22  N   UNL A   1      32.121  20.719  24.579  1.00  0.00    -0.350 N 
ATOM     23  H   UNL A   1      31.447  20.326  25.179  1.00  0.00     0.163 HD
BRANCH  22  24
ATOM     24  C   UNL A   1      32.410  19.870  23.450  1.00  0.00     0.151 C 
BRANCH  24  25
ATOM     25  C   UNL A   1      32.796  18.495  23.937  1.00  0.00    -0.029 A 
ATOM     26  C   UNL A   1      33.500  17.615  23.108  1.00  0.00     0.005 A 
ATOM     27  C   UNL A   1      32.523  18.102  25.257  1.00  0.00     0.005 A 
ATOM     28  C   UNL A   1      33.931  16.376  23.580  1.00  0.00     0.000 A 
ATOM     29  C   UNL A   1      32.949  16.860  25.728  1.00  0.00     0.000 A 
ATOM     30  C   UNL A   1      33.656  16.000  24.891  1.00  0.00     0.000 A 
ENDBRANCH  24  25
ENDBRANCH  22  24
ENDBRANCH  12  20
ENDBRANCH   8  10
ENDBRANCH   7   8
ENDBRANCH   6   7
ENDBRANCH   4   6
ENDBRANCH   1   2
BRANCH   1  31
ATOM     31  C   UNL A   1      33.340  30.373  27.247  1.00  0.00     0.021 C 
BRANCH  31  32
ATOM     32  C   UNL A   1      34.553  31.260  27.621  1.00  0.00     0.002 C 
BRANCH  32  33
ATOM     33  C   UNL A   1      34.413  32.228  28.815  1.00  0.00     0.002 C 
BRANCH  33  34
ATOM     34  C   UNL A   1      33.805  33.613  28.615  1.00  0.00     0.021 C 
BRANCH  34  35
ATOM     35  C   UNL A   1      34.386  34.733  29.472  1.00  0.00     0.116 C 
BRANCH  35  36
ATOM     36  N   UNL A   1      33.463  35.347  30.434  1.00  0.00    -0.352 N 
ATOM     37  C   UNL A   1      33.324  35.008  31.776  1.00  0.00     0.251 C 
ATOM     38  H   UNL A   1      32.885  36.069  30.096  1.00  0.00     0.163 HD
ATOM     39  O   UNL A   1      32.341  35.287  32.433  1.00  0.00    -0.269 OA
BRANCH  37  40
ATOM     40  C   UNL A   1      34.460  34.282  32.375  1.00  0.00     0.039 A 
ATOM     41  C   UNL A   1      34.483  32.887  32.395  1.00  0.00     0.014 A 
ATOM     42  C   UNL A   1      35.604  35.037  32.601  1.00  0.00     0.014 A 
ATOM     43  C   UNL A   1      35.717  32.241  32.493  1.00  0.00     0.010 A 
ATOM     44  C   UNL A   1      36.824  34.393  32.571  1.00  0.00     0.010 A 
ATOM     45  C   UNL A   1      36.904  32.994  32.508  1.00  0.00    -0.014 A 
BRANCH  45  46
ATOM     46  C   UNL A   1      38.204  32.335  32.282  1.00  0.00     0.031 A 
ATOM     47  C   UNL A   1      39.055  32.020  33.480  1.00  0.00     0.074 A 
ATOM     48  C   UNL A   1      38.572  31.777  31.107  1.00  0.00     0.049 A 
ATOM     49  N   UNL A   1      40.283  32.377  33.692  1.00  0.00    -0.248 NA
ATOM     50  C   UNL A   1      38.482  31.219  34.572  1.00  0.00     0.031 C 
ATOM     51  C   UNL A   1      37.818  31.695  29.853  1.00  0.00     0.029 A 
ATOM     52  N   UNL A   1      39.689  31.037  30.835  1.00  0.00    -0.354 N 
ATOM     53  C   UNL A   1      40.694  31.746  34.867  1.00  0.00     0.074 A 
ATOM     54  C   UNL A   1      39.518  31.111  35.410  1.00  0.00     0.031 C 
ATOM     55  C   UNL A   1      38.364  30.755  29.056  1.00  0.00     0.029 A 
ATOM     56  C   UNL A   1      39.609  30.315  29.654  1.00  0.00     0.049 A 
ATOM     57  H   UNL A   1      40.477  31.019  31.424  1.00  0.00     0.167 HD
ATOM     58  C   UNL A   1      42.010  31.664  35.223  1.00  0.00     0.037 A 
ATOM     59  C   UNL A   1      40.500  29.418  29.175  1.00  0.00     0.037 A 
ATOM     60  C   UNL A   1      42.819  32.599  34.488  1.00  0.00     0.049 A 
ATOM     61  C   UNL A   1      41.810  29.719  29.793  1.00  0.00     0.074 A 
ATOM     62  C   UNL A   1      42.825  33.973  34.330  1.00  0.00     0.029 A 
ATOM     63  N   UNL A   1      43.644  32.125  33.499  1.00  0.00    -0.354 N 
ATOM     64  N   UNL A   1      42.506  30.790  29.533  1.00  0.00    -0.248 NA
ATOM     65  C   UNL A   1      42.188  29.007  31.003  1.00  0.00     0.031 C 
ATOM     66  C   UNL A   1      43.197  34.183  32.968  1.00  0.00     0.029 A 
ATOM     67  C   UNL A   1      43.433  32.927  32.408  1.00  0.00     0.049 A 
ATOM     68  H   UNL A   1      44.263  31.362  33.561  1.00  0.00     0.167 HD
ATOM     69  C   UNL A   1      43.089  31.129  30.742  1.00  0.00     0.074 A 
ATOM     70  C   UNL A   1      42.971  29.931  31.567  1.00  0.00     0.031 C 
ATOM     71  C   UNL A   1      43.356  32.430  31.056  1.00  0.00     0.037 A 
BRANCH  58  72
ATOM     72  C   UNL A   1      42.642  30.546  36.022  1.00  0.00     0.064 A 
ATOM     73  C   UNL A   1      43.528  30.858  37.079  1.00  0.00     0.173 A 
ATOM     74  C   UNL A   1      42.660  29.203  35.595  1.00  0.00     0.173 A 
ATOM     75  F   UNL A   1      43.609  32.109  37.558  1.00  0.00    -0.203 F 
ATOM     76  C   UNL A   1      44.421  29.918  37.601  1.00  0.00     0.198 A 
ATOM     77  C   UNL A   1      43.517  28.254  36.156  1.00  0.00     0.198 A 
ATOM     78  F   UNL A   1      41.934  28.788  34.550  1.00  0.00    -0.203 F 
ATOM     79  F   UNL A   1      45.332  30.297  38.510  1.00  0.00    -0.200 F 
ATOM     80  C   UNL A   1      44.421  28.619  37.134  1.00  0.00     0.200 A 
ATOM     81  F   UNL A   1      43.513  27.001  35.680  1.00  0.00    -0.200 F 
ATOM     82  F   UNL A   1      45.318  27.733  37.585  1.00  0.00    -0.200 F 
ENDBRANCH  58  72
BRANCH  59  83
ATOM     83  C   UNL A   1      40.250  28.249  28.308  1.00  0.00     0.064 A 
ATOM     84  C   UNL A   1      40.872  28.118  27.059  1.00  0.00     0.173 A 
ATOM     85  C   UNL A   1      39.575  27.112  28.799  1.00  0.00     0.173 A 
ATOM     86  F   UNL A   1      41.570  29.139  26.541  1.00  0.00    -0.203 F 
ATOM     87  C   UNL A   1      40.836  26.914  26.347  1.00  0.00     0.198 A 
ATOM     88  C   UNL A   1      39.530  25.916  28.083  1.00  0.00     0.198 A 
ATOM     89  F   UNL A   1      39.021  27.114  30.021  1.00  0.00    -0.203 F 
ATOM     90  F   UNL A   1      41.489  26.809  25.183  1.00  0.00    -0.200 F 
ATOM     91  C   UNL A   1      40.172  25.813  26.864  1.00  0.00     0.200 A 
ATOM     92  F   UNL A   1      38.910  24.850  28.609  1.00  0.00    -0.200 F 
ATOM     93  F   UNL A   1      40.184  24.646  26.207  1.00  0.00    -0.200 F 
ENDBRANCH  59  83
BRANCH  71  94
ATOM     94  C   UNL A   1      43.280  33.453  29.959  1.00  0.00     0.064 A 
ATOM     95  C   UNL A   1      42.111  34.160  29.628  1.00  0.00     0.173 A 
ATOM     96  C   UNL A   1      44.464  33.830  29.311  1.00  0.00     0.173 A 
ATOM     97  F   UNL A   1      40.964  33.941  30.279  1.00  0.00    -0.203 F 
ATOM     98  C   UNL A   1      42.117  35.154  28.652  1.00  0.00     0.198 A 
ATOM     99  C   UNL A   1      44.476  34.850  28.364  1.00  0.00     0.198 A 
ATOM    100  F   UNL A   1      45.624  33.235  29.632  1.00  0.00    -0.203 F 
ATOM    101  F   UNL A   1      40.982  35.799  28.343  1.00  0.00    -0.200 F 
ATOM    102  C   UNL A   1      43.301  35.502  28.025  1.00  0.00     0.200 A 
ATOM    103  F   UNL A   1      45.633  35.219  27.797  1.00  0.00    -0.200 F 
ATOM    104  F   UNL A   1      43.315  36.484  27.113  1.00  0.00    -0.200 F 
ENDBRANCH  71  94
ENDBRANCH  45  46
ENDBRANCH  37  40
ENDBRANCH  35  36
ENDBRANCH  34  35
ENDBRANCH  33  34
ENDBRANCH  32  33
ENDBRANCH  31  32
ENDBRANCH   1  31
TORSDOF 19
ENDMDL
