MODEL 1
REMARK VINA RESULT:     -11.8      0.000      0.000
REMARK SMILES CC(=O)N[C@@H](CS[C@H]1CC(=O)N(c2ccc(Cl)cc2Cl)C1=O)C(=O)NCCCCCCNC(=O)c1ccc(-c2c3nc(c(-c4c(F)c(F)c(F)c(F)c4F)c4ccc([nH]4)c(-c4c(F)c(F)c(F)c(F)c4F)c4nc(c(-c5c(F)c(F)c(F)c(F)c5F)c5ccc2[nH]5)C=C4)C=C3)cc1
REMARK SMILES IDX 27 1 26 2 25 3 23 4 24 5 5 7 4 8 1 9 2 10 3 11 6 13 7 14
REMARK SMILES IDX 8 15 9 16 21 17 10 18 12 19 22 20 11 21 13 22 14 23 19 24
REMARK SMILES IDX 15 25 18 26 20 27 16 28 17 29 28 30 29 31 30 32 31 33 32 34
REMARK SMILES IDX 33 35 34 37 35 38 36 39 97 40 37 41 96 42 38 43 39 44 40 45
REMARK SMILES IDX 90 46 41 47 95 48 89 49 91 50 42 51 94 52 88 53 87 54 43 56
REMARK SMILES IDX 75 57 55 58 74 59 56 60 59 61 73 62 92 63 57 64 58 65 72 67
REMARK SMILES IDX 93 68 60 69 44 70 45 71 53 72 46 73 47 74 51 75 54 76 48 77
REMARK SMILES IDX 49 78 52 79 50 80 76 81 77 82 85 83 78 84 79 85 83 86 86 87
REMARK SMILES IDX 80 88 81 89 84 90 82 91 61 92 62 93 70 94 63 95 64 96 68 97
REMARK SMILES IDX 71 98 65 99 66 100 69 101 67 102
REMARK H PARENT 25 6 4 12 32 36 91 55 59 66
REMARK Flexibility Score: inf
ROOT
ATOM      1  C   UNL A   1      33.702  31.708  27.650  1.00  0.00     0.021 C 
ENDROOT
BRANCH   1   2
ATOM      2  C   UNL A   1      33.672  30.255  27.173  1.00  0.00     0.116 C 
BRANCH   2   3
ATOM      3  N   UNL A   1      32.504  29.516  27.619  1.00  0.00    -0.354 N 
ATOM      4  C   UNL A   1      31.674  28.668  26.943  1.00  0.00     0.243 C 
ATOM      5  O   UNL A   1      31.028  27.867  27.631  1.00  0.00    -0.273 OA
ATOM      6  H   UNL A   1      32.271  29.647  28.567  1.00  0.00     0.163 HD
BRANCH   4   7
ATOM      7  C   UNL A   1      31.640  28.531  25.406  1.00  0.00     0.181 C 
BRANCH   7   8
ATOM      8  N   UNL A   1      31.079  29.681  24.705  1.00  0.00    -0.344 N 
ATOM      9  C   UNL A   1      29.645  28.342  23.196  1.00  0.00     0.114 C 
ATOM     10  C   UNL A   1      30.076  29.666  23.775  1.00  0.00     0.217 C 
ATOM     11  O   UNL A   1      29.575  30.727  23.413  1.00  0.00    -0.275 OA
ATOM     12  H   UNL A   1      31.462  30.561  24.924  1.00  0.00     0.164 HD
ENDBRANCH   7   8
BRANCH   7  13
ATOM     13  C   UNL A   1      32.938  28.000  24.766  1.00  0.00     0.105 C 
BRANCH  13  14
ATOM     14  S   UNL A   1      33.875  26.649  25.575  1.00  0.00    -0.145 SA
BRANCH  14  15
ATOM     15  C   UNL A   1      33.278  25.211  24.629  1.00  0.00     0.146 C 
ATOM     16  C   UNL A   1      33.790  25.122  23.202  1.00  0.00     0.125 C 
ATOM     17  C   UNL A   1      33.674  23.875  25.220  1.00  0.00     0.247 C 
ATOM     18  C   UNL A   1      33.757  23.648  22.944  1.00  0.00     0.235 C 
ATOM     19  N   UNL A   1      33.794  23.011  24.157  1.00  0.00    -0.248 N 
ATOM     20  O   UNL A   1      33.750  23.601  26.408  1.00  0.00    -0.273 OA
ATOM     21  O   UNL A   1      33.763  23.143  21.831  1.00  0.00    -0.274 OA
BRANCH  19  22
ATOM     22  C   UNL A   1      33.782  21.615  24.285  1.00  0.00     0.070 A 
ATOM     23  C   UNL A   1      32.574  20.934  24.106  1.00  0.00     0.030 A 
ATOM     24  C   UNL A   1      34.939  20.903  24.646  1.00  0.00     0.066 A 
ATOM     25  C   UNL A   1      32.522  19.552  24.295  1.00  0.00     0.023 A 
ATOM     26  C   UNL A   1      34.888  19.520  24.821  1.00  0.00     0.043 A 
ATOM     27  Cl  UNL A   1      36.451  21.700  24.902  1.00  0.00    -0.082 Cl
ATOM     28  C   UNL A   1      33.676  18.853  24.650  1.00  0.00     0.042 A 
ATOM     29  Cl  UNL A   1      33.599  17.152  24.894  1.00  0.00    -0.084 Cl
ENDBRANCH  19  22
ENDBRANCH  14  15
ENDBRANCH  13  14
ENDBRANCH   7  13
ENDBRANCH   4   7
ENDBRANCH   2   3
ENDBRANCH   1   2
BRANCH   1  30
ATOM     30  C   UNL A   1      34.844  32.103  28.593  1.00  0.00     0.002 C 
BRANCH  30  31
ATOM     31  C   UNL A   1      34.669  33.395  29.391  1.00  0.00     0.002 C 
BRANCH  31  32
ATOM     32  C   UNL A   1      33.582  34.361  28.920  1.00  0.00     0.021 C 
BRANCH  32  33
ATOM     33  C   UNL A   1      33.644  35.773  29.488  1.00  0.00     0.116 C 
BRANCH  33  34
ATOM     34  N   UNL A   1      32.631  36.045  30.494  1.00  0.00    -0.352 N 
ATOM     35  C   UNL A   1      32.632  35.745  31.835  1.00  0.00     0.251 C 
ATOM     36  H   UNL A   1      31.828  36.512  30.167  1.00  0.00     0.163 HD
ATOM     37  O   UNL A   1      31.643  35.980  32.522  1.00  0.00    -0.269 OA
BRANCH  35  38
ATOM     38  C   UNL A   1      33.812  35.093  32.449  1.00  0.00     0.039 A 
ATOM     39  C   UNL A   1      33.660  33.813  32.994  1.00  0.00     0.014 A 
ATOM     40  C   UNL A   1      35.061  35.719  32.474  1.00  0.00     0.014 A 
ATOM     41  C   UNL A   1      34.776  33.126  33.476  1.00  0.00     0.010 A 
ATOM     42  C   UNL A   1      36.183  35.010  32.897  1.00  0.00     0.010 A 
ATOM     43  C   UNL A   1      36.054  33.701  33.387  1.00  0.00    -0.014 A 
BRANCH  43  44
ATOM     44  C   UNL A   1      37.272  32.932  33.748  1.00  0.00     0.031 A 
ATOM     45  C   UNL A   1      38.022  33.238  35.012  1.00  0.00     0.074 A 
ATOM     46  C   UNL A   1      37.748  32.011  32.888  1.00  0.00     0.049 A 
ATOM     47  N   UNL A   1      39.152  32.739  35.446  1.00  0.00    -0.248 NA
ATOM     48  C   UNL A   1      37.436  34.259  35.895  1.00  0.00     0.031 C 
ATOM     49  C   UNL A   1      37.136  31.655  31.607  1.00  0.00     0.029 A 
ATOM     50  N   UNL A   1      38.866  31.216  32.953  1.00  0.00    -0.354 N 
ATOM     51  C   UNL A   1      39.419  33.390  36.643  1.00  0.00     0.074 A 
ATOM     52  C   UNL A   1      38.355  34.352  36.846  1.00  0.00     0.031 C 
ATOM     53  C   UNL A   1      37.877  30.707  31.012  1.00  0.00     0.029 A 
ATOM     54  C   UNL A   1      39.036  30.415  31.849  1.00  0.00     0.049 A 
ATOM     55  H   UNL A   1      39.487  31.220  33.717  1.00  0.00     0.167 HD
ATOM     56  C   UNL A   1      40.447  33.190  37.501  1.00  0.00     0.037 A 
ATOM     57  C   UNL A   1      40.023  29.553  31.540  1.00  0.00     0.037 A 
ATOM     58  C   UNL A   1      41.492  32.219  37.305  1.00  0.00     0.049 A 
ATOM     59  C   UNL A   1      41.164  29.365  32.501  1.00  0.00     0.074 A 
ATOM     60  C   UNL A   1      42.535  31.890  38.153  1.00  0.00     0.029 A 
ATOM     61  N   UNL A   1      41.629  31.422  36.176  1.00  0.00    -0.354 N 
ATOM     62  N   UNL A   1      41.368  29.936  33.662  1.00  0.00    -0.248 NA
ATOM     63  C   UNL A   1      42.211  28.413  32.107  1.00  0.00     0.031 C 
ATOM     64  C   UNL A   1      43.330  30.929  37.518  1.00  0.00     0.029 A 
ATOM     65  C   UNL A   1      42.758  30.627  36.294  1.00  0.00     0.049 A 
ATOM     66  H   UNL A   1      41.016  31.424  35.407  1.00  0.00     0.167 HD
ATOM     67  C   UNL A   1      42.556  29.404  34.145  1.00  0.00     0.074 A 
ATOM     68  C   UNL A   1      43.016  28.448  33.160  1.00  0.00     0.031 C 
ATOM     69  C   UNL A   1      43.207  29.686  35.300  1.00  0.00     0.037 A 
BRANCH  56  70
ATOM     70  C   UNL A   1      40.494  34.038  38.738  1.00  0.00     0.064 A 
ATOM     71  C   UNL A   1      39.858  33.642  39.923  1.00  0.00     0.173 A 
ATOM     72  C   UNL A   1      41.219  35.239  38.750  1.00  0.00     0.173 A 
ATOM     73  F   UNL A   1      39.144  32.507  39.960  1.00  0.00    -0.203 F 
ATOM     74  C   UNL A   1      39.925  34.429  41.070  1.00  0.00     0.198 A 
ATOM     75  C   UNL A   1      41.306  36.010  39.907  1.00  0.00     0.198 A 
ATOM     76  F   UNL A   1      41.851  35.661  37.644  1.00  0.00    -0.203 F 
ATOM     77  F   UNL A   1      39.274  34.052  42.180  1.00  0.00    -0.200 F 
ATOM     78  C   UNL A   1      40.654  35.609  41.063  1.00  0.00     0.200 A 
ATOM     79  F   UNL A   1      42.022  37.144  39.901  1.00  0.00    -0.200 F 
ATOM     80  F   UNL A   1      40.724  36.362  42.169  1.00  0.00    -0.200 F 
ENDBRANCH  56  70
BRANCH  57  81
ATOM     81  C   UNL A   1      39.971  28.797  30.262  1.00  0.00     0.064 A 
ATOM     82  C   UNL A   1      39.384  27.525  30.204  1.00  0.00     0.173 A 
ATOM     83  C   UNL A   1      40.504  29.325  29.078  1.00  0.00     0.173 A 
ATOM     84  F   UNL A   1      38.882  26.969  31.317  1.00  0.00    -0.203 F 
ATOM     85  C   UNL A   1      39.343  26.805  29.013  1.00  0.00     0.198 A 
ATOM     86  C   UNL A   1      40.440  28.615  27.881  1.00  0.00     0.198 A 
ATOM     87  F   UNL A   1      41.076  30.538  29.081  1.00  0.00    -0.203 F 
ATOM     88  F   UNL A   1      38.812  25.576  28.994  1.00  0.00    -0.200 F 
ATOM     89  C   UNL A   1      39.865  27.353  27.851  1.00  0.00     0.200 A 
ATOM     90  F   UNL A   1      40.935  29.152  26.757  1.00  0.00    -0.200 F 
ATOM     91  F   UNL A   1      39.822  26.663  26.704  1.00  0.00    -0.200 F 
ENDBRANCH  57  81
BRANCH  69  92
ATOM     92  C   UNL A   1      44.485  28.944  35.562  1.00  0.00     0.064 A 
ATOM     93  C   UNL A   1      45.725  29.455  35.152  1.00  0.00     0.173 A 
ATOM     94  C   UNL A   1      44.472  27.726  36.259  1.00  0.00     0.173 A 
ATOM     95  F   UNL A   1      45.786  30.607  34.467  1.00  0.00    -0.203 F 
ATOM     96  C   UNL A   1      46.904  28.764  35.412  1.00  0.00     0.198 A 
ATOM     97  C   UNL A   1      45.657  27.051  36.541  1.00  0.00     0.198 A 
ATOM     98  F   UNL A   1      43.313  27.197  36.675  1.00  0.00    -0.203 F 
ATOM     99  F   UNL A   1      48.074  29.249  34.973  1.00  0.00    -0.200 F 
ATOM    100  C   UNL A   1      46.871  27.567  36.112  1.00  0.00     0.200 A 
ATOM    101  F   UNL A   1      45.624  25.901  37.226  1.00  0.00    -0.200 F 
ATOM    102  F   UNL A   1      48.008  26.906  36.367  1.00  0.00    -0.200 F 
ENDBRANCH  69  92
ENDBRANCH  43  44
ENDBRANCH  35  38
ENDBRANCH  33  34
ENDBRANCH  32  33
ENDBRANCH  31  32
ENDBRANCH  30  31
ENDBRANCH   1  30
TORSDOF 18
ENDMDL
MODEL 2
REMARK VINA RESULT:     -11.6      1.701      2.659
REMARK SMILES CC(=O)N[C@@H](CS[C@H]1CC(=O)N(c2ccc(Cl)cc2Cl)C1=O)C(=O)NCCCCCCNC(=O)c1ccc(-c2c3nc(c(-c4c(F)c(F)c(F)c(F)c4F)c4ccc([nH]4)c(-c4c(F)c(F)c(F)c(F)c4F)c4nc(c(-c5c(F)c(F)c(F)c(F)c5F)c5ccc2[nH]5)C=C4)C=C3)cc1
REMARK SMILES IDX 27 1 26 2 25 3 23 4 24 5 5 7 4 8 1 9 2 10 3 11 6 13 7 14
REMARK SMILES IDX 8 15 9 16 21 17 10 18 12 19 22 20 11 21 13 22 14 23 19 24
REMARK SMILES IDX 15 25 18 26 20 27 16 28 17 29 28 30 29 31 30 32 31 33 32 34
REMARK SMILES IDX 33 35 34 37 35 38 36 39 97 40 37 41 96 42 38 43 39 44 40 45
REMARK SMILES IDX 90 46 41 47 95 48 89 49 91 50 42 51 94 52 88 53 87 54 43 56
REMARK SMILES IDX 75 57 55 58 74 59 56 60 59 61 73 62 92 63 57 64 58 65 72 67
REMARK SMILES IDX 93 68 60 69 44 70 45 71 53 72 46 73 47 74 51 75 54 76 48 77
REMARK SMILES IDX 49 78 52 79 50 80 76 81 77 82 85 83 78 84 79 85 83 86 86 87
REMARK SMILES IDX 80 88 81 89 84 90 82 91 61 92 62 93 70 94 63 95 64 96 68 97
REMARK SMILES IDX 71 98 65 99 66 100 69 101 67 102
REMARK H PARENT 25 6 4 12 32 36 91 55 59 66
REMARK Flexibility Score: inf
ROOT
ATOM      1  C   UNL A   1      33.156  29.659  26.682  1.00  0.00     0.021 C 
ENDROOT
BRANCH   1   2
ATOM      2  C   UNL A   1      33.355  29.459  25.179  1.00  0.00     0.116 C 
BRANCH   2   3
ATOM      3  N   UNL A   1      32.123  29.517  24.411  1.00  0.00    -0.354 N 
ATOM      4  C   UNL A   1      31.247  28.531  24.055  1.00  0.00     0.243 C 
ATOM      5  O   UNL A   1      30.098  28.894  23.773  1.00  0.00    -0.273 OA
ATOM      6  H   UNL A   1      31.877  30.416  24.095  1.00  0.00     0.163 HD
BRANCH   4   7
ATOM      7  C   UNL A   1      31.551  27.022  24.163  1.00  0.00     0.181 C 
BRANCH   7   8
ATOM      8  N   UNL A   1      32.760  26.593  23.469  1.00  0.00    -0.344 N 
ATOM      9  C   UNL A   1      31.633  26.162  21.308  1.00  0.00     0.114 C 
ATOM     10  C   UNL A   1      32.885  26.307  22.138  1.00  0.00     0.217 C 
ATOM     11  O   UNL A   1      34.004  26.147  21.658  1.00  0.00    -0.275 OA
ATOM     12  H   UNL A   1      33.572  26.499  24.017  1.00  0.00     0.164 HD
ENDBRANCH   7   8
BRANCH   7  13
ATOM     13  C   UNL A   1      31.415  26.426  25.578  1.00  0.00     0.105 C 
BRANCH  13  14
ATOM     14  S   UNL A   1      30.105  25.194  25.935  1.00  0.00    -0.145 SA
BRANCH  14  15
ATOM     15  C   UNL A   1      30.859  23.689  25.240  1.00  0.00     0.146 C 
ATOM     16  C   UNL A   1      30.908  23.636  23.723  1.00  0.00     0.125 C 
ATOM     17  C   UNL A   1      32.305  23.482  25.638  1.00  0.00     0.247 C 
ATOM     18  C   UNL A   1      32.101  22.765  23.474  1.00  0.00     0.235 C 
ATOM     19  N   UNL A   1      32.896  22.817  24.590  1.00  0.00    -0.248 N 
ATOM     20  O   UNL A   1      32.805  23.747  26.721  1.00  0.00    -0.273 OA
ATOM     21  O   UNL A   1      32.320  22.181  22.423  1.00  0.00    -0.274 OA
BRANCH  19  22
ATOM     22  C   UNL A   1      34.105  22.115  24.696  1.00  0.00     0.070 A 
ATOM     23  C   UNL A   1      35.299  22.786  24.414  1.00  0.00     0.030 A 
ATOM     24  C   UNL A   1      34.130  20.747  25.016  1.00  0.00     0.066 A 
ATOM     25  C   UNL A   1      36.509  22.091  24.446  1.00  0.00     0.023 A 
ATOM     26  C   UNL A   1      35.342  20.057  25.061  1.00  0.00     0.043 A 
ATOM     27  Cl  UNL A   1      32.680  19.866  25.349  1.00  0.00    -0.082 Cl
ATOM     28  C   UNL A   1      36.525  20.733  24.769  1.00  0.00     0.042 A 
ATOM     29  Cl  UNL A   1      38.020  19.883  24.792  1.00  0.00    -0.084 Cl
ENDBRANCH  19  22
ENDBRANCH  14  15
ENDBRANCH  13  14
ENDBRANCH   7  13
ENDBRANCH   4   7
ENDBRANCH   2   3
ENDBRANCH   1   2
BRANCH   1  30
ATOM     30  C   UNL A   1      34.403  29.999  27.506  1.00  0.00     0.002 C 
BRANCH  30  31
ATOM     31  C   UNL A   1      34.445  31.379  28.163  1.00  0.00     0.002 C 
BRANCH  31  32
ATOM     32  C   UNL A   1      33.878  32.549  27.359  1.00  0.00     0.021 C 
BRANCH  32  33
ATOM     33  C   UNL A   1      32.496  33.041  27.771  1.00  0.00     0.116 C 
BRANCH  33  34
ATOM     34  N   UNL A   1      32.421  34.479  27.967  1.00  0.00    -0.352 N 
ATOM     35  C   UNL A   1      33.202  35.293  28.752  1.00  0.00     0.251 C 
ATOM     36  H   UNL A   1      31.708  34.936  27.465  1.00  0.00     0.163 HD
ATOM     37  O   UNL A   1      32.938  36.487  28.860  1.00  0.00    -0.269 OA
BRANCH  35  38
ATOM     38  C   UNL A   1      34.341  34.724  29.510  1.00  0.00     0.039 A 
ATOM     39  C   UNL A   1      34.080  34.070  30.719  1.00  0.00     0.014 A 
ATOM     40  C   UNL A   1      35.651  34.811  29.032  1.00  0.00     0.014 A 
ATOM     41  C   UNL A   1      35.115  33.425  31.399  1.00  0.00     0.010 A 
ATOM     42  C   UNL A   1      36.671  34.115  29.676  1.00  0.00     0.010 A 
ATOM     43  C   UNL A   1      36.411  33.401  30.856  1.00  0.00    -0.014 A 
BRANCH  43  44
ATOM     44  C   UNL A   1      37.490  32.594  31.477  1.00  0.00     0.031 A 
ATOM     45  C   UNL A   1      38.036  32.957  32.828  1.00  0.00     0.074 A 
ATOM     46  C   UNL A   1      38.039  31.580  30.780  1.00  0.00     0.049 A 
ATOM     47  N   UNL A   1      39.036  32.430  33.487  1.00  0.00    -0.248 NA
ATOM     48  C   UNL A   1      37.382  34.078  33.523  1.00  0.00     0.031 C 
ATOM     49  C   UNL A   1      37.629  31.158  29.439  1.00  0.00     0.029 A 
ATOM     50  N   UNL A   1      39.070  30.729  31.094  1.00  0.00    -0.354 N 
ATOM     51  C   UNL A   1      39.142  33.158  34.664  1.00  0.00     0.074 A 
ATOM     52  C   UNL A   1      38.131  34.193  34.611  1.00  0.00     0.031 C 
ATOM     53  C   UNL A   1      38.391  30.123  29.051  1.00  0.00     0.029 A 
ATOM     54  C   UNL A   1      39.366  29.833  30.096  1.00  0.00     0.049 A 
ATOM     55  H   UNL A   1      39.551  30.758  31.953  1.00  0.00     0.167 HD
ATOM     56  C   UNL A   1      39.993  32.968  35.700  1.00  0.00     0.037 A 
ATOM     57  C   UNL A   1      40.328  28.893  30.025  1.00  0.00     0.037 A 
ATOM     58  C   UNL A   1      40.983  31.925  35.758  1.00  0.00     0.049 A 
ATOM     59  C   UNL A   1      41.272  28.716  31.180  1.00  0.00     0.074 A 
ATOM     60  C   UNL A   1      41.841  31.605  36.796  1.00  0.00     0.029 A 
ATOM     61  N   UNL A   1      41.253  31.033  34.729  1.00  0.00    -0.354 N 
ATOM     62  N   UNL A   1      41.317  29.366  32.317  1.00  0.00    -0.248 NA
ATOM     63  C   UNL A   1      42.301  27.676  31.043  1.00  0.00     0.031 C 
ATOM     64  C   UNL A   1      42.661  30.551  36.378  1.00  0.00     0.029 A 
ATOM     65  C   UNL A   1      42.285  30.185  35.097  1.00  0.00     0.049 A 
ATOM     66  H   UNL A   1      40.781  31.009  33.866  1.00  0.00     0.167 HD
ATOM     67  C   UNL A   1      42.364  28.807  33.036  1.00  0.00     0.074 A 
ATOM     68  C   UNL A   1      42.915  27.749  32.215  1.00  0.00     0.031 C 
ATOM     69  C   UNL A   1      42.828  29.142  34.264  1.00  0.00     0.037 A 
BRANCH  56  70
ATOM     70  C   UNL A   1      39.890  33.909  36.864  1.00  0.00     0.064 A 
ATOM     71  C   UNL A   1      39.064  33.630  37.962  1.00  0.00     0.173 A 
ATOM     72  C   UNL A   1      40.658  35.082  36.902  1.00  0.00     0.173 A 
ATOM     73  F   UNL A   1      38.301  32.526  37.971  1.00  0.00    -0.203 F 
ATOM     74  C   UNL A   1      38.991  34.502  39.045  1.00  0.00     0.198 A 
ATOM     75  C   UNL A   1      40.603  35.939  37.998  1.00  0.00     0.198 A 
ATOM     76  F   UNL A   1      41.469  35.394  35.879  1.00  0.00    -0.203 F 
ATOM     77  F   UNL A   1      38.163  34.236  40.065  1.00  0.00    -0.200 F 
ATOM     78  C   UNL A   1      39.766  35.653  39.066  1.00  0.00     0.200 A 
ATOM     79  F   UNL A   1      41.362  37.044  38.021  1.00  0.00    -0.200 F 
ATOM     80  F   UNL A   1      39.701  36.487  40.111  1.00  0.00    -0.200 F 
ENDBRANCH  56  70
BRANCH  57  81
ATOM     81  C   UNL A   1      40.440  28.040  28.813  1.00  0.00     0.064 A 
ATOM     82  C   UNL A   1      41.221  28.443  27.721  1.00  0.00     0.173 A 
ATOM     83  C   UNL A   1      39.773  26.810  28.720  1.00  0.00     0.173 A 
ATOM     84  F   UNL A   1      41.858  29.623  27.754  1.00  0.00    -0.203 F 
ATOM     85  C   UNL A   1      41.320  27.655  26.577  1.00  0.00     0.198 A 
ATOM     86  C   UNL A   1      39.893  26.010  27.586  1.00  0.00     0.198 A 
ATOM     87  F   UNL A   1      39.014  26.379  29.739  1.00  0.00    -0.203 F 
ATOM     88  F   UNL A   1      42.041  28.082  25.532  1.00  0.00    -0.200 F 
ATOM     89  C   UNL A   1      40.662  26.436  26.513  1.00  0.00     0.200 A 
ATOM     90  F   UNL A   1      39.265  24.827  27.532  1.00  0.00    -0.200 F 
ATOM     91  F   UNL A   1      40.761  25.675  25.415  1.00  0.00    -0.200 F 
ENDBRANCH  57  81
BRANCH  69  92
ATOM     92  C   UNL A   1      43.987  28.350  34.797  1.00  0.00     0.064 A 
ATOM     93  C   UNL A   1      45.309  28.780  34.619  1.00  0.00     0.173 A 
ATOM     94  C   UNL A   1      43.769  27.168  35.520  1.00  0.00     0.173 A 
ATOM     95  F   UNL A   1      45.568  29.895  33.919  1.00  0.00    -0.203 F 
ATOM     96  C   UNL A   1      46.375  28.043  35.128  1.00  0.00     0.198 A 
ATOM     97  C   UNL A   1      44.836  26.448  36.052  1.00  0.00     0.198 A 
ATOM     98  F   UNL A   1      42.523  26.717  35.720  1.00  0.00    -0.203 F 
ATOM     99  F   UNL A   1      47.633  28.449  34.909  1.00  0.00    -0.200 F 
ATOM    100  C   UNL A   1      46.138  26.883  35.850  1.00  0.00     0.200 A 
ATOM    101  F   UNL A   1      44.605  25.333  36.757  1.00  0.00    -0.200 F 
ATOM    102  F   UNL A   1      47.165  26.178  36.344  1.00  0.00    -0.200 F 
ENDBRANCH  69  92
ENDBRANCH  43  44
ENDBRANCH  35  38
ENDBRANCH  33  34
ENDBRANCH  32  33
ENDBRANCH  31  32
ENDBRANCH  30  31
ENDBRANCH   1  30
TORSDOF 18
ENDMDL
MODEL 3
REMARK VINA RESULT:     -11.4      5.149      9.503
REMARK SMILES CC(=O)N[C@@H](CS[C@H]1CC(=O)N(c2ccc(Cl)cc2Cl)C1=O)C(=O)NCCCCCCNC(=O)c1ccc(-c2c3nc(c(-c4c(F)c(F)c(F)c(F)c4F)c4ccc([nH]4)c(-c4c(F)c(F)c(F)c(F)c4F)c4nc(c(-c5c(F)c(F)c(F)c(F)c5F)c5ccc2[nH]5)C=C4)C=C3)cc1
REMARK SMILES IDX 27 1 26 2 25 3 23 4 24 5 5 7 4 8 1 9 2 10 3 11 6 13 7 14
REMARK SMILES IDX 8 15 9 16 21 17 10 18 12 19 22 20 11 21 13 22 14 23 19 24
REMARK SMILES IDX 15 25 18 26 20 27 16 28 17 29 28 30 29 31 30 32 31 33 32 34
REMARK SMILES IDX 33 35 34 37 35 38 36 39 97 40 37 41 96 42 38 43 39 44 40 45
REMARK SMILES IDX 90 46 41 47 95 48 89 49 91 50 42 51 94 52 88 53 87 54 43 56
REMARK SMILES IDX 75 57 55 58 74 59 56 60 59 61 73 62 92 63 57 64 58 65 72 67
REMARK SMILES IDX 93 68 60 69 44 70 45 71 53 72 46 73 47 74 51 75 54 76 48 77
REMARK SMILES IDX 49 78 52 79 50 80 76 81 77 82 85 83 78 84 79 85 83 86 86 87
REMARK SMILES IDX 80 88 81 89 84 90 82 91 61 92 62 93 70 94 63 95 64 96 68 97
REMARK SMILES IDX 71 98 65 99 66 100 69 101 67 102
REMARK H PARENT 25 6 4 12 32 36 91 55 59 66
REMARK Flexibility Score: inf
ROOT
ATOM      1  C   UNL A   1      36.892  32.529  33.295  1.00  0.00     0.021 C 
ENDROOT
BRANCH   1   2
ATOM      2  C   UNL A   1      38.184  33.283  32.977  1.00  0.00     0.116 C 
BRANCH   2   3
ATOM      3  N   UNL A   1      38.357  34.503  33.747  1.00  0.00    -0.354 N 
ATOM      4  C   UNL A   1      38.930  34.712  34.968  1.00  0.00     0.243 C 
ATOM      5  O   UNL A   1      39.315  35.864  35.203  1.00  0.00    -0.273 OA
ATOM      6  H   UNL A   1      38.001  35.314  33.317  1.00  0.00     0.163 HD
BRANCH   4   7
ATOM      7  C   UNL A   1      39.283  33.586  35.964  1.00  0.00     0.181 C 
BRANCH   7   8
ATOM      8  N   UNL A   1      38.133  32.937  36.581  1.00  0.00    -0.344 N 
ATOM      9  C   UNL A   1      38.500  33.920  38.823  1.00  0.00     0.114 C 
ATOM     10  C   UNL A   1      37.653  33.144  37.845  1.00  0.00     0.217 C 
ATOM     11  O   UNL A   1      36.564  32.672  38.161  1.00  0.00    -0.275 OA
ATOM     12  H   UNL A   1      37.651  32.278  36.031  1.00  0.00     0.164 HD
ENDBRANCH   7   8
BRANCH   7  13
ATOM     13  C   UNL A   1      40.357  32.593  35.476  1.00  0.00     0.105 C 
BRANCH  13  14
ATOM     14  S   UNL A   1      41.191  31.480  36.670  1.00  0.00    -0.145 SA
BRANCH  14  15
ATOM     15  C   UNL A   1      40.904  29.864  35.880  1.00  0.00     0.146 C 
ATOM     16  C   UNL A   1      40.442  29.927  34.435  1.00  0.00     0.125 C 
ATOM     17  C   UNL A   1      42.134  28.984  35.810  1.00  0.00     0.247 C 
ATOM     18  C   UNL A   1      40.952  28.632  33.881  1.00  0.00     0.235 C 
ATOM     19  N   UNL A   1      41.987  28.217  34.678  1.00  0.00    -0.248 N 
ATOM     20  O   UNL A   1      43.012  28.895  36.655  1.00  0.00    -0.273 OA
ATOM     21  O   UNL A   1      40.534  28.107  32.861  1.00  0.00    -0.274 OA
BRANCH  19  22
ATOM     22  C   UNL A   1      42.701  27.033  34.443  1.00  0.00     0.070 A 
ATOM     23  C   UNL A   1      43.719  27.041  33.485  1.00  0.00     0.030 A 
ATOM     24  C   UNL A   1      42.371  25.837  35.103  1.00  0.00     0.066 A 
ATOM     25  C   UNL A   1      44.398  25.858  33.185  1.00  0.00     0.023 A 
ATOM     26  C   UNL A   1      43.059  24.659  34.811  1.00  0.00     0.043 A 
ATOM     27  Cl  UNL A   1      41.104  25.769  36.278  1.00  0.00    -0.082 Cl
ATOM     28  C   UNL A   1      44.066  24.676  33.847  1.00  0.00     0.042 A 
ATOM     29  Cl  UNL A   1      44.898  23.222  33.460  1.00  0.00    -0.084 Cl
ENDBRANCH  19  22
ENDBRANCH  14  15
ENDBRANCH  13  14
ENDBRANCH   7  13
ENDBRANCH   4   7
ENDBRANCH   2   3
ENDBRANCH   1   2
BRANCH   1  30
ATOM     30  C   UNL A   1      36.172  31.862  32.117  1.00  0.00     0.002 C 
BRANCH  30  31
ATOM     31  C   UNL A   1      34.828  32.458  31.698  1.00  0.00     0.002 C 
BRANCH  31  32
ATOM     32  C   UNL A   1      34.844  33.470  30.553  1.00  0.00     0.021 C 
BRANCH  32  33
ATOM     33  C   UNL A   1      35.374  32.966  29.217  1.00  0.00     0.116 C 
BRANCH  33  34
ATOM     34  N   UNL A   1      34.487  32.027  28.550  1.00  0.00    -0.352 N 
ATOM     35  C   UNL A   1      34.735  30.743  28.129  1.00  0.00     0.251 C 
ATOM     36  H   UNL A   1      33.576  32.360  28.375  1.00  0.00     0.163 HD
ATOM     37  O   UNL A   1      33.882  30.121  27.503  1.00  0.00    -0.269 OA
BRANCH  35  38
ATOM     38  C   UNL A   1      36.053  30.118  28.387  1.00  0.00     0.039 A 
ATOM     39  C   UNL A   1      37.035  30.194  27.394  1.00  0.00     0.014 A 
ATOM     40  C   UNL A   1      36.333  29.481  29.599  1.00  0.00     0.014 A 
ATOM     41  C   UNL A   1      38.322  29.715  27.650  1.00  0.00     0.010 A 
ATOM     42  C   UNL A   1      37.632  29.061  29.877  1.00  0.00     0.010 A 
ATOM     43  C   UNL A   1      38.643  29.190  28.913  1.00  0.00    -0.014 A 
BRANCH  43  44
ATOM     44  C   UNL A   1      40.038  28.820  29.260  1.00  0.00     0.031 A 
ATOM     45  C   UNL A   1      40.915  29.773  30.021  1.00  0.00     0.074 A 
ATOM     46  C   UNL A   1      40.541  27.653  28.812  1.00  0.00     0.049 A 
ATOM     47  N   UNL A   1      42.181  29.664  30.332  1.00  0.00    -0.248 NA
ATOM     48  C   UNL A   1      40.289  31.026  30.472  1.00  0.00     0.031 C 
ATOM     49  C   UNL A   1      39.805  26.663  28.024  1.00  0.00     0.029 A 
ATOM     50  N   UNL A   1      41.795  27.108  28.942  1.00  0.00    -0.354 N 
ATOM     51  C   UNL A   1      42.509  30.834  31.004  1.00  0.00     0.074 A 
ATOM     52  C   UNL A   1      41.319  31.659  31.017  1.00  0.00     0.031 C 
ATOM     53  C   UNL A   1      40.614  25.628  27.750  1.00  0.00     0.029 A 
ATOM     54  C   UNL A   1      41.935  25.896  28.308  1.00  0.00     0.049 A 
ATOM     55  H   UNL A   1      42.524  27.543  29.440  1.00  0.00     0.167 HD
ATOM     56  C   UNL A   1      43.688  31.179  31.572  1.00  0.00     0.037 A 
ATOM     57  C   UNL A   1      43.012  25.099  28.178  1.00  0.00     0.037 A 
ATOM     58  C   UNL A   1      44.863  30.347  31.574  1.00  0.00     0.049 A 
ATOM     59  C   UNL A   1      44.315  25.515  28.801  1.00  0.00     0.074 A 
ATOM     60  C   UNL A   1      46.083  30.577  32.187  1.00  0.00     0.029 A 
ATOM     61  N   UNL A   1      44.967  29.124  30.925  1.00  0.00    -0.354 N 
ATOM     62  N   UNL A   1      44.594  26.593  29.493  1.00  0.00    -0.248 NA
ATOM     63  C   UNL A   1      45.455  24.605  28.624  1.00  0.00     0.031 C 
ATOM     64  C   UNL A   1      46.939  29.516  31.871  1.00  0.00     0.029 A 
ATOM     65  C   UNL A   1      46.241  28.605  31.097  1.00  0.00     0.049 A 
ATOM     66  H   UNL A   1      44.244  28.692  30.417  1.00  0.00     0.167 HD
ATOM     67  C   UNL A   1      45.931  26.485  29.847  1.00  0.00     0.074 A 
ATOM     68  C   UNL A   1      46.404  25.226  29.310  1.00  0.00     0.031 C 
ATOM     69  C   UNL A   1      46.699  27.354  30.549  1.00  0.00     0.037 A 
BRANCH  56  70
ATOM     70  C   UNL A   1      43.770  32.518  32.244  1.00  0.00     0.064 A 
ATOM     71  C   UNL A   1      43.663  32.647  33.636  1.00  0.00     0.173 A 
ATOM     72  C   UNL A   1      44.000  33.679  31.493  1.00  0.00     0.173 A 
ATOM     73  F   UNL A   1      43.432  31.567  34.399  1.00  0.00    -0.203 F 
ATOM     74  C   UNL A   1      43.759  33.893  34.250  1.00  0.00     0.198 A 
ATOM     75  C   UNL A   1      44.122  34.921  32.112  1.00  0.00     0.198 A 
ATOM     76  F   UNL A   1      44.116  33.611  30.157  1.00  0.00    -0.203 F 
ATOM     77  F   UNL A   1      43.611  33.998  35.579  1.00  0.00    -0.200 F 
ATOM     78  C   UNL A   1      43.995  35.028  33.489  1.00  0.00     0.200 A 
ATOM     79  F   UNL A   1      44.363  36.015  31.376  1.00  0.00    -0.200 F 
ATOM     80  F   UNL A   1      44.095  36.225  34.082  1.00  0.00    -0.200 F 
ENDBRANCH  56  70
BRANCH  57  81
ATOM     81  C   UNL A   1      42.900  23.820  27.431  1.00  0.00     0.064 A 
ATOM     82  C   UNL A   1      43.225  23.754  26.069  1.00  0.00     0.173 A 
ATOM     83  C   UNL A   1      42.470  22.642  28.057  1.00  0.00     0.173 A 
ATOM     84  F   UNL A   1      43.619  24.860  25.421  1.00  0.00    -0.203 F 
ATOM     85  C   UNL A   1      43.110  22.562  25.358  1.00  0.00     0.198 A 
ATOM     86  C   UNL A   1      42.379  21.444  27.353  1.00  0.00     0.198 A 
ATOM     87  F   UNL A   1      42.148  22.653  29.360  1.00  0.00    -0.203 F 
ATOM     88  F   UNL A   1      43.388  22.535  24.048  1.00  0.00    -0.200 F 
ATOM     89  C   UNL A   1      42.694  21.406  26.002  1.00  0.00     0.200 A 
ATOM     90  F   UNL A   1      41.988  20.326  27.981  1.00  0.00    -0.200 F 
ATOM     91  F   UNL A   1      42.588  20.258  25.321  1.00  0.00    -0.200 F 
ENDBRANCH  57  81
BRANCH  69  92
ATOM     92  C   UNL A   1      48.129  26.966  30.785  1.00  0.00     0.064 A 
ATOM     93  C   UNL A   1      48.493  26.117  31.840  1.00  0.00     0.173 A 
ATOM     94  C   UNL A   1      49.141  27.420  29.926  1.00  0.00     0.173 A 
ATOM     95  F   UNL A   1      47.562  25.671  32.698  1.00  0.00    -0.203 F 
ATOM     96  C   UNL A   1      49.821  25.754  32.040  1.00  0.00     0.198 A 
ATOM     97  C   UNL A   1      50.466  27.033  30.113  1.00  0.00     0.198 A 
ATOM     98  F   UNL A   1      48.845  28.231  28.900  1.00  0.00    -0.203 F 
ATOM     99  F   UNL A   1      50.152  24.978  33.082  1.00  0.00    -0.200 F 
ATOM    100  C   UNL A   1      50.806  26.206  31.173  1.00  0.00     0.200 A 
ATOM    101  F   UNL A   1      51.413  27.462  29.269  1.00  0.00    -0.200 F 
ATOM    102  F   UNL A   1      52.083  25.851  31.365  1.00  0.00    -0.200 F 
ENDBRANCH  69  92
ENDBRANCH  43  44
ENDBRANCH  35  38
ENDBRANCH  33  34
ENDBRANCH  32  33
ENDBRANCH  31  32
ENDBRANCH  30  31
ENDBRANCH   1  30
TORSDOF 18
ENDMDL
