MODEL 1
REMARK VINA RESULT:     -13.1      0.000      0.000
REMARK SMILES O=C(NCCCCCCNC(=O)c1ccc(N2C(=O)/C(=C/C3=c4ccccc4=NC3)SC2=S)cc1O)c1ccc(-c2c3nc(c(-c4c(F)c(F)c(F)c(F)c4F)c4ccc([nH]4)c(-c4c(F)c(F)c(F)c(F)c4F)c4nc(c(-c5c(F)c(F)c(F)c(F)c5F)c5ccc2[nH]5)C=C4)C=C3)cc1
REMARK SMILES IDX 6 1 5 2 4 3 3 4 1 5 2 6 37 8 38 9 99 10 39 11 98 12 40 13
REMARK SMILES IDX 41 14 42 15 92 16 43 17 97 18 91 19 93 20 44 21 96 22 90 23
REMARK SMILES IDX 89 24 45 26 77 27 57 28 76 29 58 30 61 31 75 32 94 33 59 34
REMARK SMILES IDX 60 35 74 37 95 38 62 39 46 40 47 41 55 42 48 43 49 44 53 45
REMARK SMILES IDX 56 46 50 47 51 48 54 49 52 50 78 51 79 52 87 53 80 54 81 55
REMARK SMILES IDX 85 56 88 57 82 58 83 59 86 60 84 61 63 62 64 63 72 64 65 65
REMARK SMILES IDX 66 66 70 67 73 68 67 69 68 70 71 71 69 72 7 73 8 74 9 75
REMARK SMILES IDX 10 76 11 77 12 79 13 80 14 81 35 82 15 83 34 84 16 85 36 86
REMARK SMILES IDX 17 88 18 89 32 90 19 91 20 92 31 93 33 94 21 95 22 96 23 97
REMARK SMILES IDX 30 98 24 99 28 100 29 101 25 102 27 103 26 104
REMARK H PARENT 3 7 93 25 61 36 10 78 36 87
REMARK Flexibility Score: inf
ROOT
ATOM      1  C   UNL A   1      37.257  21.026  24.779  1.00  0.00     0.002 C 
ENDROOT
BRANCH   1   2
ATOM      2  C   UNL A   1      38.285  19.915  24.991  1.00  0.00     0.021 C 
BRANCH   2   3
ATOM      3  C   UNL A   1      39.344  20.221  26.041  1.00  0.00     0.116 C 
BRANCH   3   4
ATOM      4  N   UNL A   1      40.365  19.192  26.102  1.00  0.00    -0.352 N 
ATOM      5  O   UNL A   1      42.434  18.318  25.982  1.00  0.00    -0.269 OA
ATOM      6  C   UNL A   1      41.729  19.312  26.133  1.00  0.00     0.251 C 
ATOM      7  H   UNL A   1      40.026  18.268  26.125  1.00  0.00     0.163 HD
BRANCH   6   8
ATOM      8  C   UNL A   1      42.363  20.630  26.351  1.00  0.00     0.039 A 
ATOM      9  C   UNL A   1      42.546  21.078  27.661  1.00  0.00     0.014 A 
ATOM     10  C   UNL A   1      42.709  21.457  25.278  1.00  0.00     0.014 A 
ATOM     11  C   UNL A   1      43.067  22.351  27.895  1.00  0.00     0.010 A 
ATOM     12  C   UNL A   1      43.319  22.685  25.510  1.00  0.00     0.010 A 
ATOM     13  C   UNL A   1      43.454  23.166  26.819  1.00  0.00    -0.014 A 
BRANCH  13  14
ATOM     14  C   UNL A   1      43.880  24.570  27.044  1.00  0.00     0.031 A 
ATOM     15  C   UNL A   1      42.876  25.576  27.542  1.00  0.00     0.074 A 
ATOM     16  C   UNL A   1      45.149  24.945  26.805  1.00  0.00     0.049 A 
ATOM     17  N   UNL A   1      43.028  26.854  27.781  1.00  0.00    -0.248 NA
ATOM     18  C   UNL A   1      41.508  25.085  27.778  1.00  0.00     0.031 C 
ATOM     19  C   UNL A   1      46.207  24.069  26.304  1.00  0.00     0.029 A 
ATOM     20  N   UNL A   1      45.766  26.161  26.960  1.00  0.00    -0.354 N 
ATOM     21  C   UNL A   1      41.779  27.313  28.179  1.00  0.00     0.074 A 
ATOM     22  C   UNL A   1      40.863  26.201  28.076  1.00  0.00     0.031 C 
ATOM     23  C   UNL A   1      47.352  24.766  26.232  1.00  0.00     0.029 A 
ATOM     24  C   UNL A   1      47.102  26.145  26.644  1.00  0.00     0.049 A 
ATOM     25  H   UNL A   1      45.295  26.969  27.270  1.00  0.00     0.167 HD
ATOM     26  C   UNL A   1      41.434  28.542  28.630  1.00  0.00     0.037 A 
ATOM     27  C   UNL A   1      48.019  27.131  26.685  1.00  0.00     0.037 A 
ATOM     28  C   UNL A   1      42.357  29.635  28.769  1.00  0.00     0.049 A 
ATOM     29  C   UNL A   1      47.606  28.500  27.153  1.00  0.00     0.074 A 
ATOM     30  C   UNL A   1      42.122  30.901  29.270  1.00  0.00     0.029 A 
ATOM     31  N   UNL A   1      43.695  29.586  28.407  1.00  0.00    -0.354 N 
ATOM     32  N   UNL A   1      46.436  28.910  27.581  1.00  0.00    -0.248 NA
ATOM     33  C   UNL A   1      48.639  29.544  27.144  1.00  0.00     0.031 C 
ATOM     34  C   UNL A   1      43.303  31.639  29.158  1.00  0.00     0.029 A 
ATOM     35  C   UNL A   1      44.290  30.816  28.638  1.00  0.00     0.049 A 
ATOM     36  H   UNL A   1      44.153  28.797  28.039  1.00  0.00     0.167 HD
ATOM     37  C   UNL A   1      46.593  30.251  27.902  1.00  0.00     0.074 A 
ATOM     38  C   UNL A   1      47.979  30.583  27.641  1.00  0.00     0.031 C 
ATOM     39  C   UNL A   1      45.671  31.131  28.365  1.00  0.00     0.037 A 
BRANCH  26  40
ATOM     40  C   UNL A   1      39.998  28.763  29.013  1.00  0.00     0.064 A 
ATOM     41  C   UNL A   1      39.558  28.615  30.338  1.00  0.00     0.173 A 
ATOM     42  C   UNL A   1      39.055  29.155  28.051  1.00  0.00     0.173 A 
ATOM     43  F   UNL A   1      40.415  28.229  31.296  1.00  0.00    -0.203 F 
ATOM     44  C   UNL A   1      38.222  28.815  30.677  1.00  0.00     0.198 A 
ATOM     45  C   UNL A   1      37.729  29.390  28.401  1.00  0.00     0.198 A 
ATOM     46  F   UNL A   1      39.423  29.316  26.770  1.00  0.00    -0.203 F 
ATOM     47  F   UNL A   1      37.815  28.609  31.937  1.00  0.00    -0.200 F 
ATOM     48  C   UNL A   1      37.311  29.211  29.711  1.00  0.00     0.200 A 
ATOM     49  F   UNL A   1      36.851  29.786  27.467  1.00  0.00    -0.200 F 
ATOM     50  F   UNL A   1      36.028  29.411  30.040  1.00  0.00    -0.200 F 
ENDBRANCH  26  40
BRANCH  27  51
ATOM     51  C   UNL A   1      49.423  26.834  26.304  1.00  0.00     0.064 A 
ATOM     52  C   UNL A   1      50.331  26.332  27.247  1.00  0.00     0.173 A 
ATOM     53  C   UNL A   1      49.874  26.996  24.985  1.00  0.00     0.173 A 
ATOM     54  F   UNL A   1      49.953  26.181  28.524  1.00  0.00    -0.203 F 
ATOM     55  C   UNL A   1      51.635  25.999  26.884  1.00  0.00     0.198 A 
ATOM     56  C   UNL A   1      51.170  26.637  24.618  1.00  0.00     0.198 A 
ATOM     57  F   UNL A   1      49.044  27.470  24.045  1.00  0.00    -0.203 F 
ATOM     58  F   UNL A   1      52.489  25.541  27.810  1.00  0.00    -0.200 F 
ATOM     59  C   UNL A   1      52.049  26.141  25.569  1.00  0.00     0.200 A 
ATOM     60  F   UNL A   1      51.561  26.760  23.343  1.00  0.00    -0.200 F 
ATOM     61  F   UNL A   1      53.296  25.799  25.216  1.00  0.00    -0.200 F 
ENDBRANCH  27  51
BRANCH  39  62
ATOM     62  C   UNL A   1      46.112  32.544  28.611  1.00  0.00     0.064 A 
ATOM     63  C   UNL A   1      46.044  33.514  27.601  1.00  0.00     0.173 A 
ATOM     64  C   UNL A   1      46.512  32.956  29.892  1.00  0.00     0.173 A 
ATOM     65  F   UNL A   1      45.680  33.168  26.356  1.00  0.00    -0.203 F 
ATOM     66  C   UNL A   1      46.366  34.842  27.862  1.00  0.00     0.198 A 
ATOM     67  C   UNL A   1      46.802  34.291  30.158  1.00  0.00     0.198 A 
ATOM     68  F   UNL A   1      46.583  32.069  30.896  1.00  0.00    -0.203 F 
ATOM     69  F   UNL A   1      46.320  35.748  26.874  1.00  0.00    -0.200 F 
ATOM     70  C   UNL A   1      46.731  35.233  29.142  1.00  0.00     0.200 A 
ATOM     71  F   UNL A   1      47.136  34.669  31.399  1.00  0.00    -0.200 F 
ATOM     72  F   UNL A   1      47.016  36.517  29.397  1.00  0.00    -0.200 F 
ENDBRANCH  39  62
ENDBRANCH  13  14
ENDBRANCH   6   8
ENDBRANCH   3   4
ENDBRANCH   2   3
ENDBRANCH   1   2
BRANCH   1  73
ATOM     73  C   UNL A   1      35.793  20.575  24.810  1.00  0.00     0.002 C 
BRANCH  73  74
ATOM     74  C   UNL A   1      34.875  21.401  25.716  1.00  0.00     0.021 C 
BRANCH  74  75
ATOM     75  C   UNL A   1      33.404  21.011  25.650  1.00  0.00     0.116 C 
BRANCH  75  76
ATOM     76  N   UNL A   1      32.979  20.735  24.291  1.00  0.00    -0.352 N 
ATOM     77  C   UNL A   1      32.493  21.618  23.363  1.00  0.00     0.255 C 
ATOM     78  H   UNL A   1      33.050  19.797  24.000  1.00  0.00     0.163 HD
ATOM     79  O   UNL A   1      32.071  21.221  22.280  1.00  0.00    -0.269 OA
BRANCH  77  80
ATOM     80  C   UNL A   1      32.409  23.052  23.697  1.00  0.00     0.081 A 
ATOM     81  C   UNL A   1      31.340  23.470  24.495  1.00  0.00     0.020 A 
ATOM     82  C   UNL A   1      33.350  23.982  23.248  1.00  0.00     0.130 A 
ATOM     83  C   UNL A   1      31.230  24.812  24.867  1.00  0.00     0.028 A 
ATOM     84  C   UNL A   1      33.234  25.322  23.613  1.00  0.00     0.073 A 
ATOM     85  C   UNL A   1      32.163  25.755  24.412  1.00  0.00     0.054 A 
BRANCH  82  86
ATOM     86  O   UNL A   1      34.402  23.589  22.469  1.00  0.00    -0.507 OA
ATOM     87  H   UNL A   1      34.991  24.229  22.118  1.00  0.00     0.293 HD
ENDBRANCH  82  86
BRANCH  85  88
ATOM     88  N   UNL A   1      32.040  27.131  24.770  1.00  0.00    -0.261 N 
ATOM     89  C   UNL A   1      32.692  27.612  25.906  1.00  0.00     0.270 C 
ATOM     90  C   UNL A   1      31.301  28.058  24.044  1.00  0.00     0.152 C 
ATOM     91  O   UNL A   1      33.396  26.987  26.685  1.00  0.00    -0.268 OA
ATOM     92  C   UNL A   1      32.466  29.079  26.039  1.00  0.00     0.081 C 
ATOM     93  S   UNL A   1      31.509  29.659  24.739  1.00  0.00    -0.054 SA
ATOM     94  S   UNL A   1      30.254  27.832  22.757  1.00  0.00    -0.051 S 
ATOM     95  C   UNL A   1      33.002  29.802  27.031  1.00  0.00     0.027 C 
BRANCH  95  96
ATOM     96  C   UNL A   1      32.829  31.220  27.230  1.00  0.00    -0.016 C 
ATOM     97  C   UNL A   1      33.727  32.073  27.714  1.00  0.00     0.005 A 
ATOM     98  C   UNL A   1      31.549  31.934  26.894  1.00  0.00     0.179 C 
ATOM     99  C   UNL A   1      35.071  31.982  28.190  1.00  0.00     0.011 A 
ATOM    100  C   UNL A   1      33.013  33.362  27.656  1.00  0.00     0.065 A 
ATOM    101  N   UNL A   1      31.791  33.361  27.220  1.00  0.00    -0.280 NA
ATOM    102  C   UNL A   1      35.692  33.104  28.588  1.00  0.00     0.001 A 
ATOM    103  C   UNL A   1      33.766  34.552  28.100  1.00  0.00     0.028 A 
ATOM    104  C   UNL A   1      35.030  34.399  28.532  1.00  0.00     0.002 A 
ENDBRANCH  95  96
ENDBRANCH  85  88
ENDBRANCH  77  80
ENDBRANCH  75  76
ENDBRANCH  74  75
ENDBRANCH  73  74
ENDBRANCH   1  73
TORSDOF 16
ENDMDL
MODEL 2
REMARK VINA RESULT:     -13.0      5.214     11.549
REMARK SMILES O=C(NCCCCCCNC(=O)c1ccc(N2C(=O)/C(=C/C3=c4ccccc4=NC3)SC2=S)cc1O)c1ccc(-c2c3nc(c(-c4c(F)c(F)c(F)c(F)c4F)c4ccc([nH]4)c(-c4c(F)c(F)c(F)c(F)c4F)c4nc(c(-c5c(F)c(F)c(F)c(F)c5F)c5ccc2[nH]5)C=C4)C=C3)cc1
REMARK SMILES IDX 6 1 5 2 4 3 3 4 1 5 2 6 37 8 38 9 99 10 39 11 98 12 40 13
REMARK SMILES IDX 41 14 42 15 92 16 43 17 97 18 91 19 93 20 44 21 96 22 90 23
REMARK SMILES IDX 89 24 45 26 77 27 57 28 76 29 58 30 61 31 75 32 94 33 59 34
REMARK SMILES IDX 60 35 74 37 95 38 62 39 46 40 47 41 55 42 48 43 49 44 53 45
REMARK SMILES IDX 56 46 50 47 51 48 54 49 52 50 78 51 79 52 87 53 80 54 81 55
REMARK SMILES IDX 85 56 88 57 82 58 83 59 86 60 84 61 63 62 64 63 72 64 65 65
REMARK SMILES IDX 66 66 70 67 73 68 67 69 68 70 71 71 69 72 7 73 8 74 9 75
REMARK SMILES IDX 10 76 11 77 12 79 13 80 14 81 35 82 15 83 34 84 16 85 36 86
REMARK SMILES IDX 17 88 18 89 32 90 19 91 20 92 31 93 33 94 21 95 22 96 23 97
REMARK SMILES IDX 30 98 24 99 28 100 29 101 25 102 27 103 26 104
REMARK H PARENT 3 7 93 25 61 36 10 78 36 87
REMARK Flexibility Score: inf
ROOT
ATOM      1  C   UNL A   1      31.490  31.055  25.807  1.00  0.00     0.002 C 
ENDROOT
BRANCH   1   2
ATOM      2  C   UNL A   1      31.364  32.087  26.927  1.00  0.00     0.021 C 
BRANCH   2   3
ATOM      3  C   UNL A   1      32.669  32.775  27.307  1.00  0.00     0.116 C 
BRANCH   3   4
ATOM      4  N   UNL A   1      32.479  34.184  27.599  1.00  0.00    -0.352 N 
ATOM      5  O   UNL A   1      32.587  36.083  28.799  1.00  0.00    -0.269 OA
ATOM      6  C   UNL A   1      33.024  34.954  28.591  1.00  0.00     0.251 C 
ATOM      7  H   UNL A   1      31.866  34.657  26.992  1.00  0.00     0.163 HD
BRANCH   6   8
ATOM      8  C   UNL A   1      34.138  34.439  29.417  1.00  0.00     0.039 A 
ATOM      9  C   UNL A   1      35.440  34.535  28.919  1.00  0.00     0.014 A 
ATOM     10  C   UNL A   1      33.904  33.798  30.637  1.00  0.00     0.014 A 
ATOM     11  C   UNL A   1      36.501  33.986  29.639  1.00  0.00     0.010 A 
ATOM     12  C   UNL A   1      34.971  33.337  31.400  1.00  0.00     0.010 A 
ATOM     13  C   UNL A   1      36.274  33.379  30.885  1.00  0.00    -0.014 A 
BRANCH  13  14
ATOM     14  C   UNL A   1      37.367  32.671  31.597  1.00  0.00     0.031 A 
ATOM     15  C   UNL A   1      38.051  31.507  30.929  1.00  0.00     0.074 A 
ATOM     16  C   UNL A   1      37.745  33.060  32.827  1.00  0.00     0.049 A 
ATOM     17  N   UNL A   1      39.008  30.736  31.379  1.00  0.00    -0.248 NA
ATOM     18  C   UNL A   1      37.577  31.143  29.583  1.00  0.00     0.031 C 
ATOM     19  C   UNL A   1      37.148  34.159  33.584  1.00  0.00     0.029 A 
ATOM     20  N   UNL A   1      38.729  32.580  33.653  1.00  0.00    -0.354 N 
ATOM     21  C   UNL A   1      39.234  29.797  30.381  1.00  0.00     0.074 A 
ATOM     22  C   UNL A   1      38.268  30.043  29.336  1.00  0.00     0.031 C 
ATOM     23  C   UNL A   1      37.805  34.295  34.747  1.00  0.00     0.029 A 
ATOM     24  C   UNL A   1      38.842  33.270  34.834  1.00  0.00     0.049 A 
ATOM     25  H   UNL A   1      39.301  31.812  33.421  1.00  0.00     0.167 HD
ATOM     26  C   UNL A   1      40.191  28.841  30.321  1.00  0.00     0.037 A 
ATOM     27  C   UNL A   1      39.689  33.097  35.867  1.00  0.00     0.037 A 
ATOM     28  C   UNL A   1      41.177  28.625  31.344  1.00  0.00     0.049 A 
ATOM     29  C   UNL A   1      40.720  32.003  35.797  1.00  0.00     0.074 A 
ATOM     30  C   UNL A   1      42.223  27.722  31.354  1.00  0.00     0.029 A 
ATOM     31  N   UNL A   1      41.236  29.325  32.540  1.00  0.00    -0.354 N 
ATOM     32  N   UNL A   1      40.964  31.157  34.826  1.00  0.00    -0.248 NA
ATOM     33  C   UNL A   1      41.594  31.838  36.967  1.00  0.00     0.031 C 
ATOM     34  C   UNL A   1      42.882  27.835  32.582  1.00  0.00     0.029 A 
ATOM     35  C   UNL A   1      42.281  28.847  33.314  1.00  0.00     0.049 A 
ATOM     36  H   UNL A   1      40.627  30.053  32.801  1.00  0.00     0.167 HD
ATOM     37  C   UNL A   1      42.022  30.369  35.259  1.00  0.00     0.074 A 
ATOM     38  C   UNL A   1      42.390  30.852  36.573  1.00  0.00     0.031 C 
ATOM     39  C   UNL A   1      42.629  29.335  34.626  1.00  0.00     0.037 A 
BRANCH  26  40
ATOM     40  C   UNL A   1      40.219  27.962  29.102  1.00  0.00     0.064 A 
ATOM     41  C   UNL A   1      40.976  28.299  27.968  1.00  0.00     0.173 A 
ATOM     42  C   UNL A   1      39.504  26.756  29.076  1.00  0.00     0.173 A 
ATOM     43  F   UNL A   1      41.668  29.448  27.935  1.00  0.00    -0.203 F 
ATOM     44  C   UNL A   1      40.986  27.480  26.843  1.00  0.00     0.198 A 
ATOM     45  C   UNL A   1      39.546  25.921  27.962  1.00  0.00     0.198 A 
ATOM     46  F   UNL A   1      38.767  26.382  30.134  1.00  0.00    -0.203 F 
ATOM     47  F   UNL A   1      41.668  27.852  25.751  1.00  0.00    -0.200 F 
ATOM     48  C   UNL A   1      40.279  26.287  26.843  1.00  0.00     0.200 A 
ATOM     49  F   UNL A   1      38.872  24.761  27.970  1.00  0.00    -0.200 F 
ATOM     50  F   UNL A   1      40.295  25.496  25.763  1.00  0.00    -0.200 F 
ENDBRANCH  26  40
BRANCH  27  51
ATOM     51  C   UNL A   1      39.612  34.013  37.033  1.00  0.00     0.064 A 
ATOM     52  C   UNL A   1      40.254  35.259  37.011  1.00  0.00     0.173 A 
ATOM     53  C   UNL A   1      38.855  33.689  38.170  1.00  0.00     0.173 A 
ATOM     54  F   UNL A   1      41.006  35.604  35.957  1.00  0.00    -0.203 F 
ATOM     55  C   UNL A   1      40.139  36.147  38.079  1.00  0.00     0.198 A 
ATOM     56  C   UNL A   1      38.719  34.589  39.226  1.00  0.00     0.198 A 
ATOM     57  F   UNL A   1      38.219  32.510  38.240  1.00  0.00    -0.203 F 
ATOM     58  F   UNL A   1      40.781  37.323  38.041  1.00  0.00    -0.200 F 
ATOM     59  C   UNL A   1      39.363  35.816  39.180  1.00  0.00     0.200 A 
ATOM     60  F   UNL A   1      37.955  34.272  40.279  1.00  0.00    -0.200 F 
ATOM     61  F   UNL A   1      39.235  36.680  40.196  1.00  0.00    -0.200 F 
ENDBRANCH  27  51
BRANCH  39  62
ATOM     62  C   UNL A   1      43.748  28.636  35.341  1.00  0.00     0.064 A 
ATOM     63  C   UNL A   1      45.081  29.044  35.181  1.00  0.00     0.173 A 
ATOM     64  C   UNL A   1      43.479  27.619  36.270  1.00  0.00     0.173 A 
ATOM     65  F   UNL A   1      45.391  30.004  34.296  1.00  0.00    -0.203 F 
ATOM     66  C   UNL A   1      46.103  28.454  35.918  1.00  0.00     0.198 A 
ATOM     67  C   UNL A   1      44.500  27.054  37.029  1.00  0.00     0.198 A 
ATOM     68  F   UNL A   1      42.221  27.200  36.470  1.00  0.00    -0.203 F 
ATOM     69  F   UNL A   1      47.372  28.842  35.728  1.00  0.00    -0.200 F 
ATOM     70  C   UNL A   1      45.811  27.470  36.851  1.00  0.00     0.200 A 
ATOM     71  F   UNL A   1      44.214  26.117  37.944  1.00  0.00    -0.200 F 
ATOM     72  F   UNL A   1      46.794  26.922  37.578  1.00  0.00    -0.200 F 
ENDBRANCH  39  62
ENDBRANCH  13  14
ENDBRANCH   6   8
ENDBRANCH   3   4
ENDBRANCH   2   3
ENDBRANCH   1   2
BRANCH   1  73
ATOM     73  C   UNL A   1      32.471  29.911  26.081  1.00  0.00     0.002 C 
BRANCH  73  74
ATOM     74  C   UNL A   1      32.118  28.576  25.419  1.00  0.00     0.021 C 
BRANCH  74  75
ATOM     75  C   UNL A   1      31.442  28.702  24.059  1.00  0.00     0.116 C 
BRANCH  75  76
ATOM     76  N   UNL A   1      30.144  28.056  24.040  1.00  0.00    -0.352 N 
ATOM     77  C   UNL A   1      29.869  26.714  24.066  1.00  0.00     0.255 C 
ATOM     78  H   UNL A   1      29.365  28.657  24.003  1.00  0.00     0.163 HD
ATOM     79  O   UNL A   1      28.717  26.308  23.937  1.00  0.00    -0.269 OA
BRANCH  77  80
ATOM     80  C   UNL A   1      30.975  25.747  24.181  1.00  0.00     0.081 A 
ATOM     81  C   UNL A   1      31.229  25.201  25.444  1.00  0.00     0.020 A 
ATOM     82  C   UNL A   1      31.757  25.368  23.087  1.00  0.00     0.130 A 
ATOM     83  C   UNL A   1      32.246  24.257  25.603  1.00  0.00     0.028 A 
ATOM     84  C   UNL A   1      32.777  24.432  23.251  1.00  0.00     0.073 A 
ATOM     85  C   UNL A   1      33.044  23.879  24.513  1.00  0.00     0.054 A 
BRANCH  82  86
ATOM     86  O   UNL A   1      31.520  25.891  21.847  1.00  0.00    -0.507 OA
ATOM     87  H   UNL A   1      31.057  25.386  21.206  1.00  0.00     0.293 HD
ENDBRANCH  82  86
BRANCH  85  88
ATOM     88  N   UNL A   1      34.099  22.933  24.678  1.00  0.00    -0.261 N 
ATOM     89  C   UNL A   1      35.399  23.378  24.922  1.00  0.00     0.270 C 
ATOM     90  C   UNL A   1      33.921  21.555  24.618  1.00  0.00     0.152 C 
ATOM     91  O   UNL A   1      35.787  24.533  25.022  1.00  0.00    -0.268 OA
ATOM     92  C   UNL A   1      36.307  22.213  25.117  1.00  0.00     0.081 C 
ATOM     93  S   UNL A   1      35.433  20.743  24.998  1.00  0.00    -0.054 SA
ATOM     94  S   UNL A   1      32.577  20.661  24.173  1.00  0.00    -0.051 S 
ATOM     95  C   UNL A   1      37.611  22.357  25.394  1.00  0.00     0.027 C 
BRANCH  95  96
ATOM     96  C   UNL A   1      38.553  21.284  25.592  1.00  0.00    -0.016 C 
ATOM     97  C   UNL A   1      39.693  21.340  26.277  1.00  0.00     0.005 A 
ATOM     98  C   UNL A   1      38.346  19.908  25.023  1.00  0.00     0.179 C 
ATOM     99  C   UNL A   1      40.396  22.343  27.010  1.00  0.00     0.011 A 
ATOM    100  C   UNL A   1      40.205  19.962  26.164  1.00  0.00     0.065 A 
ATOM    101  N   UNL A   1      39.513  19.110  25.472  1.00  0.00    -0.280 NA
ATOM    102  C   UNL A   1      41.549  22.011  27.614  1.00  0.00     0.001 A 
ATOM    103  C   UNL A   1      41.473  19.672  26.864  1.00  0.00     0.028 A 
ATOM    104  C   UNL A   1      42.082  20.659  27.542  1.00  0.00     0.002 A 
ENDBRANCH  95  96
ENDBRANCH  85  88
ENDBRANCH  77  80
ENDBRANCH  75  76
ENDBRANCH  74  75
ENDBRANCH  73  74
ENDBRANCH   1  73
TORSDOF 16
ENDMDL
MODEL 3
REMARK VINA RESULT:     -12.8      5.043     10.609
REMARK SMILES O=C(NCCCCCCNC(=O)c1ccc(N2C(=O)/C(=C/C3=c4ccccc4=NC3)SC2=S)cc1O)c1ccc(-c2c3nc(c(-c4c(F)c(F)c(F)c(F)c4F)c4ccc([nH]4)c(-c4c(F)c(F)c(F)c(F)c4F)c4nc(c(-c5c(F)c(F)c(F)c(F)c5F)c5ccc2[nH]5)C=C4)C=C3)cc1
REMARK SMILES IDX 6 1 5 2 4 3 3 4 1 5 2 6 37 8 38 9 99 10 39 11 98 12 40 13
REMARK SMILES IDX 41 14 42 15 92 16 43 17 97 18 91 19 93 20 44 21 96 22 90 23
REMARK SMILES IDX 89 24 45 26 77 27 57 28 76 29 58 30 61 31 75 32 94 33 59 34
REMARK SMILES IDX 60 35 74 37 95 38 62 39 46 40 47 41 55 42 48 43 49 44 53 45
REMARK SMILES IDX 56 46 50 47 51 48 54 49 52 50 78 51 79 52 87 53 80 54 81 55
REMARK SMILES IDX 85 56 88 57 82 58 83 59 86 60 84 61 63 62 64 63 72 64 65 65
REMARK SMILES IDX 66 66 70 67 73 68 67 69 68 70 71 71 69 72 7 73 8 74 9 75
REMARK SMILES IDX 10 76 11 77 12 79 13 80 14 81 35 82 15 83 34 84 16 85 36 86
REMARK SMILES IDX 17 88 18 89 32 90 19 91 20 92 31 93 33 94 21 95 22 96 23 97
REMARK SMILES IDX 30 98 24 99 28 100 29 101 25 102 27 103 26 104
REMARK H PARENT 3 7 93 25 61 36 10 78 36 87
REMARK Flexibility Score: inf
ROOT
ATOM      1  C   UNL A   1      31.629  30.667  26.371  1.00  0.00     0.002 C 
ENDROOT
BRANCH   1   2
ATOM      2  C   UNL A   1      31.477  32.156  26.683  1.00  0.00     0.021 C 
BRANCH   2   3
ATOM      3  C   UNL A   1      32.743  32.832  27.193  1.00  0.00     0.116 C 
BRANCH   3   4
ATOM      4  N   UNL A   1      32.493  34.188  27.646  1.00  0.00    -0.352 N 
ATOM      5  O   UNL A   1      32.555  35.948  29.044  1.00  0.00    -0.269 OA
ATOM      6  C   UNL A   1      33.041  34.875  28.696  1.00  0.00     0.251 C 
ATOM      7  H   UNL A   1      31.830  34.689  27.119  1.00  0.00     0.163 HD
BRANCH   6   8
ATOM      8  C   UNL A   1      34.216  34.338  29.416  1.00  0.00     0.039 A 
ATOM      9  C   UNL A   1      35.492  34.643  28.936  1.00  0.00     0.014 A 
ATOM     10  C   UNL A   1      34.070  33.479  30.509  1.00  0.00     0.014 A 
ATOM     11  C   UNL A   1      36.615  34.084  29.546  1.00  0.00     0.010 A 
ATOM     12  C   UNL A   1      35.191  33.001  31.177  1.00  0.00     0.010 A 
ATOM     13  C   UNL A   1      36.473  33.255  30.670  1.00  0.00    -0.014 A 
BRANCH  13  14
ATOM     14  C   UNL A   1      37.643  32.545  31.245  1.00  0.00     0.031 A 
ATOM     15  C   UNL A   1      38.119  32.904  32.628  1.00  0.00     0.074 A 
ATOM     16  C   UNL A   1      38.276  31.590  30.540  1.00  0.00     0.049 A 
ATOM     17  N   UNL A   1      39.131  32.429  33.308  1.00  0.00    -0.248 NA
ATOM     18  C   UNL A   1      37.371  33.960  33.332  1.00  0.00     0.031 C 
ATOM     19  C   UNL A   1      37.922  31.167  29.186  1.00  0.00     0.029 A 
ATOM     20  N   UNL A   1      39.346  30.797  30.870  1.00  0.00    -0.354 N 
ATOM     21  C   UNL A   1      39.145  33.136  34.503  1.00  0.00     0.074 A 
ATOM     22  C   UNL A   1      38.093  34.123  34.428  1.00  0.00     0.031 C 
ATOM     23  C   UNL A   1      38.734  30.163  28.817  1.00  0.00     0.029 A 
ATOM     24  C   UNL A   1      39.689  29.899  29.890  1.00  0.00     0.049 A 
ATOM     25  H   UNL A   1      39.823  30.866  31.730  1.00  0.00     0.167 HD
ATOM     26  C   UNL A   1      39.936  32.951  35.586  1.00  0.00     0.037 A 
ATOM     27  C   UNL A   1      40.661  28.967  29.864  1.00  0.00     0.037 A 
ATOM     28  C   UNL A   1      40.955  31.941  35.673  1.00  0.00     0.049 A 
ATOM     29  C   UNL A   1      41.555  28.804  31.064  1.00  0.00     0.074 A 
ATOM     30  C   UNL A   1      41.772  31.633  36.744  1.00  0.00     0.029 A 
ATOM     31  N   UNL A   1      41.292  31.072  34.646  1.00  0.00    -0.354 N 
ATOM     32  N   UNL A   1      41.525  29.438  32.211  1.00  0.00    -0.248 NA
ATOM     33  C   UNL A   1      42.620  27.796  30.965  1.00  0.00     0.031 C 
ATOM     34  C   UNL A   1      42.644  30.616  36.347  1.00  0.00     0.029 A 
ATOM     35  C   UNL A   1      42.334  30.252  35.046  1.00  0.00     0.049 A 
ATOM     36  H   UNL A   1      40.857  31.043  33.763  1.00  0.00     0.167 HD
ATOM     37  C   UNL A   1      42.553  28.902  32.973  1.00  0.00     0.074 A 
ATOM     38  C   UNL A   1      43.177  27.873  32.167  1.00  0.00     0.031 C 
ATOM     39  C   UNL A   1      42.949  29.237  34.227  1.00  0.00     0.037 A 
BRANCH  26  40
ATOM     40  C   UNL A   1      39.723  33.858  36.765  1.00  0.00     0.064 A 
ATOM     41  C   UNL A   1      40.316  35.129  36.833  1.00  0.00     0.173 A 
ATOM     42  C   UNL A   1      38.896  33.464  37.827  1.00  0.00     0.173 A 
ATOM     43  F   UNL A   1      41.126  35.550  35.850  1.00  0.00    -0.203 F 
ATOM     44  C   UNL A   1      40.117  35.955  37.936  1.00  0.00     0.198 A 
ATOM     45  C   UNL A   1      38.671  34.308  38.911  1.00  0.00     0.198 A 
ATOM     46  F   UNL A   1      38.302  32.261  37.812  1.00  0.00    -0.203 F 
ATOM     47  F   UNL A   1      40.740  37.139  38.005  1.00  0.00    -0.200 F 
ATOM     48  C   UNL A   1      39.288  35.548  38.970  1.00  0.00     0.200 A 
ATOM     49  F   UNL A   1      37.857  33.918  39.904  1.00  0.00    -0.200 F 
ATOM     50  F   UNL A   1      39.091  36.347  40.027  1.00  0.00    -0.200 F 
ENDBRANCH  26  40
BRANCH  27  51
ATOM     51  C   UNL A   1      40.803  28.097  28.669  1.00  0.00     0.064 A 
ATOM     52  C   UNL A   1      40.160  26.853  28.607  1.00  0.00     0.173 A 
ATOM     53  C   UNL A   1      41.538  28.509  27.547  1.00  0.00     0.173 A 
ATOM     54  F   UNL A   1      39.464  26.407  29.662  1.00  0.00    -0.203 F 
ATOM     55  C   UNL A   1      40.243  26.056  27.466  1.00  0.00     0.198 A 
ATOM     56  C   UNL A   1      41.598  27.723  26.397  1.00  0.00     0.198 A 
ATOM     57  F   UNL A   1      42.169  29.692  27.555  1.00  0.00    -0.203 F 
ATOM     58  F   UNL A   1      39.636  24.861  27.442  1.00  0.00    -0.200 F 
ATOM     59  C   UNL A   1      40.952  26.497  26.360  1.00  0.00     0.200 A 
ATOM     60  F   UNL A   1      42.269  28.160  25.324  1.00  0.00    -0.200 F 
ATOM     61  F   UNL A   1      41.013  25.740  25.255  1.00  0.00    -0.200 F 
ENDBRANCH  27  51
BRANCH  39  62
ATOM     62  C   UNL A   1      44.119  28.500  34.812  1.00  0.00     0.064 A 
ATOM     63  C   UNL A   1      43.949  27.279  35.480  1.00  0.00     0.173 A 
ATOM     64  C   UNL A   1      45.428  28.967  34.616  1.00  0.00     0.173 A 
ATOM     65  F   UNL A   1      42.716  26.797  35.702  1.00  0.00    -0.203 F 
ATOM     66  C   UNL A   1      45.046  26.556  35.937  1.00  0.00     0.198 A 
ATOM     67  C   UNL A   1      46.525  28.225  35.047  1.00  0.00     0.198 A 
ATOM     68  F   UNL A   1      45.645  30.124  33.973  1.00  0.00    -0.203 F 
ATOM     69  F   UNL A   1      44.859  25.404  36.597  1.00  0.00    -0.200 F 
ATOM     70  C   UNL A   1      46.333  27.021  35.708  1.00  0.00     0.200 A 
ATOM     71  F   UNL A   1      47.767  28.667  34.807  1.00  0.00    -0.200 F 
ATOM     72  F   UNL A   1      47.388  26.310  36.127  1.00  0.00    -0.200 F 
ENDBRANCH  39  62
ENDBRANCH  13  14
ENDBRANCH   6   8
ENDBRANCH   3   4
ENDBRANCH   2   3
ENDBRANCH   1   2
BRANCH   1  73
ATOM     73  C   UNL A   1      32.647  29.920  27.238  1.00  0.00     0.002 C 
BRANCH  73  74
ATOM     74  C   UNL A   1      32.583  28.392  27.151  1.00  0.00     0.021 C 
BRANCH  74  75
ATOM     75  C   UNL A   1      32.139  27.855  25.796  1.00  0.00     0.116 C 
BRANCH  75  76
ATOM     76  N   UNL A   1      30.947  27.036  25.905  1.00  0.00    -0.352 N 
ATOM     77  C   UNL A   1      30.854  25.670  25.854  1.00  0.00     0.255 C 
ATOM     78  H   UNL A   1      30.100  27.522  26.030  1.00  0.00     0.163 HD
ATOM     79  O   UNL A   1      29.758  25.115  25.855  1.00  0.00    -0.269 OA
BRANCH  77  80
ATOM     80  C   UNL A   1      32.080  24.861  25.728  1.00  0.00     0.081 A 
ATOM     81  C   UNL A   1      32.471  24.100  26.834  1.00  0.00     0.020 A 
ATOM     82  C   UNL A   1      32.844  24.835  24.558  1.00  0.00     0.130 A 
ATOM     83  C   UNL A   1      33.608  23.292  26.758  1.00  0.00     0.028 A 
ATOM     84  C   UNL A   1      33.983  24.035  24.488  1.00  0.00     0.073 A 
ATOM     85  C   UNL A   1      34.388  23.268  25.592  1.00  0.00     0.054 A 
BRANCH  82  86
ATOM     86  O   UNL A   1      32.474  25.572  23.468  1.00  0.00    -0.507 OA
ATOM     87  H   UNL A   1      32.520  25.196  22.610  1.00  0.00     0.293 HD
ENDBRANCH  82  86
BRANCH  85  88
ATOM     88  N   UNL A   1      35.563  22.462  25.520  1.00  0.00    -0.261 N 
ATOM     89  C   UNL A   1      36.805  23.019  25.829  1.00  0.00     0.270 C 
ATOM     90  C   UNL A   1      35.561  21.120  25.160  1.00  0.00     0.152 C 
ATOM     91  O   UNL A   1      37.045  24.166  26.174  1.00  0.00    -0.268 OA
ATOM     92  C   UNL A   1      37.865  21.975  25.741  1.00  0.00     0.081 C 
ATOM     93  S   UNL A   1      37.183  20.460  25.318  1.00  0.00    -0.054 SA
ATOM     94  S   UNL A   1      34.323  20.167  24.556  1.00  0.00    -0.051 S 
ATOM     95  C   UNL A   1      39.152  22.233  26.014  1.00  0.00     0.027 C 
BRANCH  95  96
ATOM     96  C   UNL A   1      40.233  21.282  25.950  1.00  0.00    -0.016 C 
ATOM     97  C   UNL A   1      41.528  21.555  25.805  1.00  0.00     0.005 A 
ATOM     98  C   UNL A   1      40.013  19.798  26.044  1.00  0.00     0.179 C 
ATOM     99  C   UNL A   1      42.313  22.739  25.664  1.00  0.00     0.011 A 
ATOM    100  C   UNL A   1      42.145  20.216  25.839  1.00  0.00     0.065 A 
ATOM    101  N   UNL A   1      41.364  19.188  25.960  1.00  0.00    -0.280 NA
ATOM    102  C   UNL A   1      43.647  22.620  25.567  1.00  0.00     0.001 A 
ATOM    103  C   UNL A   1      43.618  20.169  25.737  1.00  0.00     0.028 A 
ATOM    104  C   UNL A   1      44.299  21.321  25.613  1.00  0.00     0.002 A 
ENDBRANCH  95  96
ENDBRANCH  85  88
ENDBRANCH  77  80
ENDBRANCH  75  76
ENDBRANCH  74  75
ENDBRANCH  73  74
ENDBRANCH   1  73
TORSDOF 16
ENDMDL
