MODEL 1
REMARK VINA RESULT:     -12.9      0.000      0.000
REMARK SMILES COc1cccc([C@H]2CC(c3ccc(S(C)(=O)=O)cc3)=NN2c2ccc(C(=O)NCCCCCCNC(=O)c3ccc(-c4c5nc(c(-c6c(F)c(F)c(F)c(F)c6F)c6ccc([nH]6)c(-c6c(F)c(F)c(F)c(F)c6F)c6nc(c(-c7c(F)c(F)c(F)c(F)c7F)c7ccc4[nH]7)C=C6)C=C5)cc3)cc2)c1
REMARK SMILES IDX 32 1 31 2 30 3 29 4 27 5 28 6 26 8 23 9 24 10 103 11 25 12
REMARK SMILES IDX 102 13 22 14 8 15 9 16 10 17 21 18 7 19 3 20 4 21 104 22
REMARK SMILES IDX 5 23 6 24 2 25 1 26 11 27 12 28 20 29 13 30 19 31 14 32
REMARK SMILES IDX 15 33 16 34 17 35 18 36 33 37 34 38 35 39 36 40 37 41 38 43
REMARK SMILES IDX 39 44 40 45 101 46 41 47 100 48 42 49 43 50 44 51 94 52
REMARK SMILES IDX 45 53 99 54 93 55 95 56 46 57 98 58 92 59 91 60 47 62 79 63
REMARK SMILES IDX 59 64 78 65 60 66 63 67 77 68 96 69 61 70 62 71 76 73 97 74
REMARK SMILES IDX 64 75 48 76 49 77 57 78 50 79 51 80 55 81 58 82 52 83 53 84
REMARK SMILES IDX 56 85 54 86 80 87 81 88 89 89 82 90 83 91 87 92 90 93 84 94
REMARK SMILES IDX 85 95 88 96 86 97 65 98 66 99 74 100 67 101 68 102 72 103
REMARK SMILES IDX 75 104 69 105 70 106 73 107 71 108
REMARK H PARENT 29 7 36 42 95 61 63 72
REMARK Flexibility Score: inf
ROOT
ATOM      1  C   UNL A   1      41.147  20.400  27.345  1.00  0.00     0.002 C 
ENDROOT
BRANCH   1   2
ATOM      2  C   UNL A   1      40.338  19.940  26.125  1.00  0.00     0.021 C 
BRANCH   2   3
ATOM      3  C   UNL A   1      39.201  20.898  25.762  1.00  0.00     0.116 C 
BRANCH   3   4
ATOM      4  N   UNL A   1      39.468  22.209  26.318  1.00  0.00    -0.352 N 
ATOM      5  C   UNL A   1      38.808  23.406  26.228  1.00  0.00     0.251 C 
ATOM      6  O   UNL A   1      39.311  24.372  26.804  1.00  0.00    -0.269 OA
ATOM      7  H   UNL A   1      40.283  22.246  26.868  1.00  0.00     0.163 HD
BRANCH   5   8
ATOM      8  C   UNL A   1      37.499  23.572  25.539  1.00  0.00     0.039 A 
ATOM      9  C   UNL A   1      34.906  23.862  24.448  1.00  0.00     0.060 A 
ATOM     10  C   UNL A   1      35.183  24.277  25.753  1.00  0.00     0.029 A 
ATOM     11  C   UNL A   1      35.956  23.362  23.675  1.00  0.00     0.029 A 
ATOM     12  C   UNL A   1      36.457  24.116  26.301  1.00  0.00     0.016 A 
ATOM     13  C   UNL A   1      37.250  23.257  24.200  1.00  0.00     0.016 A 
BRANCH   9  14
ATOM     14  N   UNL A   1      33.618  23.971  23.956  1.00  0.00    -0.257 N 
ATOM     15  C   UNL A   1      32.981  22.997  23.070  1.00  0.00     0.144 C 
ATOM     16  C   UNL A   1      31.652  23.682  22.724  1.00  0.00     0.091 C 
ATOM     17  C   UNL A   1      31.880  25.024  23.360  1.00  0.00     0.071 C 
ATOM     18  N   UNL A   1      32.975  25.161  24.037  1.00  0.00    -0.176 NA
BRANCH  15  19
ATOM     19  C   UNL A   1      32.806  21.654  23.757  1.00  0.00    -0.019 A 
ATOM     20  C   UNL A   1      32.490  19.236  23.646  1.00  0.00     0.119 A 
ATOM     21  C   UNL A   1      32.364  19.196  25.034  1.00  0.00     0.046 A 
ATOM     22  C   UNL A   1      32.698  20.461  23.012  1.00  0.00     0.052 A 
ATOM     23  C   UNL A   1      32.475  20.363  25.788  1.00  0.00     0.004 A 
ATOM     24  C   UNL A   1      32.698  21.586  25.154  1.00  0.00     0.006 A 
BRANCH  20  25
ATOM     25  O   UNL A   1      32.354  18.029  23.016  1.00  0.00    -0.497 OA
ATOM     26  C   UNL A   1      33.274  17.015  23.406  1.00  0.00     0.278 C 
ENDBRANCH  20  25
ENDBRANCH  15  19
BRANCH  17  27
ATOM     27  C   UNL A   1      30.927  26.121  23.187  1.00  0.00    -0.002 A 
ATOM     28  C   UNL A   1      31.366  27.288  22.552  1.00  0.00     0.011 A 
ATOM     29  C   UNL A   1      29.627  26.014  23.682  1.00  0.00     0.011 A 
ATOM     30  C   UNL A   1      30.489  28.357  22.393  1.00  0.00     0.021 A 
ATOM     31  C   UNL A   1      28.754  27.095  23.548  1.00  0.00     0.021 A 
ATOM     32  C   UNL A   1      29.192  28.261  22.907  1.00  0.00     0.067 A 
BRANCH  32  33
ATOM     33  S   UNL A   1      28.086  29.641  22.718  1.00  0.00     0.175 S 
ATOM     34  C   UNL A   1      28.896  30.968  23.575  1.00  0.00     0.163 C 
ATOM     35  O   UNL A   1      28.054  29.956  21.304  1.00  0.00    -0.224 OA
ATOM     36  O   UNL A   1      26.869  29.329  23.445  1.00  0.00    -0.224 OA
ENDBRANCH  32  33
ENDBRANCH  17  27
ENDBRANCH   9  14
ENDBRANCH   5   8
ENDBRANCH   3   4
ENDBRANCH   2   3
ENDBRANCH   1   2
BRANCH   1  37
ATOM     37  C   UNL A   1      42.634  20.659  27.070  1.00  0.00     0.002 C 
BRANCH  37  38
ATOM     38  C   UNL A   1      42.959  21.112  25.643  1.00  0.00     0.021 C 
BRANCH  38  39
ATOM     39  C   UNL A   1      42.738  22.599  25.387  1.00  0.00     0.116 C 
BRANCH  39  40
ATOM     40  N   UNL A   1      43.943  23.249  24.903  1.00  0.00    -0.352 N 
ATOM     41  C   UNL A   1      44.469  24.471  25.238  1.00  0.00     0.251 C 
ATOM     42  H   UNL A   1      44.458  22.739  24.238  1.00  0.00     0.163 HD
ATOM     43  O   UNL A   1      45.385  24.948  24.575  1.00  0.00    -0.269 OA
BRANCH  41  44
ATOM     44  C   UNL A   1      43.928  25.224  26.389  1.00  0.00     0.039 A 
ATOM     45  C   UNL A   1      44.304  26.560  26.551  1.00  0.00     0.014 A 
ATOM     46  C   UNL A   1      43.091  24.613  27.328  1.00  0.00     0.014 A 
ATOM     47  C   UNL A   1      43.813  27.293  27.633  1.00  0.00     0.010 A 
ATOM     48  C   UNL A   1      42.549  25.363  28.370  1.00  0.00     0.010 A 
ATOM     49  C   UNL A   1      42.916  26.705  28.540  1.00  0.00    -0.014 A 
BRANCH  49  50
ATOM     50  C   UNL A   1      42.367  27.492  29.673  1.00  0.00     0.031 A 
ATOM     51  C   UNL A   1      43.053  27.481  31.010  1.00  0.00     0.074 A 
ATOM     52  C   UNL A   1      41.231  28.193  29.502  1.00  0.00     0.049 A 
ATOM     53  N   UNL A   1      42.734  28.117  32.110  1.00  0.00    -0.248 NA
ATOM     54  C   UNL A   1      44.241  26.622  31.139  1.00  0.00     0.031 C 
ATOM     55  C   UNL A   1      40.440  28.232  28.272  1.00  0.00     0.029 A 
ATOM     56  N   UNL A   1      40.544  29.009  30.365  1.00  0.00    -0.354 N 
ATOM     57  C   UNL A   1      43.671  27.729  33.058  1.00  0.00     0.074 A 
ATOM     58  C   UNL A   1      44.539  26.761  32.423  1.00  0.00     0.031 C 
ATOM     59  C   UNL A   1      39.395  29.057  28.447  1.00  0.00     0.029 A 
ATOM     60  C   UNL A   1      39.430  29.586  29.807  1.00  0.00     0.049 A 
ATOM     61  H   UNL A   1      40.823  29.167  31.296  1.00  0.00     0.167 HD
ATOM     62  C   UNL A   1      43.811  28.161  34.334  1.00  0.00     0.037 A 
ATOM     63  C   UNL A   1      38.544  30.454  30.330  1.00  0.00     0.037 A 
ATOM     64  C   UNL A   1      42.962  29.144  34.955  1.00  0.00     0.049 A 
ATOM     65  C   UNL A   1      38.745  30.947  31.737  1.00  0.00     0.074 A 
ATOM     66  C   UNL A   1      43.052  29.688  36.224  1.00  0.00     0.029 A 
ATOM     67  N   UNL A   1      41.865  29.734  34.345  1.00  0.00    -0.354 N 
ATOM     68  N   UNL A   1      39.680  30.631  32.599  1.00  0.00    -0.248 NA
ATOM     69  C   UNL A   1      37.777  31.933  32.236  1.00  0.00     0.031 C 
ATOM     70  C   UNL A   1      41.988  30.581  36.394  1.00  0.00     0.029 A 
ATOM     71  C   UNL A   1      41.263  30.629  35.215  1.00  0.00     0.049 A 
ATOM     72  H   UNL A   1      41.559  29.545  33.427  1.00  0.00     0.167 HD
ATOM     73  C   UNL A   1      39.434  31.400  33.728  1.00  0.00     0.074 A 
ATOM     74  C   UNL A   1      38.268  32.208  33.435  1.00  0.00     0.031 C 
ATOM     75  C   UNL A   1      40.110  31.434  34.902  1.00  0.00     0.037 A 
BRANCH  62  76
ATOM     76  C   UNL A   1      44.933  27.577  35.143  1.00  0.00     0.064 A 
ATOM     77  C   UNL A   1      46.209  28.162  35.158  1.00  0.00     0.173 A 
ATOM     78  C   UNL A   1      44.724  26.441  35.940  1.00  0.00     0.173 A 
ATOM     79  F   UNL A   1      46.466  29.242  34.404  1.00  0.00    -0.203 F 
ATOM     80  C   UNL A   1      47.241  27.614  35.916  1.00  0.00     0.198 A 
ATOM     81  C   UNL A   1      45.751  25.914  36.720  1.00  0.00     0.198 A 
ATOM     82  F   UNL A   1      43.522  25.846  35.968  1.00  0.00    -0.203 F 
ATOM     83  F   UNL A   1      48.464  28.160  35.874  1.00  0.00    -0.200 F 
ATOM     84  C   UNL A   1      47.009  26.495  36.701  1.00  0.00     0.200 A 
ATOM     85  F   UNL A   1      45.522  24.838  37.487  1.00  0.00    -0.200 F 
ATOM     86  F   UNL A   1      48.001  25.971  37.435  1.00  0.00    -0.200 F 
ENDBRANCH  62  76
BRANCH  63  87
ATOM     87  C   UNL A   1      37.421  30.955  29.499  1.00  0.00     0.064 A 
ATOM     88  C   UNL A   1      37.447  32.250  28.962  1.00  0.00     0.173 A 
ATOM     89  C   UNL A   1      36.304  30.155  29.221  1.00  0.00     0.173 A 
ATOM     90  F   UNL A   1      38.487  33.059  29.215  1.00  0.00    -0.203 F 
ATOM     91  C   UNL A   1      36.388  32.734  28.196  1.00  0.00     0.198 A 
ATOM     92  C   UNL A   1      35.257  30.630  28.434  1.00  0.00     0.198 A 
ATOM     93  F   UNL A   1      36.236  28.907  29.706  1.00  0.00    -0.203 F 
ATOM     94  F   UNL A   1      36.419  33.990  27.732  1.00  0.00    -0.200 F 
ATOM     95  C   UNL A   1      35.297  31.922  27.929  1.00  0.00     0.200 A 
ATOM     96  F   UNL A   1      34.211  29.838  28.165  1.00  0.00    -0.200 F 
ATOM     97  F   UNL A   1      34.280  32.385  27.189  1.00  0.00    -0.200 F 
ENDBRANCH  63  87
BRANCH  75  98
ATOM     98  C   UNL A   1      39.631  32.406  35.941  1.00  0.00     0.064 A 
ATOM     99  C   UNL A   1      38.646  32.059  36.876  1.00  0.00     0.173 A 
ATOM    100  C   UNL A   1      40.183  33.693  36.012  1.00  0.00     0.173 A 
ATOM    101  F   UNL A   1      38.079  30.843  36.840  1.00  0.00    -0.203 F 
ATOM    102  C   UNL A   1      38.206  32.977  37.826  1.00  0.00     0.198 A 
ATOM    103  C   UNL A   1      39.761  34.600  36.980  1.00  0.00     0.198 A 
ATOM    104  F   UNL A   1      41.133  34.072  35.143  1.00  0.00    -0.203 F 
ATOM    105  F   UNL A   1      37.226  32.642  38.675  1.00  0.00    -0.200 F 
ATOM    106  C   UNL A   1      38.768  34.244  37.880  1.00  0.00     0.200 A 
ATOM    107  F   UNL A   1      40.312  35.821  37.039  1.00  0.00    -0.200 F 
ATOM    108  F   UNL A   1      38.343  35.127  38.794  1.00  0.00    -0.200 F 
ENDBRANCH  75  98
ENDBRANCH  49  50
ENDBRANCH  41  44
ENDBRANCH  39  40
ENDBRANCH  38  39
ENDBRANCH  37  38
ENDBRANCH   1  37
TORSDOF 18
ENDMDL
MODEL 2
REMARK VINA RESULT:     -12.5      0.890      6.975
REMARK SMILES COc1cccc([C@H]2CC(c3ccc(S(C)(=O)=O)cc3)=NN2c2ccc(C(=O)NCCCCCCNC(=O)c3ccc(-c4c5nc(c(-c6c(F)c(F)c(F)c(F)c6F)c6ccc([nH]6)c(-c6c(F)c(F)c(F)c(F)c6F)c6nc(c(-c7c(F)c(F)c(F)c(F)c7F)c7ccc4[nH]7)C=C6)C=C5)cc3)cc2)c1
REMARK SMILES IDX 32 1 31 2 30 3 29 4 27 5 28 6 26 8 23 9 24 10 103 11 25 12
REMARK SMILES IDX 102 13 22 14 8 15 9 16 10 17 21 18 7 19 3 20 4 21 104 22
REMARK SMILES IDX 5 23 6 24 2 25 1 26 11 27 12 28 20 29 13 30 19 31 14 32
REMARK SMILES IDX 15 33 16 34 17 35 18 36 33 37 34 38 35 39 36 40 37 41 38 43
REMARK SMILES IDX 39 44 40 45 101 46 41 47 100 48 42 49 43 50 44 51 94 52
REMARK SMILES IDX 45 53 99 54 93 55 95 56 46 57 98 58 92 59 91 60 47 62 79 63
REMARK SMILES IDX 59 64 78 65 60 66 63 67 77 68 96 69 61 70 62 71 76 73 97 74
REMARK SMILES IDX 64 75 48 76 49 77 57 78 50 79 51 80 55 81 58 82 52 83 53 84
REMARK SMILES IDX 56 85 54 86 80 87 81 88 89 89 82 90 83 91 87 92 90 93 84 94
REMARK SMILES IDX 85 95 88 96 86 97 65 98 66 99 74 100 67 101 68 102 72 103
REMARK SMILES IDX 75 104 69 105 70 106 73 107 71 108
REMARK H PARENT 29 7 36 42 95 61 63 72
REMARK Flexibility Score: inf
ROOT
ATOM      1  C   UNL A   1      40.791  20.171  27.224  1.00  0.00     0.002 C 
ENDROOT
BRANCH   1   2
ATOM      2  C   UNL A   1      40.109  19.945  25.869  1.00  0.00     0.021 C 
BRANCH   2   3
ATOM      3  C   UNL A   1      38.928  20.888  25.625  1.00  0.00     0.116 C 
BRANCH   3   4
ATOM      4  N   UNL A   1      39.081  22.084  26.429  1.00  0.00    -0.352 N 
ATOM      5  C   UNL A   1      38.396  23.269  26.468  1.00  0.00     0.251 C 
ATOM      6  O   UNL A   1      38.793  24.124  27.261  1.00  0.00    -0.269 OA
ATOM      7  H   UNL A   1      39.823  22.034  27.073  1.00  0.00     0.163 HD
BRANCH   5   8
ATOM      8  C   UNL A   1      37.173  23.537  25.663  1.00  0.00     0.039 A 
ATOM      9  C   UNL A   1      34.723  24.039  24.341  1.00  0.00     0.060 A 
ATOM     10  C   UNL A   1      34.931  24.473  25.653  1.00  0.00     0.029 A 
ATOM     11  C   UNL A   1      35.778  23.410  23.678  1.00  0.00     0.029 A 
ATOM     12  C   UNL A   1      36.131  24.209  26.315  1.00  0.00     0.016 A 
ATOM     13  C   UNL A   1      37.007  23.197  24.317  1.00  0.00     0.016 A 
BRANCH   9  14
ATOM     14  N   UNL A   1      33.499  24.256  23.736  1.00  0.00    -0.257 N 
ATOM     15  C   UNL A   1      32.976  23.475  22.616  1.00  0.00     0.144 C 
ATOM     16  C   UNL A   1      31.689  24.230  22.256  1.00  0.00     0.091 C 
ATOM     17  C   UNL A   1      31.832  25.425  23.155  1.00  0.00     0.071 C 
ATOM     18  N   UNL A   1      32.842  25.418  23.966  1.00  0.00    -0.176 NA
BRANCH  15  19
ATOM     19  C   UNL A   1      32.734  22.029  23.013  1.00  0.00    -0.019 A 
ATOM     20  C   UNL A   1      32.806  20.241  24.675  1.00  0.00     0.119 A 
ATOM     21  C   UNL A   1      32.395  19.331  23.702  1.00  0.00     0.046 A 
ATOM     22  C   UNL A   1      32.986  21.581  24.327  1.00  0.00     0.052 A 
ATOM     23  C   UNL A   1      32.134  19.756  22.400  1.00  0.00     0.004 A 
ATOM     24  C   UNL A   1      32.299  21.099  22.058  1.00  0.00     0.006 A 
BRANCH  20  25
ATOM     25  O   UNL A   1      33.038  19.704  25.911  1.00  0.00    -0.497 OA
ATOM     26  C   UNL A   1      32.934  18.288  26.006  1.00  0.00     0.278 C 
ENDBRANCH  20  25
ENDBRANCH  15  19
BRANCH  17  27
ATOM     27  C   UNL A   1      30.896  26.548  23.084  1.00  0.00    -0.002 A 
ATOM     28  C   UNL A   1      31.333  27.741  22.499  1.00  0.00     0.011 A 
ATOM     29  C   UNL A   1      29.615  26.437  23.627  1.00  0.00     0.011 A 
ATOM     30  C   UNL A   1      30.472  28.834  22.438  1.00  0.00     0.021 A 
ATOM     31  C   UNL A   1      28.760  27.540  23.592  1.00  0.00     0.021 A 
ATOM     32  C   UNL A   1      29.196  28.732  23.000  1.00  0.00     0.067 A 
BRANCH  32  33
ATOM     33  S   UNL A   1      28.113  30.141  22.935  1.00  0.00     0.175 S 
ATOM     34  C   UNL A   1      28.185  30.669  21.243  1.00  0.00     0.163 C 
ATOM     35  O   UNL A   1      26.777  29.651  23.210  1.00  0.00    -0.224 OA
ATOM     36  O   UNL A   1      28.709  31.188  23.746  1.00  0.00    -0.224 OA
ENDBRANCH  32  33
ENDBRANCH  17  27
ENDBRANCH   9  14
ENDBRANCH   5   8
ENDBRANCH   3   4
ENDBRANCH   2   3
ENDBRANCH   1   2
BRANCH   1  37
ATOM     37  C   UNL A   1      42.142  20.895  27.150  1.00  0.00     0.002 C 
BRANCH  37  38
ATOM     38  C   UNL A   1      42.547  21.368  25.752  1.00  0.00     0.021 C 
BRANCH  38  39
ATOM     39  C   UNL A   1      42.409  22.870  25.528  1.00  0.00     0.116 C 
BRANCH  39  40
ATOM     40  N   UNL A   1      43.634  23.455  25.009  1.00  0.00    -0.352 N 
ATOM     41  C   UNL A   1      44.215  24.662  25.300  1.00  0.00     0.251 C 
ATOM     42  H   UNL A   1      44.117  22.904  24.352  1.00  0.00     0.163 HD
ATOM     43  O   UNL A   1      45.140  25.081  24.610  1.00  0.00    -0.269 OA
BRANCH  41  44
ATOM     44  C   UNL A   1      43.722  25.471  26.435  1.00  0.00     0.039 A 
ATOM     45  C   UNL A   1      43.909  26.855  26.401  1.00  0.00     0.014 A 
ATOM     46  C   UNL A   1      43.121  24.872  27.547  1.00  0.00     0.014 A 
ATOM     47  C   UNL A   1      43.459  27.642  27.463  1.00  0.00     0.010 A 
ATOM     48  C   UNL A   1      42.615  25.664  28.575  1.00  0.00     0.010 A 
ATOM     49  C   UNL A   1      42.791  27.054  28.549  1.00  0.00    -0.014 A 
BRANCH  49  50
ATOM     50  C   UNL A   1      42.284  27.892  29.665  1.00  0.00     0.031 A 
ATOM     51  C   UNL A   1      40.979  28.624  29.536  1.00  0.00     0.074 A 
ATOM     52  C   UNL A   1      43.021  28.014  30.786  1.00  0.00     0.049 A 
ATOM     53  N   UNL A   1      40.368  29.387  30.409  1.00  0.00    -0.248 NA
ATOM     54  C   UNL A   1      40.277  28.507  28.249  1.00  0.00     0.031 C 
ATOM     55  C   UNL A   1      44.332  27.404  31.005  1.00  0.00     0.029 A 
ATOM     56  N   UNL A   1      42.770  28.693  31.952  1.00  0.00    -0.354 N 
ATOM     57  C   UNL A   1      39.221  29.846  29.773  1.00  0.00     0.074 A 
ATOM     58  C   UNL A   1      39.246  29.321  28.425  1.00  0.00     0.031 C 
ATOM     59  C   UNL A   1      44.757  27.707  32.243  1.00  0.00     0.029 A 
ATOM     60  C   UNL A   1      43.759  28.551  32.894  1.00  0.00     0.049 A 
ATOM     61  H   UNL A   1      41.959  29.231  32.099  1.00  0.00     0.167 HD
ATOM     62  C   UNL A   1      38.224  30.611  30.278  1.00  0.00     0.037 A 
ATOM     63  C   UNL A   1      43.844  29.034  34.147  1.00  0.00     0.037 A 
ATOM     64  C   UNL A   1      38.189  31.109  31.628  1.00  0.00     0.049 A 
ATOM     65  C   UNL A   1      42.705  29.851  34.696  1.00  0.00     0.074 A 
ATOM     66  C   UNL A   1      37.200  31.850  32.253  1.00  0.00     0.029 A 
ATOM     67  N   UNL A   1      39.193  30.913  32.566  1.00  0.00    -0.354 N 
ATOM     68  N   UNL A   1      41.590  30.213  34.111  1.00  0.00    -0.248 NA
ATOM     69  C   UNL A   1      42.831  30.307  36.086  1.00  0.00     0.031 C 
ATOM     70  C   UNL A   1      37.621  32.130  33.558  1.00  0.00     0.029 A 
ATOM     71  C   UNL A   1      38.850  31.525  33.761  1.00  0.00     0.049 A 
ATOM     72  H   UNL A   1      40.025  30.410  32.407  1.00  0.00     0.167 HD
ATOM     73  C   UNL A   1      40.867  30.912  35.069  1.00  0.00     0.074 A 
ATOM     74  C   UNL A   1      41.666  30.910  36.276  1.00  0.00     0.031 C 
ATOM     75  C   UNL A   1      39.653  31.503  34.958  1.00  0.00     0.037 A 
BRANCH  62  76
ATOM     76  C   UNL A   1      37.082  30.951  29.365  1.00  0.00     0.064 A 
ATOM     77  C   UNL A   1      36.076  30.018  29.069  1.00  0.00     0.173 A 
ATOM     78  C   UNL A   1      36.971  32.233  28.805  1.00  0.00     0.173 A 
ATOM     79  F   UNL A   1      36.141  28.774  29.568  1.00  0.00    -0.203 F 
ATOM     80  C   UNL A   1      35.019  30.345  28.224  1.00  0.00     0.198 A 
ATOM     81  C   UNL A   1      35.896  32.566  27.984  1.00  0.00     0.198 A 
ATOM     82  F   UNL A   1      37.901  33.165  29.060  1.00  0.00    -0.203 F 
ATOM     83  F   UNL A   1      34.098  29.422  27.916  1.00  0.00    -0.200 F 
ATOM     84  C   UNL A   1      34.926  31.620  27.688  1.00  0.00     0.200 A 
ATOM     85  F   UNL A   1      35.802  33.803  27.475  1.00  0.00    -0.200 F 
ATOM     86  F   UNL A   1      33.906  31.937  26.878  1.00  0.00    -0.200 F 
ENDBRANCH  62  76
BRANCH  63  87
ATOM     87  C   UNL A   1      45.025  28.711  34.986  1.00  0.00     0.064 A 
ATOM     88  C   UNL A   1      45.051  27.551  35.774  1.00  0.00     0.173 A 
ATOM     89  C   UNL A   1      46.150  29.548  35.018  1.00  0.00     0.173 A 
ATOM     90  F   UNL A   1      43.991  26.729  35.789  1.00  0.00    -0.203 F 
ATOM     91  C   UNL A   1      46.148  27.251  36.577  1.00  0.00     0.198 A 
ATOM     92  C   UNL A   1      47.258  29.233  35.802  1.00  0.00     0.198 A 
ATOM     93  F   UNL A   1      46.176  30.665  34.277  1.00  0.00    -0.203 F 
ATOM     94  F   UNL A   1      46.129  26.159  37.353  1.00  0.00    -0.200 F 
ATOM     95  C   UNL A   1      47.252  28.090  36.587  1.00  0.00     0.200 A 
ATOM     96  F   UNL A   1      48.329  30.038  35.797  1.00  0.00    -0.200 F 
ATOM     97  F   UNL A   1      48.310  27.799  37.357  1.00  0.00    -0.200 F 
ENDBRANCH  63  87
BRANCH  75  98
ATOM     98  C   UNL A   1      39.096  32.159  36.187  1.00  0.00     0.064 A 
ATOM     99  C   UNL A   1      39.413  33.483  36.523  1.00  0.00     0.173 A 
ATOM    100  C   UNL A   1      38.217  31.459  37.026  1.00  0.00     0.173 A 
ATOM    101  F   UNL A   1      40.260  34.190  35.760  1.00  0.00    -0.203 F 
ATOM    102  C   UNL A   1      38.896  34.072  37.674  1.00  0.00     0.198 A 
ATOM    103  C   UNL A   1      37.679  32.060  38.161  1.00  0.00     0.198 A 
ATOM    104  F   UNL A   1      37.877  30.192  36.745  1.00  0.00    -0.203 F 
ATOM    105  F   UNL A   1      39.254  35.320  38.005  1.00  0.00    -0.200 F 
ATOM    106  C   UNL A   1      38.026  33.362  38.488  1.00  0.00     0.200 A 
ATOM    107  F   UNL A   1      36.829  31.377  38.941  1.00  0.00    -0.200 F 
ATOM    108  F   UNL A   1      37.528  33.931  39.595  1.00  0.00    -0.200 F 
ENDBRANCH  75  98
ENDBRANCH  49  50
ENDBRANCH  41  44
ENDBRANCH  39  40
ENDBRANCH  38  39
ENDBRANCH  37  38
ENDBRANCH   1  37
TORSDOF 18
ENDMDL
MODEL 3
REMARK VINA RESULT:     -12.4      3.019      8.832
REMARK SMILES COc1cccc([C@H]2CC(c3ccc(S(C)(=O)=O)cc3)=NN2c2ccc(C(=O)NCCCCCCNC(=O)c3ccc(-c4c5nc(c(-c6c(F)c(F)c(F)c(F)c6F)c6ccc([nH]6)c(-c6c(F)c(F)c(F)c(F)c6F)c6nc(c(-c7c(F)c(F)c(F)c(F)c7F)c7ccc4[nH]7)C=C6)C=C5)cc3)cc2)c1
REMARK SMILES IDX 32 1 31 2 30 3 29 4 27 5 28 6 26 8 23 9 24 10 103 11 25 12
REMARK SMILES IDX 102 13 22 14 8 15 9 16 10 17 21 18 7 19 3 20 4 21 104 22
REMARK SMILES IDX 5 23 6 24 2 25 1 26 11 27 12 28 20 29 13 30 19 31 14 32
REMARK SMILES IDX 15 33 16 34 17 35 18 36 33 37 34 38 35 39 36 40 37 41 38 43
REMARK SMILES IDX 39 44 40 45 101 46 41 47 100 48 42 49 43 50 44 51 94 52
REMARK SMILES IDX 45 53 99 54 93 55 95 56 46 57 98 58 92 59 91 60 47 62 79 63
REMARK SMILES IDX 59 64 78 65 60 66 63 67 77 68 96 69 61 70 62 71 76 73 97 74
REMARK SMILES IDX 64 75 48 76 49 77 57 78 50 79 51 80 55 81 58 82 52 83 53 84
REMARK SMILES IDX 56 85 54 86 80 87 81 88 89 89 82 90 83 91 87 92 90 93 84 94
REMARK SMILES IDX 85 95 88 96 86 97 65 98 66 99 74 100 67 101 68 102 72 103
REMARK SMILES IDX 75 104 69 105 70 106 73 107 71 108
REMARK H PARENT 29 7 36 42 95 61 63 72
REMARK Flexibility Score: inf
ROOT
ATOM      1  C   UNL A   1      33.173  28.583  23.620  1.00  0.00     0.002 C 
ENDROOT
BRANCH   1   2
ATOM      2  C   UNL A   1      31.705  28.953  23.874  1.00  0.00     0.021 C 
BRANCH   2   3
ATOM      3  C   UNL A   1      30.792  28.641  22.686  1.00  0.00     0.116 C 
BRANCH   3   4
ATOM      4  N   UNL A   1      29.618  27.925  23.145  1.00  0.00    -0.352 N 
ATOM      5  C   UNL A   1      29.428  26.641  23.582  1.00  0.00     0.251 C 
ATOM      6  O   UNL A   1      28.280  26.313  23.883  1.00  0.00    -0.269 OA
ATOM      7  H   UNL A   1      28.798  28.469  23.141  1.00  0.00     0.163 HD
BRANCH   5   8
ATOM      8  C   UNL A   1      30.536  25.666  23.773  1.00  0.00     0.039 A 
ATOM      9  C   UNL A   1      32.652  23.887  24.368  1.00  0.00     0.060 A 
ATOM     10  C   UNL A   1      31.726  24.250  25.349  1.00  0.00     0.029 A 
ATOM     11  C   UNL A   1      32.468  24.371  23.071  1.00  0.00     0.029 A 
ATOM     12  C   UNL A   1      30.693  25.144  25.063  1.00  0.00     0.016 A 
ATOM     13  C   UNL A   1      31.396  25.220  22.765  1.00  0.00     0.016 A 
BRANCH   9  14
ATOM     14  N   UNL A   1      33.705  23.052  24.698  1.00  0.00    -0.257 N 
ATOM     15  C   UNL A   1      33.558  21.668  25.147  1.00  0.00     0.144 C 
ATOM     16  C   UNL A   1      34.999  21.284  25.514  1.00  0.00     0.091 C 
ATOM     17  C   UNL A   1      35.668  22.620  25.362  1.00  0.00     0.071 C 
ATOM     18  N   UNL A   1      34.932  23.585  24.910  1.00  0.00    -0.176 NA
BRANCH  15  19
ATOM     19  C   UNL A   1      32.961  20.793  24.059  1.00  0.00    -0.019 A 
ATOM     20  C   UNL A   1      32.603  18.596  23.056  1.00  0.00     0.119 A 
ATOM     21  C   UNL A   1      31.952  19.200  21.982  1.00  0.00     0.046 A 
ATOM     22  C   UNL A   1      33.115  19.391  24.082  1.00  0.00     0.052 A 
ATOM     23  C   UNL A   1      31.782  20.584  21.945  1.00  0.00     0.004 A 
ATOM     24  C   UNL A   1      32.281  21.376  22.979  1.00  0.00     0.006 A 
BRANCH  20  25
ATOM     25  O   UNL A   1      32.715  17.234  22.976  1.00  0.00    -0.497 OA
ATOM     26  C   UNL A   1      34.028  16.706  23.125  1.00  0.00     0.278 C 
ENDBRANCH  20  25
ENDBRANCH  15  19
BRANCH  17  27
ATOM     27  C   UNL A   1      37.067  22.819  25.744  1.00  0.00    -0.002 A 
ATOM     28  C   UNL A   1      37.919  21.710  25.745  1.00  0.00     0.011 A 
ATOM     29  C   UNL A   1      37.521  24.079  26.135  1.00  0.00     0.011 A 
ATOM     30  C   UNL A   1      39.250  21.864  26.126  1.00  0.00     0.021 A 
ATOM     31  C   UNL A   1      38.847  24.231  26.543  1.00  0.00     0.021 A 
ATOM     32  C   UNL A   1      39.702  23.122  26.539  1.00  0.00     0.067 A 
BRANCH  32  33
ATOM     33  S   UNL A   1      41.398  23.303  27.044  1.00  0.00     0.175 S 
ATOM     34  C   UNL A   1      42.291  22.207  25.970  1.00  0.00     0.163 C 
ATOM     35  O   UNL A   1      41.780  24.666  26.734  1.00  0.00    -0.224 OA
ATOM     36  O   UNL A   1      41.510  22.780  28.394  1.00  0.00    -0.224 OA
ENDBRANCH  32  33
ENDBRANCH  17  27
ENDBRANCH   9  14
ENDBRANCH   5   8
ENDBRANCH   3   4
ENDBRANCH   2   3
ENDBRANCH   1   2
BRANCH   1  37
ATOM     37  C   UNL A   1      33.723  27.480  24.532  1.00  0.00     0.002 C 
BRANCH  37  38
ATOM     38  C   UNL A   1      33.629  27.772  26.032  1.00  0.00     0.021 C 
BRANCH  38  39
ATOM     39  C   UNL A   1      34.742  28.664  26.573  1.00  0.00     0.116 C 
BRANCH  39  40
ATOM     40  N   UNL A   1      34.316  30.048  26.694  1.00  0.00    -0.352 N 
ATOM     41  C   UNL A   1      34.734  31.015  27.571  1.00  0.00     0.251 C 
ATOM     42  H   UNL A   1      33.625  30.332  26.053  1.00  0.00     0.163 HD
ATOM     43  O   UNL A   1      34.114  32.070  27.664  1.00  0.00    -0.269 OA
BRANCH  41  44
ATOM     44  C   UNL A   1      35.924  30.788  28.418  1.00  0.00     0.039 A 
ATOM     45  C   UNL A   1      35.923  29.701  29.296  1.00  0.00     0.014 A 
ATOM     46  C   UNL A   1      37.017  31.661  28.385  1.00  0.00     0.014 A 
ATOM     47  C   UNL A   1      37.031  29.467  30.112  1.00  0.00     0.010 A 
ATOM     48  C   UNL A   1      38.148  31.389  29.151  1.00  0.00     0.010 A 
ATOM     49  C   UNL A   1      38.161  30.298  30.031  1.00  0.00    -0.014 A 
BRANCH  49  50
ATOM     50  C   UNL A   1      39.353  30.034  30.875  1.00  0.00     0.031 A 
ATOM     51  C   UNL A   1      39.475  30.657  32.237  1.00  0.00     0.074 A 
ATOM     52  C   UNL A   1      40.340  29.252  30.398  1.00  0.00     0.049 A 
ATOM     53  N   UNL A   1      40.432  30.528  33.123  1.00  0.00    -0.248 NA
ATOM     54  C   UNL A   1      38.395  31.565  32.650  1.00  0.00     0.031 C 
ATOM     55  C   UNL A   1      40.365  28.641  29.069  1.00  0.00     0.029 A 
ATOM     56  N   UNL A   1      41.511  28.836  30.978  1.00  0.00    -0.354 N 
ATOM     57  C   UNL A   1      40.073  31.344  34.188  1.00  0.00     0.074 A 
ATOM     58  C   UNL A   1      38.841  32.005  33.818  1.00  0.00     0.031 C 
ATOM     59  C   UNL A   1      41.479  27.902  28.946  1.00  0.00     0.029 A 
ATOM     60  C   UNL A   1      42.256  28.005  30.178  1.00  0.00     0.049 A 
ATOM     61  H   UNL A   1      41.793  29.107  31.881  1.00  0.00     0.167 HD
ATOM     62  C   UNL A   1      40.700  31.505  35.378  1.00  0.00     0.037 A 
ATOM     63  C   UNL A   1      43.426  27.384  30.416  1.00  0.00     0.037 A 
ATOM     64  C   UNL A   1      41.912  30.825  35.754  1.00  0.00     0.049 A 
ATOM     65  C   UNL A   1      44.082  27.549  31.760  1.00  0.00     0.074 A 
ATOM     66  C   UNL A   1      42.598  30.879  36.955  1.00  0.00     0.029 A 
ATOM     67  N   UNL A   1      42.617  29.960  34.930  1.00  0.00    -0.354 N 
ATOM     68  N   UNL A   1      43.694  28.263  32.788  1.00  0.00    -0.248 NA
ATOM     69  C   UNL A   1      45.330  26.807  31.981  1.00  0.00     0.031 C 
ATOM     70  C   UNL A   1      43.738  30.074  36.844  1.00  0.00     0.029 A 
ATOM     71  C   UNL A   1      43.737  29.482  35.592  1.00  0.00     0.049 A 
ATOM     72  H   UNL A   1      42.360  29.720  34.010  1.00  0.00     0.167 HD
ATOM     73  C   UNL A   1      44.629  28.032  33.788  1.00  0.00     0.074 A 
ATOM     74  C   UNL A   1      45.596  27.101  33.246  1.00  0.00     0.031 C 
ATOM     75  C   UNL A   1      44.683  28.545  35.041  1.00  0.00     0.037 A 
BRANCH  62  76
ATOM     76  C   UNL A   1      40.079  32.450  36.366  1.00  0.00     0.064 A 
ATOM     77  C   UNL A   1      38.954  32.087  37.123  1.00  0.00     0.173 A 
ATOM     78  C   UNL A   1      40.634  33.721  36.584  1.00  0.00     0.173 A 
ATOM     79  F   UNL A   1      38.379  30.888  36.943  1.00  0.00    -0.203 F 
ATOM     80  C   UNL A   1      38.390  32.971  38.039  1.00  0.00     0.198 A 
ATOM     81  C   UNL A   1      40.083  34.591  37.523  1.00  0.00     0.198 A 
ATOM     82  F   UNL A   1      41.712  34.117  35.893  1.00  0.00    -0.203 F 
ATOM     83  F   UNL A   1      37.286  32.620  38.713  1.00  0.00    -0.200 F 
ATOM     84  C   UNL A   1      38.958  34.218  38.243  1.00  0.00     0.200 A 
ATOM     85  F   UNL A   1      40.641  35.793  37.728  1.00  0.00    -0.200 F 
ATOM     86  F   UNL A   1      38.417  35.066  39.129  1.00  0.00    -0.200 F 
ENDBRANCH  62  76
BRANCH  63  87
ATOM     87  C   UNL A   1      44.021  26.503  29.380  1.00  0.00     0.064 A 
ATOM     88  C   UNL A   1      44.624  27.047  28.236  1.00  0.00     0.173 A 
ATOM     89  C   UNL A   1      44.006  25.108  29.509  1.00  0.00     0.173 A 
ATOM     90  F   UNL A   1      44.648  28.376  28.060  1.00  0.00    -0.203 F 
ATOM     91  C   UNL A   1      45.169  26.226  27.251  1.00  0.00     0.198 A 
ATOM     92  C   UNL A   1      44.574  24.288  28.536  1.00  0.00     0.198 A 
ATOM     93  F   UNL A   1      43.448  24.540  30.589  1.00  0.00    -0.203 F 
ATOM     94  F   UNL A   1      45.699  26.770  26.148  1.00  0.00    -0.200 F 
ATOM     95  C   UNL A   1      45.148  24.849  27.404  1.00  0.00     0.200 A 
ATOM     96  F   UNL A   1      44.565  22.959  28.694  1.00  0.00    -0.200 F 
ATOM     97  F   UNL A   1      45.675  24.059  26.458  1.00  0.00    -0.200 F 
ENDBRANCH  63  87
BRANCH  75  98
ATOM     98  C   UNL A   1      45.801  28.077  35.925  1.00  0.00     0.064 A 
ATOM     99  C   UNL A   1      45.669  26.948  36.746  1.00  0.00     0.173 A 
ATOM    100  C   UNL A   1      47.028  28.757  35.933  1.00  0.00     0.173 A 
ATOM    101  F   UNL A   1      44.510  26.273  36.784  1.00  0.00    -0.203 F 
ATOM    102  C   UNL A   1      46.713  26.535  37.568  1.00  0.00     0.198 A 
ATOM    103  C   UNL A   1      48.081  28.324  36.734  1.00  0.00     0.198 A 
ATOM    104  F   UNL A   1      47.208  29.839  35.160  1.00  0.00    -0.203 F 
ATOM    105  F   UNL A   1      46.547  25.486  38.384  1.00  0.00    -0.200 F 
ATOM    106  C   UNL A   1      47.920  27.220  37.557  1.00  0.00     0.200 A 
ATOM    107  F   UNL A   1      49.250  28.980  36.715  1.00  0.00    -0.200 F 
ATOM    108  F   UNL A   1      48.925  26.821  38.349  1.00  0.00    -0.200 F 
ENDBRANCH  75  98
ENDBRANCH  49  50
ENDBRANCH  41  44
ENDBRANCH  39  40
ENDBRANCH  38  39
ENDBRANCH  37  38
ENDBRANCH   1  37
TORSDOF 18
ENDMDL
