MODEL 1
REMARK VINA RESULT:     -11.7      0.000      0.000
REMARK SMILES CC(C)(C)OC(=O)N[C@@H](C(=O)NCCCCCCNC(=O)c1ccc(-c2c3nc(c(-c4c(F)c(F)c(F)c(F)c4F)c4ccc([nH]4)c(-c4c(F)c(F)c(F)c(F)c4F)c4nc(c(-c5c(F)c(F)c(F)c(F)c5F)c5ccc2[nH]5)C=C4)C=C3)cc1)[C@H](O)c1ccccc1F
REMARK SMILES IDX 15 1 14 2 13 3 12 4 10 5 11 6 9 8 8 9 6 10 7 11 5 13 2 14
REMARK SMILES IDX 1 15 3 16 4 17 85 18 87 19 88 20 92 21 89 22 91 23 93 24
REMARK SMILES IDX 90 25 86 26 16 28 17 29 18 30 19 31 20 32 21 34 22 35 23 36
REMARK SMILES IDX 84 37 24 38 83 39 25 40 26 41 27 42 77 43 28 44 82 45 76 46
REMARK SMILES IDX 78 47 29 48 81 49 75 50 74 51 30 53 62 54 42 55 61 56 43 57
REMARK SMILES IDX 46 58 60 59 79 60 44 61 45 62 59 64 80 65 47 66 31 67 32 68
REMARK SMILES IDX 40 69 33 70 34 71 38 72 41 73 35 74 36 75 39 76 37 77 63 78
REMARK SMILES IDX 64 79 72 80 65 81 66 82 70 83 73 84 67 85 68 86 71 87 69 88
REMARK SMILES IDX 48 89 49 90 57 91 50 92 51 93 55 94 58 95 52 96 53 97 56 98
REMARK SMILES IDX 54 99
REMARK H PARENT 12 7 8 12 86 27 19 33 78 52 46 63
REMARK Flexibility Score: inf
ROOT
ATOM      1  C   UNL A   1      32.186  29.646  26.906  1.00  0.00     0.002 C 
ENDROOT
BRANCH   1   2
ATOM      2  C   UNL A   1      31.776  28.175  26.753  1.00  0.00     0.021 C 
BRANCH   2   3
ATOM      3  C   UNL A   1      32.916  27.287  26.256  1.00  0.00     0.116 C 
BRANCH   3   4
ATOM      4  N   UNL A   1      33.725  27.995  25.287  1.00  0.00    -0.354 N 
ATOM      5  C   UNL A   1      33.646  27.972  23.922  1.00  0.00     0.245 C 
ATOM      6  O   UNL A   1      34.558  28.516  23.294  1.00  0.00    -0.273 OA
ATOM      7  H   UNL A   1      34.428  28.573  25.662  1.00  0.00     0.163 HD
BRANCH   5   8
ATOM      8  C   UNL A   1      32.444  27.296  23.232  1.00  0.00     0.208 C 
BRANCH   8   9
ATOM      9  N   UNL A   1      32.941  26.211  22.365  1.00  0.00    -0.307 N 
ATOM     10  C   UNL A   1      33.051  24.892  22.692  1.00  0.00     0.408 C 
ATOM     11  O   UNL A   1      33.450  24.070  21.880  1.00  0.00    -0.225 OA
ATOM     12  H   UNL A   1      33.225  26.466  21.458  1.00  0.00     0.168 HD
BRANCH  10  13
ATOM     13  O   UNL A   1      32.730  24.641  23.984  1.00  0.00    -0.444 OA
BRANCH  13  14
ATOM     14  C   UNL A   1      31.566  23.843  24.332  1.00  0.00     0.106 C 
ATOM     15  C   UNL A   1      32.108  22.420  24.550  1.00  0.00     0.056 C 
ATOM     16  C   UNL A   1      30.546  23.789  23.188  1.00  0.00     0.056 C 
ATOM     17  C   UNL A   1      30.940  24.338  25.638  1.00  0.00     0.056 C 
ENDBRANCH  13  14
ENDBRANCH  10  13
ENDBRANCH   8   9
BRANCH   8  18
ATOM     18  C   UNL A   1      31.574  28.274  22.386  1.00  0.00     0.179 C 
BRANCH  18  19
ATOM     19  C   UNL A   1      30.098  28.287  22.710  1.00  0.00     0.019 A 
ATOM     20  C   UNL A   1      29.553  27.243  23.478  1.00  0.00     0.009 A 
ATOM     21  C   UNL A   1      29.235  29.295  22.277  1.00  0.00     0.129 A 
ATOM     22  C   UNL A   1      28.197  27.229  23.813  1.00  0.00     0.001 A 
ATOM     23  C   UNL A   1      27.879  29.284  22.600  1.00  0.00     0.039 A 
ATOM     24  F   UNL A   1      29.697  30.318  21.549  1.00  0.00    -0.207 F 
ATOM     25  C   UNL A   1      27.360  28.251  23.374  1.00  0.00     0.003 A 
ENDBRANCH  18  19
BRANCH  18  26
ATOM     26  O   UNL A   1      32.065  29.613  22.317  1.00  0.00    -0.386 OA
ATOM     27  H   UNL A   1      32.981  29.606  21.998  1.00  0.00     0.211 HD
ENDBRANCH  18  26
ENDBRANCH   8  18
ENDBRANCH   5   8
ENDBRANCH   3   4
ENDBRANCH   2   3
ENDBRANCH   1   2
BRANCH   1  28
ATOM     28  C   UNL A   1      31.477  30.604  25.943  1.00  0.00     0.002 C 
BRANCH  28  29
ATOM     29  C   UNL A   1      31.337  32.040  26.458  1.00  0.00     0.021 C 
BRANCH  29  30
ATOM     30  C   UNL A   1      32.556  32.549  27.222  1.00  0.00     0.116 C 
BRANCH  30  31
ATOM     31  N   UNL A   1      32.413  33.948  27.587  1.00  0.00    -0.352 N 
ATOM     32  C   UNL A   1      33.061  34.678  28.548  1.00  0.00     0.251 C 
ATOM     33  H   UNL A   1      31.747  34.449  27.062  1.00  0.00     0.163 HD
ATOM     34  O   UNL A   1      32.633  35.783  28.867  1.00  0.00    -0.269 OA
BRANCH  32  35
ATOM     35  C   UNL A   1      34.266  34.138  29.213  1.00  0.00     0.039 A 
ATOM     36  C   UNL A   1      34.095  33.237  30.267  1.00  0.00     0.014 A 
ATOM     37  C   UNL A   1      35.551  34.534  28.832  1.00  0.00     0.014 A 
ATOM     38  C   UNL A   1      35.212  32.700  30.904  1.00  0.00     0.010 A 
ATOM     39  C   UNL A   1      36.666  33.931  29.411  1.00  0.00     0.010 A 
ATOM     40  C   UNL A   1      36.508  33.014  30.458  1.00  0.00    -0.014 A 
BRANCH  40  41
ATOM     41  C   UNL A   1      37.685  32.349  31.070  1.00  0.00     0.031 A 
ATOM     42  C   UNL A   1      38.171  32.727  32.439  1.00  0.00     0.074 A 
ATOM     43  C   UNL A   1      38.337  31.405  30.362  1.00  0.00     0.049 A 
ATOM     44  N   UNL A   1      39.139  32.199  33.147  1.00  0.00    -0.248 NA
ATOM     45  C   UNL A   1      37.505  33.865  33.088  1.00  0.00     0.031 C 
ATOM     46  C   UNL A   1      38.012  31.009  28.992  1.00  0.00     0.029 A 
ATOM     47  N   UNL A   1      39.399  30.607  30.698  1.00  0.00    -0.354 N 
ATOM     48  C   UNL A   1      39.199  32.942  34.319  1.00  0.00     0.074 A 
ATOM     49  C   UNL A   1      38.216  33.996  34.197  1.00  0.00     0.031 C 
ATOM     50  C   UNL A   1      38.828  30.013  28.618  1.00  0.00     0.029 A 
ATOM     51  C   UNL A   1      39.757  29.726  29.707  1.00  0.00     0.049 A 
ATOM     52  H   UNL A   1      39.862  30.659  31.566  1.00  0.00     0.167 HD
ATOM     53  C   UNL A   1      39.986  32.745  35.405  1.00  0.00     0.037 A 
ATOM     54  C   UNL A   1      40.721  28.789  29.678  1.00  0.00     0.037 A 
ATOM     55  C   UNL A   1      40.967  31.693  35.513  1.00  0.00     0.049 A 
ATOM     56  C   UNL A   1      41.568  28.573  30.899  1.00  0.00     0.074 A 
ATOM     57  C   UNL A   1      41.764  31.363  36.595  1.00  0.00     0.029 A 
ATOM     58  N   UNL A   1      41.297  30.811  34.493  1.00  0.00    -0.354 N 
ATOM     59  N   UNL A   1      41.548  29.211  32.044  1.00  0.00    -0.248 NA
ATOM     60  C   UNL A   1      42.560  27.493  30.829  1.00  0.00     0.031 C 
ATOM     61  C   UNL A   1      42.627  30.331  36.205  1.00  0.00     0.029 A 
ATOM     62  C   UNL A   1      42.315  29.963  34.906  1.00  0.00     0.049 A 
ATOM     63  H   UNL A   1      40.873  30.792  33.605  1.00  0.00     0.167 HD
ATOM     64  C   UNL A   1      42.511  28.604  32.838  1.00  0.00     0.074 A 
ATOM     65  C   UNL A   1      43.074  27.525  32.050  1.00  0.00     0.031 C 
ATOM     66  C   UNL A   1      42.892  28.910  34.104  1.00  0.00     0.037 A 
BRANCH  53  67
ATOM     67  C   UNL A   1      39.831  33.709  36.552  1.00  0.00     0.064 A 
ATOM     68  C   UNL A   1      39.005  33.428  37.654  1.00  0.00     0.173 A 
ATOM     69  C   UNL A   1      40.519  34.932  36.551  1.00  0.00     0.173 A 
ATOM     70  F   UNL A   1      38.319  32.277  37.708  1.00  0.00    -0.203 F 
ATOM     71  C   UNL A   1      38.834  34.355  38.680  1.00  0.00     0.198 A 
ATOM     72  C   UNL A   1      40.376  35.840  37.599  1.00  0.00     0.198 A 
ATOM     73  F   UNL A   1      41.330  35.253  35.531  1.00  0.00    -0.203 F 
ATOM     74  F   UNL A   1      37.981  34.094  39.680  1.00  0.00    -0.200 F 
ATOM     75  C   UNL A   1      39.522  35.557  38.653  1.00  0.00     0.200 A 
ATOM     76  F   UNL A   1      41.056  36.994  37.579  1.00  0.00    -0.200 F 
ATOM     77  F   UNL A   1      39.355  36.450  39.639  1.00  0.00    -0.200 F 
ENDBRANCH  53  67
BRANCH  54  78
ATOM     78  C   UNL A   1      40.899  27.970  28.451  1.00  0.00     0.064 A 
ATOM     79  C   UNL A   1      40.241  26.743  28.293  1.00  0.00     0.173 A 
ATOM     80  C   UNL A   1      41.696  28.425  27.390  1.00  0.00     0.173 A 
ATOM     81  F   UNL A   1      39.481  26.258  29.287  1.00  0.00    -0.203 F 
ATOM     82  C   UNL A   1      40.379  25.999  27.124  1.00  0.00     0.198 A 
ATOM     83  C   UNL A   1      41.807  27.695  26.208  1.00  0.00     0.198 A 
ATOM     84  F   UNL A   1      42.338  29.598  27.486  1.00  0.00    -0.203 F 
ATOM     85  F   UNL A   1      39.764  24.813  27.010  1.00  0.00    -0.200 F 
ATOM     86  C   UNL A   1      41.153  26.480  26.079  1.00  0.00     0.200 A 
ATOM     87  F   UNL A   1      42.538  28.176  25.194  1.00  0.00    -0.200 F 
ATOM     88  F   UNL A   1      41.268  25.774  24.945  1.00  0.00    -0.200 F 
ENDBRANCH  54  78
BRANCH  66  89
ATOM     89  C   UNL A   1      43.966  28.053  34.717  1.00  0.00     0.064 A 
ATOM     90  C   UNL A   1      45.326  28.392  34.628  1.00  0.00     0.173 A 
ATOM     91  C   UNL A   1      43.633  26.870  35.394  1.00  0.00     0.173 A 
ATOM     92  F   UNL A   1      45.704  29.506  33.982  1.00  0.00    -0.203 F 
ATOM     93  C   UNL A   1      46.310  27.555  35.148  1.00  0.00     0.198 A 
ATOM     94  C   UNL A   1      44.616  26.056  35.948  1.00  0.00     0.198 A 
ATOM     95  F   UNL A   1      42.349  26.500  35.519  1.00  0.00    -0.203 F 
ATOM     96  F   UNL A   1      47.604  27.861  34.981  1.00  0.00    -0.200 F 
ATOM     97  C   UNL A   1      45.955  26.390  35.811  1.00  0.00     0.200 A 
ATOM     98  F   UNL A   1      44.270  24.941  36.605  1.00  0.00    -0.200 F 
ATOM     99  F   UNL A   1      46.903  25.583  36.306  1.00  0.00    -0.200 F 
ENDBRANCH  66  89
ENDBRANCH  40  41
ENDBRANCH  32  35
ENDBRANCH  30  31
ENDBRANCH  29  30
ENDBRANCH  28  29
ENDBRANCH   1  28
TORSDOF 19
ENDMDL
MODEL 2
REMARK VINA RESULT:     -11.5      1.093      7.256
REMARK SMILES CC(C)(C)OC(=O)N[C@@H](C(=O)NCCCCCCNC(=O)c1ccc(-c2c3nc(c(-c4c(F)c(F)c(F)c(F)c4F)c4ccc([nH]4)c(-c4c(F)c(F)c(F)c(F)c4F)c4nc(c(-c5c(F)c(F)c(F)c(F)c5F)c5ccc2[nH]5)C=C4)C=C3)cc1)[C@H](O)c1ccccc1F
REMARK SMILES IDX 15 1 14 2 13 3 12 4 10 5 11 6 9 8 8 9 6 10 7 11 5 13 2 14
REMARK SMILES IDX 1 15 3 16 4 17 85 18 87 19 88 20 92 21 89 22 91 23 93 24
REMARK SMILES IDX 90 25 86 26 16 28 17 29 18 30 19 31 20 32 21 34 22 35 23 36
REMARK SMILES IDX 84 37 24 38 83 39 25 40 26 41 27 42 77 43 28 44 82 45 76 46
REMARK SMILES IDX 78 47 29 48 81 49 75 50 74 51 30 53 62 54 42 55 61 56 43 57
REMARK SMILES IDX 46 58 60 59 79 60 44 61 45 62 59 64 80 65 47 66 31 67 32 68
REMARK SMILES IDX 40 69 33 70 34 71 38 72 41 73 35 74 36 75 39 76 37 77 63 78
REMARK SMILES IDX 64 79 72 80 65 81 66 82 70 83 73 84 67 85 68 86 71 87 69 88
REMARK SMILES IDX 48 89 49 90 57 91 50 92 51 93 55 94 58 95 52 96 53 97 56 98
REMARK SMILES IDX 54 99
REMARK H PARENT 12 7 8 12 86 27 19 33 78 52 46 63
REMARK Flexibility Score: inf
ROOT
ATOM      1  C   UNL A   1      32.219  29.974  26.711  1.00  0.00     0.002 C 
ENDROOT
BRANCH   1   2
ATOM      2  C   UNL A   1      33.645  29.775  26.181  1.00  0.00     0.021 C 
BRANCH   2   3
ATOM      3  C   UNL A   1      33.838  28.431  25.479  1.00  0.00     0.116 C 
BRANCH   3   4
ATOM      4  N   UNL A   1      34.014  28.623  24.055  1.00  0.00    -0.354 N 
ATOM      5  C   UNL A   1      33.587  27.833  23.024  1.00  0.00     0.245 C 
ATOM      6  O   UNL A   1      34.009  28.100  21.895  1.00  0.00    -0.273 OA
ATOM      7  H   UNL A   1      34.508  29.433  23.793  1.00  0.00     0.163 HD
BRANCH   5   8
ATOM      8  C   UNL A   1      32.607  26.674  23.296  1.00  0.00     0.208 C 
BRANCH   8   9
ATOM      9  N   UNL A   1      33.334  25.397  23.171  1.00  0.00    -0.307 N 
ATOM     10  C   UNL A   1      33.451  24.428  24.123  1.00  0.00     0.408 C 
ATOM     11  O   UNL A   1      34.056  23.390  23.900  1.00  0.00    -0.225 OA
ATOM     12  H   UNL A   1      33.783  25.227  22.311  1.00  0.00     0.168 HD
BRANCH  10  13
ATOM     13  O   UNL A   1      32.888  24.779  25.304  1.00  0.00    -0.444 OA
BRANCH  13  14
ATOM     14  C   UNL A   1      31.578  24.284  25.693  1.00  0.00     0.106 C 
ATOM     15  C   UNL A   1      31.839  23.371  26.903  1.00  0.00     0.056 C 
ATOM     16  C   UNL A   1      30.937  23.432  24.590  1.00  0.00     0.056 C 
ATOM     17  C   UNL A   1      30.670  25.436  26.131  1.00  0.00     0.056 C 
ENDBRANCH  13  14
ENDBRANCH  10  13
ENDBRANCH   8   9
BRANCH   8  18
ATOM     18  C   UNL A   1      31.372  26.659  22.346  1.00  0.00     0.179 C 
BRANCH  18  19
ATOM     19  C   UNL A   1      30.339  27.734  22.597  1.00  0.00     0.019 A 
ATOM     20  C   UNL A   1      30.615  29.057  22.209  1.00  0.00     0.009 A 
ATOM     21  C   UNL A   1      29.109  27.476  23.204  1.00  0.00     0.129 A 
ATOM     22  C   UNL A   1      29.678  30.074  22.408  1.00  0.00     0.001 A 
ATOM     23  C   UNL A   1      28.172  28.487  23.413  1.00  0.00     0.039 A 
ATOM     24  F   UNL A   1      28.788  26.235  23.588  1.00  0.00    -0.207 F 
ATOM     25  C   UNL A   1      28.455  29.788  23.010  1.00  0.00     0.003 A 
ENDBRANCH  18  19
BRANCH  18  26
ATOM     26  O   UNL A   1      31.683  26.604  20.953  1.00  0.00    -0.386 OA
ATOM     27  H   UNL A   1      30.875  26.418  20.449  1.00  0.00     0.211 HD
ENDBRANCH  18  26
ENDBRANCH   8  18
ENDBRANCH   5   8
ENDBRANCH   3   4
ENDBRANCH   2   3
ENDBRANCH   1   2
BRANCH   1  28
ATOM     28  C   UNL A   1      31.367  30.947  25.890  1.00  0.00     0.002 C 
BRANCH  28  29
ATOM     29  C   UNL A   1      31.212  32.339  26.509  1.00  0.00     0.021 C 
BRANCH  29  30
ATOM     30  C   UNL A   1      32.446  32.827  27.261  1.00  0.00     0.116 C 
BRANCH  30  31
ATOM     31  N   UNL A   1      32.340  34.235  27.608  1.00  0.00    -0.352 N 
ATOM     32  C   UNL A   1      32.971  34.949  28.592  1.00  0.00     0.251 C 
ATOM     33  H   UNL A   1      31.719  34.756  27.049  1.00  0.00     0.163 HD
ATOM     34  O   UNL A   1      32.571  36.072  28.883  1.00  0.00    -0.269 OA
BRANCH  32  35
ATOM     35  C   UNL A   1      34.122  34.369  29.316  1.00  0.00     0.039 A 
ATOM     36  C   UNL A   1      33.880  33.682  30.508  1.00  0.00     0.014 A 
ATOM     37  C   UNL A   1      35.432  34.526  28.852  1.00  0.00     0.014 A 
ATOM     38  C   UNL A   1      34.944  33.113  31.205  1.00  0.00     0.010 A 
ATOM     39  C   UNL A   1      36.483  33.884  29.504  1.00  0.00     0.010 A 
ATOM     40  C   UNL A   1      36.250  33.178  30.691  1.00  0.00    -0.014 A 
BRANCH  40  41
ATOM     41  C   UNL A   1      37.357  32.471  31.383  1.00  0.00     0.031 A 
ATOM     42  C   UNL A   1      38.070  31.317  30.739  1.00  0.00     0.074 A 
ATOM     43  C   UNL A   1      37.704  32.867  32.624  1.00  0.00     0.049 A 
ATOM     44  N   UNL A   1      39.101  30.636  31.174  1.00  0.00    -0.248 NA
ATOM     45  C   UNL A   1      37.540  30.848  29.451  1.00  0.00     0.031 C 
ATOM     46  C   UNL A   1      37.033  33.919  33.388  1.00  0.00     0.029 A 
ATOM     47  N   UNL A   1      38.705  32.437  33.455  1.00  0.00    -0.354 N 
ATOM     48  C   UNL A   1      39.338  29.657  30.219  1.00  0.00     0.074 A 
ATOM     49  C   UNL A   1      38.305  29.792  29.215  1.00  0.00     0.031 C 
ATOM     50  C   UNL A   1      37.667  34.084  34.557  1.00  0.00     0.029 A 
ATOM     51  C   UNL A   1      38.764  33.125  34.642  1.00  0.00     0.049 A 
ATOM     52  H   UNL A   1      39.323  31.705  33.225  1.00  0.00     0.167 HD
ATOM     53  C   UNL A   1      40.342  28.746  30.172  1.00  0.00     0.037 A 
ATOM     54  C   UNL A   1      39.610  33.002  35.681  1.00  0.00     0.037 A 
ATOM     55  C   UNL A   1      41.364  28.618  31.182  1.00  0.00     0.049 A 
ATOM     56  C   UNL A   1      40.727  32.002  35.601  1.00  0.00     0.074 A 
ATOM     57  C   UNL A   1      42.464  27.778  31.196  1.00  0.00     0.029 A 
ATOM     58  N   UNL A   1      41.400  29.338  32.368  1.00  0.00    -0.354 N 
ATOM     59  N   UNL A   1      41.008  31.150  34.645  1.00  0.00    -0.248 NA
ATOM     60  C   UNL A   1      41.654  31.959  36.737  1.00  0.00     0.031 C 
ATOM     61  C   UNL A   1      43.122  27.938  32.421  1.00  0.00     0.029 A 
ATOM     62  C   UNL A   1      42.481  28.934  33.140  1.00  0.00     0.049 A 
ATOM     63  H   UNL A   1      40.752  30.033  32.626  1.00  0.00     0.167 HD
ATOM     64  C   UNL A   1      42.152  30.480  35.055  1.00  0.00     0.074 A 
ATOM     65  C   UNL A   1      42.528  31.049  36.334  1.00  0.00     0.031 C 
ATOM     66  C   UNL A   1      42.831  29.485  34.427  1.00  0.00     0.037 A 
BRANCH  53  67
ATOM     67  C   UNL A   1      40.362  27.802  29.000  1.00  0.00     0.064 A 
ATOM     68  C   UNL A   1      41.112  28.069  27.842  1.00  0.00     0.173 A 
ATOM     69  C   UNL A   1      39.620  26.611  29.033  1.00  0.00     0.173 A 
ATOM     70  F   UNL A   1      41.837  29.194  27.751  1.00  0.00    -0.203 F 
ATOM     71  C   UNL A   1      41.076  27.208  26.746  1.00  0.00     0.198 A 
ATOM     72  C   UNL A   1      39.618  25.733  27.951  1.00  0.00     0.198 A 
ATOM     73  F   UNL A   1      38.891  26.297  30.115  1.00  0.00    -0.203 F 
ATOM     74  F   UNL A   1      41.740  27.525  25.626  1.00  0.00    -0.200 F 
ATOM     75  C   UNL A   1      40.333  26.040  26.804  1.00  0.00     0.200 A 
ATOM     76  F   UNL A   1      38.912  24.596  28.015  1.00  0.00    -0.200 F 
ATOM     77  F   UNL A   1      40.296  25.214  25.749  1.00  0.00    -0.200 F 
ENDBRANCH  53  67
BRANCH  54  78
ATOM     78  C   UNL A   1      39.436  33.883  36.865  1.00  0.00     0.064 A 
ATOM     79  C   UNL A   1      38.738  33.449  37.999  1.00  0.00     0.173 A 
ATOM     80  C   UNL A   1      40.011  35.163  36.901  1.00  0.00     0.173 A 
ATOM     81  F   UNL A   1      38.157  32.240  38.006  1.00  0.00    -0.203 F 
ATOM     82  C   UNL A   1      38.614  34.264  39.122  1.00  0.00     0.198 A 
ATOM     83  C   UNL A   1      39.914  35.964  38.038  1.00  0.00     0.198 A 
ATOM     84  F   UNL A   1      40.699  35.621  35.846  1.00  0.00    -0.203 F 
ATOM     85  F   UNL A   1      37.914  33.837  40.183  1.00  0.00    -0.200 F 
ATOM     86  C   UNL A   1      39.211  35.515  39.145  1.00  0.00     0.200 A 
ATOM     87  F   UNL A   1      40.512  37.163  38.062  1.00  0.00    -0.200 F 
ATOM     88  F   UNL A   1      39.110  36.290  40.234  1.00  0.00    -0.200 F 
ENDBRANCH  54  78
BRANCH  66  89
ATOM     89  C   UNL A   1      44.059  28.959  35.119  1.00  0.00     0.064 A 
ATOM     90  C   UNL A   1      45.330  29.514  34.899  1.00  0.00     0.173 A 
ATOM     91  C   UNL A   1      43.966  27.877  36.008  1.00  0.00     0.173 A 
ATOM     92  F   UNL A   1      45.480  30.543  34.050  1.00  0.00    -0.203 F 
ATOM     93  C   UNL A   1      46.463  28.973  35.501  1.00  0.00     0.198 A 
ATOM     94  C   UNL A   1      45.095  27.366  36.640  1.00  0.00     0.198 A 
ATOM     95  F   UNL A   1      42.777  27.312  36.265  1.00  0.00    -0.203 F 
ATOM     96  F   UNL A   1      47.674  29.471  35.213  1.00  0.00    -0.200 F 
ATOM     97  C   UNL A   1      46.346  27.903  36.374  1.00  0.00     0.200 A 
ATOM     98  F   UNL A   1      44.977  26.343  37.498  1.00  0.00    -0.200 F 
ATOM     99  F   UNL A   1      47.438  27.381  36.948  1.00  0.00    -0.200 F 
ENDBRANCH  66  89
ENDBRANCH  40  41
ENDBRANCH  32  35
ENDBRANCH  30  31
ENDBRANCH  29  30
ENDBRANCH  28  29
ENDBRANCH   1  28
TORSDOF 19
ENDMDL
MODEL 3
REMARK VINA RESULT:     -11.4      0.801      2.193
REMARK SMILES CC(C)(C)OC(=O)N[C@@H](C(=O)NCCCCCCNC(=O)c1ccc(-c2c3nc(c(-c4c(F)c(F)c(F)c(F)c4F)c4ccc([nH]4)c(-c4c(F)c(F)c(F)c(F)c4F)c4nc(c(-c5c(F)c(F)c(F)c(F)c5F)c5ccc2[nH]5)C=C4)C=C3)cc1)[C@H](O)c1ccccc1F
REMARK SMILES IDX 15 1 14 2 13 3 12 4 10 5 11 6 9 8 8 9 6 10 7 11 5 13 2 14
REMARK SMILES IDX 1 15 3 16 4 17 85 18 87 19 88 20 92 21 89 22 91 23 93 24
REMARK SMILES IDX 90 25 86 26 16 28 17 29 18 30 19 31 20 32 21 34 22 35 23 36
REMARK SMILES IDX 84 37 24 38 83 39 25 40 26 41 27 42 77 43 28 44 82 45 76 46
REMARK SMILES IDX 78 47 29 48 81 49 75 50 74 51 30 53 62 54 42 55 61 56 43 57
REMARK SMILES IDX 46 58 60 59 79 60 44 61 45 62 59 64 80 65 47 66 31 67 32 68
REMARK SMILES IDX 40 69 33 70 34 71 38 72 41 73 35 74 36 75 39 76 37 77 63 78
REMARK SMILES IDX 64 79 72 80 65 81 66 82 70 83 73 84 67 85 68 86 71 87 69 88
REMARK SMILES IDX 48 89 49 90 57 91 50 92 51 93 55 94 58 95 52 96 53 97 56 98
REMARK SMILES IDX 54 99
REMARK H PARENT 12 7 8 12 86 27 19 33 78 52 46 63
REMARK Flexibility Score: inf
ROOT
ATOM      1  C   UNL A   1      32.164  29.869  26.658  1.00  0.00     0.002 C 
ENDROOT
BRANCH   1   2
ATOM      2  C   UNL A   1      32.054  28.420  26.165  1.00  0.00     0.021 C 
BRANCH   2   3
ATOM      3  C   UNL A   1      33.391  27.846  25.700  1.00  0.00     0.116 C 
BRANCH   3   4
ATOM      4  N   UNL A   1      33.712  28.317  24.370  1.00  0.00    -0.354 N 
ATOM      5  C   UNL A   1      33.562  27.675  23.172  1.00  0.00     0.245 C 
ATOM      6  O   UNL A   1      34.072  28.202  22.180  1.00  0.00    -0.273 OA
ATOM      7  H   UNL A   1      34.088  29.225  24.320  1.00  0.00     0.163 HD
BRANCH   5   8
ATOM      8  C   UNL A   1      32.768  26.354  23.101  1.00  0.00     0.208 C 
BRANCH   8   9
ATOM      9  N   UNL A   1      33.663  25.289  22.611  1.00  0.00    -0.307 N 
ATOM     10  C   UNL A   1      33.930  24.102  23.226  1.00  0.00     0.408 C 
ATOM     11  O   UNL A   1      34.668  23.273  22.712  1.00  0.00    -0.225 OA
ATOM     12  H   UNL A   1      34.115  25.452  21.752  1.00  0.00     0.168 HD
BRANCH  10  13
ATOM     13  O   UNL A   1      33.345  23.995  24.443  1.00  0.00    -0.444 OA
BRANCH  13  14
ATOM     14  C   UNL A   1      32.242  23.077  24.674  1.00  0.00     0.106 C 
ATOM     15  C   UNL A   1      31.380  23.751  25.755  1.00  0.00     0.056 C 
ATOM     16  C   UNL A   1      32.725  21.730  25.229  1.00  0.00     0.056 C 
ATOM     17  C   UNL A   1      31.401  22.908  23.406  1.00  0.00     0.056 C 
ENDBRANCH  13  14
ENDBRANCH  10  13
ENDBRANCH   8   9
BRANCH   8  18
ATOM     18  C   UNL A   1      31.507  26.428  22.189  1.00  0.00     0.179 C 
BRANCH  18  19
ATOM     19  C   UNL A   1      30.500  27.497  22.547  1.00  0.00     0.019 A 
ATOM     20  C   UNL A   1      30.710  28.815  22.102  1.00  0.00     0.009 A 
ATOM     21  C   UNL A   1      29.360  27.241  23.309  1.00  0.00     0.129 A 
ATOM     22  C   UNL A   1      29.793  29.827  22.398  1.00  0.00     0.001 A 
ATOM     23  C   UNL A   1      28.445  28.247  23.615  1.00  0.00     0.039 A 
ATOM     24  F   UNL A   1      29.104  26.005  23.754  1.00  0.00    -0.207 F 
ATOM     25  C   UNL A   1      28.660  29.543  23.154  1.00  0.00     0.003 A 
ENDBRANCH  18  19
BRANCH  18  26
ATOM     26  O   UNL A   1      31.776  26.469  20.787  1.00  0.00    -0.386 OA
ATOM     27  H   UNL A   1      31.020  26.861  20.324  1.00  0.00     0.211 HD
ENDBRANCH  18  26
ENDBRANCH   8  18
ENDBRANCH   5   8
ENDBRANCH   3   4
ENDBRANCH   2   3
ENDBRANCH   1   2
BRANCH   1  28
ATOM     28  C   UNL A   1      31.366  30.883  25.831  1.00  0.00     0.002 C 
BRANCH  28  29
ATOM     29  C   UNL A   1      31.191  32.252  26.495  1.00  0.00     0.021 C 
BRANCH  29  30
ATOM     30  C   UNL A   1      32.436  32.758  27.216  1.00  0.00     0.116 C 
BRANCH  30  31
ATOM     31  N   UNL A   1      32.299  34.152  27.606  1.00  0.00    -0.352 N 
ATOM     32  C   UNL A   1      32.962  34.866  28.569  1.00  0.00     0.251 C 
ATOM     33  H   UNL A   1      31.626  34.662  27.100  1.00  0.00     0.163 HD
ATOM     34  O   UNL A   1      32.540  35.967  28.912  1.00  0.00    -0.269 OA
BRANCH  32  35
ATOM     35  C   UNL A   1      34.177  34.315  29.207  1.00  0.00     0.039 A 
ATOM     36  C   UNL A   1      34.032  33.581  30.386  1.00  0.00     0.014 A 
ATOM     37  C   UNL A   1      35.450  34.542  28.675  1.00  0.00     0.014 A 
ATOM     38  C   UNL A   1      35.157  33.037  31.002  1.00  0.00     0.010 A 
ATOM     39  C   UNL A   1      36.562  33.926  29.243  1.00  0.00     0.010 A 
ATOM     40  C   UNL A   1      36.428  33.174  30.418  1.00  0.00    -0.014 A 
BRANCH  40  41
ATOM     41  C   UNL A   1      37.601  32.494  31.022  1.00  0.00     0.031 A 
ATOM     42  C   UNL A   1      38.103  32.869  32.387  1.00  0.00     0.074 A 
ATOM     43  C   UNL A   1      38.235  31.540  30.313  1.00  0.00     0.049 A 
ATOM     44  N   UNL A   1      39.068  32.330  33.089  1.00  0.00    -0.248 NA
ATOM     45  C   UNL A   1      37.456  34.017  33.037  1.00  0.00     0.031 C 
ATOM     46  C   UNL A   1      37.895  31.145  28.945  1.00  0.00     0.029 A 
ATOM     47  N   UNL A   1      39.289  30.728  30.643  1.00  0.00    -0.354 N 
ATOM     48  C   UNL A   1      39.147  33.075  34.259  1.00  0.00     0.074 A 
ATOM     49  C   UNL A   1      38.177  34.142  34.142  1.00  0.00     0.031 C 
ATOM     50  C   UNL A   1      38.695  30.137  28.568  1.00  0.00     0.029 A 
ATOM     51  C   UNL A   1      39.627  29.841  29.651  1.00  0.00     0.049 A 
ATOM     52  H   UNL A   1      39.759  30.776  31.507  1.00  0.00     0.167 HD
ATOM     53  C   UNL A   1      39.939  32.870  35.340  1.00  0.00     0.037 A 
ATOM     54  C   UNL A   1      40.579  28.890  29.617  1.00  0.00     0.037 A 
ATOM     55  C   UNL A   1      40.907  31.806  35.443  1.00  0.00     0.049 A 
ATOM     56  C   UNL A   1      41.432  28.666  30.833  1.00  0.00     0.074 A 
ATOM     57  C   UNL A   1      41.707  31.467  36.520  1.00  0.00     0.029 A 
ATOM     58  N   UNL A   1      41.218  30.917  34.423  1.00  0.00    -0.354 N 
ATOM     59  N   UNL A   1      41.429  29.308  31.976  1.00  0.00    -0.248 NA
ATOM     60  C   UNL A   1      42.409  27.573  30.759  1.00  0.00     0.031 C 
ATOM     61  C   UNL A   1      42.553  30.423  36.126  1.00  0.00     0.029 A 
ATOM     62  C   UNL A   1      42.227  30.056  34.831  1.00  0.00     0.049 A 
ATOM     63  H   UNL A   1      40.787  30.901  33.538  1.00  0.00     0.167 HD
ATOM     64  C   UNL A   1      42.389  28.689  32.764  1.00  0.00     0.074 A 
ATOM     65  C   UNL A   1      42.932  27.601  31.975  1.00  0.00     0.031 C 
ATOM     66  C   UNL A   1      42.784  28.993  34.027  1.00  0.00     0.037 A 
BRANCH  53  67
ATOM     67  C   UNL A   1      39.806  33.839  36.485  1.00  0.00     0.064 A 
ATOM     68  C   UNL A   1      40.519  35.049  36.524  1.00  0.00     0.173 A 
ATOM     69  C   UNL A   1      38.951  33.555  37.561  1.00  0.00     0.173 A 
ATOM     70  F   UNL A   1      41.356  35.372  35.526  1.00  0.00    -0.203 F 
ATOM     71  C   UNL A   1      40.422  35.907  37.617  1.00  0.00     0.198 A 
ATOM     72  C   UNL A   1      38.826  34.435  38.634  1.00  0.00     0.198 A 
ATOM     73  F   UNL A   1      38.235  32.419  37.577  1.00  0.00    -0.203 F 
ATOM     74  F   UNL A   1      41.173  37.017  37.663  1.00  0.00    -0.200 F 
ATOM     75  C   UNL A   1      39.573  35.602  38.668  1.00  0.00     0.200 A 
ATOM     76  F   UNL A   1      37.991  34.146  39.641  1.00  0.00    -0.200 F 
ATOM     77  F   UNL A   1      39.482  36.427  39.720  1.00  0.00    -0.200 F 
ENDBRANCH  53  67
BRANCH  54  78
ATOM     78  C   UNL A   1      40.737  28.066  28.391  1.00  0.00     0.064 A 
ATOM     79  C   UNL A   1      41.564  28.478  27.339  1.00  0.00     0.173 A 
ATOM     80  C   UNL A   1      40.100  26.821  28.273  1.00  0.00     0.173 A 
ATOM     81  F   UNL A   1      42.181  29.668  27.398  1.00  0.00    -0.203 F 
ATOM     82  C   UNL A   1      41.741  27.682  26.209  1.00  0.00     0.198 A 
ATOM     83  C   UNL A   1      40.305  26.011  27.158  1.00  0.00     0.198 A 
ATOM     84  F   UNL A   1      39.308  26.374  29.258  1.00  0.00    -0.203 F 
ATOM     85  F   UNL A   1      42.512  28.114  25.202  1.00  0.00    -0.200 F 
ATOM     86  C   UNL A   1      41.120  26.445  26.125  1.00  0.00     0.200 A 
ATOM     87  F   UNL A   1      39.720  24.807  27.092  1.00  0.00    -0.200 F 
ATOM     88  F   UNL A   1      41.309  25.669  25.048  1.00  0.00    -0.200 F 
ENDBRANCH  54  78
BRANCH  66  89
ATOM     89  C   UNL A   1      43.851  28.124  34.634  1.00  0.00     0.064 A 
ATOM     90  C   UNL A   1      43.541  26.944  35.329  1.00  0.00     0.173 A 
ATOM     91  C   UNL A   1      45.205  28.480  34.527  1.00  0.00     0.173 A 
ATOM     92  F   UNL A   1      42.263  26.561  35.473  1.00  0.00    -0.203 F 
ATOM     93  C   UNL A   1      44.538  26.185  35.937  1.00  0.00     0.198 A 
ATOM     94  C   UNL A   1      46.202  27.697  35.101  1.00  0.00     0.198 A 
ATOM     95  F   UNL A   1      45.563  29.591  33.866  1.00  0.00    -0.203 F 
ATOM     96  F   UNL A   1      44.209  25.108  36.662  1.00  0.00    -0.200 F 
ATOM     97  C   UNL A   1      45.868  26.559  35.819  1.00  0.00     0.200 A 
ATOM     98  F   UNL A   1      47.489  28.051  34.969  1.00  0.00    -0.200 F 
ATOM     99  F   UNL A   1      46.826  25.832  36.409  1.00  0.00    -0.200 F 
ENDBRANCH  66  89
ENDBRANCH  40  41
ENDBRANCH  32  35
ENDBRANCH  30  31
ENDBRANCH  29  30
ENDBRANCH  28  29
ENDBRANCH   1  28
TORSDOF 19
ENDMDL
