MODEL 1
REMARK VINA RESULT:     -12.0      0.000      0.000
REMARK SMILES CC(=O)O[C@H]1C[C@@H](C(=O)NCCCCCCNC(=O)c2ccc(-c3c4nc(c(-c5c(F)c(F)c(F)c(F)c5F)c5ccc([nH]5)c(-c5c(F)c(F)c(F)c(F)c5F)c5nc(c(-c6c(F)c(F)c(F)c(F)c6F)c6ccc3[nH]6)C=C5)C=C4)cc2)N(S(=O)(=O)c2ccc(F)cc2)C1
REMARK SMILES IDX 13 1 12 2 11 3 10 4 8 5 9 6 7 8 5 9 6 10 94 11 83 12 4 13
REMARK SMILES IDX 2 14 1 15 3 16 84 17 85 18 86 19 87 20 88 21 93 22 89 23
REMARK SMILES IDX 92 24 90 25 91 26 14 27 15 28 16 29 17 30 18 31 19 33 20 34
REMARK SMILES IDX 21 35 82 36 22 37 81 38 23 39 24 40 25 41 75 42 26 43 80 44
REMARK SMILES IDX 74 45 76 46 27 47 79 48 73 49 72 50 28 52 60 53 40 54 59 55
REMARK SMILES IDX 41 56 44 57 58 58 77 59 42 60 43 61 57 63 78 64 45 65 29 66
REMARK SMILES IDX 30 67 38 68 31 69 32 70 36 71 39 72 33 73 34 74 37 75 35 76
REMARK SMILES IDX 61 77 62 78 70 79 63 80 64 81 68 82 71 83 65 84 66 85 69 86
REMARK SMILES IDX 67 87 46 88 47 89 55 90 48 91 49 92 53 93 56 94 50 95 51 96
REMARK SMILES IDX 54 97 52 98
REMARK H PARENT 10 7 17 32 76 51 44 62
REMARK Flexibility Score: inf
ROOT
ATOM      1  C   UNL A   1      36.308  22.155  24.440  1.00  0.00     0.002 C 
ENDROOT
BRANCH   1   2
ATOM      2  C   UNL A   1      36.080  23.454  25.229  1.00  0.00     0.021 C 
BRANCH   2   3
ATOM      3  C   UNL A   1      35.133  24.454  24.551  1.00  0.00     0.116 C 
BRANCH   3   4
ATOM      4  N   UNL A   1      34.348  25.172  25.538  1.00  0.00    -0.355 N 
ATOM      5  C   UNL A   1      33.851  26.437  25.391  1.00  0.00     0.238 C 
ATOM      6  O   UNL A   1      34.000  27.204  26.341  1.00  0.00    -0.273 OA
ATOM      7  H   UNL A   1      34.158  24.708  26.385  1.00  0.00     0.163 HD
BRANCH   5   8
ATOM      8  C   UNL A   1      33.211  26.845  24.084  1.00  0.00     0.166 C 
ATOM      9  C   UNL A   1      31.867  28.473  22.962  1.00  0.00     0.193 C 
ATOM     10  C   UNL A   1      32.633  28.243  24.247  1.00  0.00     0.077 C 
ATOM     11  C   UNL A   1      31.380  27.064  22.571  1.00  0.00     0.148 C 
ATOM     12  N   UNL A   1      32.107  26.068  23.449  1.00  0.00    -0.182 NA
BRANCH   9  13
ATOM     13  O   UNL A   1      30.716  29.327  23.138  1.00  0.00    -0.461 OA
BRANCH  13  14
ATOM     14  C   UNL A   1      29.598  29.327  22.377  1.00  0.00     0.302 C 
ATOM     15  C   UNL A   1      28.365  28.680  22.931  1.00  0.00     0.139 C 
ATOM     16  O   UNL A   1      29.605  29.818  21.253  1.00  0.00    -0.253 OA
ENDBRANCH  13  14
ENDBRANCH   9  13
BRANCH  12  17
ATOM     17  S   UNL A   1      31.027  25.131  24.394  1.00  0.00     0.243 S 
ATOM     18  O   UNL A   1      31.124  25.565  25.766  1.00  0.00    -0.207 OA
ATOM     19  O   UNL A   1      29.747  25.183  23.710  1.00  0.00    -0.207 OA
BRANCH  17  20
ATOM     20  C   UNL A   1      31.561  23.429  24.267  1.00  0.00     0.082 A 
ATOM     21  C   UNL A   1      31.711  22.675  25.441  1.00  0.00     0.025 A 
ATOM     22  C   UNL A   1      32.029  22.908  23.056  1.00  0.00     0.025 A 
ATOM     23  C   UNL A   1      32.265  21.392  25.385  1.00  0.00     0.040 A 
ATOM     24  C   UNL A   1      32.527  21.605  22.992  1.00  0.00     0.040 A 
ATOM     25  C   UNL A   1      32.647  20.860  24.157  1.00  0.00     0.123 A 
ATOM     26  F   UNL A   1      33.169  19.628  24.102  1.00  0.00    -0.207 F 
ENDBRANCH  17  20
ENDBRANCH  12  17
ENDBRANCH   5   8
ENDBRANCH   3   4
ENDBRANCH   2   3
ENDBRANCH   1   2
BRANCH   1  27
ATOM     27  C   UNL A   1      36.535  20.903  25.292  1.00  0.00     0.002 C 
BRANCH  27  28
ATOM     28  C   UNL A   1      37.788  20.104  24.937  1.00  0.00     0.021 C 
BRANCH  28  29
ATOM     29  C   UNL A   1      39.026  20.462  25.751  1.00  0.00     0.116 C 
BRANCH  29  30
ATOM     30  N   UNL A   1      39.945  19.344  25.892  1.00  0.00    -0.352 N 
ATOM     31  C   UNL A   1      41.299  19.372  26.122  1.00  0.00     0.251 C 
ATOM     32  H   UNL A   1      39.543  18.449  25.814  1.00  0.00     0.163 HD
ATOM     33  O   UNL A   1      41.967  18.345  26.072  1.00  0.00    -0.269 OA
BRANCH  31  34
ATOM     34  C   UNL A   1      41.955  20.666  26.403  1.00  0.00     0.039 A 
ATOM     35  C   UNL A   1      42.296  21.496  25.333  1.00  0.00     0.014 A 
ATOM     36  C   UNL A   1      42.199  21.067  27.720  1.00  0.00     0.014 A 
ATOM     37  C   UNL A   1      42.820  22.765  25.586  1.00  0.00     0.010 A 
ATOM     38  C   UNL A   1      42.664  22.353  27.972  1.00  0.00     0.010 A 
ATOM     39  C   UNL A   1      42.973  23.216  26.908  1.00  0.00    -0.014 A 
BRANCH  39  40
ATOM     40  C   UNL A   1      43.445  24.590  27.201  1.00  0.00     0.031 A 
ATOM     41  C   UNL A   1      42.494  25.608  27.761  1.00  0.00     0.074 A 
ATOM     42  C   UNL A   1      44.708  24.941  26.894  1.00  0.00     0.049 A 
ATOM     43  N   UNL A   1      42.690  26.879  28.000  1.00  0.00    -0.248 NA
ATOM     44  C   UNL A   1      41.136  25.138  28.071  1.00  0.00     0.031 C 
ATOM     45  C   UNL A   1      45.715  24.051  26.312  1.00  0.00     0.029 A 
ATOM     46  N   UNL A   1      45.357  26.143  27.018  1.00  0.00    -0.354 N 
ATOM     47  C   UNL A   1      41.479  27.363  28.475  1.00  0.00     0.074 A 
ATOM     48  C   UNL A   1      40.541  26.261  28.446  1.00  0.00     0.031 C 
ATOM     49  C   UNL A   1      46.859  24.732  26.149  1.00  0.00     0.029 A 
ATOM     50  C   UNL A   1      46.658  26.112  26.579  1.00  0.00     0.049 A 
ATOM     51  H   UNL A   1      44.931  26.950  27.386  1.00  0.00     0.167 HD
ATOM     52  C   UNL A   1      41.182  28.608  28.917  1.00  0.00     0.037 A 
ATOM     53  C   UNL A   1      47.581  27.091  26.524  1.00  0.00     0.037 A 
ATOM     54  C   UNL A   1      42.123  29.696  28.970  1.00  0.00     0.049 A 
ATOM     55  C   UNL A   1      47.219  28.472  26.997  1.00  0.00     0.074 A 
ATOM     56  C   UNL A   1      41.938  30.976  29.464  1.00  0.00     0.029 A 
ATOM     57  N   UNL A   1      43.430  29.631  28.509  1.00  0.00    -0.354 N 
ATOM     58  N   UNL A   1      46.087  28.905  27.495  1.00  0.00    -0.248 NA
ATOM     59  C   UNL A   1      48.263  29.501  26.894  1.00  0.00     0.031 C 
ATOM     60  C   UNL A   1      43.121  31.696  29.267  1.00  0.00     0.029 A 
ATOM     61  C   UNL A   1      44.055  30.854  28.683  1.00  0.00     0.049 A 
ATOM     62  H   UNL A   1      43.850  28.832  28.116  1.00  0.00     0.167 HD
ATOM     63  C   UNL A   1      46.286  30.248  27.783  1.00  0.00     0.074 A 
ATOM     64  C   UNL A   1      47.653  30.557  27.415  1.00  0.00     0.031 C 
ATOM     65  C   UNL A   1      45.414  31.144  28.306  1.00  0.00     0.037 A 
BRANCH  52  66
ATOM     66  C   UNL A   1      39.778  28.856  29.382  1.00  0.00     0.064 A 
ATOM     67  C   UNL A   1      39.396  28.637  30.714  1.00  0.00     0.173 A 
ATOM     68  C   UNL A   1      38.806  29.333  28.490  1.00  0.00     0.173 A 
ATOM     69  F   UNL A   1      40.287  28.167  31.602  1.00  0.00    -0.203 F 
ATOM     70  C   UNL A   1      38.086  28.855  31.129  1.00  0.00     0.198 A 
ATOM     71  C   UNL A   1      37.502  29.575  28.915  1.00  0.00     0.198 A 
ATOM     72  F   UNL A   1      39.120  29.562  27.206  1.00  0.00    -0.203 F 
ATOM     73  F   UNL A   1      37.732  28.588  32.394  1.00  0.00    -0.200 F 
ATOM     74  C   UNL A   1      37.141  29.328  30.232  1.00  0.00     0.200 A 
ATOM     75  F   UNL A   1      36.592  30.041  28.049  1.00  0.00    -0.200 F 
ATOM     76  F   UNL A   1      35.880  29.537  30.631  1.00  0.00    -0.200 F 
ENDBRANCH  52  66
BRANCH  53  77
ATOM     77  C   UNL A   1      48.945  26.792  26.021  1.00  0.00     0.064 A 
ATOM     78  C   UNL A   1      49.923  26.273  26.880  1.00  0.00     0.173 A 
ATOM     79  C   UNL A   1      49.295  27.007  24.681  1.00  0.00     0.173 A 
ATOM     80  F   UNL A   1      49.638  26.070  28.175  1.00  0.00    -0.203 F 
ATOM     81  C   UNL A   1      51.207  25.988  26.418  1.00  0.00     0.198 A 
ATOM     82  C   UNL A   1      50.573  26.702  24.216  1.00  0.00     0.198 A 
ATOM     83  F   UNL A   1      48.393  27.501  23.821  1.00  0.00    -0.203 F 
ATOM     84  F   UNL A   1      52.133  25.521  27.266  1.00  0.00    -0.200 F 
ATOM     85  C   UNL A   1      51.528  26.197  25.086  1.00  0.00     0.200 A 
ATOM     86  F   UNL A   1      50.877  26.894  22.926  1.00  0.00    -0.200 F 
ATOM     87  F   UNL A   1      52.760  25.917  24.640  1.00  0.00    -0.200 F 
ENDBRANCH  53  77
BRANCH  65  88
ATOM     88  C   UNL A   1      45.916  32.540  28.520  1.00  0.00     0.064 A 
ATOM     89  C   UNL A   1      46.578  32.905  29.701  1.00  0.00     0.173 A 
ATOM     90  C   UNL A   1      45.769  33.512  27.519  1.00  0.00     0.173 A 
ATOM     91  F   UNL A   1      46.727  32.015  30.693  1.00  0.00    -0.203 F 
ATOM     92  C   UNL A   1      47.060  34.200  29.879  1.00  0.00     0.198 A 
ATOM     93  C   UNL A   1      46.273  34.798  27.691  1.00  0.00     0.198 A 
ATOM     94  F   UNL A   1      45.145  33.210  26.371  1.00  0.00    -0.203 F 
ATOM     95  F   UNL A   1      47.655  34.537  31.031  1.00  0.00    -0.200 F 
ATOM     96  C   UNL A   1      46.913  35.142  28.872  1.00  0.00     0.200 A 
ATOM     97  F   UNL A   1      46.138  35.705  26.714  1.00  0.00    -0.200 F 
ATOM     98  F   UNL A   1      47.382  36.385  29.044  1.00  0.00    -0.200 F 
ENDBRANCH  65  88
ENDBRANCH  39  40
ENDBRANCH  31  34
ENDBRANCH  29  30
ENDBRANCH  28  29
ENDBRANCH  27  28
ENDBRANCH   1  27
TORSDOF 17
ENDMDL
MODEL 2
REMARK VINA RESULT:     -12.0      4.944     10.368
REMARK SMILES CC(=O)O[C@H]1C[C@@H](C(=O)NCCCCCCNC(=O)c2ccc(-c3c4nc(c(-c5c(F)c(F)c(F)c(F)c5F)c5ccc([nH]5)c(-c5c(F)c(F)c(F)c(F)c5F)c5nc(c(-c6c(F)c(F)c(F)c(F)c6F)c6ccc3[nH]6)C=C5)C=C4)cc2)N(S(=O)(=O)c2ccc(F)cc2)C1
REMARK SMILES IDX 13 1 12 2 11 3 10 4 8 5 9 6 7 8 5 9 6 10 94 11 83 12 4 13
REMARK SMILES IDX 2 14 1 15 3 16 84 17 85 18 86 19 87 20 88 21 93 22 89 23
REMARK SMILES IDX 92 24 90 25 91 26 14 27 15 28 16 29 17 30 18 31 19 33 20 34
REMARK SMILES IDX 21 35 82 36 22 37 81 38 23 39 24 40 25 41 75 42 26 43 80 44
REMARK SMILES IDX 74 45 76 46 27 47 79 48 73 49 72 50 28 52 60 53 40 54 59 55
REMARK SMILES IDX 41 56 44 57 58 58 77 59 42 60 43 61 57 63 78 64 45 65 29 66
REMARK SMILES IDX 30 67 38 68 31 69 32 70 36 71 39 72 33 73 34 74 37 75 35 76
REMARK SMILES IDX 61 77 62 78 70 79 63 80 64 81 68 82 71 83 65 84 66 85 69 86
REMARK SMILES IDX 67 87 46 88 47 89 55 90 48 91 49 92 53 93 56 94 50 95 51 96
REMARK SMILES IDX 54 97 52 98
REMARK H PARENT 10 7 17 32 76 51 44 62
REMARK Flexibility Score: inf
ROOT
ATOM      1  C   UNL A   1      31.815  26.890  26.877  1.00  0.00     0.002 C 
ENDROOT
BRANCH   1   2
ATOM      2  C   UNL A   1      30.647  26.309  26.063  1.00  0.00     0.021 C 
BRANCH   2   3
ATOM      3  C   UNL A   1      30.581  24.776  26.046  1.00  0.00     0.116 C 
BRANCH   3   4
ATOM      4  N   UNL A   1      31.835  24.201  26.496  1.00  0.00    -0.355 N 
ATOM      5  C   UNL A   1      32.164  22.875  26.448  1.00  0.00     0.238 C 
ATOM      6  O   UNL A   1      32.674  22.394  27.458  1.00  0.00    -0.273 OA
ATOM      7  H   UNL A   1      32.505  24.818  26.868  1.00  0.00     0.163 HD
BRANCH   5   8
ATOM      8  C   UNL A   1      31.842  22.066  25.212  1.00  0.00     0.166 C 
ATOM      9  C   UNL A   1      32.223  20.023  24.029  1.00  0.00     0.193 C 
ATOM     10  C   UNL A   1      32.440  20.676  25.377  1.00  0.00     0.077 C 
ATOM     11  C   UNL A   1      32.302  21.200  23.037  1.00  0.00     0.148 C 
ATOM     12  N   UNL A   1      32.264  22.482  23.843  1.00  0.00    -0.182 NA
BRANCH   9  13
ATOM     13  O   UNL A   1      33.252  19.068  23.694  1.00  0.00    -0.461 OA
BRANCH  13  14
ATOM     14  C   UNL A   1      33.075  17.901  23.034  1.00  0.00     0.302 C 
ATOM     15  C   UNL A   1      34.030  16.780  23.309  1.00  0.00     0.139 C 
ATOM     16  O   UNL A   1      32.173  17.777  22.211  1.00  0.00    -0.253 OA
ENDBRANCH  13  14
ENDBRANCH   9  13
BRANCH  12  17
ATOM     17  S   UNL A   1      33.665  23.439  23.601  1.00  0.00     0.243 S 
ATOM     18  O   UNL A   1      34.428  23.451  24.826  1.00  0.00    -0.207 OA
ATOM     19  O   UNL A   1      34.276  22.953  22.376  1.00  0.00    -0.207 OA
BRANCH  17  20
ATOM     20  C   UNL A   1      33.109  25.097  23.226  1.00  0.00     0.082 A 
ATOM     21  C   UNL A   1      33.824  26.186  23.748  1.00  0.00     0.025 A 
ATOM     22  C   UNL A   1      31.874  25.321  22.610  1.00  0.00     0.025 A 
ATOM     23  C   UNL A   1      33.330  27.486  23.595  1.00  0.00     0.040 A 
ATOM     24  C   UNL A   1      31.412  26.623  22.406  1.00  0.00     0.040 A 
ATOM     25  C   UNL A   1      32.141  27.694  22.904  1.00  0.00     0.123 A 
ATOM     26  F   UNL A   1      31.674  28.940  22.749  1.00  0.00    -0.207 F 
ENDBRANCH  17  20
ENDBRANCH  12  17
ENDBRANCH   5   8
ENDBRANCH   3   4
ENDBRANCH   2   3
ENDBRANCH   1   2
BRANCH   1  27
ATOM     27  C   UNL A   1      31.634  28.337  27.340  1.00  0.00     0.002 C 
BRANCH  27  28
ATOM     28  C   UNL A   1      31.615  29.373  26.217  1.00  0.00     0.021 C 
BRANCH  28  29
ATOM     29  C   UNL A   1      32.865  30.241  26.128  1.00  0.00     0.116 C 
BRANCH  29  30
ATOM     30  N   UNL A   1      32.606  31.630  26.472  1.00  0.00    -0.352 N 
ATOM     31  C   UNL A   1      33.289  32.437  27.349  1.00  0.00     0.251 C 
ATOM     32  H   UNL A   1      31.841  32.048  26.015  1.00  0.00     0.163 HD
ATOM     33  O   UNL A   1      32.861  33.547  27.646  1.00  0.00    -0.269 OA
BRANCH  31  34
ATOM     34  C   UNL A   1      34.537  31.938  27.963  1.00  0.00     0.039 A 
ATOM     35  C   UNL A   1      35.628  32.805  28.072  1.00  0.00     0.014 A 
ATOM     36  C   UNL A   1      34.614  30.632  28.455  1.00  0.00     0.014 A 
ATOM     37  C   UNL A   1      36.777  32.382  28.742  1.00  0.00     0.010 A 
ATOM     38  C   UNL A   1      35.736  30.233  29.174  1.00  0.00     0.010 A 
ATOM     39  C   UNL A   1      36.825  31.106  29.329  1.00  0.00    -0.014 A 
BRANCH  39  40
ATOM     40  C   UNL A   1      37.999  30.667  30.120  1.00  0.00     0.031 A 
ATOM     41  C   UNL A   1      38.983  29.699  29.531  1.00  0.00     0.074 A 
ATOM     42  C   UNL A   1      38.138  31.083  31.393  1.00  0.00     0.049 A 
ATOM     43  N   UNL A   1      40.019  29.129  30.090  1.00  0.00    -0.248 NA
ATOM     44  C   UNL A   1      38.756  29.300  28.134  1.00  0.00     0.031 C 
ATOM     45  C   UNL A   1      37.229  31.995  32.089  1.00  0.00     0.029 A 
ATOM     46  N   UNL A   1      39.092  30.783  32.332  1.00  0.00    -0.354 N 
ATOM     47  C   UNL A   1      40.560  28.296  29.120  1.00  0.00     0.074 A 
ATOM     48  C   UNL A   1      39.711  28.398  27.953  1.00  0.00     0.031 C 
ATOM     49  C   UNL A   1      37.679  32.197  33.336  1.00  0.00     0.029 A 
ATOM     50  C   UNL A   1      38.887  31.402  33.541  1.00  0.00     0.049 A 
ATOM     51  H   UNL A   1      39.851  30.182  32.157  1.00  0.00     0.167 HD
ATOM     52  C   UNL A   1      41.676  27.533  29.190  1.00  0.00     0.037 A 
ATOM     53  C   UNL A   1      39.590  31.329  34.687  1.00  0.00     0.037 A 
ATOM     54  C   UNL A   1      42.534  27.452  30.343  1.00  0.00     0.049 A 
ATOM     55  C   UNL A   1      40.812  30.454  34.746  1.00  0.00     0.074 A 
ATOM     56  C   UNL A   1      43.724  26.761  30.488  1.00  0.00     0.029 A 
ATOM     57  N   UNL A   1      42.290  28.087  31.552  1.00  0.00    -0.354 N 
ATOM     58  N   UNL A   1      41.345  29.714  33.805  1.00  0.00    -0.248 NA
ATOM     59  C   UNL A   1      41.526  30.402  36.030  1.00  0.00     0.031 C 
ATOM     60  C   UNL A   1      44.179  26.946  31.798  1.00  0.00     0.029 A 
ATOM     61  C   UNL A   1      43.293  27.782  32.457  1.00  0.00     0.049 A 
ATOM     62  H   UNL A   1      41.517  28.667  31.739  1.00  0.00     0.167 HD
ATOM     63  C   UNL A   1      42.466  29.124  34.374  1.00  0.00     0.074 A 
ATOM     64  C   UNL A   1      42.543  29.602  35.739  1.00  0.00     0.031 C 
ATOM     65  C   UNL A   1      43.350  28.263  33.814  1.00  0.00     0.037 A 
BRANCH  52  66
ATOM     66  C   UNL A   1      42.033  26.726  27.977  1.00  0.00     0.064 A 
ATOM     67  C   UNL A   1      42.925  27.210  27.010  1.00  0.00     0.173 A 
ATOM     68  C   UNL A   1      41.489  25.447  27.788  1.00  0.00     0.173 A 
ATOM     69  F   UNL A   1      43.461  28.435  27.139  1.00  0.00    -0.203 F 
ATOM     70  C   UNL A   1      43.236  26.458  25.880  1.00  0.00     0.198 A 
ATOM     71  C   UNL A   1      41.823  24.686  26.670  1.00  0.00     0.198 A 
ATOM     72  F   UNL A   1      40.634  24.935  28.686  1.00  0.00    -0.203 F 
ATOM     73  F   UNL A   1      44.050  26.964  24.943  1.00  0.00    -0.200 F 
ATOM     74  C   UNL A   1      42.689  25.195  25.713  1.00  0.00     0.200 A 
ATOM     75  F   UNL A   1      41.300  23.462  26.514  1.00  0.00    -0.200 F 
ATOM     76  F   UNL A   1      42.987  24.472  24.626  1.00  0.00    -0.200 F 
ENDBRANCH  52  66
BRANCH  53  77
ATOM     77  C   UNL A   1      39.167  32.126  35.865  1.00  0.00     0.064 A 
ATOM     78  C   UNL A   1      38.277  31.591  36.806  1.00  0.00     0.173 A 
ATOM     79  C   UNL A   1      39.646  33.426  36.080  1.00  0.00     0.173 A 
ATOM     80  F   UNL A   1      37.778  30.359  36.630  1.00  0.00    -0.203 F 
ATOM     81  C   UNL A   1      37.874  32.331  37.916  1.00  0.00     0.198 A 
ATOM     82  C   UNL A   1      39.259  34.156  37.201  1.00  0.00     0.198 A 
ATOM     83  F   UNL A   1      40.501  33.980  35.208  1.00  0.00    -0.203 F 
ATOM     84  F   UNL A   1      36.999  31.808  38.784  1.00  0.00    -0.200 F 
ATOM     85  C   UNL A   1      38.370  33.610  38.115  1.00  0.00     0.200 A 
ATOM     86  F   UNL A   1      39.749  35.388  37.397  1.00  0.00    -0.200 F 
ATOM     87  F   UNL A   1      37.988  34.319  39.186  1.00  0.00    -0.200 F 
ENDBRANCH  53  77
BRANCH  65  88
ATOM     88  C   UNL A   1      44.483  27.792  34.675  1.00  0.00     0.064 A 
ATOM     89  C   UNL A   1      44.384  26.615  35.432  1.00  0.00     0.173 A 
ATOM     90  C   UNL A   1      45.692  28.502  34.713  1.00  0.00     0.173 A 
ATOM     91  F   UNL A   1      43.242  25.913  35.442  1.00  0.00    -0.203 F 
ATOM     92  C   UNL A   1      45.452  26.177  36.212  1.00  0.00     0.198 A 
ATOM     93  C   UNL A   1      46.765  28.047  35.475  1.00  0.00     0.198 A 
ATOM     94  F   UNL A   1      45.834  29.631  34.004  1.00  0.00    -0.203 F 
ATOM     95  F   UNL A   1      45.323  25.071  36.958  1.00  0.00    -0.200 F 
ATOM     96  C   UNL A   1      46.642  26.888  36.227  1.00  0.00     0.200 A 
ATOM     97  F   UNL A   1      47.917  28.731  35.482  1.00  0.00    -0.200 F 
ATOM     98  F   UNL A   1      47.670  26.461  36.973  1.00  0.00    -0.200 F 
ENDBRANCH  65  88
ENDBRANCH  39  40
ENDBRANCH  31  34
ENDBRANCH  29  30
ENDBRANCH  28  29
ENDBRANCH  27  28
ENDBRANCH   1  27
TORSDOF 17
ENDMDL
MODEL 3
REMARK VINA RESULT:     -11.9      5.508     11.059
REMARK SMILES CC(=O)O[C@H]1C[C@@H](C(=O)NCCCCCCNC(=O)c2ccc(-c3c4nc(c(-c5c(F)c(F)c(F)c(F)c5F)c5ccc([nH]5)c(-c5c(F)c(F)c(F)c(F)c5F)c5nc(c(-c6c(F)c(F)c(F)c(F)c6F)c6ccc3[nH]6)C=C5)C=C4)cc2)N(S(=O)(=O)c2ccc(F)cc2)C1
REMARK SMILES IDX 13 1 12 2 11 3 10 4 8 5 9 6 7 8 5 9 6 10 94 11 83 12 4 13
REMARK SMILES IDX 2 14 1 15 3 16 84 17 85 18 86 19 87 20 88 21 93 22 89 23
REMARK SMILES IDX 92 24 90 25 91 26 14 27 15 28 16 29 17 30 18 31 19 33 20 34
REMARK SMILES IDX 21 35 82 36 22 37 81 38 23 39 24 40 25 41 75 42 26 43 80 44
REMARK SMILES IDX 74 45 76 46 27 47 79 48 73 49 72 50 28 52 60 53 40 54 59 55
REMARK SMILES IDX 41 56 44 57 58 58 77 59 42 60 43 61 57 63 78 64 45 65 29 66
REMARK SMILES IDX 30 67 38 68 31 69 32 70 36 71 39 72 33 73 34 74 37 75 35 76
REMARK SMILES IDX 61 77 62 78 70 79 63 80 64 81 68 82 71 83 65 84 66 85 69 86
REMARK SMILES IDX 67 87 46 88 47 89 55 90 48 91 49 92 53 93 56 94 50 95 51 96
REMARK SMILES IDX 54 97 52 98
REMARK H PARENT 10 7 17 32 76 51 44 62
REMARK Flexibility Score: inf
ROOT
ATOM      1  C   UNL A   1      31.777  29.426  27.143  1.00  0.00     0.002 C 
ENDROOT
BRANCH   1   2
ATOM      2  C   UNL A   1      32.120  28.049  26.550  1.00  0.00     0.021 C 
BRANCH   2   3
ATOM      3  C   UNL A   1      33.604  27.669  26.638  1.00  0.00     0.116 C 
BRANCH   3   4
ATOM      4  N   UNL A   1      34.001  26.874  25.491  1.00  0.00    -0.355 N 
ATOM      5  C   UNL A   1      33.928  25.512  25.404  1.00  0.00     0.238 C 
ATOM      6  O   UNL A   1      34.914  24.931  24.952  1.00  0.00    -0.273 OA
ATOM      7  H   UNL A   1      34.355  27.357  24.710  1.00  0.00     0.163 HD
BRANCH   5   8
ATOM      8  C   UNL A   1      32.696  24.793  25.907  1.00  0.00     0.166 C 
ATOM      9  C   UNL A   1      31.674  22.671  26.319  1.00  0.00     0.193 C 
ATOM     10  C   UNL A   1      33.008  23.306  25.991  1.00  0.00     0.077 C 
ATOM     11  C   UNL A   1      30.651  23.597  25.632  1.00  0.00     0.148 C 
ATOM     12  N   UNL A   1      31.384  24.850  25.199  1.00  0.00    -0.182 NA
BRANCH   9  13
ATOM     13  O   UNL A   1      31.533  21.342  25.775  1.00  0.00    -0.461 OA
BRANCH  13  14
ATOM     14  C   UNL A   1      32.488  20.640  25.123  1.00  0.00     0.302 C 
ATOM     15  C   UNL A   1      32.525  20.718  23.627  1.00  0.00     0.139 C 
ATOM     16  O   UNL A   1      33.280  19.936  25.741  1.00  0.00    -0.253 OA
ENDBRANCH  13  14
ENDBRANCH   9  13
BRANCH  12  17
ATOM     17  S   UNL A   1      31.302  25.094  23.505  1.00  0.00     0.243 S 
ATOM     18  O   UNL A   1      32.632  24.978  22.960  1.00  0.00    -0.207 OA
ATOM     19  O   UNL A   1      30.246  24.219  23.024  1.00  0.00    -0.207 OA
BRANCH  17  20
ATOM     20  C   UNL A   1      30.692  26.755  23.245  1.00  0.00     0.082 A 
ATOM     21  C   UNL A   1      31.612  27.783  22.985  1.00  0.00     0.025 A 
ATOM     22  C   UNL A   1      29.357  27.082  23.501  1.00  0.00     0.025 A 
ATOM     23  C   UNL A   1      31.180  29.112  22.923  1.00  0.00     0.040 A 
ATOM     24  C   UNL A   1      28.916  28.401  23.380  1.00  0.00     0.040 A 
ATOM     25  C   UNL A   1      29.832  29.406  23.098  1.00  0.00     0.123 A 
ATOM     26  F   UNL A   1      29.417  30.677  23.030  1.00  0.00    -0.207 F 
ENDBRANCH  17  20
ENDBRANCH  12  17
ENDBRANCH   5   8
ENDBRANCH   3   4
ENDBRANCH   2   3
ENDBRANCH   1   2
BRANCH   1  27
ATOM     27  C   UNL A   1      31.864  30.599  26.164  1.00  0.00     0.002 C 
BRANCH  27  28
ATOM     28  C   UNL A   1      31.532  31.964  26.767  1.00  0.00     0.021 C 
BRANCH  28  29
ATOM     29  C   UNL A   1      32.729  32.718  27.337  1.00  0.00     0.116 C 
BRANCH  29  30
ATOM     30  N   UNL A   1      32.425  34.110  27.625  1.00  0.00    -0.352 N 
ATOM     31  C   UNL A   1      32.991  34.932  28.570  1.00  0.00     0.251 C 
ATOM     32  H   UNL A   1      31.723  34.518  27.070  1.00  0.00     0.163 HD
ATOM     33  O   UNL A   1      32.527  36.045  28.794  1.00  0.00    -0.269 OA
BRANCH  31  34
ATOM     34  C   UNL A   1      34.153  34.447  29.343  1.00  0.00     0.039 A 
ATOM     35  C   UNL A   1      33.934  33.829  30.576  1.00  0.00     0.014 A 
ATOM     36  C   UNL A   1      35.448  34.575  28.831  1.00  0.00     0.014 A 
ATOM     37  C   UNL A   1      35.011  33.273  31.268  1.00  0.00     0.010 A 
ATOM     38  C   UNL A   1      36.511  33.968  29.493  1.00  0.00     0.010 A 
ATOM     39  C   UNL A   1      36.302  33.307  30.713  1.00  0.00    -0.014 A 
BRANCH  39  40
ATOM     40  C   UNL A   1      37.445  32.648  31.387  1.00  0.00     0.031 A 
ATOM     41  C   UNL A   1      38.143  31.493  30.728  1.00  0.00     0.074 A 
ATOM     42  C   UNL A   1      37.807  33.040  32.623  1.00  0.00     0.049 A 
ATOM     43  N   UNL A   1      39.100  30.731  31.191  1.00  0.00    -0.248 NA
ATOM     44  C   UNL A   1      37.686  31.134  29.377  1.00  0.00     0.031 C 
ATOM     45  C   UNL A   1      37.183  34.126  33.382  1.00  0.00     0.029 A 
ATOM     46  N   UNL A   1      38.781  32.564  33.463  1.00  0.00    -0.354 N 
ATOM     47  C   UNL A   1      39.351  29.796  30.196  1.00  0.00     0.074 A 
ATOM     48  C   UNL A   1      38.414  30.055  29.125  1.00  0.00     0.031 C 
ATOM     49  C   UNL A   1      37.802  34.245  34.566  1.00  0.00     0.029 A 
ATOM     50  C   UNL A   1      38.841  33.224  34.665  1.00  0.00     0.049 A 
ATOM     51  H   UNL A   1      39.380  31.819  33.227  1.00  0.00     0.167 HD
ATOM     52  C   UNL A   1      40.292  28.823  30.170  1.00  0.00     0.037 A 
ATOM     53  C   UNL A   1      39.640  33.022  35.731  1.00  0.00     0.037 A 
ATOM     54  C   UNL A   1      41.240  28.583  31.226  1.00  0.00     0.049 A 
ATOM     55  C   UNL A   1      40.660  31.919  35.687  1.00  0.00     0.074 A 
ATOM     56  C   UNL A   1      42.277  27.666  31.265  1.00  0.00     0.029 A 
ATOM     57  N   UNL A   1      41.266  29.266  32.433  1.00  0.00    -0.354 N 
ATOM     58  N   UNL A   1      40.925  31.076  34.719  1.00  0.00    -0.248 NA
ATOM     59  C   UNL A   1      41.489  31.736  36.887  1.00  0.00     0.031 C 
ATOM     60  C   UNL A   1      42.904  27.769  32.512  1.00  0.00     0.029 A 
ATOM     61  C   UNL A   1      42.282  28.774  33.235  1.00  0.00     0.049 A 
ATOM     62  H   UNL A   1      40.651  29.993  32.683  1.00  0.00     0.167 HD
ATOM     63  C   UNL A   1      41.961  30.277  35.183  1.00  0.00     0.074 A 
ATOM     64  C   UNL A   1      42.286  30.744  36.515  1.00  0.00     0.031 C 
ATOM     65  C   UNL A   1      42.587  29.248  34.560  1.00  0.00     0.037 A 
BRANCH  52  66
ATOM     66  C   UNL A   1      40.341  27.947  28.954  1.00  0.00     0.064 A 
ATOM     67  C   UNL A   1      41.097  28.300  27.826  1.00  0.00     0.173 A 
ATOM     68  C   UNL A   1      39.638  26.734  28.921  1.00  0.00     0.173 A 
ATOM     69  F   UNL A   1      41.776  29.458  27.804  1.00  0.00    -0.203 F 
ATOM     70  C   UNL A   1      41.121  27.486  26.697  1.00  0.00     0.198 A 
ATOM     71  C   UNL A   1      39.686  25.909  27.800  1.00  0.00     0.198 A 
ATOM     72  F   UNL A   1      38.904  26.348  29.975  1.00  0.00    -0.203 F 
ATOM     73  F   UNL A   1      41.808  27.869  25.612  1.00  0.00    -0.200 F 
ATOM     74  C   UNL A   1      40.421  26.290  26.686  1.00  0.00     0.200 A 
ATOM     75  F   UNL A   1      39.016  24.749  27.794  1.00  0.00    -0.200 F 
ATOM     76  F   UNL A   1      40.444  25.507  25.599  1.00  0.00    -0.200 F 
ENDBRANCH  52  66
BRANCH  53  77
ATOM     77  C   UNL A   1      39.520  33.901  36.920  1.00  0.00     0.064 A 
ATOM     78  C   UNL A   1      40.178  35.138  36.962  1.00  0.00     0.173 A 
ATOM     79  C   UNL A   1      38.744  33.533  38.028  1.00  0.00     0.173 A 
ATOM     80  F   UNL A   1      40.948  35.521  35.933  1.00  0.00    -0.203 F 
ATOM     81  C   UNL A   1      40.072  35.971  38.074  1.00  0.00     0.198 A 
ATOM     82  C   UNL A   1      38.621  34.377  39.130  1.00  0.00     0.198 A 
ATOM     83  F   UNL A   1      38.093  32.361  38.033  1.00  0.00    -0.203 F 
ATOM     84  F   UNL A   1      40.736  37.134  38.102  1.00  0.00    -0.200 F 
ATOM     85  C   UNL A   1      39.289  35.592  39.153  1.00  0.00     0.200 A 
ATOM     86  F   UNL A   1      37.855  34.013  40.167  1.00  0.00    -0.200 F 
ATOM     87  F   UNL A   1      39.181  36.397  40.220  1.00  0.00    -0.200 F 
ENDBRANCH  53  77
BRANCH  65  88
ATOM     88  C   UNL A   1      43.692  28.567  35.309  1.00  0.00     0.064 A 
ATOM     89  C   UNL A   1      45.020  29.008  35.213  1.00  0.00     0.173 A 
ATOM     90  C   UNL A   1      43.415  27.488  36.162  1.00  0.00     0.173 A 
ATOM     91  F   UNL A   1      45.335  30.024  34.397  1.00  0.00    -0.203 F 
ATOM     92  C   UNL A   1      46.034  28.380  35.931  1.00  0.00     0.198 A 
ATOM     93  C   UNL A   1      44.429  26.878  36.897  1.00  0.00     0.198 A 
ATOM     94  F   UNL A   1      42.160  27.032  36.289  1.00  0.00    -0.203 F 
ATOM     95  F   UNL A   1      47.302  28.793  35.795  1.00  0.00    -0.200 F 
ATOM     96  C   UNL A   1      45.737  27.321  36.777  1.00  0.00     0.200 A 
ATOM     97  F   UNL A   1      44.138  25.862  37.720  1.00  0.00    -0.200 F 
ATOM     98  F   UNL A   1      46.714  26.723  37.471  1.00  0.00    -0.200 F 
ENDBRANCH  65  88
ENDBRANCH  39  40
ENDBRANCH  31  34
ENDBRANCH  29  30
ENDBRANCH  28  29
ENDBRANCH  27  28
ENDBRANCH   1  27
TORSDOF 17
ENDMDL
