MODEL 1
REMARK VINA RESULT:     -12.7      0.000      0.000
REMARK SMILES C[C@H](c1ccccc1)N1C(=O)c2ccc(C(=O)NCCCCCCNC(=O)c3ccc(-c4c5nc(c(-c6c(F)c(F)c(F)c(F)c6F)c6ccc([nH]6)c(-c6c(F)c(F)c(F)c(F)c6F)c6nc(c(-c7c(F)c(F)c(F)c(F)c7F)c7ccc4[nH]7)C=C6)C=C5)cc3)cc2C1=O
REMARK SMILES IDX 21 1 20 2 19 3 18 4 16 5 17 6 15 8 9 9 10 10 93 11 11 12
REMARK SMILES IDX 12 13 92 14 94 15 13 16 91 17 14 18 2 19 1 20 3 21 4 22 8 23
REMARK SMILES IDX 5 24 7 25 6 26 22 27 23 28 24 29 25 30 26 31 27 33 28 34
REMARK SMILES IDX 29 35 90 36 30 37 89 38 31 39 32 40 33 41 83 42 34 43 88 44
REMARK SMILES IDX 82 45 84 46 35 47 87 48 81 49 80 50 36 52 68 53 48 54 67 55
REMARK SMILES IDX 49 56 52 57 66 58 85 59 50 60 51 61 65 63 86 64 53 65 37 66
REMARK SMILES IDX 38 67 46 68 39 69 40 70 44 71 47 72 41 73 42 74 45 75 43 76
REMARK SMILES IDX 69 77 70 78 78 79 71 80 72 81 76 82 79 83 73 84 74 85 77 86
REMARK SMILES IDX 75 87 54 88 55 89 63 90 56 91 57 92 61 93 64 94 58 95 59 96
REMARK SMILES IDX 62 97 60 98
REMARK H PARENT 18 7 25 32 84 51 52 62
REMARK Flexibility Score: inf
ROOT
ATOM      1  C   UNL A   1      34.651  32.507  28.828  1.00  0.00     0.002 C 
ENDROOT
BRANCH   1   2
ATOM      2  C   UNL A   1      35.411  31.709  27.760  1.00  0.00     0.021 C 
BRANCH   2   3
ATOM      3  C   UNL A   1      34.865  30.321  27.424  1.00  0.00     0.116 C 
BRANCH   3   4
ATOM      4  N   UNL A   1      33.466  30.162  27.769  1.00  0.00    -0.352 N 
ATOM      5  C   UNL A   1      32.487  29.384  27.213  1.00  0.00     0.251 C 
ATOM      6  O   UNL A   1      31.334  29.470  27.628  1.00  0.00    -0.269 OA
ATOM      7  H   UNL A   1      33.169  30.706  28.533  1.00  0.00     0.163 HD
BRANCH   5   8
ATOM      8  C   UNL A   1      32.771  28.470  26.085  1.00  0.00     0.040 A 
ATOM      9  N   UNL A   1      33.499  24.681  23.584  1.00  0.00    -0.267 N 
ATOM     10  C   UNL A   1      33.597  25.871  22.916  1.00  0.00     0.262 C 
ATOM     11  C   UNL A   1      33.306  24.889  24.926  1.00  0.00     0.262 C 
ATOM     12  O   UNL A   1      33.950  26.120  21.781  1.00  0.00    -0.269 OA
ATOM     13  C   UNL A   1      33.274  26.920  23.873  1.00  0.00     0.053 A 
ATOM     14  C   UNL A   1      33.142  26.332  25.116  1.00  0.00     0.054 A 
ATOM     15  O   UNL A   1      33.294  24.088  25.843  1.00  0.00    -0.269 OA
ATOM     16  C   UNL A   1      33.111  28.275  23.670  1.00  0.00     0.015 A 
ATOM     17  C   UNL A   1      32.890  27.081  26.252  1.00  0.00     0.028 A 
ATOM     18  C   UNL A   1      32.842  29.053  24.797  1.00  0.00     0.015 A 
BRANCH   9  19
ATOM     19  C   UNL A   1      33.657  23.351  22.986  1.00  0.00     0.121 C 
ATOM     20  C   UNL A   1      32.338  22.576  22.929  1.00  0.00     0.037 C 
BRANCH  19  21
ATOM     21  C   UNL A   1      34.787  22.561  23.641  1.00  0.00    -0.025 A 
ATOM     22  C   UNL A   1      34.547  21.406  24.405  1.00  0.00     0.006 A 
ATOM     23  C   UNL A   1      36.116  23.000  23.516  1.00  0.00     0.006 A 
ATOM     24  C   UNL A   1      35.583  20.745  25.066  1.00  0.00     0.000 A 
ATOM     25  C   UNL A   1      37.158  22.320  24.156  1.00  0.00     0.000 A 
ATOM     26  C   UNL A   1      36.890  21.202  24.943  1.00  0.00     0.000 A 
ENDBRANCH  19  21
ENDBRANCH   9  19
ENDBRANCH   5   8
ENDBRANCH   3   4
ENDBRANCH   2   3
ENDBRANCH   1   2
BRANCH   1  27
ATOM     27  C   UNL A   1      34.649  34.031  28.678  1.00  0.00     0.002 C 
BRANCH  27  28
ATOM     28  C   UNL A   1      33.293  34.726  28.816  1.00  0.00     0.021 C 
BRANCH  28  29
ATOM     29  C   UNL A   1      33.324  36.138  29.391  1.00  0.00     0.116 C 
BRANCH  29  30
ATOM     30  N   UNL A   1      32.480  36.294  30.561  1.00  0.00    -0.352 N 
ATOM     31  C   UNL A   1      32.618  35.753  31.817  1.00  0.00     0.251 C 
ATOM     32  H   UNL A   1      31.692  36.871  30.436  1.00  0.00     0.163 HD
ATOM     33  O   UNL A   1      31.726  35.902  32.647  1.00  0.00    -0.269 OA
BRANCH  31  34
ATOM     34  C   UNL A   1      33.825  34.972  32.175  1.00  0.00     0.039 A 
ATOM     35  C   UNL A   1      35.064  35.622  32.188  1.00  0.00     0.014 A 
ATOM     36  C   UNL A   1      33.757  33.604  32.457  1.00  0.00     0.014 A 
ATOM     37  C   UNL A   1      36.222  34.916  32.525  1.00  0.00     0.010 A 
ATOM     38  C   UNL A   1      34.904  32.913  32.852  1.00  0.00     0.010 A 
ATOM     39  C   UNL A   1      36.149  33.560  32.879  1.00  0.00    -0.014 A 
BRANCH  39  40
ATOM     40  C   UNL A   1      37.370  32.795  33.241  1.00  0.00     0.031 A 
ATOM     41  C   UNL A   1      38.076  33.077  34.540  1.00  0.00     0.074 A 
ATOM     42  C   UNL A   1      37.868  31.877  32.391  1.00  0.00     0.049 A 
ATOM     43  N   UNL A   1      39.191  32.571  35.006  1.00  0.00    -0.248 NA
ATOM     44  C   UNL A   1      37.458  34.080  35.421  1.00  0.00     0.031 C 
ATOM     45  C   UNL A   1      37.301  31.538  31.085  1.00  0.00     0.029 A 
ATOM     46  N   UNL A   1      38.974  31.071  32.494  1.00  0.00    -0.354 N 
ATOM     47  C   UNL A   1      39.410  33.200  36.226  1.00  0.00     0.074 A 
ATOM     48  C   UNL A   1      38.341  34.159  36.406  1.00  0.00     0.031 C 
ATOM     49  C   UNL A   1      38.056  30.585  30.514  1.00  0.00     0.029 A 
ATOM     50  C   UNL A   1      39.172  30.264  31.400  1.00  0.00     0.049 A 
ATOM     51  H   UNL A   1      39.569  31.070  33.278  1.00  0.00     0.167 HD
ATOM     52  C   UNL A   1      40.398  32.980  37.125  1.00  0.00     0.037 A 
ATOM     53  C   UNL A   1      40.146  29.371  31.140  1.00  0.00     0.037 A 
ATOM     54  C   UNL A   1      41.450  32.012  36.960  1.00  0.00     0.049 A 
ATOM     55  C   UNL A   1      41.217  29.128  32.170  1.00  0.00     0.074 A 
ATOM     56  C   UNL A   1      42.496  31.714  37.815  1.00  0.00     0.029 A 
ATOM     57  N   UNL A   1      41.578  31.172  35.864  1.00  0.00    -0.354 N 
ATOM     58  N   UNL A   1      41.395  29.707  33.331  1.00  0.00    -0.248 NA
ATOM     59  C   UNL A   1      42.213  28.093  31.858  1.00  0.00     0.031 C 
ATOM     60  C   UNL A   1      43.268  30.705  37.229  1.00  0.00     0.029 A 
ATOM     61  C   UNL A   1      42.682  30.351  36.026  1.00  0.00     0.049 A 
ATOM     62  H   UNL A   1      40.975  31.161  35.086  1.00  0.00     0.167 HD
ATOM     63  C   UNL A   1      42.499  29.087  33.901  1.00  0.00     0.074 A 
ATOM     64  C   UNL A   1      42.944  28.079  32.964  1.00  0.00     0.031 C 
ATOM     65  C   UNL A   1      43.093  29.334  35.094  1.00  0.00     0.037 A 
BRANCH  52  66
ATOM     66  C   UNL A   1      40.378  33.796  38.384  1.00  0.00     0.064 A 
ATOM     67  C   UNL A   1      41.144  34.965  38.506  1.00  0.00     0.173 A 
ATOM     68  C   UNL A   1      39.560  33.430  39.464  1.00  0.00     0.173 A 
ATOM     69  F   UNL A   1      41.953  35.350  37.507  1.00  0.00    -0.203 F 
ATOM     70  C   UNL A   1      41.112  35.724  39.673  1.00  0.00     0.198 A 
ATOM     71  C   UNL A   1      39.510  34.207  40.618  1.00  0.00     0.198 A 
ATOM     72  F   UNL A   1      38.804  32.324  39.395  1.00  0.00    -0.203 F 
ATOM     73  F   UNL A   1      41.886  36.812  39.782  1.00  0.00    -0.200 F 
ATOM     74  C   UNL A   1      40.290  35.349  40.724  1.00  0.00     0.200 A 
ATOM     75  F   UNL A   1      38.709  33.849  41.630  1.00  0.00    -0.200 F 
ATOM     76  F   UNL A   1      40.255  36.085  41.844  1.00  0.00    -0.200 F 
ENDBRANCH  52  66
BRANCH  53  77
ATOM     77  C   UNL A   1      40.141  28.614  29.863  1.00  0.00     0.064 A 
ATOM     78  C   UNL A   1      39.528  27.356  29.773  1.00  0.00     0.173 A 
ATOM     79  C   UNL A   1      40.764  29.120  28.714  1.00  0.00     0.173 A 
ATOM     80  F   UNL A   1      38.937  26.822  30.852  1.00  0.00    -0.203 F 
ATOM     81  C   UNL A   1      39.562  26.622  28.591  1.00  0.00     0.198 A 
ATOM     82  C   UNL A   1      40.777  28.395  27.524  1.00  0.00     0.198 A 
ATOM     83  F   UNL A   1      41.362  30.321  28.747  1.00  0.00    -0.203 F 
ATOM     84  F   UNL A   1      39.013  25.400  28.548  1.00  0.00    -0.200 F 
ATOM     85  C   UNL A   1      40.183  27.143  27.466  1.00  0.00     0.200 A 
ATOM     86  F   UNL A   1      41.368  28.907  26.436  1.00  0.00    -0.200 F 
ATOM     87  F   UNL A   1      40.219  26.434  26.329  1.00  0.00    -0.200 F 
ENDBRANCH  53  77
BRANCH  65  88
ATOM     88  C   UNL A   1      44.252  28.462  35.476  1.00  0.00     0.064 A 
ATOM     89  C   UNL A   1      44.075  27.279  36.208  1.00  0.00     0.173 A 
ATOM     90  C   UNL A   1      45.553  28.803  35.076  1.00  0.00     0.173 A 
ATOM     91  F   UNL A   1      42.851  26.921  36.624  1.00  0.00    -0.203 F 
ATOM     92  C   UNL A   1      45.163  26.482  36.549  1.00  0.00     0.198 A 
ATOM     93  C   UNL A   1      46.635  27.991  35.398  1.00  0.00     0.198 A 
ATOM     94  F   UNL A   1      45.772  29.922  34.370  1.00  0.00    -0.203 F 
ATOM     95  F   UNL A   1      44.978  25.379  37.287  1.00  0.00    -0.200 F 
ATOM     96  C   UNL A   1      46.441  26.835  36.140  1.00  0.00     0.200 A 
ATOM     97  F   UNL A   1      47.869  28.328  34.995  1.00  0.00    -0.200 F 
ATOM     98  F   UNL A   1      47.488  26.064  36.468  1.00  0.00    -0.200 F 
ENDBRANCH  65  88
ENDBRANCH  39  40
ENDBRANCH  31  34
ENDBRANCH  29  30
ENDBRANCH  28  29
ENDBRANCH  27  28
ENDBRANCH   1  27
TORSDOF 15
ENDMDL
MODEL 2
REMARK VINA RESULT:     -12.6      0.209      1.563
REMARK SMILES C[C@H](c1ccccc1)N1C(=O)c2ccc(C(=O)NCCCCCCNC(=O)c3ccc(-c4c5nc(c(-c6c(F)c(F)c(F)c(F)c6F)c6ccc([nH]6)c(-c6c(F)c(F)c(F)c(F)c6F)c6nc(c(-c7c(F)c(F)c(F)c(F)c7F)c7ccc4[nH]7)C=C6)C=C5)cc3)cc2C1=O
REMARK SMILES IDX 21 1 20 2 19 3 18 4 16 5 17 6 15 8 9 9 10 10 93 11 11 12
REMARK SMILES IDX 12 13 92 14 94 15 13 16 91 17 14 18 2 19 1 20 3 21 4 22 8 23
REMARK SMILES IDX 5 24 7 25 6 26 22 27 23 28 24 29 25 30 26 31 27 33 28 34
REMARK SMILES IDX 29 35 90 36 30 37 89 38 31 39 32 40 33 41 83 42 34 43 88 44
REMARK SMILES IDX 82 45 84 46 35 47 87 48 81 49 80 50 36 52 68 53 48 54 67 55
REMARK SMILES IDX 49 56 52 57 66 58 85 59 50 60 51 61 65 63 86 64 53 65 37 66
REMARK SMILES IDX 38 67 46 68 39 69 40 70 44 71 47 72 41 73 42 74 45 75 43 76
REMARK SMILES IDX 69 77 70 78 78 79 71 80 72 81 76 82 79 83 73 84 74 85 77 86
REMARK SMILES IDX 75 87 54 88 55 89 63 90 56 91 57 92 61 93 64 94 58 95 59 96
REMARK SMILES IDX 62 97 60 98
REMARK H PARENT 18 7 25 32 84 51 52 62
REMARK Flexibility Score: inf
ROOT
ATOM      1  C   UNL A   1      34.842  32.568  28.854  1.00  0.00     0.002 C 
ENDROOT
BRANCH   1   2
ATOM      2  C   UNL A   1      35.699  31.653  27.969  1.00  0.00     0.021 C 
BRANCH   2   3
ATOM      3  C   UNL A   1      34.997  30.444  27.350  1.00  0.00     0.116 C 
BRANCH   3   4
ATOM      4  N   UNL A   1      33.579  30.397  27.647  1.00  0.00    -0.352 N 
ATOM      5  C   UNL A   1      32.564  29.678  27.075  1.00  0.00     0.251 C 
ATOM      6  O   UNL A   1      31.407  29.860  27.444  1.00  0.00    -0.269 OA
ATOM      7  H   UNL A   1      33.296  30.984  28.385  1.00  0.00     0.163 HD
BRANCH   5   8
ATOM      8  C   UNL A   1      32.819  28.715  25.981  1.00  0.00     0.040 A 
ATOM      9  N   UNL A   1      33.394  24.814  23.616  1.00  0.00    -0.267 N 
ATOM     10  C   UNL A   1      33.562  25.975  22.912  1.00  0.00     0.262 C 
ATOM     11  C   UNL A   1      33.192  25.076  24.947  1.00  0.00     0.262 C 
ATOM     12  O   UNL A   1      33.943  26.169  21.775  1.00  0.00    -0.269 OA
ATOM     13  C   UNL A   1      33.277  27.069  23.829  1.00  0.00     0.053 A 
ATOM     14  C   UNL A   1      33.097  26.531  25.088  1.00  0.00     0.054 A 
ATOM     15  O   UNL A   1      33.126  24.306  25.889  1.00  0.00    -0.269 OA
ATOM     16  C   UNL A   1      33.186  28.424  23.580  1.00  0.00     0.015 A 
ATOM     17  C   UNL A   1      32.866  27.328  26.195  1.00  0.00     0.028 A 
ATOM     18  C   UNL A   1      32.939  29.251  24.676  1.00  0.00     0.015 A 
BRANCH   9  19
ATOM     19  C   UNL A   1      33.494  23.459  23.064  1.00  0.00     0.121 C 
ATOM     20  C   UNL A   1      32.165  22.703  23.128  1.00  0.00     0.037 C 
BRANCH  19  21
ATOM     21  C   UNL A   1      34.657  22.678  23.673  1.00  0.00    -0.025 A 
ATOM     22  C   UNL A   1      34.456  21.526  24.453  1.00  0.00     0.006 A 
ATOM     23  C   UNL A   1      35.976  23.124  23.488  1.00  0.00     0.006 A 
ATOM     24  C   UNL A   1      35.524  20.875  25.071  1.00  0.00     0.000 A 
ATOM     25  C   UNL A   1      37.049  22.453  24.085  1.00  0.00     0.000 A 
ATOM     26  C   UNL A   1      36.822  21.338  24.889  1.00  0.00     0.000 A 
ENDBRANCH  19  21
ENDBRANCH   9  19
ENDBRANCH   5   8
ENDBRANCH   3   4
ENDBRANCH   2   3
ENDBRANCH   1   2
BRANCH   1  27
ATOM     27  C   UNL A   1      34.431  33.916  28.256  1.00  0.00     0.002 C 
BRANCH  27  28
ATOM     28  C   UNL A   1      33.165  34.556  28.829  1.00  0.00     0.021 C 
BRANCH  28  29
ATOM     29  C   UNL A   1      33.331  35.956  29.409  1.00  0.00     0.116 C 
BRANCH  29  30
ATOM     30  N   UNL A   1      32.516  36.183  30.588  1.00  0.00    -0.352 N 
ATOM     31  C   UNL A   1      32.682  35.712  31.868  1.00  0.00     0.251 C 
ATOM     32  H   UNL A   1      31.728  36.758  30.450  1.00  0.00     0.163 HD
ATOM     33  O   UNL A   1      31.812  35.912  32.711  1.00  0.00    -0.269 OA
BRANCH  31  34
ATOM     34  C   UNL A   1      33.893  34.943  32.241  1.00  0.00     0.039 A 
ATOM     35  C   UNL A   1      35.134  35.587  32.195  1.00  0.00     0.014 A 
ATOM     36  C   UNL A   1      33.825  33.592  32.593  1.00  0.00     0.014 A 
ATOM     37  C   UNL A   1      36.296  34.893  32.542  1.00  0.00     0.010 A 
ATOM     38  C   UNL A   1      34.977  32.916  32.998  1.00  0.00     0.010 A 
ATOM     39  C   UNL A   1      36.226  33.557  32.966  1.00  0.00    -0.014 A 
BRANCH  39  40
ATOM     40  C   UNL A   1      37.451  32.805  33.341  1.00  0.00     0.031 A 
ATOM     41  C   UNL A   1      38.146  33.102  34.642  1.00  0.00     0.074 A 
ATOM     42  C   UNL A   1      37.963  31.887  32.500  1.00  0.00     0.049 A 
ATOM     43  N   UNL A   1      39.262  32.608  35.119  1.00  0.00    -0.248 NA
ATOM     44  C   UNL A   1      37.513  34.105  35.513  1.00  0.00     0.031 C 
ATOM     45  C   UNL A   1      37.407  31.534  31.193  1.00  0.00     0.029 A 
ATOM     46  N   UNL A   1      39.075  31.090  32.615  1.00  0.00    -0.354 N 
ATOM     47  C   UNL A   1      39.467  33.246  36.336  1.00  0.00     0.074 A 
ATOM     48  C   UNL A   1      38.390  34.197  36.503  1.00  0.00     0.031 C 
ATOM     49  C   UNL A   1      38.174  30.584  30.632  1.00  0.00     0.029 A 
ATOM     50  C   UNL A   1      39.287  30.279  31.528  1.00  0.00     0.049 A 
ATOM     51  H   UNL A   1      39.664  31.099  33.403  1.00  0.00     0.167 HD
ATOM     52  C   UNL A   1      40.452  33.041  37.243  1.00  0.00     0.037 A 
ATOM     53  C   UNL A   1      40.270  29.392  31.280  1.00  0.00     0.037 A 
ATOM     54  C   UNL A   1      41.513  32.081  37.091  1.00  0.00     0.049 A 
ATOM     55  C   UNL A   1      41.336  29.165  32.318  1.00  0.00     0.074 A 
ATOM     56  C   UNL A   1      42.557  31.798  37.955  1.00  0.00     0.029 A 
ATOM     57  N   UNL A   1      41.656  31.236  36.001  1.00  0.00    -0.354 N 
ATOM     58  N   UNL A   1      41.502  29.753  33.477  1.00  0.00    -0.248 NA
ATOM     59  C   UNL A   1      42.343  28.137  32.018  1.00  0.00     0.031 C 
ATOM     60  C   UNL A   1      43.341  30.792  37.380  1.00  0.00     0.029 A 
ATOM     61  C   UNL A   1      42.766  30.425  36.176  1.00  0.00     0.049 A 
ATOM     62  H   UNL A   1      41.058  31.214  35.219  1.00  0.00     0.167 HD
ATOM     63  C   UNL A   1      42.607  29.146  34.058  1.00  0.00     0.074 A 
ATOM     64  C   UNL A   1      43.067  28.136  33.129  1.00  0.00     0.031 C 
ATOM     65  C   UNL A   1      43.191  29.406  35.253  1.00  0.00     0.037 A 
BRANCH  52  66
ATOM     66  C   UNL A   1      40.416  33.865  38.496  1.00  0.00     0.064 A 
ATOM     67  C   UNL A   1      41.113  35.079  38.589  1.00  0.00     0.173 A 
ATOM     68  C   UNL A   1      39.653  33.459  39.601  1.00  0.00     0.173 A 
ATOM     69  F   UNL A   1      41.869  35.504  37.565  1.00  0.00    -0.203 F 
ATOM     70  C   UNL A   1      41.067  35.845  39.752  1.00  0.00     0.198 A 
ATOM     71  C   UNL A   1      39.587  34.241  40.751  1.00  0.00     0.198 A 
ATOM     72  F   UNL A   1      38.964  32.308  39.561  1.00  0.00    -0.203 F 
ATOM     73  F   UNL A   1      41.775  36.979  39.832  1.00  0.00    -0.200 F 
ATOM     74  C   UNL A   1      40.299  35.429  40.828  1.00  0.00     0.200 A 
ATOM     75  F   UNL A   1      38.837  33.843  41.788  1.00  0.00    -0.200 F 
ATOM     76  F   UNL A   1      40.250  36.170  41.943  1.00  0.00    -0.200 F 
ENDBRANCH  52  66
BRANCH  53  77
ATOM     77  C   UNL A   1      40.280  28.627  30.007  1.00  0.00     0.064 A 
ATOM     78  C   UNL A   1      40.957  29.112  28.879  1.00  0.00     0.173 A 
ATOM     79  C   UNL A   1      39.597  27.409  29.885  1.00  0.00     0.173 A 
ATOM     80  F   UNL A   1      41.607  30.283  28.943  1.00  0.00    -0.203 F 
ATOM     81  C   UNL A   1      40.929  28.422  27.671  1.00  0.00     0.198 A 
ATOM     82  C   UNL A   1      39.589  26.706  28.682  1.00  0.00     0.198 A 
ATOM     83  F   UNL A   1      38.936  26.900  30.936  1.00  0.00    -0.203 F 
ATOM     84  F   UNL A   1      41.542  28.934  26.595  1.00  0.00    -0.200 F 
ATOM     85  C   UNL A   1      40.248  27.218  27.573  1.00  0.00     0.200 A 
ATOM     86  F   UNL A   1      38.940  25.538  28.595  1.00  0.00    -0.200 F 
ATOM     87  F   UNL A   1      40.217  26.555  26.409  1.00  0.00    -0.200 F 
ENDBRANCH  53  77
BRANCH  65  88
ATOM     88  C   UNL A   1      44.356  28.547  35.648  1.00  0.00     0.064 A 
ATOM     89  C   UNL A   1      45.671  28.880  35.293  1.00  0.00     0.173 A 
ATOM     90  C   UNL A   1      44.152  27.392  36.418  1.00  0.00     0.173 A 
ATOM     91  F   UNL A   1      45.912  29.967  34.544  1.00  0.00    -0.203 F 
ATOM     92  C   UNL A   1      46.738  28.072  35.672  1.00  0.00     0.198 A 
ATOM     93  C   UNL A   1      45.224  26.601  36.817  1.00  0.00     0.198 A 
ATOM     94  F   UNL A   1      42.913  27.036  36.787  1.00  0.00    -0.203 F 
ATOM     95  F   UNL A   1      47.982  28.384  35.285  1.00  0.00    -0.200 F 
ATOM     96  C   UNL A   1      46.515  26.937  36.439  1.00  0.00     0.200 A 
ATOM     97  F   UNL A   1      45.008  25.508  37.564  1.00  0.00    -0.200 F 
ATOM     98  F   UNL A   1      47.545  26.161  36.805  1.00  0.00    -0.200 F 
ENDBRANCH  65  88
ENDBRANCH  39  40
ENDBRANCH  31  34
ENDBRANCH  29  30
ENDBRANCH  28  29
ENDBRANCH  27  28
ENDBRANCH   1  27
TORSDOF 15
ENDMDL
MODEL 3
REMARK VINA RESULT:     -12.5      6.470     12.362
REMARK SMILES C[C@H](c1ccccc1)N1C(=O)c2ccc(C(=O)NCCCCCCNC(=O)c3ccc(-c4c5nc(c(-c6c(F)c(F)c(F)c(F)c6F)c6ccc([nH]6)c(-c6c(F)c(F)c(F)c(F)c6F)c6nc(c(-c7c(F)c(F)c(F)c(F)c7F)c7ccc4[nH]7)C=C6)C=C5)cc3)cc2C1=O
REMARK SMILES IDX 21 1 20 2 19 3 18 4 16 5 17 6 15 8 9 9 10 10 93 11 11 12
REMARK SMILES IDX 12 13 92 14 94 15 13 16 91 17 14 18 2 19 1 20 3 21 4 22 8 23
REMARK SMILES IDX 5 24 7 25 6 26 22 27 23 28 24 29 25 30 26 31 27 33 28 34
REMARK SMILES IDX 29 35 90 36 30 37 89 38 31 39 32 40 33 41 83 42 34 43 88 44
REMARK SMILES IDX 82 45 84 46 35 47 87 48 81 49 80 50 36 52 68 53 48 54 67 55
REMARK SMILES IDX 49 56 52 57 66 58 85 59 50 60 51 61 65 63 86 64 53 65 37 66
REMARK SMILES IDX 38 67 46 68 39 69 40 70 44 71 47 72 41 73 42 74 45 75 43 76
REMARK SMILES IDX 69 77 70 78 78 79 71 80 72 81 76 82 79 83 73 84 74 85 77 86
REMARK SMILES IDX 75 87 54 88 55 89 63 90 56 91 57 92 61 93 64 94 58 95 59 96
REMARK SMILES IDX 62 97 60 98
REMARK H PARENT 18 7 25 32 84 51 52 62
REMARK Flexibility Score: inf
ROOT
ATOM      1  C   UNL A   1      40.503  21.518  27.278  1.00  0.00     0.002 C 
ENDROOT
BRANCH   1   2
ATOM      2  C   UNL A   1      40.053  22.983  27.212  1.00  0.00     0.021 C 
BRANCH   2   3
ATOM      3  C   UNL A   1      38.729  23.262  26.498  1.00  0.00     0.116 C 
BRANCH   3   4
ATOM      4  N   UNL A   1      38.462  22.335  25.416  1.00  0.00    -0.352 N 
ATOM      5  C   UNL A   1      37.282  21.921  24.859  1.00  0.00     0.251 C 
ATOM      6  O   UNL A   1      37.292  21.055  23.989  1.00  0.00    -0.269 OA
ATOM      7  H   UNL A   1      39.265  21.934  25.013  1.00  0.00     0.163 HD
BRANCH   5   8
ATOM      8  C   UNL A   1      35.980  22.458  25.314  1.00  0.00     0.040 A 
ATOM      9  N   UNL A   1      32.133  24.957  25.629  1.00  0.00    -0.267 N 
ATOM     10  C   UNL A   1      32.315  24.007  26.597  1.00  0.00     0.262 C 
ATOM     11  C   UNL A   1      33.230  25.033  24.809  1.00  0.00     0.262 C 
ATOM     12  O   UNL A   1      31.683  23.767  27.606  1.00  0.00    -0.269 OA
ATOM     13  C   UNL A   1      33.549  23.305  26.273  1.00  0.00     0.053 A 
ATOM     14  C   UNL A   1      34.140  23.957  25.208  1.00  0.00     0.054 A 
ATOM     15  O   UNL A   1      33.483  25.830  23.923  1.00  0.00    -0.269 OA
ATOM     16  C   UNL A   1      34.107  22.189  26.863  1.00  0.00     0.015 A 
ATOM     17  C   UNL A   1      35.364  23.559  24.700  1.00  0.00     0.028 A 
ATOM     18  C   UNL A   1      35.334  21.756  26.361  1.00  0.00     0.015 A 
BRANCH   9  19
ATOM     19  C   UNL A   1      30.970  25.841  25.510  1.00  0.00     0.121 C 
ATOM     20  C   UNL A   1      30.229  25.656  24.183  1.00  0.00     0.037 C 
BRANCH  19  21
ATOM     21  C   UNL A   1      31.329  27.298  25.796  1.00  0.00    -0.025 A 
ATOM     22  C   UNL A   1      31.767  27.724  27.062  1.00  0.00     0.006 A 
ATOM     23  C   UNL A   1      31.194  28.266  24.789  1.00  0.00     0.006 A 
ATOM     24  C   UNL A   1      32.009  29.072  27.329  1.00  0.00     0.000 A 
ATOM     25  C   UNL A   1      31.464  29.615  25.049  1.00  0.00     0.000 A 
ATOM     26  C   UNL A   1      31.856  30.019  26.323  1.00  0.00     0.000 A 
ENDBRANCH  19  21
ENDBRANCH   9  19
ENDBRANCH   5   8
ENDBRANCH   3   4
ENDBRANCH   2   3
ENDBRANCH   1   2
BRANCH   1  27
ATOM     27  C   UNL A   1      41.757  21.146  26.483  1.00  0.00     0.002 C 
BRANCH  27  28
ATOM     28  C   UNL A   1      41.790  19.739  25.884  1.00  0.00     0.021 C 
BRANCH  28  29
ATOM     29  C   UNL A   1      43.040  18.917  26.182  1.00  0.00     0.116 C 
BRANCH  29  30
ATOM     30  N   UNL A   1      43.855  18.676  25.006  1.00  0.00    -0.352 N 
ATOM     31  C   UNL A   1      44.633  19.552  24.288  1.00  0.00     0.251 C 
ATOM     32  H   UNL A   1      43.850  17.749  24.674  1.00  0.00     0.163 HD
ATOM     33  O   UNL A   1      45.156  19.186  23.239  1.00  0.00    -0.269 OA
BRANCH  31  34
ATOM     34  C   UNL A   1      44.831  20.945  24.753  1.00  0.00     0.039 A 
ATOM     35  C   UNL A   1      44.406  21.992  23.928  1.00  0.00     0.014 A 
ATOM     36  C   UNL A   1      45.464  21.232  25.965  1.00  0.00     0.014 A 
ATOM     37  C   UNL A   1      44.574  23.318  24.336  1.00  0.00     0.010 A 
ATOM     38  C   UNL A   1      45.578  22.553  26.400  1.00  0.00     0.010 A 
ATOM     39  C   UNL A   1      45.144  23.610  25.585  1.00  0.00    -0.014 A 
BRANCH  39  40
ATOM     40  C   UNL A   1      45.329  25.013  26.035  1.00  0.00     0.031 A 
ATOM     41  C   UNL A   1      46.683  25.662  25.936  1.00  0.00     0.074 A 
ATOM     42  C   UNL A   1      44.295  25.693  26.568  1.00  0.00     0.049 A 
ATOM     43  N   UNL A   1      47.066  26.849  26.337  1.00  0.00    -0.248 NA
ATOM     44  C   UNL A   1      47.754  24.860  25.325  1.00  0.00     0.031 C 
ATOM     45  C   UNL A   1      42.943  25.166  26.754  1.00  0.00     0.029 A 
ATOM     46  N   UNL A   1      44.226  26.972  27.061  1.00  0.00    -0.354 N 
ATOM     47  C   UNL A   1      48.420  26.930  26.037  1.00  0.00     0.074 A 
ATOM     48  C   UNL A   1      48.804  25.657  25.465  1.00  0.00     0.031 C 
ATOM     49  C   UNL A   1      42.175  26.116  27.312  1.00  0.00     0.029 A 
ATOM     50  C   UNL A   1      42.985  27.310  27.543  1.00  0.00     0.049 A 
ATOM     51  H   UNL A   1      44.993  27.588  27.069  1.00  0.00     0.167 HD
ATOM     52  C   UNL A   1      49.262  27.978  26.200  1.00  0.00     0.037 A 
ATOM     53  C   UNL A   1      42.552  28.452  28.112  1.00  0.00     0.037 A 
ATOM     54  C   UNL A   1      48.879  29.252  26.748  1.00  0.00     0.049 A 
ATOM     55  C   UNL A   1      43.502  29.610  28.256  1.00  0.00     0.074 A 
ATOM     56  C   UNL A   1      49.659  30.377  26.952  1.00  0.00     0.029 A 
ATOM     57  N   UNL A   1      47.597  29.573  27.167  1.00  0.00    -0.354 N 
ATOM     58  N   UNL A   1      44.771  29.683  27.940  1.00  0.00    -0.248 NA
ATOM     59  C   UNL A   1      42.953  30.851  28.821  1.00  0.00     0.031 C 
ATOM     60  C   UNL A   1      48.853  31.374  27.511  1.00  0.00     0.029 A 
ATOM     61  C   UNL A   1      47.564  30.882  27.621  1.00  0.00     0.049 A 
ATOM     62  H   UNL A   1      46.825  28.962  27.145  1.00  0.00     0.167 HD
ATOM     63  C   UNL A   1      45.164  30.982  28.235  1.00  0.00     0.074 A 
ATOM     64  C   UNL A   1      43.995  31.666  28.745  1.00  0.00     0.031 C 
ATOM     65  C   UNL A   1      46.384  31.555  28.099  1.00  0.00     0.037 A 
BRANCH  52  66
ATOM     66  C   UNL A   1      50.685  27.793  25.763  1.00  0.00     0.064 A 
ATOM     67  C   UNL A   1      51.690  27.454  26.681  1.00  0.00     0.173 A 
ATOM     68  C   UNL A   1      51.044  27.920  24.412  1.00  0.00     0.173 A 
ATOM     69  F   UNL A   1      51.401  27.335  27.985  1.00  0.00    -0.203 F 
ATOM     70  C   UNL A   1      53.008  27.272  26.266  1.00  0.00     0.198 A 
ATOM     71  C   UNL A   1      52.356  27.711  23.998  1.00  0.00     0.198 A 
ATOM     72  F   UNL A   1      50.118  28.239  23.494  1.00  0.00    -0.203 F 
ATOM     73  F   UNL A   1      53.958  26.992  27.168  1.00  0.00    -0.200 F 
ATOM     74  C   UNL A   1      53.338  27.394  24.926  1.00  0.00     0.200 A 
ATOM     75  F   UNL A   1      52.673  27.820  22.701  1.00  0.00    -0.200 F 
ATOM     76  F   UNL A   1      54.605  27.213  24.527  1.00  0.00    -0.200 F 
ENDBRANCH  52  66
BRANCH  53  77
ATOM     77  C   UNL A   1      41.141  28.572  28.561  1.00  0.00     0.064 A 
ATOM     78  C   UNL A   1      40.768  28.219  29.865  1.00  0.00     0.173 A 
ATOM     79  C   UNL A   1      40.136  29.020  27.692  1.00  0.00     0.173 A 
ATOM     80  F   UNL A   1      41.691  27.765  30.725  1.00  0.00    -0.203 F 
ATOM     81  C   UNL A   1      39.439  28.284  30.275  1.00  0.00     0.198 A 
ATOM     82  C   UNL A   1      38.811  29.109  28.111  1.00  0.00     0.198 A 
ATOM     83  F   UNL A   1      40.443  29.373  26.435  1.00  0.00    -0.203 F 
ATOM     84  F   UNL A   1      39.102  27.892  31.512  1.00  0.00    -0.200 F 
ATOM     85  C   UNL A   1      38.462  28.732  29.400  1.00  0.00     0.200 A 
ATOM     86  F   UNL A   1      37.871  29.553  27.266  1.00  0.00    -0.200 F 
ATOM     87  F   UNL A   1      37.182  28.791  29.794  1.00  0.00    -0.200 F 
ENDBRANCH  53  77
BRANCH  65  88
ATOM     88  C   UNL A   1      46.504  33.007  28.455  1.00  0.00     0.064 A 
ATOM     89  C   UNL A   1      46.286  34.018  27.508  1.00  0.00     0.173 A 
ATOM     90  C   UNL A   1      46.809  33.389  29.770  1.00  0.00     0.173 A 
ATOM     91  F   UNL A   1      46.006  33.700  26.235  1.00  0.00    -0.203 F 
ATOM     92  C   UNL A   1      46.398  35.360  27.858  1.00  0.00     0.198 A 
ATOM     93  C   UNL A   1      46.895  34.732  30.122  1.00  0.00     0.198 A 
ATOM     94  F   UNL A   1      47.020  32.458  30.713  1.00  0.00    -0.203 F 
ATOM     95  F   UNL A   1      46.231  36.309  26.928  1.00  0.00    -0.200 F 
ATOM     96  C   UNL A   1      46.697  35.716  29.166  1.00  0.00     0.200 A 
ATOM     97  F   UNL A   1      47.176  35.075  31.388  1.00  0.00    -0.200 F 
ATOM     98  F   UNL A   1      46.802  37.009  29.502  1.00  0.00    -0.200 F 
ENDBRANCH  65  88
ENDBRANCH  39  40
ENDBRANCH  31  34
ENDBRANCH  29  30
ENDBRANCH  28  29
ENDBRANCH  27  28
ENDBRANCH   1  27
TORSDOF 15
ENDMDL
