MODEL 1
REMARK VINA RESULT:     -12.3      0.000      0.000
REMARK SMILES Cc1cc(Nc2nc3c(c(OCC(=O)NCCCCCCNC(=O)c4ccc(-c5c6nc(c(-c7c(F)c(F)c(F)c(F)c7F)c7ccc([nH]7)c(-c7c(F)c(F)c(F)c(F)c7F)c7nc(c(-c8c(F)c(F)c(F)c(F)c8F)c8ccc5[nH]8)C=C7)C=C6)cc4)n2)CCCC3)ccc1Br
REMARK SMILES IDX 17 1 16 2 15 3 13 4 14 5 12 7 11 8 10 9 6 10 7 11 88 12 8 13
REMARK SMILES IDX 9 14 92 15 89 16 91 17 90 18 5 19 4 21 1 22 2 23 3 24 95 25
REMARK SMILES IDX 94 26 96 27 93 28 18 29 19 30 20 31 21 32 22 33 23 34 24 36
REMARK SMILES IDX 25 37 26 38 87 39 27 40 86 41 28 42 29 43 30 44 80 45 31 46
REMARK SMILES IDX 85 47 79 48 81 49 32 50 84 51 78 52 77 53 33 55 65 56 45 57
REMARK SMILES IDX 64 58 46 59 49 60 63 61 82 62 47 63 48 64 62 66 83 67 50 68
REMARK SMILES IDX 34 69 35 70 43 71 36 72 37 73 41 74 44 75 38 76 39 77 42 78
REMARK SMILES IDX 40 79 66 80 67 81 75 82 68 83 69 84 73 85 76 86 70 87 71 88
REMARK SMILES IDX 74 89 72 90 51 91 52 92 60 93 53 94 54 95 58 96 61 97 55 98
REMARK SMILES IDX 56 99 59 100 57 101
REMARK H PARENT 15 6 5 20 22 35 81 54 49 65
REMARK Flexibility Score: inf
ROOT
ATOM      1  C   UNL A   1      41.161  22.015  26.128  1.00  0.00     0.021 C 
ENDROOT
BRANCH   1   2
ATOM      2  C   UNL A   1      39.710  21.532  26.166  1.00  0.00     0.116 C 
BRANCH   2   3
ATOM      3  N   UNL A   1      38.781  22.634  26.009  1.00  0.00    -0.353 N 
ATOM      4  C   UNL A   1      37.626  22.688  25.282  1.00  0.00     0.258 C 
ATOM      5  O   UNL A   1      36.978  23.738  25.287  1.00  0.00    -0.271 OA
ATOM      6  H   UNL A   1      39.016  23.457  26.495  1.00  0.00     0.163 HD
BRANCH   4   7
ATOM      7  C   UNL A   1      37.120  21.424  24.579  1.00  0.00     0.331 C 
BRANCH   7   8
ATOM      8  O   UNL A   1      36.284  20.564  25.336  1.00  0.00    -0.467 OA
BRANCH   8   9
ATOM      9  C   UNL A   1      34.969  20.532  24.919  1.00  0.00     0.222 A 
ATOM     10  C   UNL A   1      32.979  21.581  24.581  1.00  0.00     0.230 A 
ATOM     11  N   UNL A   1      32.389  20.437  24.204  1.00  0.00    -0.217 NA
ATOM     12  N   UNL A   1      34.274  21.676  24.891  1.00  0.00    -0.177 NA
ATOM     13  C   UNL A   1      33.135  19.316  24.169  1.00  0.00     0.053 A 
ATOM     14  C   UNL A   1      34.455  19.297  24.576  1.00  0.00     0.036 A 
ATOM     15  C   UNL A   1      32.425  18.061  23.737  1.00  0.00     0.057 C 
ATOM     16  C   UNL A   1      35.281  18.046  24.585  1.00  0.00     0.043 C 
ATOM     17  C   UNL A   1      33.381  16.919  23.397  1.00  0.00     0.007 C 
ATOM     18  C   UNL A   1      34.438  16.775  24.485  1.00  0.00     0.005 C 
BRANCH  10  19
ATOM     19  N   UNL A   1      32.225  22.742  24.734  1.00  0.00    -0.324 N 
ATOM     20  H   UNL A   1      31.373  22.644  25.215  1.00  0.00     0.170 HD
BRANCH  19  21
ATOM     21  C   UNL A   1      32.533  24.036  24.284  1.00  0.00     0.041 A 
ATOM     22  C   UNL A   1      32.563  25.893  20.948  1.00  0.00     0.045 C 
ATOM     23  C   UNL A   1      32.722  25.621  22.418  1.00  0.00    -0.035 A 
ATOM     24  C   UNL A   1      32.392  24.348  22.923  1.00  0.00     0.030 A 
ATOM     25  C   UNL A   1      33.202  26.593  23.308  1.00  0.00     0.021 A 
ATOM     26  C   UNL A   1      33.316  26.308  24.668  1.00  0.00     0.018 A 
ATOM     27  Br  UNL A   1      33.724  28.324  22.730  1.00  0.00    -0.051 Br
ATOM     28  C   UNL A   1      32.968  25.046  25.149  1.00  0.00     0.027 A 
ENDBRANCH  19  21
ENDBRANCH  10  19
ENDBRANCH   8   9
ENDBRANCH   7   8
ENDBRANCH   4   7
ENDBRANCH   2   3
ENDBRANCH   1   2
BRANCH   1  29
ATOM     29  C   UNL A   1      42.062  21.372  27.191  1.00  0.00     0.002 C 
BRANCH  29  30
ATOM     30  C   UNL A   1      41.912  19.855  27.344  1.00  0.00     0.002 C 
BRANCH  30  31
ATOM     31  C   UNL A   1      42.299  19.041  26.109  1.00  0.00     0.021 C 
BRANCH  31  32
ATOM     32  C   UNL A   1      43.755  18.590  26.079  1.00  0.00     0.116 C 
BRANCH  32  33
ATOM     33  N   UNL A   1      44.295  18.560  24.728  1.00  0.00    -0.352 N 
ATOM     34  C   UNL A   1      44.690  19.599  23.926  1.00  0.00     0.251 C 
ATOM     35  H   UNL A   1      44.391  17.662  24.333  1.00  0.00     0.163 HD
ATOM     36  O   UNL A   1      44.951  19.409  22.741  1.00  0.00    -0.269 OA
BRANCH  34  37
ATOM     37  C   UNL A   1      44.780  20.964  24.487  1.00  0.00     0.039 A 
ATOM     38  C   UNL A   1      45.430  21.152  25.708  1.00  0.00     0.014 A 
ATOM     39  C   UNL A   1      44.226  22.053  23.807  1.00  0.00     0.014 A 
ATOM     40  C   UNL A   1      45.578  22.442  26.219  1.00  0.00     0.010 A 
ATOM     41  C   UNL A   1      44.441  23.344  24.279  1.00  0.00     0.010 A 
ATOM     42  C   UNL A   1      45.112  23.551  25.493  1.00  0.00    -0.014 A 
BRANCH  42  43
ATOM     43  C   UNL A   1      45.306  24.932  25.999  1.00  0.00     0.031 A 
ATOM     44  C   UNL A   1      46.664  25.573  25.935  1.00  0.00     0.074 A 
ATOM     45  C   UNL A   1      44.269  25.596  26.547  1.00  0.00     0.049 A 
ATOM     46  N   UNL A   1      47.043  26.752  26.359  1.00  0.00    -0.248 NA
ATOM     47  C   UNL A   1      47.745  24.777  25.332  1.00  0.00     0.031 C 
ATOM     48  C   UNL A   1      42.912  25.068  26.692  1.00  0.00     0.029 A 
ATOM     49  N   UNL A   1      44.194  26.857  27.084  1.00  0.00    -0.354 N 
ATOM     50  C   UNL A   1      48.399  26.836  26.073  1.00  0.00     0.074 A 
ATOM     51  C   UNL A   1      48.793  25.569  25.501  1.00  0.00     0.031 C 
ATOM     52  C   UNL A   1      42.131  26.010  27.245  1.00  0.00     0.029 A 
ATOM     53  C   UNL A   1      42.939  27.191  27.533  1.00  0.00     0.049 A 
ATOM     54  H   UNL A   1      44.966  27.466  27.139  1.00  0.00     0.167 HD
ATOM     55  C   UNL A   1      49.231  27.890  26.243  1.00  0.00     0.037 A 
ATOM     56  C   UNL A   1      42.492  28.323  28.113  1.00  0.00     0.037 A 
ATOM     57  C   UNL A   1      48.830  29.157  26.794  1.00  0.00     0.049 A 
ATOM     58  C   UNL A   1      43.450  29.463  28.330  1.00  0.00     0.074 A 
ATOM     59  C   UNL A   1      49.592  30.298  26.972  1.00  0.00     0.029 A 
ATOM     60  N   UNL A   1      47.555  29.450  27.256  1.00  0.00    -0.354 N 
ATOM     61  N   UNL A   1      44.718  29.551  28.007  1.00  0.00    -0.248 NA
ATOM     62  C   UNL A   1      42.917  30.663  28.989  1.00  0.00     0.031 C 
ATOM     63  C   UNL A   1      48.794  31.265  27.589  1.00  0.00     0.029 A 
ATOM     64  C   UNL A   1      47.518  30.747  27.744  1.00  0.00     0.049 A 
ATOM     65  H   UNL A   1      46.791  28.829  27.240  1.00  0.00     0.167 HD
ATOM     66  C   UNL A   1      45.127  30.819  28.399  1.00  0.00     0.074 A 
ATOM     67  C   UNL A   1      43.967  31.472  28.969  1.00  0.00     0.031 C 
ATOM     68  C   UNL A   1      46.353  31.387  28.300  1.00  0.00     0.037 A 
BRANCH  55  69
ATOM     69  C   UNL A   1      50.659  27.731  25.810  1.00  0.00     0.064 A 
ATOM     70  C   UNL A   1      51.664  27.376  26.723  1.00  0.00     0.173 A 
ATOM     71  C   UNL A   1      51.016  27.860  24.459  1.00  0.00     0.173 A 
ATOM     72  F   UNL A   1      51.378  27.250  28.028  1.00  0.00    -0.203 F 
ATOM     73  C   UNL A   1      52.976  27.171  26.301  1.00  0.00     0.198 A 
ATOM     74  C   UNL A   1      52.322  27.626  24.038  1.00  0.00     0.198 A 
ATOM     75  F   UNL A   1      50.093  28.195  23.544  1.00  0.00    -0.203 F 
ATOM     76  F   UNL A   1      53.926  26.868  27.198  1.00  0.00    -0.200 F 
ATOM     77  C   UNL A   1      53.301  27.286  24.958  1.00  0.00     0.200 A 
ATOM     78  F   UNL A   1      52.632  27.721  22.736  1.00  0.00    -0.200 F 
ATOM     79  F   UNL A   1      54.560  27.069  24.552  1.00  0.00    -0.200 F 
ENDBRANCH  55  69
BRANCH  56  80
ATOM     80  C   UNL A   1      41.061  28.443  28.497  1.00  0.00     0.064 A 
ATOM     81  C   UNL A   1      40.621  28.035  29.765  1.00  0.00     0.173 A 
ATOM     82  C   UNL A   1      40.106  28.974  27.617  1.00  0.00     0.173 A 
ATOM     83  F   UNL A   1      41.491  27.502  30.635  1.00  0.00    -0.203 F 
ATOM     84  C   UNL A   1      39.282  28.142  30.132  1.00  0.00     0.198 A 
ATOM     85  C   UNL A   1      38.773  29.108  27.997  1.00  0.00     0.198 A 
ATOM     86  F   UNL A   1      40.474  29.381  26.393  1.00  0.00    -0.203 F 
ATOM     87  F   UNL A   1      38.882  27.709  31.335  1.00  0.00    -0.200 F 
ATOM     88  C   UNL A   1      38.360  28.686  29.251  1.00  0.00     0.200 A 
ATOM     89  F   UNL A   1      37.888  29.649  27.147  1.00  0.00    -0.200 F 
ATOM     90  F   UNL A   1      37.073  28.799  29.609  1.00  0.00    -0.200 F 
ENDBRANCH  56  80
BRANCH  68  91
ATOM     91  C   UNL A   1      46.513  32.794  28.800  1.00  0.00     0.064 A 
ATOM     92  C   UNL A   1      46.923  33.063  30.113  1.00  0.00     0.173 A 
ATOM     93  C   UNL A   1      46.337  33.882  27.930  1.00  0.00     0.173 A 
ATOM     94  F   UNL A   1      47.093  32.059  30.986  1.00  0.00    -0.203 F 
ATOM     95  C   UNL A   1      47.138  34.370  30.542  1.00  0.00     0.198 A 
ATOM     96  C   UNL A   1      46.584  35.185  28.351  1.00  0.00     0.198 A 
ATOM     97  F   UNL A   1      45.954  33.678  26.660  1.00  0.00    -0.203 F 
ATOM     98  F   UNL A   1      47.497  34.606  31.811  1.00  0.00    -0.200 F 
ATOM     99  C   UNL A   1      46.981  35.428  29.658  1.00  0.00     0.200 A 
ATOM    100  F   UNL A   1      46.450  36.204  27.492  1.00  0.00    -0.200 F 
ATOM    101  F   UNL A   1      47.209  36.684  30.067  1.00  0.00    -0.200 F 
ENDBRANCH  68  91
ENDBRANCH  42  43
ENDBRANCH  34  37
ENDBRANCH  32  33
ENDBRANCH  31  32
ENDBRANCH  30  31
ENDBRANCH  29  30
ENDBRANCH   1  29
TORSDOF 17
ENDMDL
MODEL 2
REMARK VINA RESULT:     -12.3      4.449      7.370
REMARK SMILES Cc1cc(Nc2nc3c(c(OCC(=O)NCCCCCCNC(=O)c4ccc(-c5c6nc(c(-c7c(F)c(F)c(F)c(F)c7F)c7ccc([nH]7)c(-c7c(F)c(F)c(F)c(F)c7F)c7nc(c(-c8c(F)c(F)c(F)c(F)c8F)c8ccc5[nH]8)C=C7)C=C6)cc4)n2)CCCC3)ccc1Br
REMARK SMILES IDX 17 1 16 2 15 3 13 4 14 5 12 7 11 8 10 9 6 10 7 11 88 12 8 13
REMARK SMILES IDX 9 14 92 15 89 16 91 17 90 18 5 19 4 21 1 22 2 23 3 24 95 25
REMARK SMILES IDX 94 26 96 27 93 28 18 29 19 30 20 31 21 32 22 33 23 34 24 36
REMARK SMILES IDX 25 37 26 38 87 39 27 40 86 41 28 42 29 43 30 44 80 45 31 46
REMARK SMILES IDX 85 47 79 48 81 49 32 50 84 51 78 52 77 53 33 55 65 56 45 57
REMARK SMILES IDX 64 58 46 59 49 60 63 61 82 62 47 63 48 64 62 66 83 67 50 68
REMARK SMILES IDX 34 69 35 70 43 71 36 72 37 73 41 74 44 75 38 76 39 77 42 78
REMARK SMILES IDX 40 79 66 80 67 81 75 82 68 83 69 84 73 85 76 86 70 87 71 88
REMARK SMILES IDX 74 89 72 90 51 91 52 92 60 93 53 94 54 95 58 96 61 97 55 98
REMARK SMILES IDX 56 99 59 100 57 101
REMARK H PARENT 15 6 5 20 22 35 81 54 49 65
REMARK Flexibility Score: inf
ROOT
ATOM      1  C   UNL A   1      33.885  25.650  25.741  1.00  0.00     0.021 C 
ENDROOT
BRANCH   1   2
ATOM      2  C   UNL A   1      32.796  26.677  26.055  1.00  0.00     0.116 C 
BRANCH   2   3
ATOM      3  N   UNL A   1      33.292  27.727  26.922  1.00  0.00    -0.353 N 
ATOM      4  C   UNL A   1      33.452  29.057  26.658  1.00  0.00     0.258 C 
ATOM      5  O   UNL A   1      33.895  29.784  27.550  1.00  0.00    -0.271 OA
ATOM      6  H   UNL A   1      33.549  27.441  27.828  1.00  0.00     0.163 HD
BRANCH   4   7
ATOM      7  C   UNL A   1      32.979  29.618  25.312  1.00  0.00     0.331 C 
BRANCH   7   8
ATOM      8  O   UNL A   1      31.611  29.983  25.218  1.00  0.00    -0.467 OA
BRANCH   8   9
ATOM      9  C   UNL A   1      30.957  29.471  24.116  1.00  0.00     0.222 A 
ATOM     10  C   UNL A   1      30.789  27.910  22.470  1.00  0.00     0.230 A 
ATOM     11  N   UNL A   1      29.742  28.541  21.917  1.00  0.00    -0.217 NA
ATOM     12  N   UNL A   1      31.384  28.314  23.594  1.00  0.00    -0.177 NA
ATOM     13  C   UNL A   1      29.288  29.662  22.510  1.00  0.00     0.053 A 
ATOM     14  C   UNL A   1      29.907  30.213  23.614  1.00  0.00     0.036 A 
ATOM     15  C   UNL A   1      28.110  30.330  21.850  1.00  0.00     0.057 C 
ATOM     16  C   UNL A   1      29.439  31.486  24.254  1.00  0.00     0.043 C 
ATOM     17  C   UNL A   1      27.443  31.379  22.738  1.00  0.00     0.007 C 
ATOM     18  C   UNL A   1      28.495  32.289  23.359  1.00  0.00     0.005 C 
BRANCH  10  19
ATOM     19  N   UNL A   1      31.359  26.809  21.835  1.00  0.00    -0.324 N 
ATOM     20  H   UNL A   1      31.617  26.937  20.895  1.00  0.00     0.170 HD
BRANCH  19  21
ATOM     21  C   UNL A   1      31.609  25.537  22.374  1.00  0.00     0.041 A 
ATOM     22  C   UNL A   1      34.531  23.081  22.482  1.00  0.00     0.045 C 
ATOM     23  C   UNL A   1      33.162  23.663  22.700  1.00  0.00    -0.035 A 
ATOM     24  C   UNL A   1      32.874  24.951  22.210  1.00  0.00     0.030 A 
ATOM     25  C   UNL A   1      32.151  22.958  23.371  1.00  0.00     0.021 A 
ATOM     26  C   UNL A   1      30.901  23.540  23.572  1.00  0.00     0.018 A 
ATOM     27  Br  UNL A   1      32.412  21.197  24.030  1.00  0.00    -0.051 Br
ATOM     28  C   UNL A   1      30.642  24.823  23.091  1.00  0.00     0.027 A 
ENDBRANCH  19  21
ENDBRANCH  10  19
ENDBRANCH   8   9
ENDBRANCH   7   8
ENDBRANCH   4   7
ENDBRANCH   2   3
ENDBRANCH   1   2
BRANCH   1  29
ATOM     29  C   UNL A   1      33.604  24.248  26.300  1.00  0.00     0.002 C 
BRANCH  29  30
ATOM     30  C   UNL A   1      34.846  23.432  26.669  1.00  0.00     0.002 C 
BRANCH  30  31
ATOM     31  C   UNL A   1      35.749  23.061  25.491  1.00  0.00     0.021 C 
BRANCH  31  32
ATOM     32  C   UNL A   1      37.093  23.779  25.474  1.00  0.00     0.116 C 
BRANCH  32  33
ATOM     33  N   UNL A   1      38.209  22.864  25.659  1.00  0.00    -0.352 N 
ATOM     34  C   UNL A   1      39.441  23.096  26.215  1.00  0.00     0.251 C 
ATOM     35  H   UNL A   1      38.057  21.945  25.339  1.00  0.00     0.163 HD
ATOM     36  O   UNL A   1      40.334  22.257  26.125  1.00  0.00    -0.269 OA
BRANCH  34  37
ATOM     37  C   UNL A   1      39.704  24.375  26.907  1.00  0.00     0.039 A 
ATOM     38  C   UNL A   1      39.298  24.521  28.235  1.00  0.00     0.014 A 
ATOM     39  C   UNL A   1      40.350  25.425  26.247  1.00  0.00     0.014 A 
ATOM     40  C   UNL A   1      39.594  25.699  28.921  1.00  0.00     0.010 A 
ATOM     41  C   UNL A   1      40.711  26.567  26.954  1.00  0.00     0.010 A 
ATOM     42  C   UNL A   1      40.331  26.718  28.296  1.00  0.00    -0.014 A 
BRANCH  42  43
ATOM     43  C   UNL A   1      40.697  27.957  29.027  1.00  0.00     0.031 A 
ATOM     44  C   UNL A   1      42.089  28.126  29.568  1.00  0.00     0.074 A 
ATOM     45  C   UNL A   1      39.769  28.910  29.235  1.00  0.00     0.049 A 
ATOM     46  N   UNL A   1      42.591  29.115  30.265  1.00  0.00    -0.248 NA
ATOM     47  C   UNL A   1      43.040  27.033  29.307  1.00  0.00     0.031 C 
ATOM     48  C   UNL A   1      38.378  28.846  28.785  1.00  0.00     0.029 A 
ATOM     49  N   UNL A   1      39.854  30.121  29.877  1.00  0.00    -0.354 N 
ATOM     50  C   UNL A   1      43.909  28.761  30.523  1.00  0.00     0.074 A 
ATOM     51  C   UNL A   1      44.114  27.443  29.966  1.00  0.00     0.031 C 
ATOM     52  C   UNL A   1      37.751  29.981  29.133  1.00  0.00     0.029 A 
ATOM     53  C   UNL A   1      38.680  30.835  29.866  1.00  0.00     0.049 A 
ATOM     54  H   UNL A   1      40.679  30.448  30.303  1.00  0.00     0.167 HD
ATOM     55  C   UNL A   1      44.870  29.489  31.139  1.00  0.00     0.037 A 
ATOM     56  C   UNL A   1      38.388  32.042  30.391  1.00  0.00     0.037 A 
ATOM     57  C   UNL A   1      44.667  30.808  31.673  1.00  0.00     0.049 A 
ATOM     58  C   UNL A   1      39.464  32.809  31.109  1.00  0.00     0.074 A 
ATOM     59  C   UNL A   1      45.589  31.641  32.283  1.00  0.00     0.029 A 
ATOM     60  N   UNL A   1      43.459  31.490  31.661  1.00  0.00    -0.354 N 
ATOM     61  N   UNL A   1      40.722  32.489  31.300  1.00  0.00    -0.248 NA
ATOM     62  C   UNL A   1      39.085  34.108  31.684  1.00  0.00     0.031 C 
ATOM     63  C   UNL A   1      44.929  32.804  32.686  1.00  0.00     0.029 A 
ATOM     64  C   UNL A   1      43.608  32.722  32.277  1.00  0.00     0.049 A 
ATOM     65  H   UNL A   1      42.621  31.148  31.272  1.00  0.00     0.167 HD
ATOM     66  C   UNL A   1      41.287  33.551  31.992  1.00  0.00     0.074 A 
ATOM     67  C   UNL A   1      40.240  34.535  32.172  1.00  0.00     0.031 C 
ATOM     68  C   UNL A   1      42.558  33.696  32.441  1.00  0.00     0.037 A 
BRANCH  55  69
ATOM     69  C   UNL A   1      46.239  28.884  31.254  1.00  0.00     0.064 A 
ATOM     70  C   UNL A   1      46.602  28.105  32.364  1.00  0.00     0.173 A 
ATOM     71  C   UNL A   1      47.171  29.020  30.215  1.00  0.00     0.173 A 
ATOM     72  F   UNL A   1      45.752  27.953  33.390  1.00  0.00    -0.203 F 
ATOM     73  C   UNL A   1      47.854  27.498  32.434  1.00  0.00     0.198 A 
ATOM     74  C   UNL A   1      48.409  28.387  30.276  1.00  0.00     0.198 A 
ATOM     75  F   UNL A   1      46.873  29.751  29.129  1.00  0.00    -0.203 F 
ATOM     76  F   UNL A   1      48.192  26.789  33.521  1.00  0.00    -0.200 F 
ATOM     77  C   UNL A   1      48.751  27.631  31.386  1.00  0.00     0.200 A 
ATOM     78  F   UNL A   1      49.271  28.503  29.254  1.00  0.00    -0.200 F 
ATOM     79  F   UNL A   1      49.948  27.030  31.448  1.00  0.00    -0.200 F 
ENDBRANCH  55  69
BRANCH  56  80
ATOM     80  C   UNL A   1      37.024  32.611  30.224  1.00  0.00     0.064 A 
ATOM     81  C   UNL A   1      36.048  32.440  31.216  1.00  0.00     0.173 A 
ATOM     82  C   UNL A   1      36.669  33.343  29.081  1.00  0.00     0.173 A 
ATOM     83  F   UNL A   1      36.332  31.730  32.318  1.00  0.00    -0.203 F 
ATOM     84  C   UNL A   1      34.768  32.968  31.067  1.00  0.00     0.198 A 
ATOM     85  C   UNL A   1      35.397  33.896  28.947  1.00  0.00     0.198 A 
ATOM     86  F   UNL A   1      37.565  33.538  28.102  1.00  0.00    -0.203 F 
ATOM     87  F   UNL A   1      33.844  32.756  32.013  1.00  0.00    -0.200 F 
ATOM     88  C   UNL A   1      34.446  33.703  29.936  1.00  0.00     0.200 A 
ATOM     89  F   UNL A   1      35.096  34.619  27.859  1.00  0.00    -0.200 F 
ATOM     90  F   UNL A   1      33.217  34.220  29.798  1.00  0.00    -0.200 F 
ENDBRANCH  56  80
BRANCH  68  91
ATOM     91  C   UNL A   1      42.905  34.969  33.158  1.00  0.00     0.064 A 
ATOM     92  C   UNL A   1      42.839  35.064  34.555  1.00  0.00     0.173 A 
ATOM     93  C   UNL A   1      43.390  36.076  32.445  1.00  0.00     0.173 A 
ATOM     94  F   UNL A   1      42.371  34.038  35.280  1.00  0.00    -0.203 F 
ATOM     95  C   UNL A   1      43.233  36.227  35.212  1.00  0.00     0.198 A 
ATOM     96  C   UNL A   1      43.814  37.225  33.106  1.00  0.00     0.198 A 
ATOM     97  F   UNL A   1      43.482  36.033  31.107  1.00  0.00    -0.203 F 
ATOM     98  F   UNL A   1      43.129  36.309  36.545  1.00  0.00    -0.200 F 
ATOM     99  C   UNL A   1      43.732  37.301  34.489  1.00  0.00     0.200 A 
ATOM    100  F   UNL A   1      44.313  38.254  32.408  1.00  0.00    -0.200 F 
ATOM    101  F   UNL A   1      44.131  38.411  35.125  1.00  0.00    -0.200 F 
ENDBRANCH  68  91
ENDBRANCH  42  43
ENDBRANCH  34  37
ENDBRANCH  32  33
ENDBRANCH  31  32
ENDBRANCH  30  31
ENDBRANCH  29  30
ENDBRANCH   1  29
TORSDOF 17
ENDMDL
MODEL 3
REMARK VINA RESULT:     -12.3      6.965     12.656
REMARK SMILES Cc1cc(Nc2nc3c(c(OCC(=O)NCCCCCCNC(=O)c4ccc(-c5c6nc(c(-c7c(F)c(F)c(F)c(F)c7F)c7ccc([nH]7)c(-c7c(F)c(F)c(F)c(F)c7F)c7nc(c(-c8c(F)c(F)c(F)c(F)c8F)c8ccc5[nH]8)C=C7)C=C6)cc4)n2)CCCC3)ccc1Br
REMARK SMILES IDX 17 1 16 2 15 3 13 4 14 5 12 7 11 8 10 9 6 10 7 11 88 12 8 13
REMARK SMILES IDX 9 14 92 15 89 16 91 17 90 18 5 19 4 21 1 22 2 23 3 24 95 25
REMARK SMILES IDX 94 26 96 27 93 28 18 29 19 30 20 31 21 32 22 33 23 34 24 36
REMARK SMILES IDX 25 37 26 38 87 39 27 40 86 41 28 42 29 43 30 44 80 45 31 46
REMARK SMILES IDX 85 47 79 48 81 49 32 50 84 51 78 52 77 53 33 55 65 56 45 57
REMARK SMILES IDX 64 58 46 59 49 60 63 61 82 62 47 63 48 64 62 66 83 67 50 68
REMARK SMILES IDX 34 69 35 70 43 71 36 72 37 73 41 74 44 75 38 76 39 77 42 78
REMARK SMILES IDX 40 79 66 80 67 81 75 82 68 83 69 84 73 85 76 86 70 87 71 88
REMARK SMILES IDX 74 89 72 90 51 91 52 92 60 93 53 94 54 95 58 96 61 97 55 98
REMARK SMILES IDX 56 99 59 100 57 101
REMARK H PARENT 15 6 5 20 22 35 81 54 49 65
REMARK Flexibility Score: inf
ROOT
ATOM      1  C   UNL A   1      35.316  31.652  27.712  1.00  0.00     0.021 C 
ENDROOT
BRANCH   1   2
ATOM      2  C   UNL A   1      33.951  30.965  27.778  1.00  0.00     0.116 C 
BRANCH   2   3
ATOM      3  N   UNL A   1      34.066  29.537  27.563  1.00  0.00    -0.353 N 
ATOM      4  C   UNL A   1      33.699  28.799  26.473  1.00  0.00     0.258 C 
ATOM      5  O   UNL A   1      33.889  27.580  26.500  1.00  0.00    -0.271 OA
ATOM      6  H   UNL A   1      34.464  29.028  28.306  1.00  0.00     0.163 HD
BRANCH   4   7
ATOM      7  C   UNL A   1      33.170  29.513  25.225  1.00  0.00     0.331 C 
BRANCH   7   8
ATOM      8  O   UNL A   1      31.791  29.845  25.216  1.00  0.00    -0.467 OA
BRANCH   8   9
ATOM      9  C   UNL A   1      31.086  29.330  24.147  1.00  0.00     0.222 A 
ATOM     10  C   UNL A   1      30.831  27.757  22.525  1.00  0.00     0.230 A 
ATOM     11  N   UNL A   1      29.770  28.396  22.010  1.00  0.00    -0.217 NA
ATOM     12  N   UNL A   1      31.477  28.163  23.620  1.00  0.00    -0.177 NA
ATOM     13  C   UNL A   1      29.354  29.527  22.610  1.00  0.00     0.053 A 
ATOM     14  C   UNL A   1      30.025  30.081  23.682  1.00  0.00     0.036 A 
ATOM     15  C   UNL A   1      28.158  30.203  21.993  1.00  0.00     0.057 C 
ATOM     16  C   UNL A   1      29.598  31.365  24.329  1.00  0.00     0.043 C 
ATOM     17  C   UNL A   1      27.540  31.268  22.897  1.00  0.00     0.007 C 
ATOM     18  C   UNL A   1      28.627  32.172  23.466  1.00  0.00     0.005 C 
BRANCH  10  19
ATOM     19  N   UNL A   1      31.361  26.643  21.878  1.00  0.00    -0.324 N 
ATOM     20  H   UNL A   1      31.336  26.661  20.895  1.00  0.00     0.170 HD
BRANCH  19  21
ATOM     21  C   UNL A   1      31.927  25.497  22.459  1.00  0.00     0.041 A 
ATOM     22  C   UNL A   1      30.927  22.925  25.097  1.00  0.00     0.045 C 
ATOM     23  C   UNL A   1      31.743  23.645  24.061  1.00  0.00    -0.035 A 
ATOM     24  C   UNL A   1      31.204  24.780  23.424  1.00  0.00     0.030 A 
ATOM     25  C   UNL A   1      33.037  23.230  23.711  1.00  0.00     0.021 A 
ATOM     26  C   UNL A   1      33.754  23.912  22.730  1.00  0.00     0.018 A 
ATOM     27  Br  UNL A   1      33.882  21.746  24.540  1.00  0.00    -0.051 Br
ATOM     28  C   UNL A   1      33.195  25.024  22.101  1.00  0.00     0.027 A 
ENDBRANCH  19  21
ENDBRANCH  10  19
ENDBRANCH   8   9
ENDBRANCH   7   8
ENDBRANCH   4   7
ENDBRANCH   2   3
ENDBRANCH   1   2
BRANCH   1  29
ATOM     29  C   UNL A   1      35.303  33.117  28.170  1.00  0.00     0.002 C 
BRANCH  29  30
ATOM     30  C   UNL A   1      34.291  33.447  29.272  1.00  0.00     0.002 C 
BRANCH  30  31
ATOM     31  C   UNL A   1      33.231  34.480  28.887  1.00  0.00     0.021 C 
BRANCH  31  32
ATOM     32  C   UNL A   1      33.446  35.863  29.492  1.00  0.00     0.116 C 
BRANCH  32  33
ATOM     33  N   UNL A   1      32.563  36.114  30.620  1.00  0.00    -0.352 N 
ATOM     34  C   UNL A   1      32.660  35.674  31.915  1.00  0.00     0.251 C 
ATOM     35  H   UNL A   1      31.783  36.683  30.426  1.00  0.00     0.163 HD
ATOM     36  O   UNL A   1      31.727  35.829  32.698  1.00  0.00    -0.269 OA
BRANCH  34  37
ATOM     37  C   UNL A   1      33.889  34.986  32.365  1.00  0.00     0.039 A 
ATOM     38  C   UNL A   1      33.792  33.688  32.869  1.00  0.00     0.014 A 
ATOM     39  C   UNL A   1      35.132  35.622  32.288  1.00  0.00     0.014 A 
ATOM     40  C   UNL A   1      34.950  33.003  33.239  1.00  0.00     0.010 A 
ATOM     41  C   UNL A   1      36.291  34.912  32.584  1.00  0.00     0.010 A 
ATOM     42  C   UNL A   1      36.211  33.598  33.070  1.00  0.00    -0.014 A 
BRANCH  42  43
ATOM     43  C   UNL A   1      37.455  32.865  33.412  1.00  0.00     0.031 A 
ATOM     44  C   UNL A   1      38.178  33.169  34.693  1.00  0.00     0.074 A 
ATOM     45  C   UNL A   1      37.951  31.952  32.554  1.00  0.00     0.049 A 
ATOM     46  N   UNL A   1      39.297  32.666  35.151  1.00  0.00    -0.248 NA
ATOM     47  C   UNL A   1      37.576  34.187  35.570  1.00  0.00     0.031 C 
ATOM     48  C   UNL A   1      37.354  31.592  31.267  1.00  0.00     0.029 A 
ATOM     49  N   UNL A   1      39.069  31.159  32.635  1.00  0.00    -0.354 N 
ATOM     50  C   UNL A   1      39.528  33.304  36.363  1.00  0.00     0.074 A 
ATOM     51  C   UNL A   1      38.474  34.276  36.540  1.00  0.00     0.031 C 
ATOM     52  C   UNL A   1      38.091  30.627  30.696  1.00  0.00     0.029 A 
ATOM     53  C   UNL A   1      39.234  30.327  31.553  1.00  0.00     0.049 A 
ATOM     54  H   UNL A   1      39.692  31.183  33.396  1.00  0.00     0.167 HD
ATOM     55  C   UNL A   1      40.515  33.073  37.260  1.00  0.00     0.037 A 
ATOM     56  C   UNL A   1      40.201  29.427  31.285  1.00  0.00     0.037 A 
ATOM     57  C   UNL A   1      41.551  32.091  37.088  1.00  0.00     0.049 A 
ATOM     58  C   UNL A   1      41.310  29.224  32.281  1.00  0.00     0.074 A 
ATOM     59  C   UNL A   1      42.574  31.758  37.959  1.00  0.00     0.029 A 
ATOM     60  N   UNL A   1      41.697  31.282  35.971  1.00  0.00    -0.354 N 
ATOM     61  N   UNL A   1      41.489  29.794  33.448  1.00  0.00    -0.248 NA
ATOM     62  C   UNL A   1      42.351  28.248  31.927  1.00  0.00     0.031 C 
ATOM     63  C   UNL A   1      43.368  30.785  37.348  1.00  0.00     0.029 A 
ATOM     64  C   UNL A   1      42.809  30.469  36.120  1.00  0.00     0.049 A 
ATOM     65  H   UNL A   1      41.098  31.285  35.189  1.00  0.00     0.167 HD
ATOM     66  C   UNL A   1      42.644  29.233  33.976  1.00  0.00     0.074 A 
ATOM     67  C   UNL A   1      43.115  28.262  33.010  1.00  0.00     0.031 C 
ATOM     68  C   UNL A   1      43.261  29.501  35.153  1.00  0.00     0.037 A 
BRANCH  55  69
ATOM     69  C   UNL A   1      40.514  33.884  38.524  1.00  0.00     0.064 A 
ATOM     70  C   UNL A   1      41.241  35.080  38.625  1.00  0.00     0.173 A 
ATOM     71  C   UNL A   1      39.722  33.503  39.618  1.00  0.00     0.173 A 
ATOM     72  F   UNL A   1      42.024  35.483  37.612  1.00  0.00    -0.203 F 
ATOM     73  C   UNL A   1      41.187  35.856  39.780  1.00  0.00     0.198 A 
ATOM     74  C   UNL A   1      39.647  34.298  40.758  1.00  0.00     0.198 A 
ATOM     75  F   UNL A   1      39.004  32.371  39.571  1.00  0.00    -0.203 F 
ATOM     76  F   UNL A   1      41.919  36.976  39.867  1.00  0.00    -0.200 F 
ATOM     77  C   UNL A   1      40.382  35.470  40.840  1.00  0.00     0.200 A 
ATOM     78  F   UNL A   1      38.856  33.931  41.777  1.00  0.00    -0.200 F 
ATOM     79  F   UNL A   1      40.316  36.229  41.943  1.00  0.00    -0.200 F 
ENDBRANCH  55  69
BRANCH  56  80
ATOM     80  C   UNL A   1      40.140  28.628  30.033  1.00  0.00     0.064 A 
ATOM     81  C   UNL A   1      40.727  29.101  28.850  1.00  0.00     0.173 A 
ATOM     82  C   UNL A   1      39.509  27.376  29.991  1.00  0.00     0.173 A 
ATOM     83  F   UNL A   1      41.325  30.301  28.833  1.00  0.00    -0.203 F 
ATOM     84  C   UNL A   1      40.673  28.359  27.672  1.00  0.00     0.198 A 
ATOM     85  C   UNL A   1      39.482  26.622  28.819  1.00  0.00     0.198 A 
ATOM     86  F   UNL A   1      38.934  26.876  31.094  1.00  0.00    -0.203 F 
ATOM     87  F   UNL A   1      41.208  28.852  26.547  1.00  0.00    -0.200 F 
ATOM     88  C   UNL A   1      40.058  27.116  27.659  1.00  0.00     0.200 A 
ATOM     89  F   UNL A   1      38.900  25.414  28.816  1.00  0.00    -0.200 F 
ATOM     90  F   UNL A   1      40.017  26.398  26.529  1.00  0.00    -0.200 F 
ENDBRANCH  56  80
BRANCH  68  91
ATOM     91  C   UNL A   1      44.504  28.727  35.482  1.00  0.00     0.064 A 
ATOM     92  C   UNL A   1      45.777  29.206  35.141  1.00  0.00     0.173 A 
ATOM     93  C   UNL A   1      44.426  27.537  36.223  1.00  0.00     0.173 A 
ATOM     94  F   UNL A   1      45.904  30.332  34.423  1.00  0.00    -0.203 F 
ATOM     95  C   UNL A   1      46.926  28.514  35.516  1.00  0.00     0.198 A 
ATOM     96  C   UNL A   1      45.577  26.865  36.625  1.00  0.00     0.198 A 
ATOM     97  F   UNL A   1      43.233  27.041  36.583  1.00  0.00    -0.203 F 
ATOM     98  F   UNL A   1      48.130  28.971  35.149  1.00  0.00    -0.200 F 
ATOM     99  C   UNL A   1      46.826  27.353  36.268  1.00  0.00     0.200 A 
ATOM    100  F   UNL A   1      45.479  25.754  37.367  1.00  0.00    -0.200 F 
ATOM    101  F   UNL A   1      47.933  26.700  36.646  1.00  0.00    -0.200 F 
ENDBRANCH  68  91
ENDBRANCH  42  43
ENDBRANCH  34  37
ENDBRANCH  32  33
ENDBRANCH  31  32
ENDBRANCH  30  31
ENDBRANCH  29  30
ENDBRANCH   1  29
TORSDOF 17
ENDMDL
