MODEL 1
REMARK VINA RESULT:      -9.5      0.000      0.000
REMARK SMILES O=C(CCOc1cccc(/C=C2/SC(=S)N(c3ccc(Cl)c(Cl)c3)C2=O)c1)NCCCCCCNC(=O)c1ccc(-c2c3nc(c(-c4c(F)c(F)c(F)c(F)c4F)c4ccc([nH]4)c(-c4c(F)c(F)c(F)c(F)c4F)c4nc(c(-c5c(F)c(F)c(F)c(F)c5F)c5ccc2[nH]5)C=C4)C=C3)cc1
REMARK SMILES IDX 30 1 29 2 28 3 1 4 2 5 3 7 4 8 5 9 6 10 7 11 27 12 8 13
REMARK SMILES IDX 10 14 9 15 11 16 12 17 13 18 25 19 14 20 16 21 26 22 15 23
REMARK SMILES IDX 17 24 18 25 24 26 19 27 22 28 20 29 23 30 21 31 31 32 32 33
REMARK SMILES IDX 33 34 34 35 35 36 36 37 37 39 38 40 39 41 100 42 40 43 99 44
REMARK SMILES IDX 41 45 42 46 43 47 93 48 44 49 98 50 92 51 94 52 45 53 97 54
REMARK SMILES IDX 91 55 90 56 46 58 78 59 58 60 77 61 59 62 62 63 76 64 95 65
REMARK SMILES IDX 60 66 61 67 75 69 96 70 63 71 47 72 48 73 56 74 49 75 50 76
REMARK SMILES IDX 54 77 57 78 51 79 52 80 55 81 53 82 79 83 80 84 88 85 81 86
REMARK SMILES IDX 82 87 86 88 89 89 83 90 84 91 87 92 85 93 64 94 65 95 73 96
REMARK SMILES IDX 66 97 67 98 71 99 74 100 68 101 69 102 72 103 70 104
REMARK H PARENT 28 6 35 38 94 57 62 68
REMARK Flexibility Score: inf
ROOT
ATOM      1  C   UNL A   1      44.490  23.656  24.769  1.00  0.00     0.021 C 
ENDROOT
BRANCH   1   2
ATOM      2  C   UNL A   1      45.901  23.631  24.160  1.00  0.00     0.116 C 
BRANCH   2   3
ATOM      3  N   UNL A   1      46.878  24.145  25.092  1.00  0.00    -0.356 N 
ATOM      4  O   UNL A   1      48.016  25.509  23.616  1.00  0.00    -0.275 OA
ATOM      5  C   UNL A   1      47.709  25.197  24.764  1.00  0.00     0.223 C 
ATOM      6  H   UNL A   1      46.953  23.736  25.984  1.00  0.00     0.163 HD
BRANCH   5   7
ATOM      7  C   UNL A   1      48.080  26.052  25.944  1.00  0.00     0.141 C 
BRANCH   7   8
ATOM      8  C   UNL A   1      47.098  27.223  26.058  1.00  0.00     0.239 C 
BRANCH   8   9
ATOM      9  O   UNL A   1      45.775  26.914  25.621  1.00  0.00    -0.493 OA
BRANCH   9  10
ATOM     10  C   UNL A   1      44.693  27.676  25.988  1.00  0.00     0.119 A 
ATOM     11  C   UNL A   1      43.539  27.349  25.272  1.00  0.00     0.046 A 
ATOM     12  C   UNL A   1      44.671  28.803  26.837  1.00  0.00     0.054 A 
ATOM     13  C   UNL A   1      42.389  28.127  25.388  1.00  0.00     0.004 A 
ATOM     14  C   UNL A   1      43.557  29.684  26.861  1.00  0.00    -0.021 A 
ATOM     15  C   UNL A   1      42.399  29.287  26.177  1.00  0.00     0.008 A 
BRANCH  14  16
ATOM     16  C   UNL A   1      43.562  30.985  27.597  1.00  0.00     0.029 C 
ATOM     17  C   UNL A   1      44.259  32.147  27.510  1.00  0.00     0.081 C 
ATOM     18  S   UNL A   1      43.998  33.415  28.681  1.00  0.00    -0.054 SA
ATOM     19  C   UNL A   1      45.332  32.675  26.585  1.00  0.00     0.270 C 
ATOM     20  C   UNL A   1      45.466  34.300  28.241  1.00  0.00     0.152 C 
ATOM     21  N   UNL A   1      46.117  33.641  27.220  1.00  0.00    -0.261 N 
ATOM     22  O   UNL A   1      45.384  32.392  25.407  1.00  0.00    -0.268 OA
ATOM     23  S   UNL A   1      45.833  35.777  28.936  1.00  0.00    -0.051 S 
BRANCH  21  24
ATOM     24  C   UNL A   1      47.467  33.910  26.782  1.00  0.00     0.052 A 
ATOM     25  C   UNL A   1      47.765  34.925  25.861  1.00  0.00     0.028 A 
ATOM     26  C   UNL A   1      48.509  33.025  27.127  1.00  0.00     0.048 A 
ATOM     27  C   UNL A   1      49.016  34.995  25.227  1.00  0.00     0.024 A 
ATOM     28  C   UNL A   1      49.756  33.076  26.474  1.00  0.00     0.061 A 
ATOM     29  C   UNL A   1      49.998  34.043  25.497  1.00  0.00     0.059 A 
ATOM     30  Cl  UNL A   1      50.925  31.863  26.869  1.00  0.00    -0.083 Cl
ATOM     31  Cl  UNL A   1      51.446  34.084  24.556  1.00  0.00    -0.083 Cl
ENDBRANCH  21  24
ENDBRANCH  14  16
ENDBRANCH   9  10
ENDBRANCH   8   9
ENDBRANCH   7   8
ENDBRANCH   5   7
ENDBRANCH   2   3
ENDBRANCH   1   2
BRANCH   1  32
ATOM     32  C   UNL A   1      43.816  22.322  25.065  1.00  0.00     0.002 C 
BRANCH  32  33
ATOM     33  C   UNL A   1      42.648  22.465  26.072  1.00  0.00     0.002 C 
BRANCH  33  34
ATOM     34  C   UNL A   1      41.819  21.214  26.441  1.00  0.00     0.021 C 
BRANCH  34  35
ATOM     35  C   UNL A   1      40.455  21.421  27.102  1.00  0.00     0.116 C 
BRANCH  35  36
ATOM     36  N   UNL A   1      39.463  21.882  26.152  1.00  0.00    -0.352 N 
ATOM     37  C   UNL A   1      38.699  23.017  26.093  1.00  0.00     0.251 C 
ATOM     38  H   UNL A   1      39.308  21.260  25.406  1.00  0.00     0.163 HD
ATOM     39  O   UNL A   1      37.712  23.006  25.357  1.00  0.00    -0.269 OA
BRANCH  37  40
ATOM     40  C   UNL A   1      39.005  24.263  26.845  1.00  0.00     0.039 A 
ATOM     41  C   UNL A   1      39.871  25.187  26.240  1.00  0.00     0.014 A 
ATOM     42  C   UNL A   1      38.616  24.477  28.170  1.00  0.00     0.014 A 
ATOM     43  C   UNL A   1      40.338  26.303  26.943  1.00  0.00     0.010 A 
ATOM     44  C   UNL A   1      39.042  25.627  28.859  1.00  0.00     0.010 A 
ATOM     45  C   UNL A   1      39.922  26.544  28.260  1.00  0.00    -0.014 A 
BRANCH  45  46
ATOM     46  C   UNL A   1      40.414  27.741  29.005  1.00  0.00     0.031 A 
ATOM     47  C   UNL A   1      41.839  27.825  29.490  1.00  0.00     0.074 A 
ATOM     48  C   UNL A   1      39.570  28.760  29.266  1.00  0.00     0.049 A 
ATOM     49  N   UNL A   1      42.430  28.773  30.177  1.00  0.00    -0.248 NA
ATOM     50  C   UNL A   1      42.709  26.683  29.179  1.00  0.00     0.031 C 
ATOM     51  C   UNL A   1      38.161  28.805  28.875  1.00  0.00     0.029 A 
ATOM     52  N   UNL A   1      39.770  29.949  29.925  1.00  0.00    -0.354 N 
ATOM     53  C   UNL A   1      43.732  28.338  30.391  1.00  0.00     0.074 A 
ATOM     54  C   UNL A   1      43.833  27.020  29.799  1.00  0.00     0.031 C 
ATOM     55  C   UNL A   1      37.629  29.968  29.284  1.00  0.00     0.029 A 
ATOM     56  C   UNL A   1      38.645  30.735  29.998  1.00  0.00     0.049 A 
ATOM     57  H   UNL A   1      40.637  30.213  30.309  1.00  0.00     0.167 HD
ATOM     58  C   UNL A   1      44.755  28.980  31.009  1.00  0.00     0.037 A 
ATOM     59  C   UNL A   1      38.447  31.935  30.579  1.00  0.00     0.037 A 
ATOM     60  C   UNL A   1      44.664  30.302  31.581  1.00  0.00     0.049 A 
ATOM     61  C   UNL A   1      39.593  32.620  31.274  1.00  0.00     0.074 A 
ATOM     62  C   UNL A   1      45.662  31.057  32.174  1.00  0.00     0.029 A 
ATOM     63  N   UNL A   1      43.505  31.061  31.637  1.00  0.00    -0.354 N 
ATOM     64  N   UNL A   1      40.833  32.221  31.416  1.00  0.00    -0.248 NA
ATOM     65  C   UNL A   1      39.310  33.927  31.885  1.00  0.00     0.031 C 
ATOM     66  C   UNL A   1      45.095  32.251  32.636  1.00  0.00     0.029 A 
ATOM     67  C   UNL A   1      43.756  32.264  32.282  1.00  0.00     0.049 A 
ATOM     68  H   UNL A   1      42.632  30.787  31.274  1.00  0.00     0.167 HD
ATOM     69  C   UNL A   1      41.484  33.235  32.107  1.00  0.00     0.074 A 
ATOM     70  C   UNL A   1      40.505  34.276  32.341  1.00  0.00     0.031 C 
ATOM     71  C   UNL A   1      42.776  33.295  32.511  1.00  0.00     0.037 A 
BRANCH  58  72
ATOM     72  C   UNL A   1      46.072  28.260  31.108  1.00  0.00     0.064 A 
ATOM     73  C   UNL A   1      47.077  28.419  30.142  1.00  0.00     0.173 A 
ATOM     74  C   UNL A   1      46.348  27.428  32.205  1.00  0.00     0.173 A 
ATOM     75  F   UNL A   1      46.866  29.199  29.071  1.00  0.00    -0.203 F 
ATOM     76  C   UNL A   1      48.292  27.744  30.249  1.00  0.00     0.198 A 
ATOM     77  C   UNL A   1      47.576  26.780  32.326  1.00  0.00     0.198 A 
ATOM     78  F   UNL A   1      45.430  27.249  33.167  1.00  0.00    -0.203 F 
ATOM     79  F   UNL A   1      49.214  27.871  29.285  1.00  0.00    -0.200 F 
ATOM     80  C   UNL A   1      48.542  26.931  31.343  1.00  0.00     0.200 A 
ATOM     81  F   UNL A   1      47.822  26.008  33.394  1.00  0.00    -0.200 F 
ATOM     82  F   UNL A   1      49.713  26.286  31.448  1.00  0.00    -0.200 F 
ENDBRANCH  58  72
BRANCH  59  83
ATOM     83  C   UNL A   1      37.108  32.576  30.509  1.00  0.00     0.064 A 
ATOM     84  C   UNL A   1      36.159  32.373  31.521  1.00  0.00     0.173 A 
ATOM     85  C   UNL A   1      36.751  33.406  29.437  1.00  0.00     0.173 A 
ATOM     86  F   UNL A   1      36.445  31.568  32.555  1.00  0.00    -0.203 F 
ATOM     87  C   UNL A   1      34.900  32.966  31.457  1.00  0.00     0.198 A 
ATOM     88  C   UNL A   1      35.503  34.023  29.388  1.00  0.00     0.198 A 
ATOM     89  F   UNL A   1      37.623  33.634  28.443  1.00  0.00    -0.203 F 
ATOM     90  F   UNL A   1      33.998  32.724  32.417  1.00  0.00    -0.200 F 
ATOM     91  C   UNL A   1      34.576  33.798  30.395  1.00  0.00     0.200 A 
ATOM     92  F   UNL A   1      35.199  34.836  28.368  1.00  0.00    -0.200 F 
ATOM     93  F   UNL A   1      33.369  34.376  30.339  1.00  0.00    -0.200 F 
ENDBRANCH  59  83
BRANCH  71  94
ATOM     94  C   UNL A   1      43.217  34.542  33.225  1.00  0.00     0.064 A 
ATOM     95  C   UNL A   1      43.364  34.580  34.620  1.00  0.00     0.173 A 
ATOM     96  C   UNL A   1      43.526  35.705  32.502  1.00  0.00     0.173 A 
ATOM     97  F   UNL A   1      43.066  33.502  35.360  1.00  0.00    -0.203 F 
ATOM     98  C   UNL A   1      43.776  35.744  35.266  1.00  0.00     0.198 A 
ATOM     99  C   UNL A   1      43.969  36.857  33.148  1.00  0.00     0.198 A 
ATOM    100  F   UNL A   1      43.410  35.721  31.166  1.00  0.00    -0.203 F 
ATOM    101  F   UNL A   1      43.858  35.772  36.604  1.00  0.00    -0.200 F 
ATOM    102  C   UNL A   1      44.085  36.878  34.530  1.00  0.00     0.200 A 
ATOM    103  F   UNL A   1      44.278  37.947  32.433  1.00  0.00    -0.200 F 
ATOM    104  F   UNL A   1      44.486  37.994  35.152  1.00  0.00    -0.200 F 
ENDBRANCH  71  94
ENDBRANCH  45  46
ENDBRANCH  37  40
ENDBRANCH  35  36
ENDBRANCH  34  35
ENDBRANCH  33  34
ENDBRANCH  32  33
ENDBRANCH   1  32
TORSDOF 18
ENDMDL
MODEL 2
REMARK VINA RESULT:      -9.5      0.476      2.009
REMARK SMILES O=C(CCOc1cccc(/C=C2/SC(=S)N(c3ccc(Cl)c(Cl)c3)C2=O)c1)NCCCCCCNC(=O)c1ccc(-c2c3nc(c(-c4c(F)c(F)c(F)c(F)c4F)c4ccc([nH]4)c(-c4c(F)c(F)c(F)c(F)c4F)c4nc(c(-c5c(F)c(F)c(F)c(F)c5F)c5ccc2[nH]5)C=C4)C=C3)cc1
REMARK SMILES IDX 30 1 29 2 28 3 1 4 2 5 3 7 4 8 5 9 6 10 7 11 27 12 8 13
REMARK SMILES IDX 10 14 9 15 11 16 12 17 13 18 25 19 14 20 16 21 26 22 15 23
REMARK SMILES IDX 17 24 18 25 24 26 19 27 22 28 20 29 23 30 21 31 31 32 32 33
REMARK SMILES IDX 33 34 34 35 35 36 36 37 37 39 38 40 39 41 100 42 40 43 99 44
REMARK SMILES IDX 41 45 42 46 43 47 93 48 44 49 98 50 92 51 94 52 45 53 97 54
REMARK SMILES IDX 91 55 90 56 46 58 78 59 58 60 77 61 59 62 62 63 76 64 95 65
REMARK SMILES IDX 60 66 61 67 75 69 96 70 63 71 47 72 48 73 56 74 49 75 50 76
REMARK SMILES IDX 54 77 57 78 51 79 52 80 55 81 53 82 79 83 80 84 88 85 81 86
REMARK SMILES IDX 82 87 86 88 89 89 83 90 84 91 87 92 85 93 64 94 65 95 73 96
REMARK SMILES IDX 66 97 67 98 71 99 74 100 68 101 69 102 72 103 70 104
REMARK H PARENT 28 6 35 38 94 57 62 68
REMARK Flexibility Score: inf
ROOT
ATOM      1  C   UNL A   1      44.415  23.508  24.803  1.00  0.00     0.021 C 
ENDROOT
BRANCH   1   2
ATOM      2  C   UNL A   1      45.830  23.431  24.206  1.00  0.00     0.116 C 
BRANCH   2   3
ATOM      3  N   UNL A   1      46.800  24.038  25.088  1.00  0.00    -0.356 N 
ATOM      4  O   UNL A   1      47.903  25.301  23.501  1.00  0.00    -0.275 OA
ATOM      5  C   UNL A   1      47.608  25.076  24.672  1.00  0.00     0.223 C 
ATOM      6  H   UNL A   1      46.887  23.703  26.010  1.00  0.00     0.163 HD
BRANCH   5   7
ATOM      7  C   UNL A   1      47.966  26.031  25.778  1.00  0.00     0.141 C 
BRANCH   7   8
ATOM      8  C   UNL A   1      46.986  27.209  25.776  1.00  0.00     0.239 C 
BRANCH   8   9
ATOM      9  O   UNL A   1      45.624  26.829  25.576  1.00  0.00    -0.493 OA
BRANCH   9  10
ATOM     10  C   UNL A   1      44.583  27.631  25.975  1.00  0.00     0.119 A 
ATOM     11  C   UNL A   1      43.395  27.343  25.297  1.00  0.00     0.046 A 
ATOM     12  C   UNL A   1      44.627  28.760  26.820  1.00  0.00     0.054 A 
ATOM     13  C   UNL A   1      42.278  28.161  25.447  1.00  0.00     0.004 A 
ATOM     14  C   UNL A   1      43.547  29.680  26.876  1.00  0.00    -0.021 A 
ATOM     15  C   UNL A   1      42.354  29.322  26.230  1.00  0.00     0.008 A 
BRANCH  14  16
ATOM     16  C   UNL A   1      43.621  30.982  27.607  1.00  0.00     0.029 C 
ATOM     17  C   UNL A   1      44.320  32.137  27.463  1.00  0.00     0.081 C 
ATOM     18  S   UNL A   1      44.162  33.409  28.649  1.00  0.00    -0.054 SA
ATOM     19  C   UNL A   1      45.322  32.653  26.456  1.00  0.00     0.270 C 
ATOM     20  C   UNL A   1      45.600  34.280  28.094  1.00  0.00     0.152 C 
ATOM     21  N   UNL A   1      46.164  33.613  27.026  1.00  0.00    -0.261 N 
ATOM     22  O   UNL A   1      45.279  32.369  25.278  1.00  0.00    -0.268 OA
ATOM     23  S   UNL A   1      46.034  35.754  28.754  1.00  0.00    -0.051 S 
BRANCH  21  24
ATOM     24  C   UNL A   1      47.478  33.869  26.484  1.00  0.00     0.052 A 
ATOM     25  C   UNL A   1      48.595  33.098  26.837  1.00  0.00     0.028 A 
ATOM     26  C   UNL A   1      47.711  35.034  25.725  1.00  0.00     0.048 A 
ATOM     27  C   UNL A   1      49.900  33.520  26.539  1.00  0.00     0.024 A 
ATOM     28  C   UNL A   1      49.019  35.475  25.448  1.00  0.00     0.061 A 
ATOM     29  C   UNL A   1      50.118  34.732  25.886  1.00  0.00     0.059 A 
ATOM     30  Cl  UNL A   1      49.207  36.986  24.627  1.00  0.00    -0.083 Cl
ATOM     31  Cl  UNL A   1      51.749  35.275  25.708  1.00  0.00    -0.083 Cl
ENDBRANCH  21  24
ENDBRANCH  14  16
ENDBRANCH   9  10
ENDBRANCH   8   9
ENDBRANCH   7   8
ENDBRANCH   5   7
ENDBRANCH   2   3
ENDBRANCH   1   2
BRANCH   1  32
ATOM     32  C   UNL A   1      43.703  22.199  25.122  1.00  0.00     0.002 C 
BRANCH  32  33
ATOM     33  C   UNL A   1      42.572  22.386  26.164  1.00  0.00     0.002 C 
BRANCH  33  34
ATOM     34  C   UNL A   1      41.799  21.143  26.661  1.00  0.00     0.021 C 
BRANCH  34  35
ATOM     35  C   UNL A   1      40.403  21.350  27.251  1.00  0.00     0.116 C 
BRANCH  35  36
ATOM     36  N   UNL A   1      39.456  21.793  26.247  1.00  0.00    -0.352 N 
ATOM     37  C   UNL A   1      38.705  22.932  26.124  1.00  0.00     0.251 C 
ATOM     38  H   UNL A   1      39.327  21.152  25.512  1.00  0.00     0.163 HD
ATOM     39  O   UNL A   1      37.750  22.908  25.347  1.00  0.00    -0.269 OA
BRANCH  37  40
ATOM     40  C   UNL A   1      38.991  24.196  26.854  1.00  0.00     0.039 A 
ATOM     41  C   UNL A   1      39.861  25.112  26.243  1.00  0.00     0.014 A 
ATOM     42  C   UNL A   1      38.578  24.437  28.167  1.00  0.00     0.014 A 
ATOM     43  C   UNL A   1      40.309  26.247  26.930  1.00  0.00     0.010 A 
ATOM     44  C   UNL A   1      38.985  25.603  28.837  1.00  0.00     0.010 A 
ATOM     45  C   UNL A   1      39.869  26.514  28.234  1.00  0.00    -0.014 A 
BRANCH  45  46
ATOM     46  C   UNL A   1      40.341  27.730  28.961  1.00  0.00     0.031 A 
ATOM     47  C   UNL A   1      41.755  27.830  29.475  1.00  0.00     0.074 A 
ATOM     48  C   UNL A   1      39.488  28.751  29.178  1.00  0.00     0.049 A 
ATOM     49  N   UNL A   1      42.327  28.797  30.152  1.00  0.00    -0.248 NA
ATOM     50  C   UNL A   1      42.635  26.684  29.211  1.00  0.00     0.031 C 
ATOM     51  C   UNL A   1      38.088  28.782  28.756  1.00  0.00     0.029 A 
ATOM     52  N   UNL A   1      39.670  29.957  29.813  1.00  0.00    -0.354 N 
ATOM     53  C   UNL A   1      43.625  28.371  30.405  1.00  0.00     0.074 A 
ATOM     54  C   UNL A   1      43.743  27.040  29.847  1.00  0.00     0.031 C 
ATOM     55  C   UNL A   1      37.543  29.952  29.125  1.00  0.00     0.029 A 
ATOM     56  C   UNL A   1      38.541  30.740  29.842  1.00  0.00     0.049 A 
ATOM     57  H   UNL A   1      40.528  30.233  30.209  1.00  0.00     0.167 HD
ATOM     58  C   UNL A   1      44.633  29.032  31.030  1.00  0.00     0.037 A 
ATOM     59  C   UNL A   1      38.327  31.953  30.390  1.00  0.00     0.037 A 
ATOM     60  C   UNL A   1      44.525  30.366  31.568  1.00  0.00     0.049 A 
ATOM     61  C   UNL A   1      39.455  32.659  31.093  1.00  0.00     0.074 A 
ATOM     62  C   UNL A   1      45.507  31.139  32.165  1.00  0.00     0.029 A 
ATOM     63  N   UNL A   1      43.363  31.123  31.581  1.00  0.00    -0.354 N 
ATOM     64  N   UNL A   1      40.692  32.267  31.273  1.00  0.00    -0.248 NA
ATOM     65  C   UNL A   1      39.155  33.979  31.666  1.00  0.00     0.031 C 
ATOM     66  C   UNL A   1      44.926  32.341  32.585  1.00  0.00     0.029 A 
ATOM     67  C   UNL A   1      43.596  32.342  32.201  1.00  0.00     0.049 A 
ATOM     68  H   UNL A   1      42.499  30.837  31.205  1.00  0.00     0.167 HD
ATOM     69  C   UNL A   1      41.325  33.300  31.953  1.00  0.00     0.074 A 
ATOM     70  C   UNL A   1      40.338  34.343  32.140  1.00  0.00     0.031 C 
ATOM     71  C   UNL A   1      42.608  33.374  32.385  1.00  0.00     0.037 A 
BRANCH  58  72
ATOM     72  C   UNL A   1      45.949  28.318  31.176  1.00  0.00     0.064 A 
ATOM     73  C   UNL A   1      46.192  27.422  32.228  1.00  0.00     0.173 A 
ATOM     74  C   UNL A   1      46.969  28.504  30.229  1.00  0.00     0.173 A 
ATOM     75  F   UNL A   1      45.253  27.209  33.163  1.00  0.00    -0.203 F 
ATOM     76  C   UNL A   1      47.416  26.768  32.348  1.00  0.00     0.198 A 
ATOM     77  C   UNL A   1      48.180  27.824  30.334  1.00  0.00     0.198 A 
ATOM     78  F   UNL A   1      46.788  29.338  29.194  1.00  0.00    -0.203 F 
ATOM     79  F   UNL A   1      47.642  25.958  33.392  1.00  0.00    -0.200 F 
ATOM     80  C   UNL A   1      48.407  26.965  31.399  1.00  0.00     0.200 A 
ATOM     81  F   UNL A   1      49.130  28.002  29.405  1.00  0.00    -0.200 F 
ATOM     82  F   UNL A   1      49.583  26.332  31.513  1.00  0.00    -0.200 F 
ENDBRANCH  58  72
BRANCH  59  83
ATOM     83  C   UNL A   1      36.988  32.587  30.275  1.00  0.00     0.064 A 
ATOM     84  C   UNL A   1      36.628  33.306  29.127  1.00  0.00     0.173 A 
ATOM     85  C   UNL A   1      36.040  32.484  31.304  1.00  0.00     0.173 A 
ATOM     86  F   UNL A   1      37.508  33.453  28.127  1.00  0.00    -0.203 F 
ATOM     87  C   UNL A   1      35.377  33.908  29.017  1.00  0.00     0.198 A 
ATOM     88  C   UNL A   1      34.778  33.061  31.181  1.00  0.00     0.198 A 
ATOM     89  F   UNL A   1      36.334  31.806  32.424  1.00  0.00    -0.203 F 
ATOM     90  F   UNL A   1      35.073  34.623  27.925  1.00  0.00    -0.200 F 
ATOM     91  C   UNL A   1      34.449  33.778  30.041  1.00  0.00     0.200 A 
ATOM     92  F   UNL A   1      33.880  32.921  32.165  1.00  0.00    -0.200 F 
ATOM     93  F   UNL A   1      33.242  34.349  29.930  1.00  0.00    -0.200 F 
ENDBRANCH  59  83
BRANCH  71  94
ATOM     94  C   UNL A   1      43.029  34.639  33.078  1.00  0.00     0.064 A 
ATOM     95  C   UNL A   1      43.412  35.781  32.359  1.00  0.00     0.173 A 
ATOM     96  C   UNL A   1      43.021  34.720  34.479  1.00  0.00     0.173 A 
ATOM     97  F   UNL A   1      43.453  35.753  31.019  1.00  0.00    -0.203 F 
ATOM     98  C   UNL A   1      43.798  36.948  33.017  1.00  0.00     0.198 A 
ATOM     99  C   UNL A   1      43.376  35.897  35.134  1.00  0.00     0.198 A 
ATOM    100  F   UNL A   1      42.656  33.659  35.215  1.00  0.00    -0.203 F 
ATOM    101  F   UNL A   1      44.210  38.009  32.311  1.00  0.00    -0.200 F 
ATOM    102  C   UNL A   1      43.772  37.006  34.403  1.00  0.00     0.200 A 
ATOM    103  F   UNL A   1      43.339  35.954  36.472  1.00  0.00    -0.200 F 
ATOM    104  F   UNL A   1      44.138  38.130  35.034  1.00  0.00    -0.200 F 
ENDBRANCH  71  94
ENDBRANCH  45  46
ENDBRANCH  37  40
ENDBRANCH  35  36
ENDBRANCH  34  35
ENDBRANCH  33  34
ENDBRANCH  32  33
ENDBRANCH   1  32
TORSDOF 18
ENDMDL
MODEL 3
REMARK VINA RESULT:      -8.7      6.916     12.466
REMARK SMILES O=C(CCOc1cccc(/C=C2/SC(=S)N(c3ccc(Cl)c(Cl)c3)C2=O)c1)NCCCCCCNC(=O)c1ccc(-c2c3nc(c(-c4c(F)c(F)c(F)c(F)c4F)c4ccc([nH]4)c(-c4c(F)c(F)c(F)c(F)c4F)c4nc(c(-c5c(F)c(F)c(F)c(F)c5F)c5ccc2[nH]5)C=C4)C=C3)cc1
REMARK SMILES IDX 30 1 29 2 28 3 1 4 2 5 3 7 4 8 5 9 6 10 7 11 27 12 8 13
REMARK SMILES IDX 10 14 9 15 11 16 12 17 13 18 25 19 14 20 16 21 26 22 15 23
REMARK SMILES IDX 17 24 18 25 24 26 19 27 22 28 20 29 23 30 21 31 31 32 32 33
REMARK SMILES IDX 33 34 34 35 35 36 36 37 37 39 38 40 39 41 100 42 40 43 99 44
REMARK SMILES IDX 41 45 42 46 43 47 93 48 44 49 98 50 92 51 94 52 45 53 97 54
REMARK SMILES IDX 91 55 90 56 46 58 78 59 58 60 77 61 59 62 62 63 76 64 95 65
REMARK SMILES IDX 60 66 61 67 75 69 96 70 63 71 47 72 48 73 56 74 49 75 50 76
REMARK SMILES IDX 54 77 57 78 51 79 52 80 55 81 53 82 79 83 80 84 88 85 81 86
REMARK SMILES IDX 82 87 86 88 89 89 83 90 84 91 87 92 85 93 64 94 65 95 73 96
REMARK SMILES IDX 66 97 67 98 71 99 74 100 68 101 69 102 72 103 70 104
REMARK H PARENT 28 6 35 38 94 57 62 68
REMARK Flexibility Score: inf
ROOT
ATOM      1  C   UNL A   1      40.830  26.880  28.906  1.00  0.00     0.021 C 
ENDROOT
BRANCH   1   2
ATOM      2  C   UNL A   1      41.515  25.862  27.980  1.00  0.00     0.116 C 
BRANCH   2   3
ATOM      3  N   UNL A   1      41.694  24.592  28.646  1.00  0.00    -0.356 N 
ATOM      4  O   UNL A   1      43.830  24.151  27.889  1.00  0.00    -0.275 OA
ATOM      5  C   UNL A   1      42.923  23.966  28.696  1.00  0.00     0.223 C 
ATOM      6  H   UNL A   1      40.919  24.161  29.075  1.00  0.00     0.163 HD
BRANCH   5   7
ATOM      7  C   UNL A   1      43.124  23.151  29.943  1.00  0.00     0.141 C 
BRANCH   7   8
ATOM      8  C   UNL A   1      44.462  23.524  30.590  1.00  0.00     0.239 C 
BRANCH   8   9
ATOM      9  O   UNL A   1      44.337  24.385  31.722  1.00  0.00    -0.493 OA
BRANCH   9  10
ATOM     10  C   UNL A   1      44.328  23.897  33.006  1.00  0.00     0.119 A 
ATOM     11  C   UNL A   1      43.162  24.235  33.699  1.00  0.00     0.046 A 
ATOM     12  C   UNL A   1      45.383  23.277  33.709  1.00  0.00     0.054 A 
ATOM     13  C   UNL A   1      43.048  23.971  35.062  1.00  0.00     0.004 A 
ATOM     14  C   UNL A   1      45.338  23.129  35.121  1.00  0.00    -0.021 A 
ATOM     15  C   UNL A   1      44.129  23.423  35.768  1.00  0.00     0.008 A 
BRANCH  14  16
ATOM     16  C   UNL A   1      46.504  22.654  35.929  1.00  0.00     0.029 C 
ATOM     17  C   UNL A   1      46.869  21.480  36.507  1.00  0.00     0.081 C 
ATOM     18  S   UNL A   1      48.318  21.397  37.477  1.00  0.00    -0.054 SA
ATOM     19  C   UNL A   1      46.274  20.092  36.559  1.00  0.00     0.270 C 
ATOM     20  C   UNL A   1      47.892  19.843  38.210  1.00  0.00     0.152 C 
ATOM     21  N   UNL A   1      46.683  19.410  37.709  1.00  0.00    -0.261 N 
ATOM     22  O   UNL A   1      45.654  19.605  35.637  1.00  0.00    -0.268 OA
ATOM     23  S   UNL A   1      48.943  19.050  39.242  1.00  0.00    -0.051 S 
BRANCH  21  24
ATOM     24  C   UNL A   1      45.892  18.331  38.256  1.00  0.00     0.052 A 
ATOM     25  C   UNL A   1      44.903  17.677  37.509  1.00  0.00     0.028 A 
ATOM     26  C   UNL A   1      45.964  18.035  39.633  1.00  0.00     0.048 A 
ATOM     27  C   UNL A   1      43.955  16.841  38.121  1.00  0.00     0.024 A 
ATOM     28  C   UNL A   1      44.999  17.219  40.255  1.00  0.00     0.061 A 
ATOM     29  C   UNL A   1      43.972  16.648  39.501  1.00  0.00     0.059 A 
ATOM     30  Cl  UNL A   1      45.092  17.022  41.971  1.00  0.00    -0.083 Cl
ATOM     31  Cl  UNL A   1      42.676  15.751  40.210  1.00  0.00    -0.083 Cl
ENDBRANCH  21  24
ENDBRANCH  14  16
ENDBRANCH   9  10
ENDBRANCH   8   9
ENDBRANCH   7   8
ENDBRANCH   5   7
ENDBRANCH   2   3
ENDBRANCH   1   2
BRANCH   1  32
ATOM     32  C   UNL A   1      40.903  28.353  28.526  1.00  0.00     0.002 C 
BRANCH  32  33
ATOM     33  C   UNL A   1      39.828  28.743  27.481  1.00  0.00     0.002 C 
BRANCH  33  34
ATOM     34  C   UNL A   1      38.580  29.528  27.947  1.00  0.00     0.021 C 
BRANCH  34  35
ATOM     35  C   UNL A   1      37.943  29.144  29.284  1.00  0.00     0.116 C 
BRANCH  35  36
ATOM     36  N   UNL A   1      37.892  30.269  30.196  1.00  0.00    -0.352 N 
ATOM     37  C   UNL A   1      38.553  30.542  31.364  1.00  0.00     0.251 C 
ATOM     38  H   UNL A   1      37.260  30.973  29.924  1.00  0.00     0.163 HD
ATOM     39  O   UNL A   1      38.085  31.414  32.097  1.00  0.00    -0.269 OA
BRANCH  37  40
ATOM     40  C   UNL A   1      39.809  29.864  31.784  1.00  0.00     0.039 A 
ATOM     41  C   UNL A   1      41.005  30.587  31.659  1.00  0.00     0.014 A 
ATOM     42  C   UNL A   1      39.875  28.511  32.130  1.00  0.00     0.014 A 
ATOM     43  C   UNL A   1      42.243  29.972  31.877  1.00  0.00     0.010 A 
ATOM     44  C   UNL A   1      41.115  27.908  32.401  1.00  0.00     0.010 A 
ATOM     45  C   UNL A   1      42.315  28.625  32.261  1.00  0.00    -0.014 A 
BRANCH  45  46
ATOM     46  C   UNL A   1      43.637  27.973  32.502  1.00  0.00     0.031 A 
ATOM     47  C   UNL A   1      44.138  27.721  33.902  1.00  0.00     0.074 A 
ATOM     48  C   UNL A   1      44.407  27.616  31.455  1.00  0.00     0.049 A 
ATOM     49  N   UNL A   1      45.271  27.193  34.298  1.00  0.00    -0.248 NA
ATOM     50  C   UNL A   1      43.256  28.135  35.001  1.00  0.00     0.031 C 
ATOM     51  C   UNL A   1      44.058  27.817  30.048  1.00  0.00     0.029 A 
ATOM     52  N   UNL A   1      45.643  27.015  31.408  1.00  0.00    -0.354 N 
ATOM     53  C   UNL A   1      45.245  27.225  35.686  1.00  0.00     0.074 A 
ATOM     54  C   UNL A   1      44.001  27.864  36.065  1.00  0.00     0.031 C 
ATOM     55  C   UNL A   1      45.046  27.333  29.277  1.00  0.00     0.029 A 
ATOM     56  C   UNL A   1      46.113  26.821  30.131  1.00  0.00     0.049 A 
ATOM     57  H   UNL A   1      46.143  26.750  32.213  1.00  0.00     0.167 HD
ATOM     58  C   UNL A   1      46.162  26.752  36.568  1.00  0.00     0.037 A 
ATOM     59  C   UNL A   1      47.275  26.298  29.693  1.00  0.00     0.037 A 
ATOM     60  C   UNL A   1      47.392  26.096  36.195  1.00  0.00     0.049 A 
ATOM     61  C   UNL A   1      48.285  25.795  30.690  1.00  0.00     0.074 A 
ATOM     62  C   UNL A   1      48.354  25.532  37.016  1.00  0.00     0.029 A 
ATOM     63  N   UNL A   1      47.833  25.923  34.891  1.00  0.00    -0.354 N 
ATOM     64  N   UNL A   1      48.219  25.779  31.998  1.00  0.00    -0.248 NA
ATOM     65  C   UNL A   1      49.530  25.234  30.146  1.00  0.00     0.031 C 
ATOM     66  C   UNL A   1      49.400  25.065  36.211  1.00  0.00     0.029 A 
ATOM     67  C   UNL A   1      49.066  25.288  34.886  1.00  0.00     0.049 A 
ATOM     68  H   UNL A   1      47.342  26.211  34.086  1.00  0.00     0.167 HD
ATOM     69  C   UNL A   1      49.396  25.185  32.433  1.00  0.00     0.074 A 
ATOM     70  C   UNL A   1      50.152  24.839  31.248  1.00  0.00     0.031 C 
ATOM     71  C   UNL A   1      49.812  24.948  33.702  1.00  0.00     0.037 A 
BRANCH  58  72
ATOM     72  C   UNL A   1      45.877  26.932  38.034  1.00  0.00     0.064 A 
ATOM     73  C   UNL A   1      45.343  25.895  38.816  1.00  0.00     0.173 A 
ATOM     74  C   UNL A   1      46.178  28.144  38.675  1.00  0.00     0.173 A 
ATOM     75  F   UNL A   1      45.034  24.717  38.254  1.00  0.00    -0.203 F 
ATOM     76  C   UNL A   1      45.086  26.078  40.173  1.00  0.00     0.198 A 
ATOM     77  C   UNL A   1      45.950  28.313  40.039  1.00  0.00     0.198 A 
ATOM     78  F   UNL A   1      46.703  29.165  37.981  1.00  0.00    -0.203 F 
ATOM     79  F   UNL A   1      44.526  25.091  40.886  1.00  0.00    -0.200 F 
ATOM     80  C   UNL A   1      45.394  27.284  40.785  1.00  0.00     0.200 A 
ATOM     81  F   UNL A   1      46.265  29.473  40.632  1.00  0.00    -0.200 F 
ATOM     82  F   UNL A   1      45.151  27.457  42.091  1.00  0.00    -0.200 F 
ENDBRANCH  58  72
BRANCH  59  83
ATOM     83  C   UNL A   1      47.537  26.203  28.233  1.00  0.00     0.064 A 
ATOM     84  C   UNL A   1      47.173  25.058  27.510  1.00  0.00     0.173 A 
ATOM     85  C   UNL A   1      48.148  27.251  27.531  1.00  0.00     0.173 A 
ATOM     86  F   UNL A   1      46.608  24.019  28.141  1.00  0.00    -0.203 F 
ATOM     87  C   UNL A   1      47.422  24.961  26.143  1.00  0.00     0.198 A 
ATOM     88  C   UNL A   1      48.370  27.166  26.158  1.00  0.00     0.198 A 
ATOM     89  F   UNL A   1      48.514  28.370  28.176  1.00  0.00    -0.203 F 
ATOM     90  F   UNL A   1      47.101  23.840  25.483  1.00  0.00    -0.200 F 
ATOM     91  C   UNL A   1      48.013  26.019  25.466  1.00  0.00     0.200 A 
ATOM     92  F   UNL A   1      48.926  28.195  25.506  1.00  0.00    -0.200 F 
ATOM     93  F   UNL A   1      48.242  25.930  24.149  1.00  0.00    -0.200 F 
ENDBRANCH  59  83
BRANCH  71  94
ATOM     94  C   UNL A   1      51.135  24.257  33.875  1.00  0.00     0.064 A 
ATOM     95  C   UNL A   1      52.319  24.977  34.097  1.00  0.00     0.173 A 
ATOM     96  C   UNL A   1      51.216  22.856  33.848  1.00  0.00     0.173 A 
ATOM     97  F   UNL A   1      52.301  26.317  34.116  1.00  0.00    -0.203 F 
ATOM     98  C   UNL A   1      53.538  24.320  34.258  1.00  0.00     0.198 A 
ATOM     99  C   UNL A   1      52.430  22.202  34.041  1.00  0.00     0.198 A 
ATOM    100  F   UNL A   1      50.113  22.120  33.646  1.00  0.00    -0.203 F 
ATOM    101  F   UNL A   1      54.663  25.030  34.417  1.00  0.00    -0.200 F 
ATOM    102  C   UNL A   1      53.591  22.934  34.238  1.00  0.00     0.200 A 
ATOM    103  F   UNL A   1      52.476  20.863  34.032  1.00  0.00    -0.200 F 
ATOM    104  F   UNL A   1      54.762  22.305  34.397  1.00  0.00    -0.200 F 
ENDBRANCH  71  94
ENDBRANCH  45  46
ENDBRANCH  37  40
ENDBRANCH  35  36
ENDBRANCH  34  35
ENDBRANCH  33  34
ENDBRANCH  32  33
ENDBRANCH   1  32
TORSDOF 18
ENDMDL
