MODEL 1
REMARK VINA RESULT:     -11.7      0.000      0.000
REMARK SMILES CC[NH+](CC)[C@@H](C(=O)NCCCCCCNC(=O)c1ccc(-c2c3nc(c(-c4c(F)c(F)c(F)c(F)c4F)c4ccc([nH]4)c(-c4c(F)c(F)c(F)c(F)c4F)c4nc(c(-c5c(F)c(F)c(F)c(F)c5F)c5ccc2[nH]5)C=C4)C=C3)cc1)c1ccc(C2CC2)cc1
REMARK SMILES IDX 12 1 11 2 10 3 9 4 7 5 8 6 6 8 3 9 2 11 1 12 4 13 5 14 82 15
REMARK SMILES IDX 83 16 90 17 84 18 89 19 85 20 86 21 87 22 88 23 13 24 14 25
REMARK SMILES IDX 15 26 16 27 17 28 18 30 19 31 20 32 81 33 21 34 80 35 22 36
REMARK SMILES IDX 23 37 24 38 74 39 25 40 79 41 73 42 75 43 26 44 78 45 72 46
REMARK SMILES IDX 71 47 27 49 59 50 39 51 58 52 40 53 43 54 57 55 76 56 41 57
REMARK SMILES IDX 42 58 56 60 77 61 44 62 28 63 29 64 37 65 30 66 31 67 35 68
REMARK SMILES IDX 38 69 32 70 33 71 36 72 34 73 60 74 61 75 69 76 62 77 63 78
REMARK SMILES IDX 67 79 70 80 64 81 65 82 68 83 66 84 45 85 46 86 54 87 47 88
REMARK SMILES IDX 48 89 52 90 55 91 49 92 50 93 53 94 51 95
REMARK H PARENT 9 7 3 10 16 29 75 48 43 59
REMARK Flexibility Score: inf
ROOT
ATOM      1  C   UNL A   1      37.696  21.956  25.124  1.00  0.00     0.002 C 
ENDROOT
BRANCH   1   2
ATOM      2  C   UNL A   1      36.810  22.999  24.431  1.00  0.00     0.021 C 
BRANCH   2   3
ATOM      3  C   UNL A   1      35.380  22.541  24.095  1.00  0.00     0.116 C 
BRANCH   3   4
ATOM      4  N   UNL A   1      34.826  23.216  22.931  1.00  0.00    -0.351 N 
ATOM      5  C   UNL A   1      33.561  23.432  22.458  1.00  0.00     0.283 C 
ATOM      6  O   UNL A   1      33.524  23.933  21.327  1.00  0.00    -0.268 OA
ATOM      7  H   UNL A   1      35.521  23.604  22.352  1.00  0.00     0.163 HD
BRANCH   5   8
ATOM      8  C   UNL A   1      32.275  23.095  23.287  1.00  0.00     0.305 C 
BRANCH   8   9
ATOM      9  N   UNL A   1      32.056  23.947  24.521  1.00  0.00    -0.321 N 
ATOM     10  H   UNL A   1      32.651  23.412  25.154  1.00  0.00     0.349 HD
BRANCH   9  11
ATOM     11  C   UNL A   1      32.625  25.300  24.568  1.00  0.00     0.259 C 
ATOM     12  C   UNL A   1      33.725  25.455  25.612  1.00  0.00     0.071 C 
ENDBRANCH   9  11
BRANCH   9  13
ATOM     13  C   UNL A   1      30.691  23.953  25.040  1.00  0.00     0.259 C 
ATOM     14  C   UNL A   1      30.567  23.763  26.558  1.00  0.00     0.071 C 
ENDBRANCH   9  13
ENDBRANCH   8   9
BRANCH   8  15
ATOM     15  C   UNL A   1      32.163  21.584  23.584  1.00  0.00     0.019 A 
ATOM     16  C   UNL A   1      32.118  20.641  22.543  1.00  0.00     0.011 A 
ATOM     17  C   UNL A   1      32.297  21.097  24.890  1.00  0.00     0.011 A 
ATOM     18  C   UNL A   1      32.402  19.295  22.777  1.00  0.00     0.004 A 
ATOM     19  C   UNL A   1      32.557  19.735  25.119  1.00  0.00     0.004 A 
ATOM     20  C   UNL A   1      32.700  18.822  24.061  1.00  0.00    -0.045 A 
BRANCH  20  21
ATOM     21  C   UNL A   1      33.276  17.434  24.207  1.00  0.00     0.019 C 
ATOM     22  C   UNL A   1      34.044  16.731  23.120  1.00  0.00     0.009 C 
ATOM     23  C   UNL A   1      34.764  17.243  24.332  1.00  0.00     0.009 C 
ENDBRANCH  20  21
ENDBRANCH   8  15
ENDBRANCH   5   8
ENDBRANCH   3   4
ENDBRANCH   2   3
ENDBRANCH   1   2
BRANCH   1  24
ATOM     24  C   UNL A   1      37.206  20.520  24.960  1.00  0.00     0.002 C 
BRANCH  24  25
ATOM     25  C   UNL A   1      38.279  19.456  25.204  1.00  0.00     0.021 C 
BRANCH  25  26
ATOM     26  C   UNL A   1      39.540  19.979  25.884  1.00  0.00     0.116 C 
BRANCH  26  27
ATOM     27  N   UNL A   1      40.524  18.924  26.054  1.00  0.00    -0.352 N 
ATOM     28  C   UNL A   1      41.891  19.056  26.114  1.00  0.00     0.251 C 
ATOM     29  H   UNL A   1      40.171  18.009  26.135  1.00  0.00     0.163 HD
ATOM     30  O   UNL A   1      42.630  18.094  25.967  1.00  0.00    -0.269 OA
BRANCH  28  31
ATOM     31  C   UNL A   1      42.451  20.401  26.354  1.00  0.00     0.039 A 
ATOM     32  C   UNL A   1      42.916  21.152  25.276  1.00  0.00     0.014 A 
ATOM     33  C   UNL A   1      42.474  20.922  27.652  1.00  0.00     0.014 A 
ATOM     34  C   UNL A   1      43.367  22.455  25.494  1.00  0.00     0.010 A 
ATOM     35  C   UNL A   1      42.854  22.243  27.856  1.00  0.00     0.010 A 
ATOM     36  C   UNL A   1      43.315  23.019  26.781  1.00  0.00    -0.014 A 
BRANCH  36  37
ATOM     37  C   UNL A   1      43.749  24.418  27.022  1.00  0.00     0.031 A 
ATOM     38  C   UNL A   1      42.760  25.439  27.510  1.00  0.00     0.074 A 
ATOM     39  C   UNL A   1      45.019  24.777  26.753  1.00  0.00     0.049 A 
ATOM     40  N   UNL A   1      42.933  26.716  27.740  1.00  0.00    -0.248 NA
ATOM     41  C   UNL A   1      41.385  24.969  27.745  1.00  0.00     0.031 C 
ATOM     42  C   UNL A   1      46.055  23.888  26.229  1.00  0.00     0.029 A 
ATOM     43  N   UNL A   1      45.651  25.989  26.875  1.00  0.00    -0.354 N 
ATOM     44  C   UNL A   1      41.693  27.200  28.135  1.00  0.00     0.074 A 
ATOM     45  C   UNL A   1      40.762  26.096  28.054  1.00  0.00     0.031 C 
ATOM     46  C   UNL A   1      47.201  24.576  26.099  1.00  0.00     0.029 A 
ATOM     47  C   UNL A   1      46.970  25.963  26.490  1.00  0.00     0.049 A 
ATOM     48  H   UNL A   1      45.203  26.800  27.206  1.00  0.00     0.167 HD
ATOM     49  C   UNL A   1      41.366  28.447  28.549  1.00  0.00     0.037 A 
ATOM     50  C   UNL A   1      47.886  26.950  26.451  1.00  0.00     0.037 A 
ATOM     51  C   UNL A   1      42.302  29.536  28.644  1.00  0.00     0.049 A 
ATOM     52  C   UNL A   1      47.493  28.331  26.905  1.00  0.00     0.074 A 
ATOM     53  C   UNL A   1      42.086  30.820  29.111  1.00  0.00     0.029 A 
ATOM     54  N   UNL A   1      43.632  29.470  28.253  1.00  0.00    -0.354 N 
ATOM     55  N   UNL A   1      46.337  28.758  27.351  1.00  0.00    -0.248 NA
ATOM     56  C   UNL A   1      48.536  29.364  26.857  1.00  0.00     0.031 C 
ATOM     57  C   UNL A   1      43.269  31.549  28.947  1.00  0.00     0.029 A 
ATOM     58  C   UNL A   1      44.241  30.701  28.440  1.00  0.00     0.049 A 
ATOM     59  H   UNL A   1      44.078  28.668  27.897  1.00  0.00     0.167 HD
ATOM     60  C   UNL A   1      46.520  30.098  27.664  1.00  0.00     0.074 A 
ATOM     61  C   UNL A   1      47.904  30.408  27.373  1.00  0.00     0.031 C 
ATOM     62  C   UNL A   1      45.623  30.992  28.150  1.00  0.00     0.037 A 
BRANCH  49  63
ATOM     63  C   UNL A   1      39.935  28.700  28.932  1.00  0.00     0.064 A 
ATOM     64  C   UNL A   1      38.986  29.141  27.998  1.00  0.00     0.173 A 
ATOM     65  C   UNL A   1      39.498  28.463  30.245  1.00  0.00     0.173 A 
ATOM     66  F   UNL A   1      39.351  29.393  26.731  1.00  0.00    -0.203 F 
ATOM     67  C   UNL A   1      37.663  29.367  28.369  1.00  0.00     0.198 A 
ATOM     68  C   UNL A   1      38.166  28.657  30.605  1.00  0.00     0.198 A 
ATOM     69  F   UNL A   1      40.360  28.034  31.179  1.00  0.00    -0.203 F 
ATOM     70  F   UNL A   1      36.788  29.841  27.471  1.00  0.00    -0.200 F 
ATOM     71  C   UNL A   1      37.252  29.117  29.670  1.00  0.00     0.200 A 
ATOM     72  F   UNL A   1      37.769  28.399  31.859  1.00  0.00    -0.200 F 
ATOM     73  F   UNL A   1      35.978  29.327  30.024  1.00  0.00    -0.200 F 
ENDBRANCH  49  63
BRANCH  50  74
ATOM     74  C   UNL A   1      49.267  26.664  25.982  1.00  0.00     0.064 A 
ATOM     75  C   UNL A   1      50.226  26.118  26.847  1.00  0.00     0.173 A 
ATOM     76  C   UNL A   1      49.661  26.934  24.663  1.00  0.00     0.173 A 
ATOM     77  F   UNL A   1      49.905  25.858  28.124  1.00  0.00    -0.203 F 
ATOM     78  C   UNL A   1      51.530  25.876  26.419  1.00  0.00     0.198 A 
ATOM     79  C   UNL A   1      50.956  26.662  24.227  1.00  0.00     0.198 A 
ATOM     80  F   UNL A   1      48.782  27.450  23.792  1.00  0.00    -0.203 F 
ATOM     81  F   UNL A   1      52.439  25.402  27.282  1.00  0.00    -0.200 F 
ATOM     82  C   UNL A   1      51.892  26.143  25.107  1.00  0.00     0.200 A 
ATOM     83  F   UNL A   1      51.296  26.904  22.954  1.00  0.00    -0.200 F 
ATOM     84  F   UNL A   1      53.145  25.906  24.695  1.00  0.00    -0.200 F 
ENDBRANCH  50  74
BRANCH  62  85
ATOM     85  C   UNL A   1      46.118  32.382  28.432  1.00  0.00     0.064 A 
ATOM     86  C   UNL A   1      46.678  32.730  29.671  1.00  0.00     0.173 A 
ATOM     87  C   UNL A   1      46.069  33.368  27.434  1.00  0.00     0.173 A 
ATOM     88  F   UNL A   1      46.737  31.829  30.663  1.00  0.00    -0.203 F 
ATOM     89  C   UNL A   1      47.140  34.022  29.908  1.00  0.00     0.198 A 
ATOM     90  C   UNL A   1      46.565  34.648  27.664  1.00  0.00     0.198 A 
ATOM     91  F   UNL A   1      45.551  33.085  26.229  1.00  0.00    -0.203 F 
ATOM     92  F   UNL A   1      47.620  34.347  31.117  1.00  0.00    -0.200 F 
ATOM     93  C   UNL A   1      47.092  34.976  28.903  1.00  0.00     0.200 A 
ATOM     94  F   UNL A   1      46.533  35.562  26.685  1.00  0.00    -0.200 F 
ATOM     95  F   UNL A   1      47.547  36.216  29.132  1.00  0.00    -0.200 F 
ENDBRANCH  62  85
ENDBRANCH  36  37
ENDBRANCH  28  31
ENDBRANCH  26  27
ENDBRANCH  25  26
ENDBRANCH  24  25
ENDBRANCH   1  24
TORSDOF 18
ENDMDL
MODEL 2
REMARK VINA RESULT:     -11.5      0.645      7.307
REMARK SMILES CC[NH+](CC)[C@@H](C(=O)NCCCCCCNC(=O)c1ccc(-c2c3nc(c(-c4c(F)c(F)c(F)c(F)c4F)c4ccc([nH]4)c(-c4c(F)c(F)c(F)c(F)c4F)c4nc(c(-c5c(F)c(F)c(F)c(F)c5F)c5ccc2[nH]5)C=C4)C=C3)cc1)c1ccc(C2CC2)cc1
REMARK SMILES IDX 12 1 11 2 10 3 9 4 7 5 8 6 6 8 3 9 2 11 1 12 4 13 5 14 82 15
REMARK SMILES IDX 83 16 90 17 84 18 89 19 85 20 86 21 87 22 88 23 13 24 14 25
REMARK SMILES IDX 15 26 16 27 17 28 18 30 19 31 20 32 81 33 21 34 80 35 22 36
REMARK SMILES IDX 23 37 24 38 74 39 25 40 79 41 73 42 75 43 26 44 78 45 72 46
REMARK SMILES IDX 71 47 27 49 59 50 39 51 58 52 40 53 43 54 57 55 76 56 41 57
REMARK SMILES IDX 42 58 56 60 77 61 44 62 28 63 29 64 37 65 30 66 31 67 35 68
REMARK SMILES IDX 38 69 32 70 33 71 36 72 34 73 60 74 61 75 69 76 62 77 63 78
REMARK SMILES IDX 67 79 70 80 64 81 65 82 68 83 66 84 45 85 46 86 54 87 47 88
REMARK SMILES IDX 48 89 52 90 55 91 49 92 50 93 53 94 51 95
REMARK H PARENT 9 7 3 10 16 29 75 48 43 59
REMARK Flexibility Score: inf
ROOT
ATOM      1  C   UNL A   1      37.280  21.565  25.312  1.00  0.00     0.002 C 
ENDROOT
BRANCH   1   2
ATOM      2  C   UNL A   1      37.013  22.749  24.372  1.00  0.00     0.021 C 
BRANCH   2   3
ATOM      3  C   UNL A   1      35.620  23.392  24.491  1.00  0.00     0.116 C 
BRANCH   3   4
ATOM      4  N   UNL A   1      34.995  23.637  23.201  1.00  0.00    -0.351 N 
ATOM      5  C   UNL A   1      33.759  23.391  22.670  1.00  0.00     0.283 C 
ATOM      6  O   UNL A   1      33.674  23.625  21.458  1.00  0.00    -0.268 OA
ATOM      7  H   UNL A   1      35.602  24.081  22.564  1.00  0.00     0.163 HD
BRANCH   5   8
ATOM      8  C   UNL A   1      32.553  22.880  23.529  1.00  0.00     0.305 C 
BRANCH   8   9
ATOM      9  N   UNL A   1      32.224  23.715  24.750  1.00  0.00    -0.321 N 
ATOM     10  H   UNL A   1      33.005  23.408  25.329  1.00  0.00     0.349 HD
BRANCH   9  11
ATOM     11  C   UNL A   1      32.389  25.173  24.686  1.00  0.00     0.259 C 
ATOM     12  C   UNL A   1      33.246  25.732  25.816  1.00  0.00     0.071 C 
ENDBRANCH   9  11
BRANCH   9  13
ATOM     13  C   UNL A   1      30.970  23.376  25.417  1.00  0.00     0.259 C 
ATOM     14  C   UNL A   1      31.103  22.968  26.891  1.00  0.00     0.071 C 
ENDBRANCH   9  13
ENDBRANCH   8   9
BRANCH   8  15
ATOM     15  C   UNL A   1      32.679  21.376  23.857  1.00  0.00     0.019 A 
ATOM     16  C   UNL A   1      32.115  20.400  23.018  1.00  0.00     0.011 A 
ATOM     17  C   UNL A   1      33.516  20.934  24.888  1.00  0.00     0.011 A 
ATOM     18  C   UNL A   1      32.533  19.070  23.077  1.00  0.00     0.004 A 
ATOM     19  C   UNL A   1      33.913  19.587  24.957  1.00  0.00     0.004 A 
ATOM     20  C   UNL A   1      33.496  18.646  24.001  1.00  0.00    -0.045 A 
BRANCH  20  21
ATOM     21  C   UNL A   1      34.113  17.278  23.828  1.00  0.00     0.019 C 
ATOM     22  C   UNL A   1      34.659  16.460  24.968  1.00  0.00     0.009 C 
ATOM     23  C   UNL A   1      33.377  16.053  24.302  1.00  0.00     0.009 C 
ENDBRANCH  20  21
ENDBRANCH   8  15
ENDBRANCH   5   8
ENDBRANCH   3   4
ENDBRANCH   2   3
ENDBRANCH   1   2
BRANCH   1  24
ATOM     24  C   UNL A   1      37.309  20.211  24.609  1.00  0.00     0.002 C 
BRANCH  24  25
ATOM     25  C   UNL A   1      38.302  19.211  25.209  1.00  0.00     0.021 C 
BRANCH  25  26
ATOM     26  C   UNL A   1      39.576  19.844  25.758  1.00  0.00     0.116 C 
BRANCH  26  27
ATOM     27  N   UNL A   1      40.615  18.847  25.962  1.00  0.00    -0.352 N 
ATOM     28  C   UNL A   1      41.967  19.061  26.083  1.00  0.00     0.251 C 
ATOM     29  H   UNL A   1      40.315  17.912  26.018  1.00  0.00     0.163 HD
ATOM     30  O   UNL A   1      42.769  18.147  25.959  1.00  0.00    -0.269 OA
BRANCH  28  31
ATOM     31  C   UNL A   1      42.433  20.434  26.361  1.00  0.00     0.039 A 
ATOM     32  C   UNL A   1      42.844  21.245  25.304  1.00  0.00     0.014 A 
ATOM     33  C   UNL A   1      42.421  20.919  27.673  1.00  0.00     0.014 A 
ATOM     34  C   UNL A   1      43.205  22.569  25.560  1.00  0.00     0.010 A 
ATOM     35  C   UNL A   1      42.709  22.257  27.914  1.00  0.00     0.010 A 
ATOM     36  C   UNL A   1      43.115  23.092  26.861  1.00  0.00    -0.014 A 
BRANCH  36  37
ATOM     37  C   UNL A   1      43.452  24.510  27.142  1.00  0.00     0.031 A 
ATOM     38  C   UNL A   1      44.851  25.010  26.914  1.00  0.00     0.074 A 
ATOM     39  C   UNL A   1      42.514  25.331  27.651  1.00  0.00     0.049 A 
ATOM     40  N   UNL A   1      45.354  26.198  27.137  1.00  0.00    -0.248 NA
ATOM     41  C   UNL A   1      45.824  24.037  26.390  1.00  0.00     0.031 C 
ATOM     42  C   UNL A   1      41.136  24.948  27.962  1.00  0.00     0.029 A 
ATOM     43  N   UNL A   1      42.578  26.656  28.004  1.00  0.00    -0.354 N 
ATOM     44  C   UNL A   1      46.696  26.111  26.792  1.00  0.00     0.074 A 
ATOM     45  C   UNL A   1      46.946  24.740  26.404  1.00  0.00     0.031 C 
ATOM     46  C   UNL A   1      40.478  26.019  28.434  1.00  0.00     0.029 A 
ATOM     47  C   UNL A   1      41.397  27.152  28.498  1.00  0.00     0.049 A 
ATOM     48  H   UNL A   1      43.393  27.199  27.911  1.00  0.00     0.167 HD
ATOM     49  C   UNL A   1      47.630  27.092  26.778  1.00  0.00     0.037 A 
ATOM     50  C   UNL A   1      41.092  28.381  28.959  1.00  0.00     0.037 A 
ATOM     51  C   UNL A   1      47.369  28.458  27.149  1.00  0.00     0.049 A 
ATOM     52  C   UNL A   1      42.152  29.450  28.945  1.00  0.00     0.074 A 
ATOM     53  C   UNL A   1      48.228  29.541  27.110  1.00  0.00     0.029 A 
ATOM     54  N   UNL A   1      46.157  28.926  27.637  1.00  0.00    -0.354 N 
ATOM     55  N   UNL A   1      43.398  29.377  28.542  1.00  0.00    -0.248 NA
ATOM     56  C   UNL A   1      41.761  30.775  29.443  1.00  0.00     0.031 C 
ATOM     57  C   UNL A   1      47.556  30.651  27.632  1.00  0.00     0.029 A 
ATOM     58  C   UNL A   1      46.257  30.277  27.933  1.00  0.00     0.049 A 
ATOM     59  H   UNL A   1      45.346  28.380  27.756  1.00  0.00     0.167 HD
ATOM     60  C   UNL A   1      43.929  30.649  28.709  1.00  0.00     0.074 A 
ATOM     61  C   UNL A   1      42.865  31.479  29.234  1.00  0.00     0.031 C 
ATOM     62  C   UNL A   1      45.184  31.090  28.451  1.00  0.00     0.037 A 
BRANCH  49  63
ATOM     63  C   UNL A   1      49.021  26.722  26.347  1.00  0.00     0.064 A 
ATOM     64  C   UNL A   1      49.459  26.899  25.026  1.00  0.00     0.173 A 
ATOM     65  C   UNL A   1      49.942  26.218  27.279  1.00  0.00     0.173 A 
ATOM     66  F   UNL A   1      48.616  27.368  24.092  1.00  0.00    -0.203 F 
ATOM     67  C   UNL A   1      50.753  26.554  24.645  1.00  0.00     0.198 A 
ATOM     68  C   UNL A   1      51.247  25.906  26.903  1.00  0.00     0.198 A 
ATOM     69  F   UNL A   1      49.581  26.035  28.557  1.00  0.00    -0.203 F 
ATOM     70  F   UNL A   1      51.130  26.680  23.365  1.00  0.00    -0.200 F 
ATOM     71  C   UNL A   1      51.649  26.066  25.585  1.00  0.00     0.200 A 
ATOM     72  F   UNL A   1      52.115  25.450  27.817  1.00  0.00    -0.200 F 
ATOM     73  F   UNL A   1      52.896  25.742  25.220  1.00  0.00    -0.200 F 
ENDBRANCH  49  63
BRANCH  50  74
ATOM     74  C   UNL A   1      39.721  28.670  29.454  1.00  0.00     0.064 A 
ATOM     75  C   UNL A   1      39.363  28.415  30.786  1.00  0.00     0.173 A 
ATOM     76  C   UNL A   1      38.736  29.202  28.607  1.00  0.00     0.173 A 
ATOM     77  F   UNL A   1      40.263  27.890  31.631  1.00  0.00    -0.203 F 
ATOM     78  C   UNL A   1      38.070  28.658  31.245  1.00  0.00     0.198 A 
ATOM     79  C   UNL A   1      37.453  29.474  29.076  1.00  0.00     0.198 A 
ATOM     80  F   UNL A   1      39.027  29.472  27.326  1.00  0.00    -0.203 F 
ATOM     81  F   UNL A   1      37.743  28.357  32.508  1.00  0.00    -0.200 F 
ATOM     82  C   UNL A   1      37.117  29.193  30.390  1.00  0.00     0.200 A 
ATOM     83  F   UNL A   1      36.541  30.008  28.251  1.00  0.00    -0.200 F 
ATOM     84  F   UNL A   1      35.875  29.429  30.834  1.00  0.00    -0.200 F 
ENDBRANCH  50  74
BRANCH  62  85
ATOM     85  C   UNL A   1      45.468  32.545  28.697  1.00  0.00     0.064 A 
ATOM     86  C   UNL A   1      45.225  33.521  27.719  1.00  0.00     0.173 A 
ATOM     87  C   UNL A   1      45.953  32.970  29.944  1.00  0.00     0.173 A 
ATOM     88  F   UNL A   1      44.774  33.166  26.507  1.00  0.00    -0.203 F 
ATOM     89  C   UNL A   1      45.485  34.866  27.972  1.00  0.00     0.198 A 
ATOM     90  C   UNL A   1      46.178  34.320  30.203  1.00  0.00     0.198 A 
ATOM     91  F   UNL A   1      46.195  32.079  30.916  1.00  0.00    -0.203 F 
ATOM     92  F   UNL A   1      45.296  35.775  27.005  1.00  0.00    -0.200 F 
ATOM     93  C   UNL A   1      45.952  35.265  29.215  1.00  0.00     0.200 A 
ATOM     94  F   UNL A   1      46.614  34.703  31.411  1.00  0.00    -0.200 F 
ATOM     95  F   UNL A   1      46.193  36.560  29.458  1.00  0.00    -0.200 F 
ENDBRANCH  62  85
ENDBRANCH  36  37
ENDBRANCH  28  31
ENDBRANCH  26  27
ENDBRANCH  25  26
ENDBRANCH  24  25
ENDBRANCH   1  24
TORSDOF 18
ENDMDL
MODEL 3
REMARK VINA RESULT:     -11.4      5.915     11.153
REMARK SMILES CC[NH+](CC)[C@@H](C(=O)NCCCCCCNC(=O)c1ccc(-c2c3nc(c(-c4c(F)c(F)c(F)c(F)c4F)c4ccc([nH]4)c(-c4c(F)c(F)c(F)c(F)c4F)c4nc(c(-c5c(F)c(F)c(F)c(F)c5F)c5ccc2[nH]5)C=C4)C=C3)cc1)c1ccc(C2CC2)cc1
REMARK SMILES IDX 12 1 11 2 10 3 9 4 7 5 8 6 6 8 3 9 2 11 1 12 4 13 5 14 82 15
REMARK SMILES IDX 83 16 90 17 84 18 89 19 85 20 86 21 87 22 88 23 13 24 14 25
REMARK SMILES IDX 15 26 16 27 17 28 18 30 19 31 20 32 81 33 21 34 80 35 22 36
REMARK SMILES IDX 23 37 24 38 74 39 25 40 79 41 73 42 75 43 26 44 78 45 72 46
REMARK SMILES IDX 71 47 27 49 59 50 39 51 58 52 40 53 43 54 57 55 76 56 41 57
REMARK SMILES IDX 42 58 56 60 77 61 44 62 28 63 29 64 37 65 30 66 31 67 35 68
REMARK SMILES IDX 38 69 32 70 33 71 36 72 34 73 60 74 61 75 69 76 62 77 63 78
REMARK SMILES IDX 67 79 70 80 64 81 65 82 68 83 66 84 45 85 46 86 54 87 47 88
REMARK SMILES IDX 48 89 52 90 55 91 49 92 50 93 53 94 51 95
REMARK H PARENT 9 7 3 10 16 29 75 48 43 59
REMARK Flexibility Score: inf
ROOT
ATOM      1  C   UNL A   1      33.139  30.418  26.548  1.00  0.00     0.002 C 
ENDROOT
BRANCH   1   2
ATOM      2  C   UNL A   1      33.316  29.115  27.339  1.00  0.00     0.021 C 
BRANCH   2   3
ATOM      3  C   UNL A   1      33.804  27.903  26.525  1.00  0.00     0.116 C 
BRANCH   3   4
ATOM      4  N   UNL A   1      34.024  28.213  25.121  1.00  0.00    -0.351 N 
ATOM      5  C   UNL A   1      33.769  27.566  23.943  1.00  0.00     0.283 C 
ATOM      6  O   UNL A   1      34.257  28.116  22.949  1.00  0.00    -0.268 OA
ATOM      7  H   UNL A   1      34.456  29.088  24.989  1.00  0.00     0.163 HD
BRANCH   5   8
ATOM      8  C   UNL A   1      32.913  26.256  23.862  1.00  0.00     0.305 C 
BRANCH   8   9
ATOM      9  N   UNL A   1      31.622  26.273  24.658  1.00  0.00    -0.321 N 
ATOM     10  H   UNL A   1      32.026  26.556  25.551  1.00  0.00     0.349 HD
BRANCH   9  11
ATOM     11  C   UNL A   1      30.624  27.312  24.381  1.00  0.00     0.259 C 
ATOM     12  C   UNL A   1      30.347  27.501  22.894  1.00  0.00     0.071 C 
ENDBRANCH   9  11
BRANCH   9  13
ATOM     13  C   UNL A   1      30.973  24.975  24.818  1.00  0.00     0.259 C 
ATOM     14  C   UNL A   1      30.336  24.726  26.192  1.00  0.00     0.071 C 
ENDBRANCH   9  13
ENDBRANCH   8   9
BRANCH   8  15
ATOM     15  C   UNL A   1      33.762  24.997  24.139  1.00  0.00     0.019 A 
ATOM     16  C   UNL A   1      34.025  24.060  23.125  1.00  0.00     0.011 A 
ATOM     17  C   UNL A   1      34.454  24.848  25.348  1.00  0.00     0.011 A 
ATOM     18  C   UNL A   1      35.076  23.149  23.239  1.00  0.00     0.004 A 
ATOM     19  C   UNL A   1      35.494  23.911  25.464  1.00  0.00     0.004 A 
ATOM     20  C   UNL A   1      35.882  23.102  24.383  1.00  0.00    -0.045 A 
BRANCH  20  21
ATOM     21  C   UNL A   1      37.165  22.307  24.332  1.00  0.00     0.019 C 
ATOM     22  C   UNL A   1      38.044  22.066  25.530  1.00  0.00     0.009 C 
ATOM     23  C   UNL A   1      37.232  20.941  24.961  1.00  0.00     0.009 C 
ENDBRANCH  20  21
ENDBRANCH   8  15
ENDBRANCH   5   8
ENDBRANCH   3   4
ENDBRANCH   2   3
ENDBRANCH   1   2
BRANCH   1  24
ATOM     24  C   UNL A   1      31.696  30.908  26.476  1.00  0.00     0.002 C 
BRANCH  24  25
ATOM     25  C   UNL A   1      31.512  32.384  26.839  1.00  0.00     0.021 C 
BRANCH  25  26
ATOM     26  C   UNL A   1      32.765  33.055  27.393  1.00  0.00     0.116 C 
BRANCH  26  27
ATOM     27  N   UNL A   1      32.514  34.448  27.723  1.00  0.00    -0.352 N 
ATOM     28  C   UNL A   1      33.010  35.158  28.790  1.00  0.00     0.251 C 
ATOM     29  H   UNL A   1      31.921  34.940  27.111  1.00  0.00     0.163 HD
ATOM     30  O   UNL A   1      32.514  36.221  29.133  1.00  0.00    -0.269 OA
BRANCH  28  31
ATOM     31  C   UNL A   1      34.161  34.597  29.526  1.00  0.00     0.039 A 
ATOM     32  C   UNL A   1      33.957  34.010  30.774  1.00  0.00     0.014 A 
ATOM     33  C   UNL A   1      35.434  34.624  28.947  1.00  0.00     0.014 A 
ATOM     34  C   UNL A   1      35.031  33.406  31.429  1.00  0.00     0.010 A 
ATOM     35  C   UNL A   1      36.485  33.958  29.567  1.00  0.00     0.010 A 
ATOM     36  C   UNL A   1      36.297  33.352  30.819  1.00  0.00    -0.014 A 
BRANCH  36  37
ATOM     37  C   UNL A   1      37.439  32.675  31.483  1.00  0.00     0.031 A 
ATOM     38  C   UNL A   1      38.111  31.507  30.818  1.00  0.00     0.074 A 
ATOM     39  C   UNL A   1      37.834  33.079  32.706  1.00  0.00     0.049 A 
ATOM     40  N   UNL A   1      39.093  30.759  31.252  1.00  0.00    -0.248 NA
ATOM     41  C   UNL A   1      37.592  31.109  29.499  1.00  0.00     0.031 C 
ATOM     42  C   UNL A   1      37.227  34.167  33.473  1.00  0.00     0.029 A 
ATOM     43  N   UNL A   1      38.836  32.615  33.521  1.00  0.00    -0.354 N 
ATOM     44  C   UNL A   1      39.301  29.801  30.268  1.00  0.00     0.074 A 
ATOM     45  C   UNL A   1      38.304  30.022  29.244  1.00  0.00     0.031 C 
ATOM     46  C   UNL A   1      37.885  34.306  34.635  1.00  0.00     0.029 A 
ATOM     47  C   UNL A   1      38.931  33.290  34.714  1.00  0.00     0.049 A 
ATOM     48  H   UNL A   1      39.429  31.870  33.275  1.00  0.00     0.167 HD
ATOM     49  C   UNL A   1      40.252  28.839  30.214  1.00  0.00     0.037 A 
ATOM     50  C   UNL A   1      39.764  33.105  35.756  1.00  0.00     0.037 A 
ATOM     51  C   UNL A   1      41.252  28.636  31.230  1.00  0.00     0.049 A 
ATOM     52  C   UNL A   1      40.805  32.019  35.676  1.00  0.00     0.074 A 
ATOM     53  C   UNL A   1      42.298  27.731  31.241  1.00  0.00     0.029 A 
ATOM     54  N   UNL A   1      41.323  29.345  32.420  1.00  0.00    -0.354 N 
ATOM     55  N   UNL A   1      41.042  31.170  34.707  1.00  0.00    -0.248 NA
ATOM     56  C   UNL A   1      41.697  31.873  36.834  1.00  0.00     0.031 C 
ATOM     57  C   UNL A   1      42.965  27.850  32.465  1.00  0.00     0.029 A 
ATOM     58  C   UNL A   1      42.377  28.875  33.188  1.00  0.00     0.049 A 
ATOM     59  H   UNL A   1      40.715  30.074  32.682  1.00  0.00     0.167 HD
ATOM     60  C   UNL A   1      42.127  30.410  35.122  1.00  0.00     0.074 A 
ATOM     61  C   UNL A   1      42.512  30.911  36.425  1.00  0.00     0.031 C 
ATOM     62  C   UNL A   1      42.750  29.389  34.483  1.00  0.00     0.037 A 
BRANCH  49  63
ATOM     63  C   UNL A   1      40.257  27.931  29.016  1.00  0.00     0.064 A 
ATOM     64  C   UNL A   1      40.990  28.235  27.860  1.00  0.00     0.173 A 
ATOM     65  C   UNL A   1      39.545  26.720  29.040  1.00  0.00     0.173 A 
ATOM     66  F   UNL A   1      41.680  29.384  27.779  1.00  0.00    -0.203 F 
ATOM     67  C   UNL A   1      40.985  27.380  26.760  1.00  0.00     0.198 A 
ATOM     68  C   UNL A   1      39.571  25.851  27.952  1.00  0.00     0.198 A 
ATOM     69  F   UNL A   1      38.832  26.375  30.122  1.00  0.00    -0.203 F 
ATOM     70  F   UNL A   1      41.649  27.720  25.646  1.00  0.00    -0.200 F 
ATOM     71  C   UNL A   1      40.283  26.186  26.810  1.00  0.00     0.200 A 
ATOM     72  F   UNL A   1      38.904  24.690  28.009  1.00  0.00    -0.200 F 
ATOM     73  F   UNL A   1      40.286  25.360  25.755  1.00  0.00    -0.200 F 
ENDBRANCH  49  63
BRANCH  50  74
ATOM     74  C   UNL A   1      39.661  33.978  36.955  1.00  0.00     0.064 A 
ATOM     75  C   UNL A   1      40.347  35.200  37.021  1.00  0.00     0.173 A 
ATOM     76  C   UNL A   1      38.881  33.610  38.062  1.00  0.00     0.173 A 
ATOM     77  F   UNL A   1      41.121  35.589  35.996  1.00  0.00    -0.203 F 
ATOM     78  C   UNL A   1      40.276  36.006  38.155  1.00  0.00     0.198 A 
ATOM     79  C   UNL A   1      38.786  34.432  39.182  1.00  0.00     0.198 A 
ATOM     80  F   UNL A   1      38.199  32.456  38.048  1.00  0.00    -0.203 F 
ATOM     81  F   UNL A   1      40.982  37.143  38.211  1.00  0.00    -0.200 F 
ATOM     82  C   UNL A   1      39.490  35.625  39.232  1.00  0.00     0.200 A 
ATOM     83  F   UNL A   1      38.011  34.068  40.212  1.00  0.00    -0.200 F 
ATOM     84  F   UNL A   1      39.419  36.403  40.321  1.00  0.00    -0.200 F 
ENDBRANCH  50  74
BRANCH  62  85
ATOM     85  C   UNL A   1      43.936  28.768  35.165  1.00  0.00     0.064 A 
ATOM     86  C   UNL A   1      43.800  27.673  36.032  1.00  0.00     0.173 A 
ATOM     87  C   UNL A   1      45.230  29.251  34.914  1.00  0.00     0.173 A 
ATOM     88  F   UNL A   1      42.585  27.182  36.315  1.00  0.00    -0.203 F 
ATOM     89  C   UNL A   1      44.914  27.106  36.646  1.00  0.00     0.198 A 
ATOM     90  C   UNL A   1      46.344  28.658  35.503  1.00  0.00     0.198 A 
ATOM     91  F   UNL A   1      45.416  30.290  34.087  1.00  0.00    -0.203 F 
ATOM     92  F   UNL A   1      44.756  26.096  37.513  1.00  0.00    -0.200 F 
ATOM     93  C   UNL A   1      46.184  27.592  36.374  1.00  0.00     0.200 A 
ATOM     94  F   UNL A   1      47.570  29.119  35.225  1.00  0.00    -0.200 F 
ATOM     95  F   UNL A   1      47.255  27.038  36.959  1.00  0.00    -0.200 F 
ENDBRANCH  62  85
ENDBRANCH  36  37
ENDBRANCH  28  31
ENDBRANCH  26  27
ENDBRANCH  25  26
ENDBRANCH  24  25
ENDBRANCH   1  24
TORSDOF 18
ENDMDL
