MODEL 1
REMARK VINA RESULT:     -10.9      0.000      0.000
REMARK SMILES [NH3+]C1CC[NH+](CC(=O)N2CCO[C@H](CC(=O)NCCCCCCNC(=O)c3ccc(-c4c5nc(c(-c6c(F)c(F)c(F)c(F)c6F)c6ccc([nH]6)c(-c6c(F)c(F)c(F)c(F)c6F)c6nc(c(-c7c(F)c(F)c(F)c(F)c7F)c7ccc4[nH]7)C=C6)C=C5)cc3)C2)CC1
REMARK SMILES IDX 19 1 18 2 17 3 15 4 16 5 14 7 13 8 9 9 10 10 90 11 11 12
REMARK SMILES IDX 12 13 7 14 8 15 6 16 5 17 2 18 3 19 92 20 4 21 91 22 1 24
REMARK SMILES IDX 20 28 21 29 22 30 23 31 24 32 25 33 26 35 27 36 28 37 89 38
REMARK SMILES IDX 29 39 88 40 30 41 31 42 32 43 82 44 33 45 87 46 81 47 83 48
REMARK SMILES IDX 34 49 86 50 80 51 79 52 35 54 67 55 47 56 66 57 48 58 51 59
REMARK SMILES IDX 65 60 84 61 49 62 50 63 64 65 85 66 52 67 36 68 37 69 45 70
REMARK SMILES IDX 38 71 39 72 43 73 46 74 40 75 41 76 44 77 42 78 68 79 69 80
REMARK SMILES IDX 77 81 70 82 71 83 75 84 78 85 72 86 73 87 76 88 74 89 53 90
REMARK SMILES IDX 54 91 62 92 55 93 56 94 60 95 63 96 57 97 58 98 61 99 59 100
REMARK H PARENT 17 6 5 23 1 25 1 26 1 27 24 34 83 53 51 64
REMARK Flexibility Score: inf
ROOT
ATOM      1  C   UNL A   1      35.272  31.871  28.398  1.00  0.00     0.021 C 
ENDROOT
BRANCH   1   2
ATOM      2  C   UNL A   1      34.007  31.506  27.622  1.00  0.00     0.116 C 
BRANCH   2   3
ATOM      3  N   UNL A   1      33.603  30.149  27.920  1.00  0.00    -0.356 N 
ATOM      4  C   UNL A   1      32.843  29.332  27.138  1.00  0.00     0.222 C 
ATOM      5  O   UNL A   1      32.457  28.251  27.577  1.00  0.00    -0.275 OA
ATOM      6  H   UNL A   1      33.910  29.777  28.778  1.00  0.00     0.163 HD
BRANCH   4   7
ATOM      7  C   UNL A   1      32.465  29.809  25.753  1.00  0.00     0.133 C 
BRANCH   7   8
ATOM      8  C   UNL A   1      31.767  28.692  24.970  1.00  0.00     0.147 C 
ATOM      9  N   UNL A   1      32.254  27.090  23.109  1.00  0.00    -0.333 N 
ATOM     10  C   UNL A   1      31.039  27.552  22.434  1.00  0.00     0.148 C 
ATOM     11  C   UNL A   1      32.789  28.046  24.050  1.00  0.00     0.152 C 
ATOM     12  C   UNL A   1      30.054  28.204  23.422  1.00  0.00     0.182 C 
ATOM     13  O   UNL A   1      30.683  29.241  24.203  1.00  0.00    -0.374 OA
BRANCH   9  14
ATOM     14  C   UNL A   1      33.102  26.179  22.467  1.00  0.00     0.277 C 
ATOM     15  O   UNL A   1      33.652  26.467  21.402  1.00  0.00    -0.268 OA
BRANCH  14  16
ATOM     16  C   UNL A   1      33.192  24.749  23.047  1.00  0.00     0.363 C 
BRANCH  16  17
ATOM     17  N   UNL A   1      34.405  24.345  23.772  1.00  0.00    -0.327 N 
ATOM     18  C   UNL A   1      34.555  22.320  25.925  1.00  0.00     0.192 C 
ATOM     19  C   UNL A   1      34.083  23.759  26.175  1.00  0.00     0.126 C 
ATOM     20  C   UNL A   1      34.542  21.952  24.444  1.00  0.00     0.126 C 
ATOM     21  C   UNL A   1      34.573  24.779  25.150  1.00  0.00     0.268 C 
ATOM     22  C   UNL A   1      35.018  23.058  23.506  1.00  0.00     0.268 C 
ATOM     23  H   UNL A   1      34.985  24.982  23.226  1.00  0.00     0.348 HD
BRANCH  18  24
ATOM     24  N   UNL A   1      35.872  22.040  26.500  1.00  0.00    -0.355 N 
ATOM     25  H   UNL A   1      36.499  22.821  26.309  1.00  0.00     0.344 HD
ATOM     26  H   UNL A   1      36.251  21.189  26.084  1.00  0.00     0.344 HD
ATOM     27  H   UNL A   1      35.783  21.914  27.508  1.00  0.00     0.344 HD
ENDBRANCH  18  24
ENDBRANCH  16  17
ENDBRANCH  14  16
ENDBRANCH   9  14
ENDBRANCH   7   8
ENDBRANCH   4   7
ENDBRANCH   2   3
ENDBRANCH   1   2
BRANCH   1  28
ATOM     28  C   UNL A   1      35.134  33.146  29.226  1.00  0.00     0.002 C 
BRANCH  28  29
ATOM     29  C   UNL A   1      35.163  34.441  28.408  1.00  0.00     0.002 C 
BRANCH  29  30
ATOM     30  C   UNL A   1      34.061  35.447  28.757  1.00  0.00     0.021 C 
BRANCH  30  31
ATOM     31  C   UNL A   1      32.903  34.851  29.552  1.00  0.00     0.116 C 
BRANCH  31  32
ATOM     32  N   UNL A   1      32.478  35.741  30.611  1.00  0.00    -0.352 N 
ATOM     33  C   UNL A   1      32.872  35.768  31.919  1.00  0.00     0.251 C 
ATOM     34  H   UNL A   1      31.814  36.421  30.353  1.00  0.00     0.163 HD
ATOM     35  O   UNL A   1      32.217  36.410  32.750  1.00  0.00    -0.269 OA
BRANCH  33  36
ATOM     36  C   UNL A   1      34.080  35.037  32.344  1.00  0.00     0.039 A 
ATOM     37  C   UNL A   1      35.326  35.641  32.172  1.00  0.00     0.014 A 
ATOM     38  C   UNL A   1      33.988  33.741  32.857  1.00  0.00     0.014 A 
ATOM     39  C   UNL A   1      36.483  34.947  32.523  1.00  0.00     0.010 A 
ATOM     40  C   UNL A   1      35.135  33.078  33.279  1.00  0.00     0.010 A 
ATOM     41  C   UNL A   1      36.395  33.662  33.085  1.00  0.00    -0.014 A 
BRANCH  41  42
ATOM     42  C   UNL A   1      37.622  32.895  33.411  1.00  0.00     0.031 A 
ATOM     43  C   UNL A   1      38.356  33.167  34.696  1.00  0.00     0.074 A 
ATOM     44  C   UNL A   1      38.085  31.977  32.542  1.00  0.00     0.049 A 
ATOM     45  N   UNL A   1      39.448  32.614  35.160  1.00  0.00    -0.248 NA
ATOM     46  C   UNL A   1      37.806  34.222  35.564  1.00  0.00     0.031 C 
ATOM     47  C   UNL A   1      37.486  31.665  31.244  1.00  0.00     0.029 A 
ATOM     48  N   UNL A   1      39.167  31.139  32.622  1.00  0.00    -0.354 N 
ATOM     49  C   UNL A   1      39.718  33.261  36.359  1.00  0.00     0.074 A 
ATOM     50  C   UNL A   1      38.715  34.287  36.524  1.00  0.00     0.031 C 
ATOM     51  C   UNL A   1      38.192  30.683  30.661  1.00  0.00     0.029 A 
ATOM     52  C   UNL A   1      39.305  30.316  31.532  1.00  0.00     0.049 A 
ATOM     53  H   UNL A   1      39.784  31.127  33.388  1.00  0.00     0.167 HD
ATOM     54  C   UNL A   1      40.700  33.001  37.255  1.00  0.00     0.037 A 
ATOM     55  C   UNL A   1      40.225  29.369  31.271  1.00  0.00     0.037 A 
ATOM     56  C   UNL A   1      41.677  31.956  37.100  1.00  0.00     0.049 A 
ATOM     57  C   UNL A   1      41.288  29.082  32.298  1.00  0.00     0.074 A 
ATOM     58  C   UNL A   1      42.685  31.577  37.970  1.00  0.00     0.029 A 
ATOM     59  N   UNL A   1      41.764  31.117  35.998  1.00  0.00    -0.354 N 
ATOM     60  N   UNL A   1      41.495  29.654  33.459  1.00  0.00    -0.248 NA
ATOM     61  C   UNL A   1      42.232  28.001  31.985  1.00  0.00     0.031 C 
ATOM     62  C   UNL A   1      43.405  30.535  37.376  1.00  0.00     0.029 A 
ATOM     63  C   UNL A   1      42.813  30.228  36.163  1.00  0.00     0.049 A 
ATOM     64  H   UNL A   1      41.166  31.149  35.215  1.00  0.00     0.167 HD
ATOM     65  C   UNL A   1      42.566  28.980  34.032  1.00  0.00     0.074 A 
ATOM     66  C   UNL A   1      42.955  27.947  33.094  1.00  0.00     0.031 C 
ATOM     67  C   UNL A   1      43.173  29.195  35.225  1.00  0.00     0.037 A 
BRANCH  54  68
ATOM     68  C   UNL A   1      40.760  33.859  38.487  1.00  0.00     0.064 A 
ATOM     69  C   UNL A   1      39.995  33.565  39.626  1.00  0.00     0.173 A 
ATOM     70  C   UNL A   1      41.615  34.969  38.543  1.00  0.00     0.173 A 
ATOM     71  F   UNL A   1      39.150  32.522  39.622  1.00  0.00    -0.203 F 
ATOM     72  C   UNL A   1      40.062  34.367  40.763  1.00  0.00     0.198 A 
ATOM     73  C   UNL A   1      41.704  35.750  39.691  1.00  0.00     0.198 A 
ATOM     74  F   UNL A   1      42.372  35.294  37.483  1.00  0.00    -0.203 F 
ATOM     75  F   UNL A   1      39.283  34.096  41.819  1.00  0.00    -0.200 F 
ATOM     76  C   UNL A   1      40.922  35.454  40.798  1.00  0.00     0.200 A 
ATOM     77  F   UNL A   1      42.545  36.794  39.728  1.00  0.00    -0.200 F 
ATOM     78  F   UNL A   1      40.991  36.220  41.895  1.00  0.00    -0.200 F 
ENDBRANCH  54  68
BRANCH  55  79
ATOM     79  C   UNL A   1      40.157  28.593  30.005  1.00  0.00     0.064 A 
ATOM     80  C   UNL A   1      39.482  27.366  29.949  1.00  0.00     0.173 A 
ATOM     81  C   UNL A   1      40.772  29.055  28.833  1.00  0.00     0.173 A 
ATOM     82  F   UNL A   1      38.891  26.875  31.048  1.00  0.00    -0.203 F 
ATOM     83  C   UNL A   1      39.450  26.616  28.776  1.00  0.00     0.198 A 
ATOM     84  C   UNL A   1      40.713  28.318  27.652  1.00  0.00     0.198 A 
ATOM     85  F   UNL A   1      41.422  30.228  28.833  1.00  0.00    -0.203 F 
ATOM     86  F   UNL A   1      38.842  25.421  28.763  1.00  0.00    -0.200 F 
ATOM     87  C   UNL A   1      40.062  27.094  27.627  1.00  0.00     0.200 A 
ATOM     88  F   UNL A   1      41.292  28.792  26.541  1.00  0.00    -0.200 F 
ATOM     89  F   UNL A   1      40.031  26.373  26.499  1.00  0.00    -0.200 F 
ENDBRANCH  55  79
BRANCH  67  90
ATOM     90  C   UNL A   1      44.282  28.260  35.606  1.00  0.00     0.064 A 
ATOM     91  C   UNL A   1      45.617  28.514  35.262  1.00  0.00     0.173 A 
ATOM     92  C   UNL A   1      44.004  27.098  36.344  1.00  0.00     0.173 A 
ATOM     93  F   UNL A   1      45.935  29.604  34.546  1.00  0.00    -0.203 F 
ATOM     94  C   UNL A   1      46.629  27.620  35.608  1.00  0.00     0.198 A 
ATOM     95  C   UNL A   1      45.020  26.224  36.717  1.00  0.00     0.198 A 
ATOM     96  F   UNL A   1      42.744  26.813  36.707  1.00  0.00    -0.203 F 
ATOM     97  F   UNL A   1      47.888  27.853  35.215  1.00  0.00    -0.200 F 
ATOM     98  C   UNL A   1      46.330  26.480  36.339  1.00  0.00     0.200 A 
ATOM     99  F   UNL A   1      44.732  25.131  37.436  1.00  0.00    -0.200 F 
ATOM    100  F   UNL A   1      47.303  25.621  36.671  1.00  0.00    -0.200 F 
ENDBRANCH  67  90
ENDBRANCH  41  42
ENDBRANCH  33  36
ENDBRANCH  31  32
ENDBRANCH  30  31
ENDBRANCH  29  30
ENDBRANCH  28  29
ENDBRANCH   1  28
TORSDOF 18
ENDMDL
MODEL 2
REMARK VINA RESULT:     -10.8      0.958      2.325
REMARK SMILES [NH3+]C1CC[NH+](CC(=O)N2CCO[C@H](CC(=O)NCCCCCCNC(=O)c3ccc(-c4c5nc(c(-c6c(F)c(F)c(F)c(F)c6F)c6ccc([nH]6)c(-c6c(F)c(F)c(F)c(F)c6F)c6nc(c(-c7c(F)c(F)c(F)c(F)c7F)c7ccc4[nH]7)C=C6)C=C5)cc3)C2)CC1
REMARK SMILES IDX 19 1 18 2 17 3 15 4 16 5 14 7 13 8 9 9 10 10 90 11 11 12
REMARK SMILES IDX 12 13 7 14 8 15 6 16 5 17 2 18 3 19 92 20 4 21 91 22 1 24
REMARK SMILES IDX 20 28 21 29 22 30 23 31 24 32 25 33 26 35 27 36 28 37 89 38
REMARK SMILES IDX 29 39 88 40 30 41 31 42 32 43 82 44 33 45 87 46 81 47 83 48
REMARK SMILES IDX 34 49 86 50 80 51 79 52 35 54 67 55 47 56 66 57 48 58 51 59
REMARK SMILES IDX 65 60 84 61 49 62 50 63 64 65 85 66 52 67 36 68 37 69 45 70
REMARK SMILES IDX 38 71 39 72 43 73 46 74 40 75 41 76 44 77 42 78 68 79 69 80
REMARK SMILES IDX 77 81 70 82 71 83 75 84 78 85 72 86 73 87 76 88 74 89 53 90
REMARK SMILES IDX 54 91 62 92 55 93 56 94 60 95 63 96 57 97 58 98 61 99 59 100
REMARK H PARENT 17 6 5 23 1 25 1 26 1 27 24 34 83 53 51 64
REMARK Flexibility Score: inf
ROOT
ATOM      1  C   UNL A   1      35.084  32.096  27.716  1.00  0.00     0.021 C 
ENDROOT
BRANCH   1   2
ATOM      2  C   UNL A   1      35.039  30.583  27.921  1.00  0.00     0.116 C 
BRANCH   2   3
ATOM      3  N   UNL A   1      33.671  30.115  27.951  1.00  0.00    -0.356 N 
ATOM      4  C   UNL A   1      33.136  29.102  27.214  1.00  0.00     0.222 C 
ATOM      5  O   UNL A   1      31.923  28.902  27.238  1.00  0.00    -0.275 OA
ATOM      6  H   UNL A   1      33.062  30.577  28.572  1.00  0.00     0.163 HD
BRANCH   4   7
ATOM      7  C   UNL A   1      34.061  28.273  26.351  1.00  0.00     0.133 C 
BRANCH   7   8
ATOM      8  C   UNL A   1      33.372  27.884  25.040  1.00  0.00     0.147 C 
ATOM      9  N   UNL A   1      33.351  25.998  23.393  1.00  0.00    -0.333 N 
ATOM     10  C   UNL A   1      33.591  26.970  22.324  1.00  0.00     0.148 C 
ATOM     11  C   UNL A   1      33.773  26.461  24.695  1.00  0.00     0.152 C 
ATOM     12  C   UNL A   1      33.173  28.392  22.743  1.00  0.00     0.182 C 
ATOM     13  O   UNL A   1      33.777  28.783  23.993  1.00  0.00    -0.374 OA
BRANCH   9  14
ATOM     14  C   UNL A   1      33.337  24.630  23.099  1.00  0.00     0.277 C 
ATOM     15  O   UNL A   1      34.322  24.077  22.603  1.00  0.00    -0.268 OA
BRANCH  14  16
ATOM     16  C   UNL A   1      31.998  23.874  23.257  1.00  0.00     0.363 C 
BRANCH  16  17
ATOM     17  N   UNL A   1      31.836  22.932  24.374  1.00  0.00    -0.327 N 
ATOM     18  C   UNL A   1      34.022  21.622  25.879  1.00  0.00     0.192 C 
ATOM     19  C   UNL A   1      33.541  21.116  24.512  1.00  0.00     0.126 C 
ATOM     20  C   UNL A   1      33.556  23.046  26.170  1.00  0.00     0.126 C 
ATOM     21  C   UNL A   1      32.115  21.523  24.147  1.00  0.00     0.268 C 
ATOM     22  C   UNL A   1      32.128  23.354  25.731  1.00  0.00     0.268 C 
ATOM     23  H   UNL A   1      30.820  23.006  24.335  1.00  0.00     0.348 HD
BRANCH  18  24
ATOM     24  N   UNL A   1      33.648  20.737  26.983  1.00  0.00    -0.355 N 
ATOM     25  H   UNL A   1      32.804  20.221  26.734  1.00  0.00     0.344 HD
ATOM     26  H   UNL A   1      33.471  21.292  27.820  1.00  0.00     0.344 HD
ATOM     27  H   UNL A   1      34.407  20.080  27.165  1.00  0.00     0.344 HD
ENDBRANCH  18  24
ENDBRANCH  16  17
ENDBRANCH  14  16
ENDBRANCH   9  14
ENDBRANCH   7   8
ENDBRANCH   4   7
ENDBRANCH   2   3
ENDBRANCH   1   2
BRANCH   1  28
ATOM     28  C   UNL A   1      34.700  32.893  28.960  1.00  0.00     0.002 C 
BRANCH  28  29
ATOM     29  C   UNL A   1      34.624  34.408  28.747  1.00  0.00     0.002 C 
BRANCH  29  30
ATOM     30  C   UNL A   1      33.235  35.018  28.958  1.00  0.00     0.021 C 
BRANCH  30  31
ATOM     31  C   UNL A   1      33.247  36.353  29.695  1.00  0.00     0.116 C 
BRANCH  31  32
ATOM     32  N   UNL A   1      32.424  36.305  30.885  1.00  0.00    -0.352 N 
ATOM     33  C   UNL A   1      32.569  35.526  31.998  1.00  0.00     0.251 C 
ATOM     34  H   UNL A   1      31.654  36.919  30.894  1.00  0.00     0.163 HD
ATOM     35  O   UNL A   1      31.634  35.413  32.801  1.00  0.00    -0.269 OA
BRANCH  33  36
ATOM     36  C   UNL A   1      33.841  34.823  32.249  1.00  0.00     0.039 A 
ATOM     37  C   UNL A   1      33.813  33.453  32.506  1.00  0.00     0.014 A 
ATOM     38  C   UNL A   1      35.049  35.524  32.285  1.00  0.00     0.014 A 
ATOM     39  C   UNL A   1      35.000  32.780  32.792  1.00  0.00     0.010 A 
ATOM     40  C   UNL A   1      36.242  34.841  32.494  1.00  0.00     0.010 A 
ATOM     41  C   UNL A   1      36.224  33.469  32.782  1.00  0.00    -0.014 A 
BRANCH  41  42
ATOM     42  C   UNL A   1      37.484  32.773  33.138  1.00  0.00     0.031 A 
ATOM     43  C   UNL A   1      38.166  33.079  34.445  1.00  0.00     0.074 A 
ATOM     44  C   UNL A   1      38.023  31.889  32.278  1.00  0.00     0.049 A 
ATOM     45  N   UNL A   1      39.275  32.586  34.935  1.00  0.00    -0.248 NA
ATOM     46  C   UNL A   1      37.533  34.094  35.302  1.00  0.00     0.031 C 
ATOM     47  C   UNL A   1      37.479  31.551  30.962  1.00  0.00     0.029 A 
ATOM     48  N   UNL A   1      39.149  31.114  32.384  1.00  0.00    -0.354 N 
ATOM     49  C   UNL A   1      39.475  33.239  36.144  1.00  0.00     0.074 A 
ATOM     50  C   UNL A   1      38.410  34.205  36.287  1.00  0.00     0.031 C 
ATOM     51  C   UNL A   1      38.256  30.615  30.394  1.00  0.00     0.029 A 
ATOM     52  C   UNL A   1      39.364  30.307  31.293  1.00  0.00     0.049 A 
ATOM     53  H   UNL A   1      39.745  31.132  33.167  1.00  0.00     0.167 HD
ATOM     54  C   UNL A   1      40.446  33.031  37.066  1.00  0.00     0.037 A 
ATOM     55  C   UNL A   1      40.345  29.417  31.054  1.00  0.00     0.037 A 
ATOM     56  C   UNL A   1      41.485  32.046  36.933  1.00  0.00     0.049 A 
ATOM     57  C   UNL A   1      41.393  29.184  32.108  1.00  0.00     0.074 A 
ATOM     58  C   UNL A   1      42.490  31.720  37.828  1.00  0.00     0.029 A 
ATOM     59  N   UNL A   1      41.650  31.220  35.829  1.00  0.00    -0.354 N 
ATOM     60  N   UNL A   1      41.536  29.760  33.277  1.00  0.00    -0.248 NA
ATOM     61  C   UNL A   1      42.407  28.162  31.816  1.00  0.00     0.031 C 
ATOM     62  C   UNL A   1      43.285  30.724  37.250  1.00  0.00     0.029 A 
ATOM     63  C   UNL A   1      42.744  30.392  36.019  1.00  0.00     0.049 A 
ATOM     64  H   UNL A   1      41.074  31.222  35.031  1.00  0.00     0.167 HD
ATOM     65  C   UNL A   1      42.628  29.145  33.876  1.00  0.00     0.074 A 
ATOM     66  C   UNL A   1      43.101  28.143  32.944  1.00  0.00     0.031 C 
ATOM     67  C   UNL A   1      43.188  29.387  35.086  1.00  0.00     0.037 A 
BRANCH  54  68
ATOM     68  C   UNL A   1      40.422  33.883  38.303  1.00  0.00     0.064 A 
ATOM     69  C   UNL A   1      41.169  35.067  38.396  1.00  0.00     0.173 A 
ATOM     70  C   UNL A   1      39.619  33.529  39.398  1.00  0.00     0.173 A 
ATOM     71  F   UNL A   1      41.964  35.446  37.384  1.00  0.00    -0.203 F 
ATOM     72  C   UNL A   1      41.135  35.849  39.550  1.00  0.00     0.198 A 
ATOM     73  C   UNL A   1      39.563  34.328  40.536  1.00  0.00     0.198 A 
ATOM     74  F   UNL A   1      38.882  32.407  39.361  1.00  0.00    -0.203 F 
ATOM     75  F   UNL A   1      41.898  36.947  39.634  1.00  0.00    -0.200 F 
ATOM     76  C   UNL A   1      40.327  35.483  40.615  1.00  0.00     0.200 A 
ATOM     77  F   UNL A   1      38.772  33.980  41.560  1.00  0.00    -0.200 F 
ATOM     78  F   UNL A   1      40.290  36.239  41.720  1.00  0.00    -0.200 F 
ENDBRANCH  54  68
BRANCH  55  79
ATOM     79  C   UNL A   1      40.356  28.646  29.783  1.00  0.00     0.064 A 
ATOM     80  C   UNL A   1      41.071  29.107  28.668  1.00  0.00     0.173 A 
ATOM     81  C   UNL A   1      39.646  27.444  29.653  1.00  0.00     0.173 A 
ATOM     82  F   UNL A   1      41.752  30.259  28.739  1.00  0.00    -0.203 F 
ATOM     83  C   UNL A   1      41.052  28.409  27.463  1.00  0.00     0.198 A 
ATOM     84  C   UNL A   1      39.652  26.732  28.455  1.00  0.00     0.198 A 
ATOM     85  F   UNL A   1      38.955  26.956  30.693  1.00  0.00    -0.203 F 
ATOM     86  F   UNL A   1      41.701  28.898  26.397  1.00  0.00    -0.200 F 
ATOM     87  C   UNL A   1      40.345  27.219  27.359  1.00  0.00     0.200 A 
ATOM     88  F   UNL A   1      38.982  25.575  28.365  1.00  0.00    -0.200 F 
ATOM     89  F   UNL A   1      40.327  26.549  26.199  1.00  0.00    -0.200 F 
ENDBRANCH  55  79
BRANCH  67  90
ATOM     90  C   UNL A   1      44.340  28.515  35.493  1.00  0.00     0.064 A 
ATOM     91  C   UNL A   1      44.150  27.318  36.198  1.00  0.00     0.173 A 
ATOM     92  C   UNL A   1      45.653  28.877  35.156  1.00  0.00     0.173 A 
ATOM     93  F   UNL A   1      42.915  26.934  36.556  1.00  0.00    -0.203 F 
ATOM     94  C   UNL A   1      45.235  26.535  36.585  1.00  0.00     0.198 A 
ATOM     95  C   UNL A   1      46.733  28.076  35.514  1.00  0.00     0.198 A 
ATOM     96  F   UNL A   1      45.889  30.007  34.473  1.00  0.00    -0.203 F 
ATOM     97  F   UNL A   1      45.033  25.428  37.312  1.00  0.00    -0.200 F 
ATOM     98  C   UNL A   1      46.524  26.912  36.239  1.00  0.00     0.200 A 
ATOM     99  F   UNL A   1      47.977  28.433  35.165  1.00  0.00    -0.200 F 
ATOM    100  F   UNL A   1      47.567  26.158  36.611  1.00  0.00    -0.200 F 
ENDBRANCH  67  90
ENDBRANCH  41  42
ENDBRANCH  33  36
ENDBRANCH  31  32
ENDBRANCH  30  31
ENDBRANCH  29  30
ENDBRANCH  28  29
ENDBRANCH   1  28
TORSDOF 18
ENDMDL
MODEL 3
REMARK VINA RESULT:     -10.8      6.669     12.372
REMARK SMILES [NH3+]C1CC[NH+](CC(=O)N2CCO[C@H](CC(=O)NCCCCCCNC(=O)c3ccc(-c4c5nc(c(-c6c(F)c(F)c(F)c(F)c6F)c6ccc([nH]6)c(-c6c(F)c(F)c(F)c(F)c6F)c6nc(c(-c7c(F)c(F)c(F)c(F)c7F)c7ccc4[nH]7)C=C6)C=C5)cc3)C2)CC1
REMARK SMILES IDX 19 1 18 2 17 3 15 4 16 5 14 7 13 8 9 9 10 10 90 11 11 12
REMARK SMILES IDX 12 13 7 14 8 15 6 16 5 17 2 18 3 19 92 20 4 21 91 22 1 24
REMARK SMILES IDX 20 28 21 29 22 30 23 31 24 32 25 33 26 35 27 36 28 37 89 38
REMARK SMILES IDX 29 39 88 40 30 41 31 42 32 43 82 44 33 45 87 46 81 47 83 48
REMARK SMILES IDX 34 49 86 50 80 51 79 52 35 54 67 55 47 56 66 57 48 58 51 59
REMARK SMILES IDX 65 60 84 61 49 62 50 63 64 65 85 66 52 67 36 68 37 69 45 70
REMARK SMILES IDX 38 71 39 72 43 73 46 74 40 75 41 76 44 77 42 78 68 79 69 80
REMARK SMILES IDX 77 81 70 82 71 83 75 84 78 85 72 86 73 87 76 88 74 89 53 90
REMARK SMILES IDX 54 91 62 92 55 93 56 94 60 95 63 96 57 97 58 98 61 99 59 100
REMARK H PARENT 17 6 5 23 1 25 1 26 1 27 24 34 83 53 51 64
REMARK Flexibility Score: inf
ROOT
ATOM      1  C   UNL A   1      41.255  21.767  26.106  1.00  0.00     0.021 C 
ENDROOT
BRANCH   1   2
ATOM      2  C   UNL A   1      39.728  21.742  26.151  1.00  0.00     0.116 C 
BRANCH   2   3
ATOM      3  N   UNL A   1      39.224  22.858  26.920  1.00  0.00    -0.356 N 
ATOM      4  C   UNL A   1      38.354  23.817  26.496  1.00  0.00     0.222 C 
ATOM      5  O   UNL A   1      38.118  24.789  27.211  1.00  0.00    -0.275 OA
ATOM      6  H   UNL A   1      39.542  22.932  27.849  1.00  0.00     0.163 HD
BRANCH   4   7
ATOM      7  C   UNL A   1      37.731  23.669  25.126  1.00  0.00     0.133 C 
BRANCH   7   8
ATOM      8  C   UNL A   1      36.291  23.159  25.241  1.00  0.00     0.147 C 
ATOM      9  N   UNL A   1      34.015  24.018  25.835  1.00  0.00    -0.333 N 
ATOM     10  C   UNL A   1      33.884  22.918  26.793  1.00  0.00     0.148 C 
ATOM     11  C   UNL A   1      35.386  24.347  25.521  1.00  0.00     0.152 C 
ATOM     12  C   UNL A   1      34.835  21.755  26.456  1.00  0.00     0.182 C 
ATOM     13  O   UNL A   1      36.198  22.201  26.308  1.00  0.00    -0.374 OA
BRANCH   9  14
ATOM     14  C   UNL A   1      33.018  24.998  25.760  1.00  0.00     0.277 C 
ATOM     15  O   UNL A   1      33.241  26.159  26.111  1.00  0.00    -0.268 OA
BRANCH  14  16
ATOM     16  C   UNL A   1      31.589  24.543  25.383  1.00  0.00     0.363 C 
BRANCH  16  17
ATOM     17  N   UNL A   1      31.178  24.569  23.972  1.00  0.00    -0.327 N 
ATOM     18  C   UNL A   1      32.710  25.752  21.733  1.00  0.00     0.192 C 
ATOM     19  C   UNL A   1      31.855  26.597  22.687  1.00  0.00     0.126 C 
ATOM     20  C   UNL A   1      33.001  24.361  22.290  1.00  0.00     0.126 C 
ATOM     21  C   UNL A   1      30.740  25.831  23.395  1.00  0.00     0.268 C 
ATOM     22  C   UNL A   1      31.827  23.702  23.008  1.00  0.00     0.268 C 
ATOM     23  H   UNL A   1      30.317  24.064  24.178  1.00  0.00     0.348 HD
BRANCH  18  24
ATOM     24  N   UNL A   1      32.137  25.646  20.391  1.00  0.00    -0.355 N 
ATOM     25  H   UNL A   1      31.120  25.609  20.457  1.00  0.00     0.344 HD
ATOM     26  H   UNL A   1      32.479  24.797  19.941  1.00  0.00     0.344 HD
ATOM     27  H   UNL A   1      32.413  26.457  19.838  1.00  0.00     0.344 HD
ENDBRANCH  18  24
ENDBRANCH  16  17
ENDBRANCH  14  16
ENDBRANCH   9  14
ENDBRANCH   7   8
ENDBRANCH   4   7
ENDBRANCH   2   3
ENDBRANCH   1   2
BRANCH   1  28
ATOM     28  C   UNL A   1      41.912  21.218  27.369  1.00  0.00     0.002 C 
BRANCH  28  29
ATOM     29  C   UNL A   1      41.958  19.689  27.450  1.00  0.00     0.002 C 
BRANCH  29  30
ATOM     30  C   UNL A   1      42.362  18.989  26.148  1.00  0.00     0.021 C 
BRANCH  30  31
ATOM     31  C   UNL A   1      43.820  18.545  26.107  1.00  0.00     0.116 C 
BRANCH  31  32
ATOM     32  N   UNL A   1      44.334  18.551  24.753  1.00  0.00    -0.352 N 
ATOM     33  C   UNL A   1      44.619  19.618  23.948  1.00  0.00     0.251 C 
ATOM     34  H   UNL A   1      44.501  17.665  24.358  1.00  0.00     0.163 HD
ATOM     35  O   UNL A   1      44.791  19.450  22.735  1.00  0.00    -0.269 OA
BRANCH  33  36
ATOM     36  C   UNL A   1      44.729  20.971  24.524  1.00  0.00     0.039 A 
ATOM     37  C   UNL A   1      44.254  22.056  23.788  1.00  0.00     0.014 A 
ATOM     38  C   UNL A   1      45.349  21.173  25.760  1.00  0.00     0.014 A 
ATOM     39  C   UNL A   1      44.392  23.348  24.296  1.00  0.00     0.010 A 
ATOM     40  C   UNL A   1      45.418  22.452  26.302  1.00  0.00     0.010 A 
ATOM     41  C   UNL A   1      44.971  23.554  25.560  1.00  0.00    -0.014 A 
BRANCH  41  42
ATOM     42  C   UNL A   1      45.171  24.927  26.083  1.00  0.00     0.031 A 
ATOM     43  C   UNL A   1      46.533  25.562  26.020  1.00  0.00     0.074 A 
ATOM     44  C   UNL A   1      44.135  25.587  26.632  1.00  0.00     0.049 A 
ATOM     45  N   UNL A   1      46.916  26.745  26.429  1.00  0.00    -0.248 NA
ATOM     46  C   UNL A   1      47.618  24.749  25.446  1.00  0.00     0.031 C 
ATOM     47  C   UNL A   1      42.782  25.054  26.794  1.00  0.00     0.029 A 
ATOM     48  N   UNL A   1      44.061  26.852  27.158  1.00  0.00    -0.354 N 
ATOM     49  C   UNL A   1      48.280  26.809  26.175  1.00  0.00     0.074 A 
ATOM     50  C   UNL A   1      48.672  25.528  25.634  1.00  0.00     0.031 C 
ATOM     51  C   UNL A   1      42.003  25.995  27.353  1.00  0.00     0.029 A 
ATOM     52  C   UNL A   1      42.808  27.185  27.611  1.00  0.00     0.049 A 
ATOM     53  H   UNL A   1      44.831  27.463  27.204  1.00  0.00     0.167 HD
ATOM     54  C   UNL A   1      49.123  27.854  26.352  1.00  0.00     0.037 A 
ATOM     55  C   UNL A   1      42.363  28.327  28.167  1.00  0.00     0.037 A 
ATOM     56  C   UNL A   1      48.720  29.138  26.862  1.00  0.00     0.049 A 
ATOM     57  C   UNL A   1      43.315  29.482  28.324  1.00  0.00     0.074 A 
ATOM     58  C   UNL A   1      49.484  30.279  27.037  1.00  0.00     0.029 A 
ATOM     59  N   UNL A   1      47.433  29.450  27.277  1.00  0.00    -0.354 N 
ATOM     60  N   UNL A   1      44.588  29.555  28.019  1.00  0.00    -0.248 NA
ATOM     61  C   UNL A   1      42.761  30.722  28.885  1.00  0.00     0.031 C 
ATOM     62  C   UNL A   1      48.668  31.270  27.593  1.00  0.00     0.029 A 
ATOM     63  C   UNL A   1      47.384  30.764  27.714  1.00  0.00     0.049 A 
ATOM     64  H   UNL A   1      46.668  28.831  27.261  1.00  0.00     0.167 HD
ATOM     65  C   UNL A   1      44.978  30.855  28.314  1.00  0.00     0.074 A 
ATOM     66  C   UNL A   1      43.801  31.539  28.809  1.00  0.00     0.031 C 
ATOM     67  C   UNL A   1      46.198  31.431  28.187  1.00  0.00     0.037 A 
BRANCH  54  68
ATOM     68  C   UNL A   1      50.566  27.652  25.984  1.00  0.00     0.064 A 
ATOM     69  C   UNL A   1      51.525  27.283  26.939  1.00  0.00     0.173 A 
ATOM     70  C   UNL A   1      50.989  27.797  24.655  1.00  0.00     0.173 A 
ATOM     71  F   UNL A   1      51.176  27.144  28.228  1.00  0.00    -0.203 F 
ATOM     72  C   UNL A   1      52.859  27.096  26.583  1.00  0.00     0.198 A 
ATOM     73  C   UNL A   1      52.316  27.579  24.296  1.00  0.00     0.198 A 
ATOM     74  F   UNL A   1      50.112  28.145  23.700  1.00  0.00    -0.203 F 
ATOM     75  F   UNL A   1      53.766  26.796  27.523  1.00  0.00    -0.200 F 
ATOM     76  C   UNL A   1      53.252  27.237  25.261  1.00  0.00     0.200 A 
ATOM     77  F   UNL A   1      52.693  27.703  23.015  1.00  0.00    -0.200 F 
ATOM     78  F   UNL A   1      54.533  27.050  24.918  1.00  0.00    -0.200 F 
ENDBRANCH  54  68
BRANCH  55  79
ATOM     79  C   UNL A   1      40.938  28.451  28.573  1.00  0.00     0.064 A 
ATOM     80  C   UNL A   1      39.981  28.974  27.691  1.00  0.00     0.173 A 
ATOM     81  C   UNL A   1      40.508  28.061  29.849  1.00  0.00     0.173 A 
ATOM     82  F   UNL A   1      40.348  29.375  26.466  1.00  0.00    -0.203 F 
ATOM     83  C   UNL A   1      38.653  29.130  28.082  1.00  0.00     0.198 A 
ATOM     84  C   UNL A   1      39.173  28.190  30.227  1.00  0.00     0.198 A 
ATOM     85  F   UNL A   1      41.382  27.546  30.725  1.00  0.00    -0.203 F 
ATOM     86  F   UNL A   1      37.770  29.681  27.238  1.00  0.00    -0.200 F 
ATOM     87  C   UNL A   1      38.249  28.733  29.348  1.00  0.00     0.200 A 
ATOM     88  F   UNL A   1      38.784  27.790  31.446  1.00  0.00    -0.200 F 
ATOM     89  F   UNL A   1      36.972  28.883  29.723  1.00  0.00    -0.200 F 
ENDBRANCH  55  79
BRANCH  67  90
ATOM     90  C   UNL A   1      46.307  32.887  28.535  1.00  0.00     0.064 A 
ATOM     91  C   UNL A   1      46.100  33.895  27.583  1.00  0.00     0.173 A 
ATOM     92  C   UNL A   1      46.606  33.277  29.850  1.00  0.00     0.173 A 
ATOM     93  F   UNL A   1      45.825  33.574  26.309  1.00  0.00    -0.203 F 
ATOM     94  C   UNL A   1      46.227  35.239  27.924  1.00  0.00     0.198 A 
ATOM     95  C   UNL A   1      46.700  34.622  30.196  1.00  0.00     0.198 A 
ATOM     96  F   UNL A   1      46.803  32.353  30.802  1.00  0.00    -0.203 F 
ATOM     97  F   UNL A   1      46.087  36.183  26.983  1.00  0.00    -0.200 F 
ATOM     98  C   UNL A   1      46.522  35.602  29.230  1.00  0.00     0.200 A 
ATOM     99  F   UNL A   1      46.969  34.970  31.462  1.00  0.00    -0.200 F 
ATOM    100  F   UNL A   1      46.644  36.895  29.557  1.00  0.00    -0.200 F 
ENDBRANCH  67  90
ENDBRANCH  41  42
ENDBRANCH  33  36
ENDBRANCH  31  32
ENDBRANCH  30  31
ENDBRANCH  29  30
ENDBRANCH  28  29
ENDBRANCH   1  28
TORSDOF 18
ENDMDL
