MODEL 1
REMARK VINA RESULT:     -11.9      0.000      0.000
REMARK SMILES O=C(NCCCCCCNC(=O)[C@H]1CC(=O)N(CCc2ccc3c(c2)OCO3)C1)c1ccc(-c2c3nc(c(-c4c(F)c(F)c(F)c(F)c4F)c4ccc([nH]4)c(-c4c(F)c(F)c(F)c(F)c4F)c4nc(c(-c5c(F)c(F)c(F)c(F)c5F)c5ccc2[nH]5)C=C4)C=C3)cc1
REMARK SMILES IDX 7 1 6 2 5 3 4 4 3 5 1 6 2 7 30 9 31 10 92 11 32 12 91 13
REMARK SMILES IDX 33 14 34 15 35 16 85 17 36 18 90 19 84 20 86 21 37 22 89 23
REMARK SMILES IDX 83 24 82 25 38 27 70 28 50 29 69 30 51 31 54 32 68 33 87 34
REMARK SMILES IDX 52 35 53 36 67 38 88 39 55 40 39 41 40 42 48 43 41 44 42 45
REMARK SMILES IDX 46 46 49 47 43 48 44 49 47 50 45 51 71 52 72 53 80 54 73 55
REMARK SMILES IDX 74 56 78 57 81 58 75 59 76 60 79 61 77 62 56 63 57 64 65 65
REMARK SMILES IDX 58 66 59 67 63 68 66 69 60 70 61 71 64 72 62 73 8 74 9 75
REMARK SMILES IDX 10 76 11 77 12 79 13 80 14 81 29 82 15 83 17 84 16 85 18 86
REMARK SMILES IDX 19 87 20 88 21 89 25 90 22 91 24 92 23 93 26 94 28 95 27 96
REMARK H PARENT 3 8 86 26 54 37 10 78
REMARK Flexibility Score: inf
ROOT
ATOM      1  C   UNL A   1      35.407  33.686  28.726  1.00  0.00     0.002 C 
ENDROOT
BRANCH   1   2
ATOM      2  C   UNL A   1      34.615  34.842  28.106  1.00  0.00     0.002 C 
BRANCH   2   3
ATOM      3  C   UNL A   1      33.319  35.206  28.826  1.00  0.00     0.021 C 
BRANCH   3   4
ATOM      4  C   UNL A   1      33.448  36.355  29.815  1.00  0.00     0.116 C 
BRANCH   4   5
ATOM      5  N   UNL A   1      32.449  36.294  30.868  1.00  0.00    -0.352 N 
ATOM      6  O   UNL A   1      31.478  35.485  32.742  1.00  0.00    -0.269 OA
ATOM      7  C   UNL A   1      32.477  35.573  32.036  1.00  0.00     0.251 C 
ATOM      8  H   UNL A   1      31.646  36.843  30.725  1.00  0.00     0.163 HD
BRANCH   7   9
ATOM      9  C   UNL A   1      33.723  34.881  32.427  1.00  0.00     0.039 A 
ATOM     10  C   UNL A   1      34.951  35.542  32.341  1.00  0.00     0.014 A 
ATOM     11  C   UNL A   1      33.662  33.559  32.873  1.00  0.00     0.014 A 
ATOM     12  C   UNL A   1      36.127  34.840  32.563  1.00  0.00     0.010 A 
ATOM     13  C   UNL A   1      34.842  32.885  33.195  1.00  0.00     0.010 A 
ATOM     14  C   UNL A   1      36.086  33.514  33.022  1.00  0.00    -0.014 A 
BRANCH  14  15
ATOM     15  C   UNL A   1      37.353  32.841  33.403  1.00  0.00     0.031 A 
ATOM     16  C   UNL A   1      38.033  33.136  34.708  1.00  0.00     0.074 A 
ATOM     17  C   UNL A   1      37.878  31.942  32.548  1.00  0.00     0.049 A 
ATOM     18  N   UNL A   1      39.149  32.642  35.184  1.00  0.00    -0.248 NA
ATOM     19  C   UNL A   1      37.387  34.116  35.593  1.00  0.00     0.031 C 
ATOM     20  C   UNL A   1      37.306  31.586  31.247  1.00  0.00     0.029 A 
ATOM     21  N   UNL A   1      38.997  31.156  32.642  1.00  0.00    -0.354 N 
ATOM     22  C   UNL A   1      39.348  33.259  36.412  1.00  0.00     0.074 A 
ATOM     23  C   UNL A   1      38.252  34.186  36.597  1.00  0.00     0.031 C 
ATOM     24  C   UNL A   1      38.051  30.626  30.684  1.00  0.00     0.029 A 
ATOM     25  C   UNL A   1      39.195  30.353  31.546  1.00  0.00     0.049 A 
ATOM     26  H   UNL A   1      39.601  31.166  33.420  1.00  0.00     0.167 HD
ATOM     27  C   UNL A   1      40.352  33.060  37.301  1.00  0.00     0.037 A 
ATOM     28  C   UNL A   1      40.202  29.513  31.249  1.00  0.00     0.037 A 
ATOM     29  C   UNL A   1      41.434  32.127  37.104  1.00  0.00     0.049 A 
ATOM     30  C   UNL A   1      41.322  29.350  32.236  1.00  0.00     0.074 A 
ATOM     31  C   UNL A   1      42.480  31.828  37.961  1.00  0.00     0.029 A 
ATOM     32  N   UNL A   1      41.617  31.352  35.968  1.00  0.00    -0.354 N 
ATOM     33  N   UNL A   1      41.475  29.906  33.412  1.00  0.00    -0.248 NA
ATOM     34  C   UNL A   1      42.410  28.441  31.853  1.00  0.00     0.031 C 
ATOM     35  C   UNL A   1      43.328  30.921  37.318  1.00  0.00     0.029 A 
ATOM     36  C   UNL A   1      42.775  30.599  36.089  1.00  0.00     0.049 A 
ATOM     37  H   UNL A   1      41.014  31.339  35.190  1.00  0.00     0.167 HD
ATOM     38  C   UNL A   1      42.661  29.396  33.922  1.00  0.00     0.074 A 
ATOM     39  C   UNL A   1      43.173  28.469  32.935  1.00  0.00     0.031 C 
ATOM     40  C   UNL A   1      43.269  29.673  35.101  1.00  0.00     0.037 A 
BRANCH  27  41
ATOM     41  C   UNL A   1      40.346  33.875  38.563  1.00  0.00     0.064 A 
ATOM     42  C   UNL A   1      39.666  33.453  39.716  1.00  0.00     0.173 A 
ATOM     43  C   UNL A   1      41.088  35.065  38.642  1.00  0.00     0.173 A 
ATOM     44  F   UNL A   1      38.934  32.330  39.694  1.00  0.00    -0.203 F 
ATOM     45  C   UNL A   1      39.710  34.202  40.890  1.00  0.00     0.198 A 
ATOM     46  C   UNL A   1      41.156  35.794  39.827  1.00  0.00     0.198 A 
ATOM     47  F   UNL A   1      41.765  35.512  37.574  1.00  0.00    -0.203 F 
ATOM     48  F   UNL A   1      39.019  33.800  41.965  1.00  0.00    -0.200 F 
ATOM     49  C   UNL A   1      40.463  35.366  40.948  1.00  0.00     0.200 A 
ATOM     50  F   UNL A   1      41.898  36.909  39.884  1.00  0.00    -0.200 F 
ATOM     51  F   UNL A   1      40.516  36.075  42.083  1.00  0.00    -0.200 F 
ENDBRANCH  27  41
BRANCH  28  52
ATOM     52  C   UNL A   1      40.200  28.779  29.956  1.00  0.00     0.064 A 
ATOM     53  C   UNL A   1      39.564  27.537  29.829  1.00  0.00     0.173 A 
ATOM     54  C   UNL A   1      40.841  29.302  28.822  1.00  0.00     0.173 A 
ATOM     55  F   UNL A   1      38.951  26.988  30.888  1.00  0.00    -0.203 F 
ATOM     56  C   UNL A   1      39.593  26.833  28.628  1.00  0.00     0.198 A 
ATOM     57  C   UNL A   1      40.837  28.615  27.611  1.00  0.00     0.198 A 
ATOM     58  F   UNL A   1      41.456  30.492  28.887  1.00  0.00    -0.203 F 
ATOM     59  F   UNL A   1      39.027  25.621  28.551  1.00  0.00    -0.200 F 
ATOM     60  C   UNL A   1      40.224  27.375  27.518  1.00  0.00     0.200 A 
ATOM     61  F   UNL A   1      41.428  29.154  26.536  1.00  0.00    -0.200 F 
ATOM     62  F   UNL A   1      40.249  26.699  26.362  1.00  0.00    -0.200 F 
ENDBRANCH  28  52
BRANCH  40  63
ATOM     63  C   UNL A   1      44.536  28.926  35.409  1.00  0.00     0.064 A 
ATOM     64  C   UNL A   1      45.796  29.421  35.041  1.00  0.00     0.173 A 
ATOM     65  C   UNL A   1      44.487  27.710  36.106  1.00  0.00     0.173 A 
ATOM     66  F   UNL A   1      45.897  30.571  34.356  1.00  0.00    -0.203 F 
ATOM     67  C   UNL A   1      46.956  28.709  35.331  1.00  0.00     0.198 A 
ATOM     68  C   UNL A   1      45.652  27.020  36.429  1.00  0.00     0.198 A 
ATOM     69  F   UNL A   1      43.308  27.194  36.487  1.00  0.00    -0.203 F 
ATOM     70  F   UNL A   1      48.144  29.172  34.918  1.00  0.00    -0.200 F 
ATOM     71  C   UNL A   1      46.884  27.514  36.032  1.00  0.00     0.200 A 
ATOM     72  F   UNL A   1      45.580  25.874  37.119  1.00  0.00    -0.200 F 
ATOM     73  F   UNL A   1      48.004  26.835  36.317  1.00  0.00    -0.200 F 
ENDBRANCH  40  63
ENDBRANCH  14  15
ENDBRANCH   7   9
ENDBRANCH   4   5
ENDBRANCH   3   4
ENDBRANCH   2   3
ENDBRANCH   1   2
BRANCH   1  74
ATOM     74  C   UNL A   1      34.569  32.528  29.277  1.00  0.00     0.021 C 
BRANCH  74  75
ATOM     75  C   UNL A   1      34.439  31.332  28.343  1.00  0.00     0.116 C 
BRANCH  75  76
ATOM     76  N   UNL A   1      33.289  31.456  27.474  1.00  0.00    -0.356 N 
ATOM     77  C   UNL A   1      32.519  30.524  26.857  1.00  0.00     0.225 C 
ATOM     78  H   UNL A   1      33.016  32.386  27.299  1.00  0.00     0.163 HD
ATOM     79  O   UNL A   1      31.690  30.954  26.051  1.00  0.00    -0.275 OA
BRANCH  77  80
ATOM     80  C   UNL A   1      32.737  29.029  27.063  1.00  0.00     0.107 C 
ATOM     81  C   UNL A   1      31.515  28.237  27.529  1.00  0.00     0.115 C 
ATOM     82  C   UNL A   1      33.150  28.374  25.740  1.00  0.00     0.133 C 
ATOM     83  C   UNL A   1      31.383  27.071  26.601  1.00  0.00     0.223 C 
ATOM     84  N   UNL A   1      32.275  27.238  25.569  1.00  0.00    -0.342 N 
ATOM     85  O   UNL A   1      30.575  26.170  26.731  1.00  0.00    -0.275 OA
BRANCH  84  86
ATOM     86  C   UNL A   1      32.268  26.408  24.371  1.00  0.00     0.124 C 
BRANCH  86  87
ATOM     87  C   UNL A   1      32.110  27.212  23.064  1.00  0.00     0.057 C 
BRANCH  87  88
ATOM     88  C   UNL A   1      30.762  27.886  22.936  1.00  0.00    -0.042 A 
ATOM     89  C   UNL A   1      29.584  27.190  23.292  1.00  0.00     0.008 A 
ATOM     90  C   UNL A   1      30.674  29.227  22.530  1.00  0.00     0.054 A 
ATOM     91  C   UNL A   1      28.347  27.839  23.338  1.00  0.00     0.051 A 
ATOM     92  C   UNL A   1      29.432  29.829  22.543  1.00  0.00     0.166 A 
ATOM     93  C   UNL A   1      28.305  29.160  22.955  1.00  0.00     0.165 A 
ATOM     94  O   UNL A   1      29.168  31.116  22.188  1.00  0.00    -0.454 OA
ATOM     95  O   UNL A   1      27.197  29.947  22.939  1.00  0.00    -0.454 OA
ATOM     96  C   UNL A   1      27.737  31.157  22.373  1.00  0.00     0.468 C 
ENDBRANCH  87  88
ENDBRANCH  86  87
ENDBRANCH  84  86
ENDBRANCH  77  80
ENDBRANCH  75  76
ENDBRANCH  74  75
ENDBRANCH   1  74
TORSDOF 16
ENDMDL
MODEL 2
REMARK VINA RESULT:     -11.9      0.975      7.421
REMARK SMILES O=C(NCCCCCCNC(=O)[C@H]1CC(=O)N(CCc2ccc3c(c2)OCO3)C1)c1ccc(-c2c3nc(c(-c4c(F)c(F)c(F)c(F)c4F)c4ccc([nH]4)c(-c4c(F)c(F)c(F)c(F)c4F)c4nc(c(-c5c(F)c(F)c(F)c(F)c5F)c5ccc2[nH]5)C=C4)C=C3)cc1
REMARK SMILES IDX 7 1 6 2 5 3 4 4 3 5 1 6 2 7 30 9 31 10 92 11 32 12 91 13
REMARK SMILES IDX 33 14 34 15 35 16 85 17 36 18 90 19 84 20 86 21 37 22 89 23
REMARK SMILES IDX 83 24 82 25 38 27 70 28 50 29 69 30 51 31 54 32 68 33 87 34
REMARK SMILES IDX 52 35 53 36 67 38 88 39 55 40 39 41 40 42 48 43 41 44 42 45
REMARK SMILES IDX 46 46 49 47 43 48 44 49 47 50 45 51 71 52 72 53 80 54 73 55
REMARK SMILES IDX 74 56 78 57 81 58 75 59 76 60 79 61 77 62 56 63 57 64 65 65
REMARK SMILES IDX 58 66 59 67 63 68 66 69 60 70 61 71 64 72 62 73 8 74 9 75
REMARK SMILES IDX 10 76 11 77 12 79 13 80 14 81 29 82 15 83 17 84 16 85 18 86
REMARK SMILES IDX 19 87 20 88 21 89 25 90 22 91 24 92 23 93 26 94 28 95 27 96
REMARK H PARENT 3 8 86 26 54 37 10 78
REMARK Flexibility Score: inf
ROOT
ATOM      1  C   UNL A   1      34.496  32.134  28.663  1.00  0.00     0.002 C 
ENDROOT
BRANCH   1   2
ATOM      2  C   UNL A   1      34.643  33.659  28.655  1.00  0.00     0.002 C 
BRANCH   2   3
ATOM      3  C   UNL A   1      33.334  34.441  28.726  1.00  0.00     0.021 C 
BRANCH   3   4
ATOM      4  C   UNL A   1      33.473  35.857  29.266  1.00  0.00     0.116 C 
BRANCH   4   5
ATOM      5  N   UNL A   1      32.599  36.106  30.399  1.00  0.00    -0.352 N 
ATOM      6  O   UNL A   1      31.783  35.782  32.482  1.00  0.00    -0.269 OA
ATOM      7  C   UNL A   1      32.699  35.627  31.682  1.00  0.00     0.251 C 
ATOM      8  H   UNL A   1      31.833  36.697  30.224  1.00  0.00     0.163 HD
BRANCH   7   9
ATOM      9  C   UNL A   1      33.920  34.898  32.086  1.00  0.00     0.039 A 
ATOM     10  C   UNL A   1      35.134  35.578  32.216  1.00  0.00     0.014 A 
ATOM     11  C   UNL A   1      33.851  33.525  32.326  1.00  0.00     0.014 A 
ATOM     12  C   UNL A   1      36.301  34.864  32.446  1.00  0.00     0.010 A 
ATOM     13  C   UNL A   1      35.011  32.823  32.659  1.00  0.00     0.010 A 
ATOM     14  C   UNL A   1      36.250  33.484  32.701  1.00  0.00    -0.014 A 
BRANCH  14  15
ATOM     15  C   UNL A   1      37.492  32.776  33.100  1.00  0.00     0.031 A 
ATOM     16  C   UNL A   1      38.134  31.756  32.207  1.00  0.00     0.074 A 
ATOM     17  C   UNL A   1      38.043  33.083  34.291  1.00  0.00     0.049 A 
ATOM     18  N   UNL A   1      39.213  31.044  32.413  1.00  0.00    -0.248 NA
ATOM     19  C   UNL A   1      37.481  31.491  30.916  1.00  0.00     0.031 C 
ATOM     20  C   UNL A   1      37.498  34.053  35.245  1.00  0.00     0.029 A 
ATOM     21  N   UNL A   1      39.183  32.628  34.900  1.00  0.00    -0.354 N 
ATOM     22  C   UNL A   1      39.361  30.238  31.292  1.00  0.00     0.074 A 
ATOM     23  C   UNL A   1      38.244  30.527  30.418  1.00  0.00     0.031 C 
ATOM     24  C   UNL A   1      38.322  34.149  36.296  1.00  0.00     0.029 A 
ATOM     25  C   UNL A   1      39.411  33.195  36.130  1.00  0.00     0.049 A 
ATOM     26  H   UNL A   1      39.781  31.957  34.496  1.00  0.00     0.167 HD
ATOM     27  C   UNL A   1      40.344  29.345  31.022  1.00  0.00     0.037 A 
ATOM     28  C   UNL A   1      40.372  32.954  37.039  1.00  0.00     0.037 A 
ATOM     29  C   UNL A   1      41.454  29.072  31.901  1.00  0.00     0.049 A 
ATOM     30  C   UNL A   1      41.421  31.925  36.727  1.00  0.00     0.074 A 
ATOM     31  C   UNL A   1      42.520  28.211  31.700  1.00  0.00     0.029 A 
ATOM     32  N   UNL A   1      41.636  29.645  33.151  1.00  0.00    -0.354 N 
ATOM     33  N   UNL A   1      41.573  31.202  35.645  1.00  0.00    -0.248 NA
ATOM     34  C   UNL A   1      42.431  31.680  37.762  1.00  0.00     0.031 C 
ATOM     35  C   UNL A   1      43.311  28.216  32.854  1.00  0.00     0.029 A 
ATOM     36  C   UNL A   1      42.779  29.134  33.746  1.00  0.00     0.049 A 
ATOM     37  H   UNL A   1      41.041  30.317  33.556  1.00  0.00     0.167 HD
ATOM     38  C   UNL A   1      42.710  30.435  35.857  1.00  0.00     0.074 A 
ATOM     39  C   UNL A   1      43.220  30.800  37.162  1.00  0.00     0.031 C 
ATOM     40  C   UNL A   1      43.279  29.512  35.044  1.00  0.00     0.037 A 
BRANCH  27  41
ATOM     41  C   UNL A   1      40.264  28.579  29.731  1.00  0.00     0.064 A 
ATOM     42  C   UNL A   1      40.898  29.024  28.563  1.00  0.00     0.173 A 
ATOM     43  C   UNL A   1      39.595  27.344  29.681  1.00  0.00     0.173 A 
ATOM     44  F   UNL A   1      41.543  30.200  28.551  1.00  0.00    -0.203 F 
ATOM     45  C   UNL A   1      40.849  28.276  27.388  1.00  0.00     0.198 A 
ATOM     46  C   UNL A   1      39.574  26.584  28.514  1.00  0.00     0.198 A 
ATOM     47  F   UNL A   1      38.977  26.865  30.771  1.00  0.00    -0.203 F 
ATOM     48  F   UNL A   1      41.428  28.742  26.273  1.00  0.00    -0.200 F 
ATOM     49  C   UNL A   1      40.195  27.052  27.368  1.00  0.00     0.200 A 
ATOM     50  F   UNL A   1      38.957  25.394  28.502  1.00  0.00    -0.200 F 
ATOM     51  F   UNL A   1      40.163  26.328  26.241  1.00  0.00    -0.200 F 
ENDBRANCH  27  41
BRANCH  28  52
ATOM     52  C   UNL A   1      40.372  33.687  38.332  1.00  0.00     0.064 A 
ATOM     53  C   UNL A   1      39.541  33.292  39.389  1.00  0.00     0.173 A 
ATOM     54  C   UNL A   1      41.197  34.805  38.534  1.00  0.00     0.173 A 
ATOM     55  F   UNL A   1      38.723  32.240  39.239  1.00  0.00    -0.203 F 
ATOM     56  C   UNL A   1      39.515  34.002  40.586  1.00  0.00     0.198 A 
ATOM     57  C   UNL A   1      41.198  35.490  39.745  1.00  0.00     0.198 A 
ATOM     58  F   UNL A   1      42.019  35.219  37.557  1.00  0.00    -0.203 F 
ATOM     59  F   UNL A   1      38.670  33.637  41.560  1.00  0.00    -0.200 F 
ATOM     60  C   UNL A   1      40.348  35.097  40.767  1.00  0.00     0.200 A 
ATOM     61  F   UNL A   1      42.021  36.533  39.921  1.00  0.00    -0.200 F 
ATOM     62  F   UNL A   1      40.325  35.776  41.920  1.00  0.00    -0.200 F 
ENDBRANCH  28  52
BRANCH  40  63
ATOM     63  C   UNL A   1      44.547  28.866  35.524  1.00  0.00     0.064 A 
ATOM     64  C   UNL A   1      44.537  27.673  36.262  1.00  0.00     0.173 A 
ATOM     65  C   UNL A   1      45.791  29.437  35.219  1.00  0.00     0.173 A 
ATOM     66  F   UNL A   1      43.373  27.094  36.597  1.00  0.00    -0.203 F 
ATOM     67  C   UNL A   1      45.724  27.094  36.703  1.00  0.00     0.198 A 
ATOM     68  C   UNL A   1      46.978  28.836  35.628  1.00  0.00     0.198 A 
ATOM     69  F   UNL A   1      45.859  30.575  34.512  1.00  0.00    -0.203 F 
ATOM     70  F   UNL A   1      45.688  25.986  37.456  1.00  0.00    -0.200 F 
ATOM     71  C   UNL A   1      46.943  27.671  36.378  1.00  0.00     0.200 A 
ATOM     72  F   UNL A   1      48.155  29.387  35.300  1.00  0.00    -0.200 F 
ATOM     73  F   UNL A   1      48.085  27.108  36.797  1.00  0.00    -0.200 F 
ENDBRANCH  40  63
ENDBRANCH  14  15
ENDBRANCH   7   9
ENDBRANCH   4   5
ENDBRANCH   3   4
ENDBRANCH   2   3
ENDBRANCH   1   2
BRANCH   1  74
ATOM     74  C   UNL A   1      35.410  31.374  27.696  1.00  0.00     0.021 C 
BRANCH  74  75
ATOM     75  C   UNL A   1      35.375  29.859  27.842  1.00  0.00     0.116 C 
BRANCH  75  76
ATOM     76  N   UNL A   1      34.021  29.366  27.965  1.00  0.00    -0.356 N 
ATOM     77  C   UNL A   1      33.184  28.790  27.065  1.00  0.00     0.225 C 
ATOM     78  H   UNL A   1      33.636  29.468  28.866  1.00  0.00     0.163 HD
ATOM     79  O   UNL A   1      32.023  28.612  27.441  1.00  0.00    -0.275 OA
BRANCH  77  80
ATOM     80  C   UNL A   1      33.621  28.480  25.637  1.00  0.00     0.107 C 
ATOM     81  C   UNL A   1      33.686  26.997  25.268  1.00  0.00     0.115 C 
ATOM     82  C   UNL A   1      32.627  29.090  24.642  1.00  0.00     0.133 C 
ATOM     83  C   UNL A   1      32.910  26.839  23.999  1.00  0.00     0.223 C 
ATOM     84  N   UNL A   1      32.271  28.026  23.733  1.00  0.00    -0.342 N 
ATOM     85  O   UNL A   1      32.832  25.807  23.360  1.00  0.00    -0.275 OA
BRANCH  84  86
ATOM     86  C   UNL A   1      31.257  28.167  22.697  1.00  0.00     0.124 C 
BRANCH  86  87
ATOM     87  C   UNL A   1      29.830  28.360  23.251  1.00  0.00     0.057 C 
BRANCH  87  88
ATOM     88  C   UNL A   1      29.229  29.704  22.901  1.00  0.00    -0.042 A 
ATOM     89  C   UNL A   1      29.216  30.746  23.857  1.00  0.00     0.008 A 
ATOM     90  C   UNL A   1      28.744  29.950  21.606  1.00  0.00     0.054 A 
ATOM     91  C   UNL A   1      28.817  32.039  23.510  1.00  0.00     0.051 A 
ATOM     92  C   UNL A   1      28.315  31.227  21.306  1.00  0.00     0.166 A 
ATOM     93  C   UNL A   1      28.370  32.247  22.226  1.00  0.00     0.165 A 
ATOM     94  O   UNL A   1      27.823  31.639  20.106  1.00  0.00    -0.454 OA
ATOM     95  O   UNL A   1      27.948  33.433  21.713  1.00  0.00    -0.454 OA
ATOM     96  C   UNL A   1      27.525  33.020  20.399  1.00  0.00     0.468 C 
ENDBRANCH  87  88
ENDBRANCH  86  87
ENDBRANCH  84  86
ENDBRANCH  77  80
ENDBRANCH  75  76
ENDBRANCH  74  75
ENDBRANCH   1  74
TORSDOF 16
ENDMDL
MODEL 3
REMARK VINA RESULT:     -11.8      0.901      2.064
REMARK SMILES O=C(NCCCCCCNC(=O)[C@H]1CC(=O)N(CCc2ccc3c(c2)OCO3)C1)c1ccc(-c2c3nc(c(-c4c(F)c(F)c(F)c(F)c4F)c4ccc([nH]4)c(-c4c(F)c(F)c(F)c(F)c4F)c4nc(c(-c5c(F)c(F)c(F)c(F)c5F)c5ccc2[nH]5)C=C4)C=C3)cc1
REMARK SMILES IDX 7 1 6 2 5 3 4 4 3 5 1 6 2 7 30 9 31 10 92 11 32 12 91 13
REMARK SMILES IDX 33 14 34 15 35 16 85 17 36 18 90 19 84 20 86 21 37 22 89 23
REMARK SMILES IDX 83 24 82 25 38 27 70 28 50 29 69 30 51 31 54 32 68 33 87 34
REMARK SMILES IDX 52 35 53 36 67 38 88 39 55 40 39 41 40 42 48 43 41 44 42 45
REMARK SMILES IDX 46 46 49 47 43 48 44 49 47 50 45 51 71 52 72 53 80 54 73 55
REMARK SMILES IDX 74 56 78 57 81 58 75 59 76 60 79 61 77 62 56 63 57 64 65 65
REMARK SMILES IDX 58 66 59 67 63 68 66 69 60 70 61 71 64 72 62 73 8 74 9 75
REMARK SMILES IDX 10 76 11 77 12 79 13 80 14 81 29 82 15 83 17 84 16 85 18 86
REMARK SMILES IDX 19 87 20 88 21 89 25 90 22 91 24 92 23 93 26 94 28 95 27 96
REMARK H PARENT 3 8 86 26 54 37 10 78
REMARK Flexibility Score: inf
ROOT
ATOM      1  C   UNL A   1      35.383  33.040  28.062  1.00  0.00     0.002 C 
ENDROOT
BRANCH   1   2
ATOM      2  C   UNL A   1      35.144  34.363  28.797  1.00  0.00     0.002 C 
BRANCH   2   3
ATOM      3  C   UNL A   1      33.680  34.712  29.054  1.00  0.00     0.021 C 
BRANCH   3   4
ATOM      4  C   UNL A   1      33.443  36.144  29.509  1.00  0.00     0.116 C 
BRANCH   4   5
ATOM      5  N   UNL A   1      32.485  36.227  30.599  1.00  0.00    -0.352 N 
ATOM      6  O   UNL A   1      31.556  35.645  32.575  1.00  0.00    -0.269 OA
ATOM      7  C   UNL A   1      32.529  35.620  31.829  1.00  0.00     0.251 C 
ATOM      8  H   UNL A   1      31.700  36.796  30.432  1.00  0.00     0.163 HD
BRANCH   7   9
ATOM      9  C   UNL A   1      33.760  34.914  32.240  1.00  0.00     0.039 A 
ATOM     10  C   UNL A   1      34.969  35.608  32.339  1.00  0.00     0.014 A 
ATOM     11  C   UNL A   1      33.706  33.547  32.519  1.00  0.00     0.014 A 
ATOM     12  C   UNL A   1      36.145  34.910  32.577  1.00  0.00     0.010 A 
ATOM     13  C   UNL A   1      34.876  32.865  32.859  1.00  0.00     0.010 A 
ATOM     14  C   UNL A   1      36.109  33.537  32.870  1.00  0.00    -0.014 A 
BRANCH  14  15
ATOM     15  C   UNL A   1      37.361  32.851  33.276  1.00  0.00     0.031 A 
ATOM     16  C   UNL A   1      38.029  33.154  34.585  1.00  0.00     0.074 A 
ATOM     17  C   UNL A   1      37.883  31.933  32.440  1.00  0.00     0.049 A 
ATOM     18  N   UNL A   1      39.132  32.650  35.082  1.00  0.00    -0.248 NA
ATOM     19  C   UNL A   1      37.386  34.155  35.449  1.00  0.00     0.031 C 
ATOM     20  C   UNL A   1      37.323  31.568  31.136  1.00  0.00     0.029 A 
ATOM     21  N   UNL A   1      38.989  31.132  32.558  1.00  0.00    -0.354 N 
ATOM     22  C   UNL A   1      39.324  33.280  36.304  1.00  0.00     0.074 A 
ATOM     23  C   UNL A   1      38.240  34.226  36.463  1.00  0.00     0.031 C 
ATOM     24  C   UNL A   1      38.061  30.590  30.596  1.00  0.00     0.029 A 
ATOM     25  C   UNL A   1      39.189  30.312  31.475  1.00  0.00     0.049 A 
ATOM     26  H   UNL A   1      39.583  31.144  33.343  1.00  0.00     0.167 HD
ATOM     27  C   UNL A   1      40.313  33.078  37.208  1.00  0.00     0.037 A 
ATOM     28  C   UNL A   1      40.187  29.453  31.202  1.00  0.00     0.037 A 
ATOM     29  C   UNL A   1      41.385  32.128  37.038  1.00  0.00     0.049 A 
ATOM     30  C   UNL A   1      41.293  29.287  32.206  1.00  0.00     0.074 A 
ATOM     31  C   UNL A   1      42.414  31.825  37.912  1.00  0.00     0.029 A 
ATOM     32  N   UNL A   1      41.570  31.335  35.914  1.00  0.00    -0.354 N 
ATOM     33  N   UNL A   1      41.439  29.857  33.376  1.00  0.00    -0.248 NA
ATOM     34  C   UNL A   1      42.372  28.358  31.849  1.00  0.00     0.031 C 
ATOM     35  C   UNL A   1      43.258  30.898  37.292  1.00  0.00     0.029 A 
ATOM     36  C   UNL A   1      42.715  30.567  36.061  1.00  0.00     0.049 A 
ATOM     37  H   UNL A   1      40.976  31.320  35.129  1.00  0.00     0.167 HD
ATOM     38  C   UNL A   1      42.611  29.337  33.908  1.00  0.00     0.074 A 
ATOM     39  C   UNL A   1      43.122  28.389  32.941  1.00  0.00     0.031 C 
ATOM     40  C   UNL A   1      43.208  29.620  35.091  1.00  0.00     0.037 A 
BRANCH  27  41
ATOM     41  C   UNL A   1      40.304  33.911  38.460  1.00  0.00     0.064 A 
ATOM     42  C   UNL A   1      40.983  35.135  38.542  1.00  0.00     0.173 A 
ATOM     43  C   UNL A   1      39.547  33.508  39.573  1.00  0.00     0.173 A 
ATOM     44  F   UNL A   1      41.728  35.564  37.512  1.00  0.00    -0.203 F 
ATOM     45  C   UNL A   1      40.925  35.913  39.697  1.00  0.00     0.198 A 
ATOM     46  C   UNL A   1      39.466  34.303  40.714  1.00  0.00     0.198 A 
ATOM     47  F   UNL A   1      38.870  32.350  39.548  1.00  0.00    -0.203 F 
ATOM     48  F   UNL A   1      41.616  37.059  39.766  1.00  0.00    -0.200 F 
ATOM     49  C   UNL A   1      40.159  35.501  40.777  1.00  0.00     0.200 A 
ATOM     50  F   UNL A   1      38.711  33.911  41.749  1.00  0.00    -0.200 F 
ATOM     51  F   UNL A   1      40.092  36.259  41.880  1.00  0.00    -0.200 F 
ENDBRANCH  27  41
BRANCH  28  52
ATOM     52  C   UNL A   1      40.191  28.702  29.920  1.00  0.00     0.064 A 
ATOM     53  C   UNL A   1      40.786  29.236  28.769  1.00  0.00     0.173 A 
ATOM     54  C   UNL A   1      39.590  27.437  29.816  1.00  0.00     0.173 A 
ATOM     55  F   UNL A   1      41.359  30.448  28.814  1.00  0.00    -0.203 F 
ATOM     56  C   UNL A   1      40.757  28.548  27.559  1.00  0.00     0.198 A 
ATOM     57  C   UNL A   1      39.595  26.734  28.614  1.00  0.00     0.198 A 
ATOM     58  F   UNL A   1      39.014  26.876  30.890  1.00  0.00    -0.203 F 
ATOM     59  F   UNL A   1      41.284  29.107  26.461  1.00  0.00    -0.200 F 
ATOM     60  C   UNL A   1      40.168  27.295  27.483  1.00  0.00     0.200 A 
ATOM     61  F   UNL A   1      39.044  25.514  28.553  1.00  0.00    -0.200 F 
ATOM     62  F   UNL A   1      40.143  26.632  26.320  1.00  0.00    -0.200 F 
ENDBRANCH  28  52
BRANCH  40  63
ATOM     63  C   UNL A   1      44.460  28.860  35.425  1.00  0.00     0.064 A 
ATOM     64  C   UNL A   1      45.732  29.338  35.080  1.00  0.00     0.173 A 
ATOM     65  C   UNL A   1      44.383  27.646  36.125  1.00  0.00     0.173 A 
ATOM     66  F   UNL A   1      45.860  30.485  34.394  1.00  0.00    -0.203 F 
ATOM     67  C   UNL A   1      46.878  28.613  35.394  1.00  0.00     0.198 A 
ATOM     68  C   UNL A   1      45.533  26.943  36.471  1.00  0.00     0.198 A 
ATOM     69  F   UNL A   1      43.191  27.145  36.484  1.00  0.00    -0.203 F 
ATOM     70  F   UNL A   1      48.080  29.061  35.002  1.00  0.00    -0.200 F 
ATOM     71  C   UNL A   1      46.779  27.422  36.096  1.00  0.00     0.200 A 
ATOM     72  F   UNL A   1      45.435  25.800  37.163  1.00  0.00    -0.200 F 
ATOM     73  F   UNL A   1      47.885  26.730  36.405  1.00  0.00    -0.200 F 
ENDBRANCH  40  63
ENDBRANCH  14  15
ENDBRANCH   7   9
ENDBRANCH   4   5
ENDBRANCH   3   4
ENDBRANCH   2   3
ENDBRANCH   1   2
BRANCH   1  74
ATOM     74  C   UNL A   1      34.445  31.890  28.444  1.00  0.00     0.021 C 
BRANCH  74  75
ATOM     75  C   UNL A   1      34.681  30.593  27.681  1.00  0.00     0.116 C 
BRANCH  75  76
ATOM     76  N   UNL A   1      33.622  29.636  27.917  1.00  0.00    -0.356 N 
ATOM     77  C   UNL A   1      33.056  28.699  27.115  1.00  0.00     0.225 C 
ATOM     78  H   UNL A   1      33.244  29.670  28.826  1.00  0.00     0.163 HD
ATOM     79  O   UNL A   1      32.059  28.130  27.566  1.00  0.00    -0.275 OA
BRANCH  77  80
ATOM     80  C   UNL A   1      33.553  28.442  25.696  1.00  0.00     0.107 C 
ATOM     81  C   UNL A   1      33.679  26.973  25.292  1.00  0.00     0.115 C 
ATOM     82  C   UNL A   1      32.576  29.047  24.682  1.00  0.00     0.133 C 
ATOM     83  C   UNL A   1      32.955  26.825  23.991  1.00  0.00     0.223 C 
ATOM     84  N   UNL A   1      32.288  27.998  23.733  1.00  0.00    -0.342 N 
ATOM     85  O   UNL A   1      32.932  25.808  23.323  1.00  0.00    -0.275 OA
BRANCH  84  86
ATOM     86  C   UNL A   1      31.306  28.135  22.664  1.00  0.00     0.124 C 
BRANCH  86  87
ATOM     87  C   UNL A   1      29.858  28.294  23.171  1.00  0.00     0.057 C 
BRANCH  87  88
ATOM     88  C   UNL A   1      29.263  29.650  22.866  1.00  0.00    -0.042 A 
ATOM     89  C   UNL A   1      29.283  30.671  23.845  1.00  0.00     0.008 A 
ATOM     90  C   UNL A   1      28.749  29.930  21.590  1.00  0.00     0.054 A 
ATOM     91  C   UNL A   1      28.889  31.976  23.536  1.00  0.00     0.051 A 
ATOM     92  C   UNL A   1      28.325  31.217  21.328  1.00  0.00     0.166 A 
ATOM     93  C   UNL A   1      28.414  32.216  22.268  1.00  0.00     0.165 A 
ATOM     94  O   UNL A   1      27.808  31.660  20.150  1.00  0.00    -0.454 OA
ATOM     95  O   UNL A   1      27.991  33.417  21.793  1.00  0.00    -0.454 OA
ATOM     96  C   UNL A   1      27.531  33.038  20.480  1.00  0.00     0.468 C 
ENDBRANCH  87  88
ENDBRANCH  86  87
ENDBRANCH  84  86
ENDBRANCH  77  80
ENDBRANCH  75  76
ENDBRANCH  74  75
ENDBRANCH   1  74
TORSDOF 16
ENDMDL
