MODEL 1
REMARK VINA RESULT:     -11.4      0.000      0.000
REMARK SMILES C[C@H]1[C@@H](C(=O)NCCCCCCNC(=O)c2ccc(-c3c4nc(c(-c5c(F)c(F)c(F)c(F)c5F)c5ccc([nH]5)c(-c5c(F)c(F)c(F)c(F)c5F)c5nc(c(-c6c(F)c(F)c(F)c(F)c6F)c6ccc3[nH]6)C=C5)C=C4)cc2)CCN1C(=O)NC1CCCCC1
REMARK SMILES IDX 9 1 8 2 7 3 6 4 4 5 5 6 3 8 1 9 2 10 81 11 79 12 80 13 82 14
REMARK SMILES IDX 83 15 84 16 85 18 86 19 90 20 87 21 89 22 88 23 10 24 11 25
REMARK SMILES IDX 12 26 13 27 14 28 15 30 16 31 17 32 78 33 18 34 77 35 19 36
REMARK SMILES IDX 20 37 21 38 71 39 22 40 76 41 70 42 72 43 23 44 75 45 69 46
REMARK SMILES IDX 68 47 24 49 56 50 36 51 55 52 37 53 40 54 54 55 73 56 38 57
REMARK SMILES IDX 39 58 53 60 74 61 41 62 25 63 26 64 34 65 27 66 28 67 32 68
REMARK SMILES IDX 35 69 29 70 30 71 33 72 31 73 57 74 58 75 66 76 59 77 60 78
REMARK SMILES IDX 64 79 67 80 61 81 62 82 65 83 63 84 42 85 43 86 51 87 44 88
REMARK SMILES IDX 45 89 49 90 52 91 46 92 47 93 50 94 48 95
REMARK H PARENT 6 7 84 17 13 29 72 48 40 59
REMARK Flexibility Score: inf
ROOT
ATOM      1  C   UNL A   1      34.581  32.246  28.888  1.00  0.00     0.002 C 
ENDROOT
BRANCH   1   2
ATOM      2  C   UNL A   1      35.458  31.362  28.000  1.00  0.00     0.021 C 
BRANCH   2   3
ATOM      3  C   UNL A   1      34.751  30.135  27.413  1.00  0.00     0.116 C 
BRANCH   3   4
ATOM      4  N   UNL A   1      33.475  30.510  26.823  1.00  0.00    -0.356 N 
ATOM      5  C   UNL A   1      32.624  29.837  25.995  1.00  0.00     0.225 C 
ATOM      6  O   UNL A   1      31.628  30.451  25.606  1.00  0.00    -0.275 OA
ATOM      7  H   UNL A   1      33.169  31.414  27.067  1.00  0.00     0.163 HD
BRANCH   5   8
ATOM      8  C   UNL A   1      32.843  28.369  25.655  1.00  0.00     0.102 C 
ATOM      9  C   UNL A   1      33.466  28.955  23.164  1.00  0.00     0.032 C 
ATOM     10  C   UNL A   1      33.595  28.027  24.365  1.00  0.00     0.096 C 
ATOM     11  N   UNL A   1      33.107  26.713  24.019  1.00  0.00    -0.321 N 
ATOM     12  C   UNL A   1      31.540  27.538  25.570  1.00  0.00     0.037 C 
ATOM     13  C   UNL A   1      31.693  26.655  24.338  1.00  0.00     0.122 C 
BRANCH  11  14
ATOM     14  C   UNL A   1      33.681  25.751  23.268  1.00  0.00     0.317 C 
ATOM     15  O   UNL A   1      33.574  25.759  22.037  1.00  0.00    -0.249 OA
ATOM     16  N   UNL A   1      34.387  24.730  23.771  1.00  0.00    -0.335 N 
ATOM     17  H   UNL A   1      34.744  24.198  23.023  1.00  0.00     0.165 HD
BRANCH  16  18
ATOM     18  C   UNL A   1      34.829  24.107  25.046  1.00  0.00     0.083 C 
ATOM     19  C   UNL A   1      33.733  23.965  26.128  1.00  0.00     0.025 C 
ATOM     20  C   UNL A   1      35.384  22.713  24.651  1.00  0.00     0.025 C 
ATOM     21  C   UNL A   1      34.025  22.951  27.233  1.00  0.00     0.002 C 
ATOM     22  C   UNL A   1      35.669  21.772  25.812  1.00  0.00     0.002 C 
ATOM     23  C   UNL A   1      34.435  21.605  26.682  1.00  0.00     0.000 C 
ENDBRANCH  16  18
ENDBRANCH  11  14
ENDBRANCH   5   8
ENDBRANCH   3   4
ENDBRANCH   2   3
ENDBRANCH   1   2
BRANCH   1  24
ATOM     24  C   UNL A   1      34.550  33.727  28.501  1.00  0.00     0.002 C 
BRANCH  24  25
ATOM     25  C   UNL A   1      33.229  34.464  28.754  1.00  0.00     0.021 C 
BRANCH  25  26
ATOM     26  C   UNL A   1      33.349  35.914  29.226  1.00  0.00     0.116 C 
BRANCH  26  27
ATOM     27  N   UNL A   1      32.528  36.192  30.393  1.00  0.00    -0.352 N 
ATOM     28  C   UNL A   1      32.650  35.760  31.687  1.00  0.00     0.251 C 
ATOM     29  H   UNL A   1      31.759  36.785  30.227  1.00  0.00     0.163 HD
ATOM     30  O   UNL A   1      31.731  35.959  32.488  1.00  0.00    -0.269 OA
BRANCH  28  31
ATOM     31  C   UNL A   1      33.859  35.044  32.143  1.00  0.00     0.039 A 
ATOM     32  C   UNL A   1      33.726  33.740  32.630  1.00  0.00     0.014 A 
ATOM     33  C   UNL A   1      35.112  35.662  32.141  1.00  0.00     0.014 A 
ATOM     34  C   UNL A   1      34.854  33.036  33.059  1.00  0.00     0.010 A 
ATOM     35  C   UNL A   1      36.247  34.939  32.512  1.00  0.00     0.010 A 
ATOM     36  C   UNL A   1      36.129  33.619  32.975  1.00  0.00    -0.014 A 
BRANCH  36  37
ATOM     37  C   UNL A   1      37.346  32.860  33.363  1.00  0.00     0.031 A 
ATOM     38  C   UNL A   1      38.059  33.168  34.650  1.00  0.00     0.074 A 
ATOM     39  C   UNL A   1      37.845  31.930  32.526  1.00  0.00     0.049 A 
ATOM     40  N   UNL A   1      39.168  32.659  35.127  1.00  0.00    -0.248 NA
ATOM     41  C   UNL A   1      37.459  34.204  35.505  1.00  0.00     0.031 C 
ATOM     42  C   UNL A   1      37.269  31.565  31.231  1.00  0.00     0.029 A 
ATOM     43  N   UNL A   1      38.954  31.128  32.634  1.00  0.00    -0.354 N 
ATOM     44  C   UNL A   1      39.404  33.320  36.326  1.00  0.00     0.074 A 
ATOM     45  C   UNL A   1      38.350  34.300  36.482  1.00  0.00     0.031 C 
ATOM     46  C   UNL A   1      38.018  30.601  30.673  1.00  0.00     0.029 A 
ATOM     47  C   UNL A   1      39.145  30.303  31.552  1.00  0.00     0.049 A 
ATOM     48  H   UNL A   1      39.556  31.143  33.413  1.00  0.00     0.167 HD
ATOM     49  C   UNL A   1      40.395  33.112  37.226  1.00  0.00     0.037 A 
ATOM     50  C   UNL A   1      40.123  29.415  31.293  1.00  0.00     0.037 A 
ATOM     51  C   UNL A   1      41.429  32.121  37.081  1.00  0.00     0.049 A 
ATOM     52  C   UNL A   1      41.220  29.211  32.304  1.00  0.00     0.074 A 
ATOM     53  C   UNL A   1      42.441  31.793  37.965  1.00  0.00     0.029 A 
ATOM     54  N   UNL A   1      41.584  31.298  35.975  1.00  0.00    -0.354 N 
ATOM     55  N   UNL A   1      41.394  29.795  33.464  1.00  0.00    -0.248 NA
ATOM     56  C   UNL A   1      42.252  28.221  31.969  1.00  0.00     0.031 C 
ATOM     57  C   UNL A   1      43.237  30.803  37.375  1.00  0.00     0.029 A 
ATOM     58  C   UNL A   1      42.690  30.480  36.143  1.00  0.00     0.049 A 
ATOM     59  H   UNL A   1      40.995  31.294  35.186  1.00  0.00     0.167 HD
ATOM     60  C   UNL A   1      42.538  29.226  34.009  1.00  0.00     0.074 A 
ATOM     61  C   UNL A   1      43.007  28.240  33.059  1.00  0.00     0.031 C 
ATOM     62  C   UNL A   1      43.144  29.500  35.190  1.00  0.00     0.037 A 
BRANCH  49  63
ATOM     63  C   UNL A   1      40.410  33.977  38.453  1.00  0.00     0.064 A 
ATOM     64  C   UNL A   1      39.691  33.628  39.607  1.00  0.00     0.173 A 
ATOM     65  C   UNL A   1      41.180  35.149  38.492  1.00  0.00     0.173 A 
ATOM     66  F   UNL A   1      38.932  32.523  39.621  1.00  0.00    -0.203 F 
ATOM     67  C   UNL A   1      39.717  34.437  40.741  1.00  0.00     0.198 A 
ATOM     68  C   UNL A   1      41.228  35.939  39.637  1.00  0.00     0.198 A 
ATOM     69  F   UNL A   1      41.893  35.526  37.419  1.00  0.00    -0.203 F 
ATOM     70  F   UNL A   1      38.982  34.109  41.812  1.00  0.00    -0.200 F 
ATOM     71  C   UNL A   1      40.490  35.588  40.757  1.00  0.00     0.200 A 
ATOM     72  F   UNL A   1      41.986  37.044  39.656  1.00  0.00    -0.200 F 
ATOM     73  F   UNL A   1      40.519  36.362  41.850  1.00  0.00    -0.200 F 
ENDBRANCH  49  63
BRANCH  50  74
ATOM     74  C   UNL A   1      40.098  28.631  30.031  1.00  0.00     0.064 A 
ATOM     75  C   UNL A   1      40.692  29.131  28.864  1.00  0.00     0.173 A 
ATOM     76  C   UNL A   1      39.483  27.373  29.963  1.00  0.00     0.173 A 
ATOM     77  F   UNL A   1      41.273  30.340  28.874  1.00  0.00    -0.203 F 
ATOM     78  C   UNL A   1      40.656  28.410  27.673  1.00  0.00     0.198 A 
ATOM     79  C   UNL A   1      39.473  26.640  28.778  1.00  0.00     0.198 A 
ATOM     80  F   UNL A   1      38.905  26.848  31.054  1.00  0.00    -0.203 F 
ATOM     81  F   UNL A   1      41.194  28.930  26.561  1.00  0.00    -0.200 F 
ATOM     82  C   UNL A   1      40.052  27.162  27.632  1.00  0.00     0.200 A 
ATOM     83  F   UNL A   1      38.901  25.428  28.748  1.00  0.00    -0.200 F 
ATOM     84  F   UNL A   1      40.023  26.466  26.488  1.00  0.00    -0.200 F 
ENDBRANCH  50  74
BRANCH  62  85
ATOM     85  C   UNL A   1      44.367  28.700  35.535  1.00  0.00     0.064 A 
ATOM     86  C   UNL A   1      45.653  29.140  35.191  1.00  0.00     0.173 A 
ATOM     87  C   UNL A   1      44.252  27.499  36.253  1.00  0.00     0.173 A 
ATOM     88  F   UNL A   1      45.815  30.272  34.490  1.00  0.00    -0.203 F 
ATOM     89  C   UNL A   1      46.779  28.393  35.530  1.00  0.00     0.198 A 
ATOM     90  C   UNL A   1      45.381  26.771  36.616  1.00  0.00     0.198 A 
ATOM     91  F   UNL A   1      43.044  27.038  36.612  1.00  0.00    -0.203 F 
ATOM     92  F   UNL A   1      47.996  28.808  35.150  1.00  0.00    -0.200 F 
ATOM     93  C   UNL A   1      46.643  27.214  36.249  1.00  0.00     0.200 A 
ATOM     94  F   UNL A   1      45.249  25.639  37.321  1.00  0.00    -0.200 F 
ATOM     95  F   UNL A   1      47.728  26.501  36.580  1.00  0.00    -0.200 F 
ENDBRANCH  62  85
ENDBRANCH  36  37
ENDBRANCH  28  31
ENDBRANCH  26  27
ENDBRANCH  25  26
ENDBRANCH  24  25
ENDBRANCH   1  24
TORSDOF 15
ENDMDL
MODEL 2
REMARK VINA RESULT:     -11.3      2.676      5.026
REMARK SMILES C[C@H]1[C@@H](C(=O)NCCCCCCNC(=O)c2ccc(-c3c4nc(c(-c5c(F)c(F)c(F)c(F)c5F)c5ccc([nH]5)c(-c5c(F)c(F)c(F)c(F)c5F)c5nc(c(-c6c(F)c(F)c(F)c(F)c6F)c6ccc3[nH]6)C=C5)C=C4)cc2)CCN1C(=O)NC1CCCCC1
REMARK SMILES IDX 9 1 8 2 7 3 6 4 4 5 5 6 3 8 1 9 2 10 81 11 79 12 80 13 82 14
REMARK SMILES IDX 83 15 84 16 85 18 86 19 90 20 87 21 89 22 88 23 10 24 11 25
REMARK SMILES IDX 12 26 13 27 14 28 15 30 16 31 17 32 78 33 18 34 77 35 19 36
REMARK SMILES IDX 20 37 21 38 71 39 22 40 76 41 70 42 72 43 23 44 75 45 69 46
REMARK SMILES IDX 68 47 24 49 56 50 36 51 55 52 37 53 40 54 54 55 73 56 38 57
REMARK SMILES IDX 39 58 53 60 74 61 41 62 25 63 26 64 34 65 27 66 28 67 32 68
REMARK SMILES IDX 35 69 29 70 30 71 33 72 31 73 57 74 58 75 66 76 59 77 60 78
REMARK SMILES IDX 64 79 67 80 61 81 62 82 65 83 63 84 42 85 43 86 51 87 44 88
REMARK SMILES IDX 45 89 49 90 52 91 46 92 47 93 50 94 48 95
REMARK H PARENT 6 7 84 17 13 29 72 48 40 59
REMARK Flexibility Score: inf
ROOT
ATOM      1  C   UNL A   1      30.133  27.101  24.187  1.00  0.00     0.002 C 
ENDROOT
BRANCH   1   2
ATOM      2  C   UNL A   1      29.980  25.598  24.421  1.00  0.00     0.021 C 
BRANCH   2   3
ATOM      3  C   UNL A   1      30.418  24.716  23.247  1.00  0.00     0.116 C 
BRANCH   3   4
ATOM      4  N   UNL A   1      31.698  25.159  22.719  1.00  0.00    -0.356 N 
ATOM      5  C   UNL A   1      32.954  24.633  22.817  1.00  0.00     0.225 C 
ATOM      6  O   UNL A   1      33.869  25.282  22.305  1.00  0.00    -0.275 OA
ATOM      7  H   UNL A   1      31.651  25.992  22.194  1.00  0.00     0.163 HD
BRANCH   5   8
ATOM      8  C   UNL A   1      33.194  23.263  23.437  1.00  0.00     0.102 C 
ATOM      9  C   UNL A   1      33.162  24.270  25.870  1.00  0.00     0.032 C 
ATOM     10  C   UNL A   1      32.931  23.089  24.936  1.00  0.00     0.096 C 
ATOM     11  N   UNL A   1      33.794  21.995  25.313  1.00  0.00    -0.321 N 
ATOM     12  C   UNL A   1      34.628  22.719  23.234  1.00  0.00     0.037 C 
ATOM     13  C   UNL A   1      35.036  22.120  24.574  1.00  0.00     0.122 C 
BRANCH  11  14
ATOM     14  C   UNL A   1      33.697  21.138  26.350  1.00  0.00     0.317 C 
ATOM     15  O   UNL A   1      34.105  21.452  27.473  1.00  0.00    -0.249 OA
ATOM     16  N   UNL A   1      33.174  19.908  26.259  1.00  0.00    -0.335 N 
ATOM     17  H   UNL A   1      33.166  19.503  27.156  1.00  0.00     0.165 HD
BRANCH  16  18
ATOM     18  C   UNL A   1      32.600  18.931  25.296  1.00  0.00     0.083 C 
ATOM     19  C   UNL A   1      32.704  19.331  23.806  1.00  0.00     0.025 C 
ATOM     20  C   UNL A   1      33.361  17.604  25.556  1.00  0.00     0.025 C 
ATOM     21  C   UNL A   1      32.548  18.187  22.805  1.00  0.00     0.002 C 
ATOM     22  C   UNL A   1      33.134  16.509  24.524  1.00  0.00     0.002 C 
ATOM     23  C   UNL A   1      33.449  17.017  23.127  1.00  0.00     0.000 C 
ENDBRANCH  16  18
ENDBRANCH  11  14
ENDBRANCH   5   8
ENDBRANCH   3   4
ENDBRANCH   2   3
ENDBRANCH   1   2
BRANCH   1  24
ATOM     24  C   UNL A   1      31.156  27.798  25.089  1.00  0.00     0.002 C 
BRANCH  24  25
ATOM     25  C   UNL A   1      32.234  28.625  24.377  1.00  0.00     0.021 C 
BRANCH  25  26
ATOM     26  C   UNL A   1      33.295  29.260  25.276  1.00  0.00     0.116 C 
BRANCH  26  27
ATOM     27  N   UNL A   1      32.872  30.539  25.823  1.00  0.00    -0.352 N 
ATOM     28  C   UNL A   1      33.327  31.231  26.913  1.00  0.00     0.251 C 
ATOM     29  H   UNL A   1      32.140  30.978  25.331  1.00  0.00     0.163 HD
ATOM     30  O   UNL A   1      32.697  32.214  27.320  1.00  0.00    -0.269 OA
BRANCH  28  31
ATOM     31  C   UNL A   1      34.553  30.816  27.625  1.00  0.00     0.039 A 
ATOM     32  C   UNL A   1      35.521  31.782  27.917  1.00  0.00     0.014 A 
ATOM     33  C   UNL A   1      34.778  29.479  27.962  1.00  0.00     0.014 A 
ATOM     34  C   UNL A   1      36.686  31.419  28.599  1.00  0.00     0.010 A 
ATOM     35  C   UNL A   1      35.912  29.127  28.695  1.00  0.00     0.010 A 
ATOM     36  C   UNL A   1      36.878  30.093  29.020  1.00  0.00    -0.014 A 
BRANCH  36  37
ATOM     37  C   UNL A   1      38.078  29.704  29.805  1.00  0.00     0.031 A 
ATOM     38  C   UNL A   1      38.301  30.260  31.184  1.00  0.00     0.074 A 
ATOM     39  C   UNL A   1      39.001  28.894  29.251  1.00  0.00     0.049 A 
ATOM     40  N   UNL A   1      39.316  30.088  31.993  1.00  0.00    -0.248 NA
ATOM     41  C   UNL A   1      37.254  31.146  31.715  1.00  0.00     0.031 C 
ATOM     42  C   UNL A   1      38.922  28.320  27.907  1.00  0.00     0.029 A 
ATOM     43  N   UNL A   1      40.192  28.420  29.744  1.00  0.00    -0.354 N 
ATOM     44  C   UNL A   1      39.037  30.852  33.120  1.00  0.00     0.074 A 
ATOM     45  C   UNL A   1      37.781  31.527  32.870  1.00  0.00     0.031 C 
ATOM     46  C   UNL A   1      40.006  27.559  27.689  1.00  0.00     0.029 A 
ATOM     47  C   UNL A   1      40.873  27.618  28.862  1.00  0.00     0.049 A 
ATOM     48  H   UNL A   1      40.526  28.636  30.645  1.00  0.00     0.167 HD
ATOM     49  C   UNL A   1      39.751  30.963  34.265  1.00  0.00     0.037 A 
ATOM     50  C   UNL A   1      42.066  27.005  28.982  1.00  0.00     0.037 A 
ATOM     51  C   UNL A   1      40.989  30.273  34.521  1.00  0.00     0.049 A 
ATOM     52  C   UNL A   1      42.846  27.154  30.260  1.00  0.00     0.074 A 
ATOM     53  C   UNL A   1      41.755  30.272  35.673  1.00  0.00     0.029 A 
ATOM     54  N   UNL A   1      41.643  29.460  33.606  1.00  0.00    -0.354 N 
ATOM     55  N   UNL A   1      42.538  27.826  31.343  1.00  0.00    -0.248 NA
ATOM     56  C   UNL A   1      44.136  26.454  30.334  1.00  0.00     0.031 C 
ATOM     57  C   UNL A   1      42.897  29.497  35.440  1.00  0.00     0.029 A 
ATOM     58  C   UNL A   1      42.817  28.974  34.159  1.00  0.00     0.049 A 
ATOM     59  H   UNL A   1      41.321  29.259  32.698  1.00  0.00     0.167 HD
ATOM     60  C   UNL A   1      43.581  27.610  32.235  1.00  0.00     0.074 A 
ATOM     61  C   UNL A   1      44.522  26.732  31.572  1.00  0.00     0.031 C 
ATOM     62  C   UNL A   1      43.743  28.098  33.489  1.00  0.00     0.037 A 
BRANCH  49  63
ATOM     63  C   UNL A   1      39.210  31.867  35.335  1.00  0.00     0.064 A 
ATOM     64  C   UNL A   1      38.408  31.375  36.377  1.00  0.00     0.173 A 
ATOM     65  C   UNL A   1      39.526  33.234  35.342  1.00  0.00     0.173 A 
ATOM     66  F   UNL A   1      38.069  30.078  36.413  1.00  0.00    -0.203 F 
ATOM     67  C   UNL A   1      37.916  32.223  37.366  1.00  0.00     0.198 A 
ATOM     68  C   UNL A   1      39.057  34.074  36.350  1.00  0.00     0.198 A 
ATOM     69  F   UNL A   1      40.295  33.755  34.375  1.00  0.00    -0.203 F 
ATOM     70  F   UNL A   1      37.110  31.740  38.321  1.00  0.00    -0.200 F 
ATOM     71  C   UNL A   1      38.246  33.570  37.355  1.00  0.00     0.200 A 
ATOM     72  F   UNL A   1      39.388  35.372  36.345  1.00  0.00    -0.200 F 
ATOM     73  F   UNL A   1      37.777  34.384  38.310  1.00  0.00    -0.200 F 
ENDBRANCH  49  63
BRANCH  50  74
ATOM     74  C   UNL A   1      42.588  26.175  27.866  1.00  0.00     0.064 A 
ATOM     75  C   UNL A   1      42.221  24.828  27.740  1.00  0.00     0.173 A 
ATOM     76  C   UNL A   1      43.461  26.705  26.904  1.00  0.00     0.173 A 
ATOM     77  F   UNL A   1      41.405  24.270  28.647  1.00  0.00    -0.203 F 
ATOM     78  C   UNL A   1      42.720  24.039  26.706  1.00  0.00     0.198 A 
ATOM     79  C   UNL A   1      43.937  25.922  25.855  1.00  0.00     0.198 A 
ATOM     80  F   UNL A   1      43.838  27.991  26.977  1.00  0.00    -0.203 F 
ATOM     81  F   UNL A   1      42.387  22.742  26.635  1.00  0.00    -0.200 F 
ATOM     82  C   UNL A   1      43.574  24.588  25.762  1.00  0.00     0.200 A 
ATOM     83  F   UNL A   1      44.750  26.462  24.936  1.00  0.00    -0.200 F 
ATOM     84  F   UNL A   1      44.049  23.830  24.764  1.00  0.00    -0.200 F 
ENDBRANCH  50  74
BRANCH  62  85
ATOM     85  C   UNL A   1      44.971  27.669  34.239  1.00  0.00     0.064 A 
ATOM     86  C   UNL A   1      46.157  28.416  34.195  1.00  0.00     0.173 A 
ATOM     87  C   UNL A   1      44.949  26.517  35.041  1.00  0.00     0.173 A 
ATOM     88  F   UNL A   1      46.235  29.516  33.429  1.00  0.00    -0.203 F 
ATOM     89  C   UNL A   1      47.283  28.013  34.907  1.00  0.00     0.198 A 
ATOM     90  C   UNL A   1      46.067  26.134  35.775  1.00  0.00     0.198 A 
ATOM     91  F   UNL A   1      43.837  25.771  35.121  1.00  0.00    -0.203 F 
ATOM     92  F   UNL A   1      48.421  28.716  34.814  1.00  0.00    -0.200 F 
ATOM     93  C   UNL A   1      47.235  26.877  35.703  1.00  0.00     0.200 A 
ATOM     94  F   UNL A   1      46.015  25.043  36.552  1.00  0.00    -0.200 F 
ATOM     95  F   UNL A   1      48.319  26.495  36.392  1.00  0.00    -0.200 F 
ENDBRANCH  62  85
ENDBRANCH  36  37
ENDBRANCH  28  31
ENDBRANCH  26  27
ENDBRANCH  25  26
ENDBRANCH  24  25
ENDBRANCH   1  24
TORSDOF 15
ENDMDL
MODEL 3
REMARK VINA RESULT:     -11.3      6.405     11.032
REMARK SMILES C[C@H]1[C@@H](C(=O)NCCCCCCNC(=O)c2ccc(-c3c4nc(c(-c5c(F)c(F)c(F)c(F)c5F)c5ccc([nH]5)c(-c5c(F)c(F)c(F)c(F)c5F)c5nc(c(-c6c(F)c(F)c(F)c(F)c6F)c6ccc3[nH]6)C=C5)C=C4)cc2)CCN1C(=O)NC1CCCCC1
REMARK SMILES IDX 9 1 8 2 7 3 6 4 4 5 5 6 3 8 1 9 2 10 81 11 79 12 80 13 82 14
REMARK SMILES IDX 83 15 84 16 85 18 86 19 90 20 87 21 89 22 88 23 10 24 11 25
REMARK SMILES IDX 12 26 13 27 14 28 15 30 16 31 17 32 78 33 18 34 77 35 19 36
REMARK SMILES IDX 20 37 21 38 71 39 22 40 76 41 70 42 72 43 23 44 75 45 69 46
REMARK SMILES IDX 68 47 24 49 56 50 36 51 55 52 37 53 40 54 54 55 73 56 38 57
REMARK SMILES IDX 39 58 53 60 74 61 41 62 25 63 26 64 34 65 27 66 28 67 32 68
REMARK SMILES IDX 35 69 29 70 30 71 33 72 31 73 57 74 58 75 66 76 59 77 60 78
REMARK SMILES IDX 64 79 67 80 61 81 62 82 65 83 63 84 42 85 43 86 51 87 44 88
REMARK SMILES IDX 45 89 49 90 52 91 46 92 47 93 50 94 48 95
REMARK H PARENT 6 7 84 17 13 29 72 48 40 59
REMARK Flexibility Score: inf
ROOT
ATOM      1  C   UNL A   1      38.394  23.551  26.526  1.00  0.00     0.002 C 
ENDROOT
BRANCH   1   2
ATOM      2  C   UNL A   1      36.976  23.662  25.963  1.00  0.00     0.021 C 
BRANCH   2   3
ATOM      3  C   UNL A   1      36.808  23.131  24.534  1.00  0.00     0.116 C 
BRANCH   3   4
ATOM      4  N   UNL A   1      36.375  21.743  24.549  1.00  0.00    -0.356 N 
ATOM      5  C   UNL A   1      35.152  21.174  24.756  1.00  0.00     0.225 C 
ATOM      6  O   UNL A   1      35.108  19.942  24.768  1.00  0.00    -0.275 OA
ATOM      7  H   UNL A   1      37.097  21.094  24.377  1.00  0.00     0.163 HD
BRANCH   5   8
ATOM      8  C   UNL A   1      33.891  22.020  24.861  1.00  0.00     0.102 C 
ATOM      9  C   UNL A   1      33.751  21.632  27.462  1.00  0.00     0.032 C 
ATOM     10  C   UNL A   1      33.455  22.503  26.248  1.00  0.00     0.096 C 
ATOM     11  N   UNL A   1      32.028  22.687  26.117  1.00  0.00    -0.321 N 
ATOM     12  C   UNL A   1      32.626  21.348  24.275  1.00  0.00     0.037 C 
ATOM     13  C   UNL A   1      31.510  21.627  25.273  1.00  0.00     0.122 C 
BRANCH  11  14
ATOM     14  C   UNL A   1      31.191  23.469  26.828  1.00  0.00     0.317 C 
ATOM     15  O   UNL A   1      30.390  22.976  27.629  1.00  0.00    -0.249 OA
ATOM     16  N   UNL A   1      31.148  24.804  26.730  1.00  0.00    -0.335 N 
ATOM     17  H   UNL A   1      30.498  25.145  27.386  1.00  0.00     0.165 HD
BRANCH  16  18
ATOM     18  C   UNL A   1      31.725  25.958  25.992  1.00  0.00     0.083 C 
ATOM     19  C   UNL A   1      31.280  27.352  26.491  1.00  0.00     0.025 C 
ATOM     20  C   UNL A   1      33.263  25.801  26.122  1.00  0.00     0.025 C 
ATOM     21  C   UNL A   1      32.175  28.518  26.073  1.00  0.00     0.002 C 
ATOM     22  C   UNL A   1      34.082  26.998  25.663  1.00  0.00     0.002 C 
ATOM     23  C   UNL A   1      33.633  28.260  26.380  1.00  0.00     0.000 C 
ENDBRANCH  16  18
ENDBRANCH  11  14
ENDBRANCH   5   8
ENDBRANCH   3   4
ENDBRANCH   2   3
ENDBRANCH   1   2
BRANCH   1  24
ATOM     24  C   UNL A   1      39.292  22.528  25.825  1.00  0.00     0.002 C 
BRANCH  24  25
ATOM     25  C   UNL A   1      39.335  21.126  26.448  1.00  0.00     0.021 C 
BRANCH  25  26
ATOM     26  C   UNL A   1      39.495  19.961  25.471  1.00  0.00     0.116 C 
BRANCH  26  27
ATOM     27  N   UNL A   1      40.506  19.008  25.898  1.00  0.00    -0.352 N 
ATOM     28  C   UNL A   1      41.794  19.209  26.316  1.00  0.00     0.251 C 
ATOM     29  H   UNL A   1      40.219  18.066  25.882  1.00  0.00     0.163 HD
ATOM     30  O   UNL A   1      42.551  18.242  26.450  1.00  0.00    -0.269 OA
BRANCH  28  31
ATOM     31  C   UNL A   1      42.303  20.567  26.598  1.00  0.00     0.039 A 
ATOM     32  C   UNL A   1      42.792  21.336  25.538  1.00  0.00     0.014 A 
ATOM     33  C   UNL A   1      42.350  21.068  27.902  1.00  0.00     0.014 A 
ATOM     34  C   UNL A   1      43.271  22.628  25.775  1.00  0.00     0.010 A 
ATOM     35  C   UNL A   1      42.770  22.379  28.130  1.00  0.00     0.010 A 
ATOM     36  C   UNL A   1      43.236  23.171  27.069  1.00  0.00    -0.014 A 
BRANCH  36  37
ATOM     37  C   UNL A   1      43.678  24.567  27.326  1.00  0.00     0.031 A 
ATOM     38  C   UNL A   1      42.702  25.597  27.821  1.00  0.00     0.074 A 
ATOM     39  C   UNL A   1      44.949  24.922  27.057  1.00  0.00     0.049 A 
ATOM     40  N   UNL A   1      42.885  26.875  28.041  1.00  0.00    -0.248 NA
ATOM     41  C   UNL A   1      41.329  25.134  28.080  1.00  0.00     0.031 C 
ATOM     42  C   UNL A   1      45.984  24.026  26.537  1.00  0.00     0.029 A 
ATOM     43  N   UNL A   1      45.588  26.132  27.175  1.00  0.00    -0.354 N 
ATOM     44  C   UNL A   1      41.653  27.370  28.451  1.00  0.00     0.074 A 
ATOM     45  C   UNL A   1      40.718  26.265  28.402  1.00  0.00     0.031 C 
ATOM     46  C   UNL A   1      47.129  24.712  26.397  1.00  0.00     0.029 A 
ATOM     47  C   UNL A   1      46.903  26.101  26.784  1.00  0.00     0.049 A 
ATOM     48  H   UNL A   1      45.143  26.945  27.508  1.00  0.00     0.167 HD
ATOM     49  C   UNL A   1      41.335  28.624  28.852  1.00  0.00     0.037 A 
ATOM     50  C   UNL A   1      47.822  27.084  26.733  1.00  0.00     0.037 A 
ATOM     51  C   UNL A   1      42.271  29.716  28.922  1.00  0.00     0.049 A 
ATOM     52  C   UNL A   1      47.441  28.472  27.173  1.00  0.00     0.074 A 
ATOM     53  C   UNL A   1      42.061  31.007  29.373  1.00  0.00     0.029 A 
ATOM     54  N   UNL A   1      43.599  29.643  28.526  1.00  0.00    -0.354 N 
ATOM     55  N   UNL A   1      46.290  28.911  27.621  1.00  0.00    -0.248 NA
ATOM     56  C   UNL A   1      48.490  29.499  27.105  1.00  0.00     0.031 C 
ATOM     57  C   UNL A   1      43.248  31.729  29.207  1.00  0.00     0.029 A 
ATOM     58  C   UNL A   1      44.213  30.874  28.698  1.00  0.00     0.049 A 
ATOM     59  H   UNL A   1      44.041  28.837  28.174  1.00  0.00     0.167 HD
ATOM     60  C   UNL A   1      46.482  30.256  27.913  1.00  0.00     0.074 A 
ATOM     61  C   UNL A   1      47.865  30.556  27.604  1.00  0.00     0.031 C 
ATOM     62  C   UNL A   1      45.591  31.159  28.390  1.00  0.00     0.037 A 
BRANCH  49  63
ATOM     63  C   UNL A   1      39.911  28.886  29.249  1.00  0.00     0.064 A 
ATOM     64  C   UNL A   1      38.954  29.312  28.314  1.00  0.00     0.173 A 
ATOM     65  C   UNL A   1      39.487  28.675  30.570  1.00  0.00     0.173 A 
ATOM     66  F   UNL A   1      39.308  29.538  27.041  1.00  0.00    -0.203 F 
ATOM     67  C   UNL A   1      37.635  29.547  28.695  1.00  0.00     0.198 A 
ATOM     68  C   UNL A   1      38.160  28.881  30.940  1.00  0.00     0.198 A 
ATOM     69  F   UNL A   1      40.359  28.261  31.501  1.00  0.00    -0.203 F 
ATOM     70  F   UNL A   1      36.752  30.003  27.796  1.00  0.00    -0.200 F 
ATOM     71  C   UNL A   1      37.238  29.326  30.005  1.00  0.00     0.200 A 
ATOM     72  F   UNL A   1      37.776  28.655  32.203  1.00  0.00    -0.200 F 
ATOM     73  F   UNL A   1      35.968  29.547  30.368  1.00  0.00    -0.200 F 
ENDBRANCH  49  63
BRANCH  50  74
ATOM     74  C   UNL A   1      49.201  26.786  26.269  1.00  0.00     0.064 A 
ATOM     75  C   UNL A   1      50.170  26.302  27.159  1.00  0.00     0.173 A 
ATOM     76  C   UNL A   1      49.581  26.977  24.932  1.00  0.00     0.173 A 
ATOM     77  F   UNL A   1      49.861  26.123  28.452  1.00  0.00    -0.203 F 
ATOM     78  C   UNL A   1      51.470  26.037  26.734  1.00  0.00     0.198 A 
ATOM     79  C   UNL A   1      50.874  26.686  24.503  1.00  0.00     0.198 A 
ATOM     80  F   UNL A   1      48.690  27.434  24.040  1.00  0.00    -0.203 F 
ATOM     81  F   UNL A   1      52.388  25.616  27.615  1.00  0.00    -0.200 F 
ATOM     82  C   UNL A   1      51.819  26.224  25.405  1.00  0.00     0.200 A 
ATOM     83  F   UNL A   1      51.203  26.853  23.214  1.00  0.00    -0.200 F 
ATOM     84  F   UNL A   1      53.068  25.963  24.995  1.00  0.00    -0.200 F 
ENDBRANCH  50  74
BRANCH  62  85
ATOM     85  C   UNL A   1      46.091  32.552  28.637  1.00  0.00     0.064 A 
ATOM     86  C   UNL A   1      46.652  32.924  29.867  1.00  0.00     0.173 A 
ATOM     87  C   UNL A   1      46.044  33.516  27.617  1.00  0.00     0.173 A 
ATOM     88  F   UNL A   1      46.705  32.044  30.879  1.00  0.00    -0.203 F 
ATOM     89  C   UNL A   1      47.124  34.217  30.076  1.00  0.00     0.198 A 
ATOM     90  C   UNL A   1      46.544  34.799  27.820  1.00  0.00     0.198 A 
ATOM     91  F   UNL A   1      45.522  33.209  26.420  1.00  0.00    -0.203 F 
ATOM     92  F   UNL A   1      47.614  34.565  31.274  1.00  0.00    -0.200 F 
ATOM     93  C   UNL A   1      47.077  35.151  29.051  1.00  0.00     0.200 A 
ATOM     94  F   UNL A   1      46.508  35.695  26.825  1.00  0.00    -0.200 F 
ATOM     95  F   UNL A   1      47.539  36.393  29.252  1.00  0.00    -0.200 F 
ENDBRANCH  62  85
ENDBRANCH  36  37
ENDBRANCH  28  31
ENDBRANCH  26  27
ENDBRANCH  25  26
ENDBRANCH  24  25
ENDBRANCH   1  24
TORSDOF 15
ENDMDL
