MODEL 1
REMARK VINA RESULT:      -9.9      0.000      0.000
REMARK SMILES O=C(NCCCCCCNC(=O)c1cc(OC[C@@H]2Cc3cc(F)ccc3O2)cs1)c1ccc(-c2c3nc(c(-c4c(F)c(F)c(F)c(F)c4F)c4ccc([nH]4)c(-c4c(F)c(F)c(F)c(F)c4F)c4nc(c(-c5c(F)c(F)c(F)c(F)c5F)c5ccc2[nH]5)C=C4)C=C3)cc1
REMARK SMILES IDX 7 1 6 2 5 3 4 4 3 5 1 6 2 7 30 9 31 10 92 11 32 12 91 13
REMARK SMILES IDX 33 14 34 15 35 16 85 17 36 18 90 19 84 20 86 21 37 22 89 23
REMARK SMILES IDX 83 24 82 25 38 27 70 28 50 29 69 30 51 31 54 32 68 33 87 34
REMARK SMILES IDX 52 35 53 36 67 38 88 39 55 40 39 41 40 42 48 43 41 44 42 45
REMARK SMILES IDX 46 46 49 47 43 48 44 49 47 50 45 51 71 52 72 53 80 54 73 55
REMARK SMILES IDX 74 56 78 57 81 58 75 59 76 60 79 61 77 62 56 63 57 64 65 65
REMARK SMILES IDX 58 66 59 67 63 68 66 69 60 70 61 71 64 72 62 73 8 74 9 75
REMARK SMILES IDX 10 76 11 77 12 79 13 80 14 81 29 82 15 83 28 84 16 85 17 86
REMARK SMILES IDX 18 87 19 88 27 89 20 90 26 91 21 92 25 93 22 94 24 95 23 96
REMARK H PARENT 3 8 86 26 54 37 10 78
REMARK Flexibility Score: inf
ROOT
ATOM      1  C   UNL A   1      43.388  23.634  28.761  1.00  0.00     0.002 C 
ENDROOT
BRANCH   1   2
ATOM      2  C   UNL A   1      42.248  22.612  28.764  1.00  0.00     0.002 C 
BRANCH   2   3
ATOM      3  C   UNL A   1      42.152  21.716  27.526  1.00  0.00     0.021 C 
BRANCH   3   4
ATOM      4  C   UNL A   1      41.871  22.442  26.214  1.00  0.00     0.116 C 
BRANCH   4   5
ATOM      5  N   UNL A   1      40.480  22.348  25.814  1.00  0.00    -0.352 N 
ATOM      6  O   UNL A   1      38.277  22.774  25.820  1.00  0.00    -0.269 OA
ATOM      7  C   UNL A   1      39.406  23.133  26.144  1.00  0.00     0.251 C 
ATOM      8  H   UNL A   1      40.274  21.599  25.209  1.00  0.00     0.163 HD
BRANCH   7   9
ATOM      9  C   UNL A   1      39.579  24.405  26.885  1.00  0.00     0.039 A 
ATOM     10  C   UNL A   1      40.205  25.471  26.231  1.00  0.00     0.014 A 
ATOM     11  C   UNL A   1      39.223  24.533  28.230  1.00  0.00     0.014 A 
ATOM     12  C   UNL A   1      40.474  26.656  26.920  1.00  0.00     0.010 A 
ATOM     13  C   UNL A   1      39.412  25.745  28.895  1.00  0.00     0.010 A 
ATOM     14  C   UNL A   1      40.083  26.799  28.260  1.00  0.00    -0.014 A 
BRANCH  14  15
ATOM     15  C   UNL A   1      40.482  27.999  29.037  1.00  0.00     0.031 A 
ATOM     16  C   UNL A   1      41.910  28.146  29.495  1.00  0.00     0.074 A 
ATOM     17  C   UNL A   1      39.580  28.955  29.327  1.00  0.00     0.049 A 
ATOM     18  N   UNL A   1      42.468  29.117  30.173  1.00  0.00    -0.248 NA
ATOM     19  C   UNL A   1      42.828  27.043  29.167  1.00  0.00     0.031 C 
ATOM     20  C   UNL A   1      38.164  28.916  28.963  1.00  0.00     0.029 A 
ATOM     21  N   UNL A   1      39.725  30.150  29.984  1.00  0.00    -0.354 N 
ATOM     22  C   UNL A   1      43.789  28.733  30.362  1.00  0.00     0.074 A 
ATOM     23  C   UNL A   1      43.937  27.416  29.786  1.00  0.00     0.031 C 
ATOM     24  C   UNL A   1      37.579  30.055  29.366  1.00  0.00     0.029 A 
ATOM     25  C   UNL A   1      38.571  30.892  30.039  1.00  0.00     0.049 A 
ATOM     26  H   UNL A   1      40.577  30.449  30.379  1.00  0.00     0.167 HD
ATOM     27  C   UNL A   1      44.801  29.431  30.927  1.00  0.00     0.037 A 
ATOM     28  C   UNL A   1      38.344  32.112  30.563  1.00  0.00     0.037 A 
ATOM     29  C   UNL A   1      44.667  30.762  31.451  1.00  0.00     0.049 A 
ATOM     30  C   UNL A   1      39.478  32.863  31.207  1.00  0.00     0.074 A 
ATOM     31  C   UNL A   1      45.649  31.588  31.967  1.00  0.00     0.029 A 
ATOM     32  N   UNL A   1      43.472  31.462  31.522  1.00  0.00    -0.354 N 
ATOM     33  N   UNL A   1      40.737  32.519  31.318  1.00  0.00    -0.248 NA
ATOM     34  C   UNL A   1      39.158  34.169  31.801  1.00  0.00     0.031 C 
ATOM     35  C   UNL A   1      45.042  32.774  32.389  1.00  0.00     0.029 A 
ATOM     36  C   UNL A   1      43.687  32.700  32.102  1.00  0.00     0.049 A 
ATOM     37  H   UNL A   1      42.601  31.129  31.205  1.00  0.00     0.167 HD
ATOM     38  C   UNL A   1      41.362  33.565  31.983  1.00  0.00     0.074 A 
ATOM     39  C   UNL A   1      40.348  34.566  32.238  1.00  0.00     0.031 C 
ATOM     40  C   UNL A   1      42.661  33.681  32.353  1.00  0.00     0.037 A 
BRANCH  27  41
ATOM     41  C   UNL A   1      46.147  28.774  30.988  1.00  0.00     0.064 A 
ATOM     42  C   UNL A   1      47.118  29.000  30.000  1.00  0.00     0.173 A 
ATOM     43  C   UNL A   1      46.482  27.929  32.056  1.00  0.00     0.173 A 
ATOM     44  F   UNL A   1      46.843  29.790  28.951  1.00  0.00    -0.203 F 
ATOM     45  C   UNL A   1      48.362  28.378  30.062  1.00  0.00     0.198 A 
ATOM     46  C   UNL A   1      47.738  27.331  32.130  1.00  0.00     0.198 A 
ATOM     47  F   UNL A   1      45.593  27.685  33.029  1.00  0.00    -0.203 F 
ATOM     48  F   UNL A   1      49.254  28.568  29.079  1.00  0.00    -0.200 F 
ATOM     49  C   UNL A   1      48.673  27.550  31.129  1.00  0.00     0.200 A 
ATOM     50  F   UNL A   1      48.041  26.540  33.167  1.00  0.00    -0.200 F 
ATOM     51  F   UNL A   1      49.872  26.955  31.189  1.00  0.00    -0.200 F 
ENDBRANCH  27  41
BRANCH  28  52
ATOM     52  C   UNL A   1      36.990  32.711  30.455  1.00  0.00     0.064 A 
ATOM     53  C   UNL A   1      36.057  32.557  31.490  1.00  0.00     0.173 A 
ATOM     54  C   UNL A   1      36.615  33.482  29.346  1.00  0.00     0.173 A 
ATOM     55  F   UNL A   1      36.364  31.812  32.562  1.00  0.00    -0.203 F 
ATOM     56  C   UNL A   1      34.800  33.152  31.419  1.00  0.00     0.198 A 
ATOM     57  C   UNL A   1      35.365  34.094  29.286  1.00  0.00     0.198 A 
ATOM     58  F   UNL A   1      37.475  33.663  28.332  1.00  0.00    -0.203 F 
ATOM     59  F   UNL A   1      33.919  32.973  32.413  1.00  0.00    -0.200 F 
ATOM     60  C   UNL A   1      34.458  33.928  30.321  1.00  0.00     0.200 A 
ATOM     61  F   UNL A   1      35.043  34.854  28.230  1.00  0.00    -0.200 F 
ATOM     62  F   UNL A   1      33.254  34.514  30.260  1.00  0.00    -0.200 F 
ENDBRANCH  28  52
BRANCH  40  63
ATOM     63  C   UNL A   1      43.071  34.921  33.088  1.00  0.00     0.064 A 
ATOM     64  C   UNL A   1      43.379  36.102  32.397  1.00  0.00     0.173 A 
ATOM     65  C   UNL A   1      43.047  34.964  34.490  1.00  0.00     0.173 A 
ATOM     66  F   UNL A   1      43.426  36.105  31.056  1.00  0.00    -0.203 F 
ATOM     67  C   UNL A   1      43.645  37.283  33.084  1.00  0.00     0.198 A 
ATOM     68  C   UNL A   1      43.291  36.151  35.173  1.00  0.00     0.198 A 
ATOM     69  F   UNL A   1      42.749  33.862  35.194  1.00  0.00    -0.203 F 
ATOM     70  F   UNL A   1      43.950  38.396  32.405  1.00  0.00    -0.200 F 
ATOM     71  C   UNL A   1      43.588  37.309  34.470  1.00  0.00     0.200 A 
ATOM     72  F   UNL A   1      43.221  36.180  36.511  1.00  0.00    -0.200 F 
ATOM     73  F   UNL A   1      43.819  38.453  35.129  1.00  0.00    -0.200 F 
ENDBRANCH  40  63
ENDBRANCH  14  15
ENDBRANCH   7   9
ENDBRANCH   4   5
ENDBRANCH   3   4
ENDBRANCH   2   3
ENDBRANCH   1   2
BRANCH   1  74
ATOM     74  C   UNL A   1      44.783  23.072  28.477  1.00  0.00     0.021 C 
BRANCH  74  75
ATOM     75  C   UNL A   1      45.748  24.040  27.802  1.00  0.00     0.116 C 
BRANCH  75  76
ATOM     76  N   UNL A   1      46.164  23.588  26.485  1.00  0.00    -0.351 N 
ATOM     77  C   UNL A   1      45.989  24.215  25.269  1.00  0.00     0.261 C 
ATOM     78  H   UNL A   1      46.631  22.723  26.457  1.00  0.00     0.163 HD
ATOM     79  O   UNL A   1      46.290  23.602  24.248  1.00  0.00    -0.268 OA
BRANCH  77  80
ATOM     80  C   UNL A   1      45.456  25.560  25.285  1.00  0.00     0.096 A 
ATOM     81  C   UNL A   1      46.143  26.757  25.358  1.00  0.00     0.072 A 
ATOM     82  S   UNL A   1      43.767  25.803  25.248  1.00  0.00    -0.135 S 
ATOM     83  C   UNL A   1      45.275  27.848  25.638  1.00  0.00     0.131 A 
ATOM     84  C   UNL A   1      43.952  27.478  25.550  1.00  0.00     0.112 A 
BRANCH  83  85
ATOM     85  O   UNL A   1      45.576  29.126  25.975  1.00  0.00    -0.489 OA
BRANCH  85  86
ATOM     86  C   UNL A   1      44.565  29.855  26.672  1.00  0.00     0.275 C 
BRANCH  86  87
ATOM     87  C   UNL A   1      44.838  31.359  26.804  1.00  0.00     0.215 C 
ATOM     88  C   UNL A   1      44.332  31.976  28.116  1.00  0.00     0.088 C 
ATOM     89  O   UNL A   1      44.228  32.063  25.685  1.00  0.00    -0.486 OA
ATOM     90  C   UNL A   1      43.953  33.315  27.604  1.00  0.00     0.001 A 
ATOM     91  C   UNL A   1      43.879  33.276  26.219  1.00  0.00     0.123 A 
ATOM     92  C   UNL A   1      43.626  34.467  28.298  1.00  0.00     0.047 A 
ATOM     93  C   UNL A   1      43.467  34.363  25.473  1.00  0.00     0.050 A 
ATOM     94  C   UNL A   1      43.226  35.578  27.555  1.00  0.00     0.123 A 
ATOM     95  C   UNL A   1      43.139  35.535  26.158  1.00  0.00     0.043 A 
ATOM     96  F   UNL A   1      42.910  36.712  28.195  1.00  0.00    -0.207 F 
ENDBRANCH  86  87
ENDBRANCH  85  86
ENDBRANCH  83  85
ENDBRANCH  77  80
ENDBRANCH  75  76
ENDBRANCH  74  75
ENDBRANCH   1  74
TORSDOF 16
ENDMDL
MODEL 2
REMARK VINA RESULT:      -9.7      5.398     10.987
REMARK SMILES O=C(NCCCCCCNC(=O)c1cc(OC[C@@H]2Cc3cc(F)ccc3O2)cs1)c1ccc(-c2c3nc(c(-c4c(F)c(F)c(F)c(F)c4F)c4ccc([nH]4)c(-c4c(F)c(F)c(F)c(F)c4F)c4nc(c(-c5c(F)c(F)c(F)c(F)c5F)c5ccc2[nH]5)C=C4)C=C3)cc1
REMARK SMILES IDX 7 1 6 2 5 3 4 4 3 5 1 6 2 7 30 9 31 10 92 11 32 12 91 13
REMARK SMILES IDX 33 14 34 15 35 16 85 17 36 18 90 19 84 20 86 21 37 22 89 23
REMARK SMILES IDX 83 24 82 25 38 27 70 28 50 29 69 30 51 31 54 32 68 33 87 34
REMARK SMILES IDX 52 35 53 36 67 38 88 39 55 40 39 41 40 42 48 43 41 44 42 45
REMARK SMILES IDX 46 46 49 47 43 48 44 49 47 50 45 51 71 52 72 53 80 54 73 55
REMARK SMILES IDX 74 56 78 57 81 58 75 59 76 60 79 61 77 62 56 63 57 64 65 65
REMARK SMILES IDX 58 66 59 67 63 68 66 69 60 70 61 71 64 72 62 73 8 74 9 75
REMARK SMILES IDX 10 76 11 77 12 79 13 80 14 81 29 82 15 83 28 84 16 85 17 86
REMARK SMILES IDX 18 87 19 88 27 89 20 90 26 91 21 92 25 93 22 94 24 95 23 96
REMARK H PARENT 3 8 86 26 54 37 10 78
REMARK Flexibility Score: inf
ROOT
ATOM      1  C   UNL A   1      34.026  25.951  25.770  1.00  0.00     0.002 C 
ENDROOT
BRANCH   1   2
ATOM      2  C   UNL A   1      33.646  27.174  24.930  1.00  0.00     0.002 C 
BRANCH   2   3
ATOM      3  C   UNL A   1      33.875  28.535  25.592  1.00  0.00     0.021 C 
BRANCH   3   4
ATOM      4  C   UNL A   1      33.638  28.578  27.098  1.00  0.00     0.116 C 
BRANCH   4   5
ATOM      5  N   UNL A   1      33.664  29.930  27.626  1.00  0.00    -0.352 N 
ATOM      6  O   UNL A   1      34.411  31.700  28.785  1.00  0.00    -0.269 OA
ATOM      7  C   UNL A   1      34.661  30.610  28.275  1.00  0.00     0.251 C 
ATOM      8  H   UNL A   1      32.832  30.439  27.497  1.00  0.00     0.163 HD
BRANCH   7   9
ATOM      9  C   UNL A   1      36.032  30.057  28.378  1.00  0.00     0.039 A 
ATOM     10  C   UNL A   1      36.405  29.429  29.571  1.00  0.00     0.014 A 
ATOM     11  C   UNL A   1      36.978  30.227  27.363  1.00  0.00     0.014 A 
ATOM     12  C   UNL A   1      37.715  28.979  29.747  1.00  0.00     0.010 A 
ATOM     13  C   UNL A   1      38.262  29.700  27.503  1.00  0.00     0.010 A 
ATOM     14  C   UNL A   1      38.655  29.116  28.714  1.00  0.00    -0.014 A 
BRANCH  14  15
ATOM     15  C   UNL A   1      40.078  28.762  28.939  1.00  0.00     0.031 A 
ATOM     16  C   UNL A   1      40.962  29.701  29.718  1.00  0.00     0.074 A 
ATOM     17  C   UNL A   1      40.579  27.608  28.459  1.00  0.00     0.049 A 
ATOM     18  N   UNL A   1      42.227  29.578  30.036  1.00  0.00    -0.248 NA
ATOM     19  C   UNL A   1      40.349  30.957  30.181  1.00  0.00     0.031 C 
ATOM     20  C   UNL A   1      39.833  26.630  27.669  1.00  0.00     0.029 A 
ATOM     21  N   UNL A   1      41.831  27.061  28.577  1.00  0.00    -0.354 N 
ATOM     22  C   UNL A   1      42.557  30.741  30.719  1.00  0.00     0.074 A 
ATOM     23  C   UNL A   1      41.384  31.587  30.715  1.00  0.00     0.031 C 
ATOM     24  C   UNL A   1      40.630  25.582  27.407  1.00  0.00     0.029 A 
ATOM     25  C   UNL A   1      41.950  25.826  27.988  1.00  0.00     0.049 A 
ATOM     26  H   UNL A   1      42.575  27.510  29.041  1.00  0.00     0.167 HD
ATOM     27  C   UNL A   1      43.720  31.062  31.332  1.00  0.00     0.037 A 
ATOM     28  C   UNL A   1      42.999  24.984  27.934  1.00  0.00     0.037 A 
ATOM     29  C   UNL A   1      44.869  30.200  31.381  1.00  0.00     0.049 A 
ATOM     30  C   UNL A   1      44.291  25.369  28.602  1.00  0.00     0.074 A 
ATOM     31  C   UNL A   1      46.064  30.396  32.048  1.00  0.00     0.029 A 
ATOM     32  N   UNL A   1      44.959  28.975  30.739  1.00  0.00    -0.354 N 
ATOM     33  N   UNL A   1      44.570  26.440  29.303  1.00  0.00    -0.248 NA
ATOM     34  C   UNL A   1      45.414  24.430  28.470  1.00  0.00     0.031 C 
ATOM     35  C   UNL A   1      46.896  29.306  31.776  1.00  0.00     0.029 A 
ATOM     36  C   UNL A   1      46.204  28.416  30.968  1.00  0.00     0.049 A 
ATOM     37  H   UNL A   1      44.244  28.563  30.201  1.00  0.00     0.167 HD
ATOM     38  C   UNL A   1      45.892  26.303  29.703  1.00  0.00     0.074 A 
ATOM     39  C   UNL A   1      46.358  25.035  29.181  1.00  0.00     0.031 C 
ATOM     40  C   UNL A   1      46.652  27.155  30.434  1.00  0.00     0.037 A 
BRANCH  27  41
ATOM     41  C   UNL A   1      43.799  32.395  32.015  1.00  0.00     0.064 A 
ATOM     42  C   UNL A   1      43.438  32.550  33.362  1.00  0.00     0.173 A 
ATOM     43  C   UNL A   1      44.264  33.524  31.326  1.00  0.00     0.173 A 
ATOM     44  F   UNL A   1      42.975  31.502  34.062  1.00  0.00    -0.203 F 
ATOM     45  C   UNL A   1      43.508  33.793  33.984  1.00  0.00     0.198 A 
ATOM     46  C   UNL A   1      44.360  34.761  31.960  1.00  0.00     0.198 A 
ATOM     47  F   UNL A   1      44.628  33.429  30.039  1.00  0.00    -0.203 F 
ATOM     48  F   UNL A   1      43.107  33.927  35.257  1.00  0.00    -0.200 F 
ATOM     49  C   UNL A   1      43.974  34.896  33.285  1.00  0.00     0.200 A 
ATOM     50  F   UNL A   1      44.822  35.823  31.286  1.00  0.00    -0.200 F 
ATOM     51  F   UNL A   1      44.044  36.091  33.886  1.00  0.00    -0.200 F 
ENDBRANCH  27  41
BRANCH  28  52
ATOM     52  C   UNL A   1      42.848  23.673  27.253  1.00  0.00     0.064 A 
ATOM     53  C   UNL A   1      43.274  23.503  25.929  1.00  0.00     0.173 A 
ATOM     54  C   UNL A   1      42.321  22.558  27.919  1.00  0.00     0.173 A 
ATOM     55  F   UNL A   1      43.768  24.547  25.246  1.00  0.00    -0.203 F 
ATOM     56  C   UNL A   1      43.178  22.266  25.296  1.00  0.00     0.198 A 
ATOM     57  C   UNL A   1      42.244  21.316  27.291  1.00  0.00     0.198 A 
ATOM     58  F   UNL A   1      41.904  22.669  29.189  1.00  0.00    -0.203 F 
ATOM     59  F   UNL A   1      43.574  22.135  24.022  1.00  0.00    -0.200 F 
ATOM     60  C   UNL A   1      42.671  21.171  25.980  1.00  0.00     0.200 A 
ATOM     61  F   UNL A   1      41.767  20.257  27.961  1.00  0.00    -0.200 F 
ATOM     62  F   UNL A   1      42.594  19.978  25.377  1.00  0.00    -0.200 F 
ENDBRANCH  28  52
BRANCH  40  63
ATOM     63  C   UNL A   1      48.074  26.766  30.707  1.00  0.00     0.064 A 
ATOM     64  C   UNL A   1      49.121  27.251  29.911  1.00  0.00     0.173 A 
ATOM     65  C   UNL A   1      48.402  25.998  31.834  1.00  0.00     0.173 A 
ATOM     66  F   UNL A   1      48.854  27.979  28.816  1.00  0.00    -0.203 F 
ATOM     67  C   UNL A   1      50.448  26.983  30.236  1.00  0.00     0.198 A 
ATOM     68  C   UNL A   1      49.729  25.751  32.169  1.00  0.00     0.198 A 
ATOM     69  F   UNL A   1      47.434  25.519  32.630  1.00  0.00    -0.203 F 
ATOM     70  F   UNL A   1      51.433  27.445  29.454  1.00  0.00    -0.200 F 
ATOM     71  C   UNL A   1      50.751  26.245  31.371  1.00  0.00     0.200 A 
ATOM     72  F   UNL A   1      50.022  25.051  33.274  1.00  0.00    -0.200 F 
ATOM     73  F   UNL A   1      52.029  26.011  31.696  1.00  0.00    -0.200 F 
ENDBRANCH  40  63
ENDBRANCH  14  15
ENDBRANCH   7   9
ENDBRANCH   4   5
ENDBRANCH   3   4
ENDBRANCH   2   3
ENDBRANCH   1   2
BRANCH   1  74
ATOM     74  C   UNL A   1      34.611  24.769  24.993  1.00  0.00     0.021 C 
BRANCH  74  75
ATOM     75  C   UNL A   1      34.388  23.401  25.628  1.00  0.00     0.116 C 
BRANCH  75  76
ATOM     76  N   UNL A   1      33.801  22.444  24.706  1.00  0.00    -0.351 N 
ATOM     77  C   UNL A   1      32.485  22.334  24.308  1.00  0.00     0.261 C 
ATOM     78  H   UNL A   1      34.422  21.789  24.315  1.00  0.00     0.163 HD
ATOM     79  O   UNL A   1      32.161  21.365  23.624  1.00  0.00    -0.268 OA
BRANCH  77  80
ATOM     80  C   UNL A   1      31.573  23.375  24.731  1.00  0.00     0.096 A 
ATOM     81  C   UNL A   1      31.089  24.444  24.000  1.00  0.00     0.072 A 
ATOM     82  S   UNL A   1      30.990  23.391  26.335  1.00  0.00    -0.135 S 
ATOM     83  C   UNL A   1      30.449  25.404  24.830  1.00  0.00     0.131 A 
ATOM     84  C   UNL A   1      30.278  24.932  26.112  1.00  0.00     0.112 A 
BRANCH  83  85
ATOM     85  O   UNL A   1      30.027  26.657  24.533  1.00  0.00    -0.489 OA
BRANCH  85  86
ATOM     86  C   UNL A   1      30.019  27.014  23.149  1.00  0.00     0.275 C 
BRANCH  86  87
ATOM     87  C   UNL A   1      30.277  28.500  22.871  1.00  0.00     0.215 C 
ATOM     88  C   UNL A   1      30.079  29.411  24.092  1.00  0.00     0.088 C 
ATOM     89  O   UNL A   1      29.402  28.952  21.799  1.00  0.00    -0.486 OA
ATOM     90  C   UNL A   1      29.555  30.611  23.397  1.00  0.00     0.001 A 
ATOM     91  C   UNL A   1      29.157  30.263  22.114  1.00  0.00     0.123 A 
ATOM     92  C   UNL A   1      29.372  31.898  23.870  1.00  0.00     0.047 A 
ATOM     93  C   UNL A   1      28.553  31.166  21.261  1.00  0.00     0.050 A 
ATOM     94  C   UNL A   1      28.779  32.824  23.013  1.00  0.00     0.123 A 
ATOM     95  C   UNL A   1      28.365  32.471  21.722  1.00  0.00     0.043 A 
ATOM     96  F   UNL A   1      28.593  34.082  23.437  1.00  0.00    -0.207 F 
ENDBRANCH  86  87
ENDBRANCH  85  86
ENDBRANCH  83  85
ENDBRANCH  77  80
ENDBRANCH  75  76
ENDBRANCH  74  75
ENDBRANCH   1  74
TORSDOF 16
ENDMDL
MODEL 3
REMARK VINA RESULT:      -9.7      4.903      9.072
REMARK SMILES O=C(NCCCCCCNC(=O)c1cc(OC[C@@H]2Cc3cc(F)ccc3O2)cs1)c1ccc(-c2c3nc(c(-c4c(F)c(F)c(F)c(F)c4F)c4ccc([nH]4)c(-c4c(F)c(F)c(F)c(F)c4F)c4nc(c(-c5c(F)c(F)c(F)c(F)c5F)c5ccc2[nH]5)C=C4)C=C3)cc1
REMARK SMILES IDX 7 1 6 2 5 3 4 4 3 5 1 6 2 7 30 9 31 10 92 11 32 12 91 13
REMARK SMILES IDX 33 14 34 15 35 16 85 17 36 18 90 19 84 20 86 21 37 22 89 23
REMARK SMILES IDX 83 24 82 25 38 27 70 28 50 29 69 30 51 31 54 32 68 33 87 34
REMARK SMILES IDX 52 35 53 36 67 38 88 39 55 40 39 41 40 42 48 43 41 44 42 45
REMARK SMILES IDX 46 46 49 47 43 48 44 49 47 50 45 51 71 52 72 53 80 54 73 55
REMARK SMILES IDX 74 56 78 57 81 58 75 59 76 60 79 61 77 62 56 63 57 64 65 65
REMARK SMILES IDX 58 66 59 67 63 68 66 69 60 70 61 71 64 72 62 73 8 74 9 75
REMARK SMILES IDX 10 76 11 77 12 79 13 80 14 81 29 82 15 83 28 84 16 85 17 86
REMARK SMILES IDX 18 87 19 88 27 89 20 90 26 91 21 92 25 93 22 94 24 95 23 96
REMARK H PARENT 3 8 86 26 54 37 10 78
REMARK Flexibility Score: inf
ROOT
ATOM      1  C   UNL A   1      34.683  24.895  25.367  1.00  0.00     0.002 C 
ENDROOT
BRANCH   1   2
ATOM      2  C   UNL A   1      34.238  23.640  26.124  1.00  0.00     0.002 C 
BRANCH   2   3
ATOM      3  C   UNL A   1      35.301  22.552  26.295  1.00  0.00     0.021 C 
BRANCH   3   4
ATOM      4  C   UNL A   1      36.481  22.633  25.333  1.00  0.00     0.116 C 
BRANCH   4   5
ATOM      5  N   UNL A   1      37.454  21.581  25.557  1.00  0.00    -0.352 N 
ATOM      6  O   UNL A   1      39.444  20.641  25.996  1.00  0.00    -0.269 OA
ATOM      7  C   UNL A   1      38.734  21.643  26.042  1.00  0.00     0.251 C 
ATOM      8  H   UNL A   1      37.145  20.676  25.322  1.00  0.00     0.163 HD
BRANCH   7   9
ATOM      9  C   UNL A   1      39.281  22.895  26.618  1.00  0.00     0.039 A 
ATOM     10  C   UNL A   1      38.789  24.114  26.137  1.00  0.00     0.014 A 
ATOM     11  C   UNL A   1      40.324  22.889  27.548  1.00  0.00     0.014 A 
ATOM     12  C   UNL A   1      39.342  25.316  26.583  1.00  0.00     0.010 A 
ATOM     13  C   UNL A   1      40.817  24.090  28.058  1.00  0.00     0.010 A 
ATOM     14  C   UNL A   1      40.364  25.313  27.544  1.00  0.00    -0.014 A 
BRANCH  14  15
ATOM     15  C   UNL A   1      41.046  26.575  27.923  1.00  0.00     0.031 A 
ATOM     16  C   UNL A   1      42.481  26.794  27.519  1.00  0.00     0.074 A 
ATOM     17  C   UNL A   1      40.390  27.524  28.617  1.00  0.00     0.049 A 
ATOM     18  N   UNL A   1      43.257  27.826  27.739  1.00  0.00    -0.248 NA
ATOM     19  C   UNL A   1      43.139  25.696  26.791  1.00  0.00     0.031 C 
ATOM     20  C   UNL A   1      39.010  27.419  29.089  1.00  0.00     0.029 A 
ATOM     21  N   UNL A   1      40.795  28.766  29.035  1.00  0.00    -0.354 N 
ATOM     22  C   UNL A   1      44.488  27.493  27.190  1.00  0.00     0.074 A 
ATOM     23  C   UNL A   1      44.381  26.143  26.686  1.00  0.00     0.031 C 
ATOM     24  C   UNL A   1      38.669  28.567  29.696  1.00  0.00     0.029 A 
ATOM     25  C   UNL A   1      39.813  29.477  29.680  1.00  0.00     0.049 A 
ATOM     26  H   UNL A   1      41.704  29.115  28.887  1.00  0.00     0.167 HD
ATOM     27  C   UNL A   1      45.599  28.257  27.079  1.00  0.00     0.037 A 
ATOM     28  C   UNL A   1      39.833  30.724  30.189  1.00  0.00     0.037 A 
ATOM     29  C   UNL A   1      45.690  29.618  27.533  1.00  0.00     0.049 A 
ATOM     30  C   UNL A   1      41.086  31.549  30.075  1.00  0.00     0.074 A 
ATOM     31  C   UNL A   1      46.742  30.505  27.391  1.00  0.00     0.029 A 
ATOM     32  N   UNL A   1      44.685  30.286  28.215  1.00  0.00    -0.354 N 
ATOM     33  N   UNL A   1      42.221  31.250  29.494  1.00  0.00    -0.248 NA
ATOM     34  C   UNL A   1      41.060  32.884  30.689  1.00  0.00     0.031 C 
ATOM     35  C   UNL A   1      46.389  31.700  28.024  1.00  0.00     0.029 A 
ATOM     36  C   UNL A   1      45.104  31.568  28.529  1.00  0.00     0.049 A 
ATOM     37  H   UNL A   1      43.805  29.908  28.441  1.00  0.00     0.167 HD
ATOM     38  C   UNL A   1      43.041  32.356  29.663  1.00  0.00     0.074 A 
ATOM     39  C   UNL A   1      42.268  33.344  30.387  1.00  0.00     0.031 C 
ATOM     40  C   UNL A   1      44.322  32.535  29.257  1.00  0.00     0.037 A 
BRANCH  27  41
ATOM     41  C   UNL A   1      46.800  27.644  26.422  1.00  0.00     0.064 A 
ATOM     42  C   UNL A   1      46.961  27.661  25.028  1.00  0.00     0.173 A 
ATOM     43  C   UNL A   1      47.812  27.054  27.193  1.00  0.00     0.173 A 
ATOM     44  F   UNL A   1      46.015  28.203  24.246  1.00  0.00    -0.203 F 
ATOM     45  C   UNL A   1      48.075  27.082  24.428  1.00  0.00     0.198 A 
ATOM     46  C   UNL A   1      48.940  26.501  26.591  1.00  0.00     0.198 A 
ATOM     47  F   UNL A   1      47.711  27.017  28.529  1.00  0.00    -0.203 F 
ATOM     48  F   UNL A   1      48.181  27.064  23.092  1.00  0.00    -0.200 F 
ATOM     49  C   UNL A   1      49.066  26.508  25.209  1.00  0.00     0.200 A 
ATOM     50  F   UNL A   1      49.902  25.957  27.348  1.00  0.00    -0.200 F 
ATOM     51  F   UNL A   1      50.140  25.953  24.631  1.00  0.00    -0.200 F 
ENDBRANCH  27  41
BRANCH  28  52
ATOM     52  C   UNL A   1      38.604  31.276  30.814  1.00  0.00     0.064 A 
ATOM     53  C   UNL A   1      38.369  31.119  32.187  1.00  0.00     0.173 A 
ATOM     54  C   UNL A   1      37.666  32.004  30.069  1.00  0.00     0.173 A 
ATOM     55  F   UNL A   1      39.230  30.414  32.936  1.00  0.00    -0.203 F 
ATOM     56  C   UNL A   1      37.242  31.671  32.791  1.00  0.00     0.198 A 
ATOM     57  C   UNL A   1      36.550  32.573  30.678  1.00  0.00     0.198 A 
ATOM     58  F   UNL A   1      37.849  32.184  28.752  1.00  0.00    -0.203 F 
ATOM     59  F   UNL A   1      37.031  31.491  34.102  1.00  0.00    -0.200 F 
ATOM     60  C   UNL A   1      36.338  32.405  32.038  1.00  0.00     0.200 A 
ATOM     61  F   UNL A   1      35.685  33.293  29.949  1.00  0.00    -0.200 F 
ATOM     62  F   UNL A   1      35.262  32.950  32.622  1.00  0.00    -0.200 F 
ENDBRANCH  28  52
BRANCH  40  63
ATOM     63  C   UNL A   1      44.988  33.835  29.593  1.00  0.00     0.064 A 
ATOM     64  C   UNL A   1      45.759  33.972  30.756  1.00  0.00     0.173 A 
ATOM     65  C   UNL A   1      44.949  34.912  28.695  1.00  0.00     0.173 A 
ATOM     66  F   UNL A   1      45.816  32.972  31.649  1.00  0.00    -0.203 F 
ATOM     67  C   UNL A   1      46.471  35.142  31.007  1.00  0.00     0.198 A 
ATOM     68  C   UNL A   1      45.680  36.071  28.938  1.00  0.00     0.198 A 
ATOM     69  F   UNL A   1      44.232  34.825  27.565  1.00  0.00    -0.203 F 
ATOM     70  F   UNL A   1      47.191  35.257  32.131  1.00  0.00    -0.200 F 
ATOM     71  C   UNL A   1      46.441  36.184  30.092  1.00  0.00     0.200 A 
ATOM     72  F   UNL A   1      45.663  37.072  28.046  1.00  0.00    -0.200 F 
ATOM     73  F   UNL A   1      47.148  37.299  30.323  1.00  0.00    -0.200 F 
ENDBRANCH  40  63
ENDBRANCH  14  15
ENDBRANCH   7   9
ENDBRANCH   4   5
ENDBRANCH   3   4
ENDBRANCH   2   3
ENDBRANCH   1   2
BRANCH   1  74
ATOM     74  C   UNL A   1      33.864  26.158  25.640  1.00  0.00     0.021 C 
BRANCH  74  75
ATOM     75  C   UNL A   1      32.372  25.931  25.863  1.00  0.00     0.116 C 
BRANCH  75  76
ATOM     76  N   UNL A   1      31.547  26.642  24.901  1.00  0.00    -0.351 N 
ATOM     77  C   UNL A   1      31.320  26.336  23.576  1.00  0.00     0.261 C 
ATOM     78  H   UNL A   1      31.093  27.446  25.239  1.00  0.00     0.163 HD
ATOM     79  O   UNL A   1      30.699  27.145  22.889  1.00  0.00    -0.268 OA
BRANCH  77  80
ATOM     80  C   UNL A   1      31.835  25.077  23.085  1.00  0.00     0.096 A 
ATOM     81  C   UNL A   1      31.481  23.796  23.466  1.00  0.00     0.072 A 
ATOM     82  S   UNL A   1      33.071  25.066  21.907  1.00  0.00    -0.135 S 
ATOM     83  C   UNL A   1      32.399  22.827  22.975  1.00  0.00     0.131 A 
ATOM     84  C   UNL A   1      33.279  23.375  22.070  1.00  0.00     0.112 A 
BRANCH  83  85
ATOM     85  O   UNL A   1      32.513  21.512  23.284  1.00  0.00    -0.489 OA
BRANCH  85  86
ATOM     86  C   UNL A   1      31.957  21.102  24.535  1.00  0.00     0.275 C 
BRANCH  86  87
ATOM     87  C   UNL A   1      32.740  19.994  25.250  1.00  0.00     0.215 C 
ATOM     88  C   UNL A   1      34.093  19.664  24.605  1.00  0.00     0.088 C 
ATOM     89  O   UNL A   1      31.932  18.784  25.299  1.00  0.00    -0.486 OA
ATOM     90  C   UNL A   1      34.129  18.209  24.886  1.00  0.00     0.001 A 
ATOM     91  C   UNL A   1      32.859  17.776  25.238  1.00  0.00     0.123 A 
ATOM     92  C   UNL A   1      35.177  17.312  24.775  1.00  0.00     0.047 A 
ATOM     93  C   UNL A   1      32.575  16.446  25.478  1.00  0.00     0.050 A 
ATOM     94  C   UNL A   1      34.908  15.968  25.031  1.00  0.00     0.123 A 
ATOM     95  C   UNL A   1      33.623  15.528  25.374  1.00  0.00     0.043 A 
ATOM     96  F   UNL A   1      35.901  15.074  24.940  1.00  0.00    -0.207 F 
ENDBRANCH  86  87
ENDBRANCH  85  86
ENDBRANCH  83  85
ENDBRANCH  77  80
ENDBRANCH  75  76
ENDBRANCH  74  75
ENDBRANCH   1  74
TORSDOF 16
ENDMDL
