MODEL 1
REMARK VINA RESULT:     -12.7      0.000      0.000
REMARK SMILES O=C(CCC(=O)Nc1ccc(C(=O)N2CCOCC2)cc1)NCCCCCCNC(=O)c1ccc(-c2c3nc(c(-c4c(F)c(F)c(F)c(F)c4F)c4ccc([nH]4)c(-c4c(F)c(F)c(F)c(F)c4F)c4nc(c(-c5c(F)c(F)c(F)c(F)c5F)c5ccc2[nH]5)C=C4)C=C3)cc1
REMARK SMILES IDX 24 1 23 2 22 3 1 4 2 5 3 7 4 8 5 9 6 10 7 11 8 13 9 14 21 15
REMARK SMILES IDX 10 16 20 17 11 18 12 19 13 20 14 21 15 22 19 23 16 24 18 25
REMARK SMILES IDX 17 26 25 27 26 28 27 29 28 30 29 31 30 32 31 34 32 35 33 36
REMARK SMILES IDX 94 37 34 38 93 39 35 40 36 41 37 42 87 43 38 44 92 45 86 46
REMARK SMILES IDX 88 47 39 48 91 49 85 50 84 51 40 53 72 54 52 55 71 56 53 57
REMARK SMILES IDX 56 58 70 59 89 60 54 61 55 62 69 64 90 65 57 66 41 67 42 68
REMARK SMILES IDX 50 69 43 70 44 71 48 72 51 73 45 74 46 75 49 76 47 77 73 78
REMARK SMILES IDX 74 79 82 80 75 81 76 82 80 83 83 84 77 85 78 86 81 87 79 88
REMARK SMILES IDX 58 89 59 90 67 91 60 92 61 93 65 94 68 95 62 96 63 97 66 98
REMARK SMILES IDX 64 99
REMARK H PARENT 22 6 7 12 29 33 88 52 56 63
REMARK Flexibility Score: inf
ROOT
ATOM      1  C   UNL A   1      33.577  29.298  27.238  1.00  0.00     0.021 C 
ENDROOT
BRANCH   1   2
ATOM      2  C   UNL A   1      34.017  28.564  25.976  1.00  0.00     0.116 C 
BRANCH   2   3
ATOM      3  N   UNL A   1      33.781  27.136  26.032  1.00  0.00    -0.356 N 
ATOM      4  O   UNL A   1      34.039  26.742  23.783  1.00  0.00    -0.275 OA
ATOM      5  C   UNL A   1      33.886  26.325  24.927  1.00  0.00     0.220 C 
ATOM      6  H   UNL A   1      33.536  26.731  26.896  1.00  0.00     0.163 HD
BRANCH   5   7
ATOM      7  C   UNL A   1      33.815  24.846  25.244  1.00  0.00     0.110 C 
BRANCH   7   8
ATOM      8  C   UNL A   1      32.632  24.094  24.634  1.00  0.00     0.110 C 
BRANCH   8   9
ATOM      9  C   UNL A   1      32.510  24.193  23.129  1.00  0.00     0.224 C 
ATOM     10  O   UNL A   1      33.317  23.570  22.427  1.00  0.00    -0.275 OA
ATOM     11  N   UNL A   1      31.609  24.974  22.469  1.00  0.00    -0.326 N 
ATOM     12  H   UNL A   1      31.533  24.752  21.514  1.00  0.00     0.169 HD
BRANCH  11  13
ATOM     13  C   UNL A   1      30.767  26.032  22.859  1.00  0.00     0.041 A 
ATOM     14  C   UNL A   1      29.638  25.689  23.626  1.00  0.00     0.027 A 
ATOM     15  C   UNL A   1      30.893  27.345  22.430  1.00  0.00     0.027 A 
ATOM     16  C   UNL A   1      28.573  26.590  23.781  1.00  0.00     0.016 A 
ATOM     17  C   UNL A   1      29.834  28.237  22.568  1.00  0.00     0.016 A 
ATOM     18  C   UNL A   1      28.644  27.844  23.179  1.00  0.00     0.040 A 
BRANCH  18  19
ATOM     19  C   UNL A   1      27.498  28.792  23.221  1.00  0.00     0.254 C 
ATOM     20  O   UNL A   1      26.436  28.463  23.733  1.00  0.00    -0.269 OA
ATOM     21  N   UNL A   1      27.778  30.065  22.764  1.00  0.00    -0.334 N 
ATOM     22  C   UNL A   1      27.974  30.370  21.347  1.00  0.00     0.148 C 
ATOM     23  C   UNL A   1      27.574  31.220  23.622  1.00  0.00     0.148 C 
ATOM     24  C   UNL A   1      29.034  31.461  21.157  1.00  0.00     0.181 C 
ATOM     25  C   UNL A   1      28.707  32.226  23.378  1.00  0.00     0.181 C 
ATOM     26  O   UNL A   1      28.766  32.604  21.992  1.00  0.00    -0.378 OA
ENDBRANCH  18  19
ENDBRANCH  11  13
ENDBRANCH   8   9
ENDBRANCH   7   8
ENDBRANCH   5   7
ENDBRANCH   2   3
ENDBRANCH   1   2
BRANCH   1  27
ATOM     27  C   UNL A   1      32.109  29.738  27.262  1.00  0.00     0.002 C 
BRANCH  27  28
ATOM     28  C   UNL A   1      31.669  30.680  26.138  1.00  0.00     0.002 C 
BRANCH  28  29
ATOM     29  C   UNL A   1      31.433  32.136  26.539  1.00  0.00     0.021 C 
BRANCH  29  30
ATOM     30  C   UNL A   1      32.586  32.815  27.274  1.00  0.00     0.116 C 
BRANCH  30  31
ATOM     31  N   UNL A   1      32.309  34.194  27.644  1.00  0.00    -0.352 N 
ATOM     32  C   UNL A   1      32.946  34.997  28.558  1.00  0.00     0.251 C 
ATOM     33  H   UNL A   1      31.553  34.612  27.171  1.00  0.00     0.163 HD
ATOM     34  O   UNL A   1      32.515  36.123  28.793  1.00  0.00    -0.269 OA
BRANCH  32  35
ATOM     35  C   UNL A   1      34.127  34.497  29.293  1.00  0.00     0.039 A 
ATOM     36  C   UNL A   1      33.932  33.891  30.537  1.00  0.00     0.014 A 
ATOM     37  C   UNL A   1      35.417  34.618  28.768  1.00  0.00     0.014 A 
ATOM     38  C   UNL A   1      35.019  33.344  31.222  1.00  0.00     0.010 A 
ATOM     39  C   UNL A   1      36.490  34.012  29.418  1.00  0.00     0.010 A 
ATOM     40  C   UNL A   1      36.302  33.366  30.650  1.00  0.00    -0.014 A 
BRANCH  40  41
ATOM     41  C   UNL A   1      37.455  32.712  31.321  1.00  0.00     0.031 A 
ATOM     42  C   UNL A   1      38.172  31.573  30.653  1.00  0.00     0.074 A 
ATOM     43  C   UNL A   1      37.811  33.101  32.560  1.00  0.00     0.049 A 
ATOM     44  N   UNL A   1      39.149  30.829  31.108  1.00  0.00    -0.248 NA
ATOM     45  C   UNL A   1      37.716  31.204  29.305  1.00  0.00     0.031 C 
ATOM     46  C   UNL A   1      37.163  34.162  33.333  1.00  0.00     0.029 A 
ATOM     47  N   UNL A   1      38.798  32.638  33.394  1.00  0.00    -0.354 N 
ATOM     48  C   UNL A   1      39.411  29.899  30.111  1.00  0.00     0.074 A 
ATOM     49  C   UNL A   1      38.459  30.138  29.049  1.00  0.00     0.031 C 
ATOM     50  C   UNL A   1      37.781  34.281  34.518  1.00  0.00     0.029 A 
ATOM     51  C   UNL A   1      38.842  33.284  34.606  1.00  0.00     0.049 A 
ATOM     52  H   UNL A   1      39.416  31.913  33.148  1.00  0.00     0.167 HD
ATOM     53  C   UNL A   1      40.374  28.946  30.077  1.00  0.00     0.037 A 
ATOM     54  C   UNL A   1      39.641  33.085  35.672  1.00  0.00     0.037 A 
ATOM     55  C   UNL A   1      41.335  28.726  31.125  1.00  0.00     0.049 A 
ATOM     56  C   UNL A   1      40.699  32.016  35.609  1.00  0.00     0.074 A 
ATOM     57  C   UNL A   1      42.387  27.827  31.157  1.00  0.00     0.029 A 
ATOM     58  N   UNL A   1      41.361  29.413  32.330  1.00  0.00    -0.354 N 
ATOM     59  N   UNL A   1      40.982  31.188  34.634  1.00  0.00    -0.248 NA
ATOM     60  C   UNL A   1      41.550  31.857  36.796  1.00  0.00     0.031 C 
ATOM     61  C   UNL A   1      43.019  27.937  32.400  1.00  0.00     0.029 A 
ATOM     62  C   UNL A   1      42.396  28.941  33.122  1.00  0.00     0.049 A 
ATOM     63  H   UNL A   1      40.735  30.129  32.585  1.00  0.00     0.167 HD
ATOM     64  C   UNL A   1      42.060  30.433  35.074  1.00  0.00     0.074 A 
ATOM     65  C   UNL A   1      42.390  30.911  36.401  1.00  0.00     0.031 C 
ATOM     66  C   UNL A   1      42.718  29.434  34.437  1.00  0.00     0.037 A 
BRANCH  53  67
ATOM     67  C   UNL A   1      40.438  28.067  28.861  1.00  0.00     0.064 A 
ATOM     68  C   UNL A   1      39.740  26.851  28.794  1.00  0.00     0.173 A 
ATOM     69  C   UNL A   1      41.173  28.463  27.734  1.00  0.00     0.173 A 
ATOM     70  F   UNL A   1      39.031  26.421  29.849  1.00  0.00    -0.203 F 
ATOM     71  C   UNL A   1      39.801  26.051  27.656  1.00  0.00     0.198 A 
ATOM     72  C   UNL A   1      41.207  27.676  26.585  1.00  0.00     0.198 A 
ATOM     73  F   UNL A   1      41.853  29.619  27.741  1.00  0.00    -0.203 F 
ATOM     74  F   UNL A   1      39.167  24.871  27.635  1.00  0.00    -0.200 F 
ATOM     75  C   UNL A   1      40.527  26.467  26.551  1.00  0.00     0.200 A 
ATOM     76  F   UNL A   1      41.898  28.085  25.513  1.00  0.00    -0.200 F 
ATOM     77  F   UNL A   1      40.579  25.699  25.453  1.00  0.00    -0.200 F 
ENDBRANCH  53  67
BRANCH  54  78
ATOM     78  C   UNL A   1      39.489  33.934  36.883  1.00  0.00     0.064 A 
ATOM     79  C   UNL A   1      40.115  35.186  36.966  1.00  0.00     0.173 A 
ATOM     80  C   UNL A   1      38.727  33.511  37.981  1.00  0.00     0.173 A 
ATOM     81  F   UNL A   1      40.872  35.625  35.948  1.00  0.00    -0.203 F 
ATOM     82  C   UNL A   1      40.000  35.974  38.110  1.00  0.00     0.198 A 
ATOM     83  C   UNL A   1      38.590  34.313  39.113  1.00  0.00     0.198 A 
ATOM     84  F   UNL A   1      38.105  32.323  37.950  1.00  0.00    -0.203 F 
ATOM     85  F   UNL A   1      40.646  37.145  38.180  1.00  0.00    -0.200 F 
ATOM     86  C   UNL A   1      39.234  35.539  39.180  1.00  0.00     0.200 A 
ATOM     87  F   UNL A   1      37.837  33.895  40.139  1.00  0.00    -0.200 F 
ATOM     88  F   UNL A   1      39.122  36.298  40.278  1.00  0.00    -0.200 F 
ENDBRANCH  54  78
BRANCH  66  89
ATOM     89  C   UNL A   1      43.886  28.813  35.149  1.00  0.00     0.064 A 
ATOM     90  C   UNL A   1      43.727  27.713  36.004  1.00  0.00     0.173 A 
ATOM     91  C   UNL A   1      45.184  29.303  34.942  1.00  0.00     0.173 A 
ATOM     92  F   UNL A   1      42.504  27.218  36.248  1.00  0.00    -0.203 F 
ATOM     93  C   UNL A   1      44.823  27.142  36.645  1.00  0.00     0.198 A 
ATOM     94  C   UNL A   1      46.281  28.709  35.558  1.00  0.00     0.198 A 
ATOM     95  F   UNL A   1      45.391  30.349  34.127  1.00  0.00    -0.203 F 
ATOM     96  F   UNL A   1      44.643  26.121  37.495  1.00  0.00    -0.200 F 
ATOM     97  C   UNL A   1      46.099  27.634  36.416  1.00  0.00     0.200 A 
ATOM     98  F   UNL A   1      47.515  29.178  35.325  1.00  0.00    -0.200 F 
ATOM     99  F   UNL A   1      47.154  27.078  37.027  1.00  0.00    -0.200 F 
ENDBRANCH  66  89
ENDBRANCH  40  41
ENDBRANCH  32  35
ENDBRANCH  30  31
ENDBRANCH  29  30
ENDBRANCH  28  29
ENDBRANCH  27  28
ENDBRANCH   1  27
TORSDOF 17
ENDMDL
MODEL 2
REMARK VINA RESULT:     -12.4      1.788      4.204
REMARK SMILES O=C(CCC(=O)Nc1ccc(C(=O)N2CCOCC2)cc1)NCCCCCCNC(=O)c1ccc(-c2c3nc(c(-c4c(F)c(F)c(F)c(F)c4F)c4ccc([nH]4)c(-c4c(F)c(F)c(F)c(F)c4F)c4nc(c(-c5c(F)c(F)c(F)c(F)c5F)c5ccc2[nH]5)C=C4)C=C3)cc1
REMARK SMILES IDX 24 1 23 2 22 3 1 4 2 5 3 7 4 8 5 9 6 10 7 11 8 13 9 14 21 15
REMARK SMILES IDX 10 16 20 17 11 18 12 19 13 20 14 21 15 22 19 23 16 24 18 25
REMARK SMILES IDX 17 26 25 27 26 28 27 29 28 30 29 31 30 32 31 34 32 35 33 36
REMARK SMILES IDX 94 37 34 38 93 39 35 40 36 41 37 42 87 43 38 44 92 45 86 46
REMARK SMILES IDX 88 47 39 48 91 49 85 50 84 51 40 53 72 54 52 55 71 56 53 57
REMARK SMILES IDX 56 58 70 59 89 60 54 61 55 62 69 64 90 65 57 66 41 67 42 68
REMARK SMILES IDX 50 69 43 70 44 71 48 72 51 73 45 74 46 75 49 76 47 77 73 78
REMARK SMILES IDX 74 79 82 80 75 81 76 82 80 83 83 84 77 85 78 86 81 87 79 88
REMARK SMILES IDX 58 89 59 90 67 91 60 92 61 93 65 94 68 95 62 96 63 97 66 98
REMARK SMILES IDX 64 99
REMARK H PARENT 22 6 7 12 29 33 88 52 56 63
REMARK Flexibility Score: inf
ROOT
ATOM      1  C   UNL A   1      32.535  28.463  27.396  1.00  0.00     0.021 C 
ENDROOT
BRANCH   1   2
ATOM      2  C   UNL A   1      32.140  27.449  26.328  1.00  0.00     0.116 C 
BRANCH   2   3
ATOM      3  N   UNL A   1      32.640  27.782  25.010  1.00  0.00    -0.356 N 
ATOM      4  O   UNL A   1      34.058  25.984  24.809  1.00  0.00    -0.275 OA
ATOM      5  C   UNL A   1      33.513  26.971  24.324  1.00  0.00     0.220 C 
ATOM      6  H   UNL A   1      32.344  28.621  24.590  1.00  0.00     0.163 HD
BRANCH   5   7
ATOM      7  C   UNL A   1      33.738  27.391  22.886  1.00  0.00     0.110 C 
BRANCH   7   8
ATOM      8  C   UNL A   1      33.111  26.487  21.826  1.00  0.00     0.110 C 
BRANCH   8   9
ATOM      9  C   UNL A   1      31.624  26.251  21.974  1.00  0.00     0.224 C 
ATOM     10  O   UNL A   1      30.848  27.182  21.721  1.00  0.00    -0.275 OA
ATOM     11  N   UNL A   1      31.058  25.099  22.433  1.00  0.00    -0.326 N 
ATOM     12  H   UNL A   1      30.090  25.050  22.261  1.00  0.00     0.169 HD
BRANCH  11  13
ATOM     13  C   UNL A   1      31.559  23.967  23.101  1.00  0.00     0.041 A 
ATOM     14  C   UNL A   1      31.268  23.866  24.474  1.00  0.00     0.027 A 
ATOM     15  C   UNL A   1      32.421  23.035  22.544  1.00  0.00     0.027 A 
ATOM     16  C   UNL A   1      31.980  22.980  25.297  1.00  0.00     0.016 A 
ATOM     17  C   UNL A   1      33.141  22.165  23.358  1.00  0.00     0.016 A 
ATOM     18  C   UNL A   1      32.979  22.182  24.742  1.00  0.00     0.040 A 
BRANCH  18  19
ATOM     19  C   UNL A   1      33.835  21.309  25.589  1.00  0.00     0.254 C 
ATOM     20  O   UNL A   1      33.386  20.280  26.077  1.00  0.00    -0.269 OA
ATOM     21  N   UNL A   1      35.162  21.686  25.660  1.00  0.00    -0.334 N 
ATOM     22  C   UNL A   1      35.610  22.855  26.416  1.00  0.00     0.148 C 
ATOM     23  C   UNL A   1      36.215  20.769  25.259  1.00  0.00     0.148 C 
ATOM     24  C   UNL A   1      36.786  23.549  25.719  1.00  0.00     0.181 C 
ATOM     25  C   UNL A   1      37.316  21.560  24.540  1.00  0.00     0.181 C 
ATOM     26  O   UNL A   1      37.825  22.609  25.382  1.00  0.00    -0.378 OA
ENDBRANCH  18  19
ENDBRANCH  11  13
ENDBRANCH   8   9
ENDBRANCH   7   8
ENDBRANCH   5   7
ENDBRANCH   2   3
ENDBRANCH   1   2
BRANCH   1  27
ATOM     27  C   UNL A   1      32.661  29.911  26.911  1.00  0.00     0.002 C 
BRANCH  27  28
ATOM     28  C   UNL A   1      31.346  30.646  26.637  1.00  0.00     0.002 C 
BRANCH  28  29
ATOM     29  C   UNL A   1      31.443  32.167  26.512  1.00  0.00     0.021 C 
BRANCH  29  30
ATOM     30  C   UNL A   1      32.583  32.823  27.288  1.00  0.00     0.116 C 
BRANCH  30  31
ATOM     31  N   UNL A   1      32.321  34.207  27.647  1.00  0.00    -0.352 N 
ATOM     32  C   UNL A   1      32.967  35.011  28.554  1.00  0.00     0.251 C 
ATOM     33  H   UNL A   1      31.569  34.630  27.171  1.00  0.00     0.163 HD
ATOM     34  O   UNL A   1      32.548  36.143  28.781  1.00  0.00    -0.269 OA
BRANCH  32  35
ATOM     35  C   UNL A   1      34.143  34.503  29.293  1.00  0.00     0.039 A 
ATOM     36  C   UNL A   1      33.942  33.909  30.542  1.00  0.00     0.014 A 
ATOM     37  C   UNL A   1      35.434  34.605  28.767  1.00  0.00     0.014 A 
ATOM     38  C   UNL A   1      35.023  33.356  31.231  1.00  0.00     0.010 A 
ATOM     39  C   UNL A   1      36.500  33.992  29.421  1.00  0.00     0.010 A 
ATOM     40  C   UNL A   1      36.306  33.358  30.658  1.00  0.00    -0.014 A 
BRANCH  40  41
ATOM     41  C   UNL A   1      37.451  32.697  31.334  1.00  0.00     0.031 A 
ATOM     42  C   UNL A   1      38.155  31.544  30.676  1.00  0.00     0.074 A 
ATOM     43  C   UNL A   1      37.813  33.093  32.570  1.00  0.00     0.049 A 
ATOM     44  N   UNL A   1      39.123  30.793  31.137  1.00  0.00    -0.248 NA
ATOM     45  C   UNL A   1      37.693  31.169  29.331  1.00  0.00     0.031 C 
ATOM     46  C   UNL A   1      37.179  34.168  33.333  1.00  0.00     0.029 A 
ATOM     47  N   UNL A   1      38.795  32.626  33.407  1.00  0.00    -0.354 N 
ATOM     48  C   UNL A   1      39.373  29.850  30.148  1.00  0.00     0.074 A 
ATOM     49  C   UNL A   1      38.423  30.092  29.084  1.00  0.00     0.031 C 
ATOM     50  C   UNL A   1      37.799  34.291  34.517  1.00  0.00     0.029 A 
ATOM     51  C   UNL A   1      38.848  33.281  34.614  1.00  0.00     0.049 A 
ATOM     52  H   UNL A   1      39.405  31.891  33.167  1.00  0.00     0.167 HD
ATOM     53  C   UNL A   1      40.325  28.886  30.121  1.00  0.00     0.037 A 
ATOM     54  C   UNL A   1      39.646  33.083  35.680  1.00  0.00     0.037 A 
ATOM     55  C   UNL A   1      41.285  28.664  31.171  1.00  0.00     0.049 A 
ATOM     56  C   UNL A   1      40.691  32.001  35.626  1.00  0.00     0.074 A 
ATOM     57  C   UNL A   1      42.326  27.753  31.210  1.00  0.00     0.029 A 
ATOM     58  N   UNL A   1      41.319  29.362  32.370  1.00  0.00    -0.354 N 
ATOM     59  N   UNL A   1      40.964  31.162  34.658  1.00  0.00    -0.248 NA
ATOM     60  C   UNL A   1      41.542  31.843  36.813  1.00  0.00     0.031 C 
ATOM     61  C   UNL A   1      42.961  27.867  32.451  1.00  0.00     0.029 A 
ATOM     62  C   UNL A   1      42.350  28.885  33.164  1.00  0.00     0.049 A 
ATOM     63  H   UNL A   1      40.702  30.087  32.619  1.00  0.00     0.167 HD
ATOM     64  C   UNL A   1      42.033  30.397  35.104  1.00  0.00     0.074 A 
ATOM     65  C   UNL A   1      42.369  30.883  36.426  1.00  0.00     0.031 C 
ATOM     66  C   UNL A   1      42.678  29.385  34.476  1.00  0.00     0.037 A 
BRANCH  53  67
ATOM     67  C   UNL A   1      40.377  27.996  28.913  1.00  0.00     0.064 A 
ATOM     68  C   UNL A   1      39.675  26.782  28.863  1.00  0.00     0.173 A 
ATOM     69  C   UNL A   1      41.106  28.379  27.777  1.00  0.00     0.173 A 
ATOM     70  F   UNL A   1      38.972  26.364  29.926  1.00  0.00    -0.203 F 
ATOM     71  C   UNL A   1      39.726  25.971  27.731  1.00  0.00     0.198 A 
ATOM     72  C   UNL A   1      41.129  27.581  26.636  1.00  0.00     0.198 A 
ATOM     73  F   UNL A   1      41.791  29.533  27.769  1.00  0.00    -0.203 F 
ATOM     74  F   UNL A   1      39.087  24.793  27.725  1.00  0.00    -0.200 F 
ATOM     75  C   UNL A   1      40.445  26.374  26.617  1.00  0.00     0.200 A 
ATOM     76  F   UNL A   1      41.815  27.978  25.555  1.00  0.00    -0.200 F 
ATOM     77  F   UNL A   1      40.487  25.596  25.526  1.00  0.00    -0.200 F 
ENDBRANCH  53  67
BRANCH  54  78
ATOM     78  C   UNL A   1      39.505  33.944  36.884  1.00  0.00     0.064 A 
ATOM     79  C   UNL A   1      38.751  33.519  37.987  1.00  0.00     0.173 A 
ATOM     80  C   UNL A   1      40.110  35.207  36.954  1.00  0.00     0.173 A 
ATOM     81  F   UNL A   1      38.137  32.327  37.958  1.00  0.00    -0.203 F 
ATOM     82  C   UNL A   1      38.592  34.333  39.107  1.00  0.00     0.198 A 
ATOM     83  C   UNL A   1      39.973  36.009  38.086  1.00  0.00     0.198 A 
ATOM     84  F   UNL A   1      40.844  35.658  35.927  1.00  0.00    -0.203 F 
ATOM     85  F   UNL A   1      37.829  33.921  40.127  1.00  0.00    -0.200 F 
ATOM     86  C   UNL A   1      39.207  35.575  39.158  1.00  0.00     0.200 A 
ATOM     87  F   UNL A   1      40.581  37.201  38.136  1.00  0.00    -0.200 F 
ATOM     88  F   UNL A   1      39.055  36.355  40.235  1.00  0.00    -0.200 F 
ENDBRANCH  54  78
BRANCH  66  89
ATOM     89  C   UNL A   1      43.839  28.757  35.192  1.00  0.00     0.064 A 
ATOM     90  C   UNL A   1      45.146  29.242  35.041  1.00  0.00     0.173 A 
ATOM     91  C   UNL A   1      43.634  27.682  36.069  1.00  0.00     0.173 A 
ATOM     92  F   UNL A   1      45.397  30.258  34.202  1.00  0.00    -0.203 F 
ATOM     93  C   UNL A   1      46.209  28.656  35.724  1.00  0.00     0.198 A 
ATOM     94  C   UNL A   1      44.693  27.120  36.774  1.00  0.00     0.198 A 
ATOM     95  F   UNL A   1      42.401  27.185  36.253  1.00  0.00    -0.203 F 
ATOM     96  F   UNL A   1      47.457  29.105  35.529  1.00  0.00    -0.200 F 
ATOM     97  C   UNL A   1      45.981  27.602  36.595  1.00  0.00     0.200 A 
ATOM     98  F   UNL A   1      44.469  26.109  37.626  1.00  0.00    -0.200 F 
ATOM     99  F   UNL A   1      47.004  27.044  37.258  1.00  0.00    -0.200 F 
ENDBRANCH  66  89
ENDBRANCH  40  41
ENDBRANCH  32  35
ENDBRANCH  30  31
ENDBRANCH  29  30
ENDBRANCH  28  29
ENDBRANCH  27  28
ENDBRANCH   1  27
TORSDOF 17
ENDMDL
MODEL 3
REMARK VINA RESULT:     -12.4      2.126      8.242
REMARK SMILES O=C(CCC(=O)Nc1ccc(C(=O)N2CCOCC2)cc1)NCCCCCCNC(=O)c1ccc(-c2c3nc(c(-c4c(F)c(F)c(F)c(F)c4F)c4ccc([nH]4)c(-c4c(F)c(F)c(F)c(F)c4F)c4nc(c(-c5c(F)c(F)c(F)c(F)c5F)c5ccc2[nH]5)C=C4)C=C3)cc1
REMARK SMILES IDX 24 1 23 2 22 3 1 4 2 5 3 7 4 8 5 9 6 10 7 11 8 13 9 14 21 15
REMARK SMILES IDX 10 16 20 17 11 18 12 19 13 20 14 21 15 22 19 23 16 24 18 25
REMARK SMILES IDX 17 26 25 27 26 28 27 29 28 30 29 31 30 32 31 34 32 35 33 36
REMARK SMILES IDX 94 37 34 38 93 39 35 40 36 41 37 42 87 43 38 44 92 45 86 46
REMARK SMILES IDX 88 47 39 48 91 49 85 50 84 51 40 53 72 54 52 55 71 56 53 57
REMARK SMILES IDX 56 58 70 59 89 60 54 61 55 62 69 64 90 65 57 66 41 67 42 68
REMARK SMILES IDX 50 69 43 70 44 71 48 72 51 73 45 74 46 75 49 76 47 77 73 78
REMARK SMILES IDX 74 79 82 80 75 81 76 82 80 83 83 84 77 85 78 86 81 87 79 88
REMARK SMILES IDX 58 89 59 90 67 91 60 92 61 93 65 94 68 95 62 96 63 97 66 98
REMARK SMILES IDX 64 99
REMARK H PARENT 22 6 7 12 29 33 88 52 56 63
REMARK Flexibility Score: inf
ROOT
ATOM      1  C   UNL A   1      34.758  32.476  29.210  1.00  0.00     0.021 C 
ENDROOT
BRANCH   1   2
ATOM      2  C   UNL A   1      34.777  31.604  27.959  1.00  0.00     0.116 C 
BRANCH   2   3
ATOM      3  N   UNL A   1      33.662  30.682  27.888  1.00  0.00    -0.356 N 
ATOM      4  O   UNL A   1      34.773  29.018  26.758  1.00  0.00    -0.275 OA
ATOM      5  C   UNL A   1      33.778  29.422  27.351  1.00  0.00     0.220 C 
ATOM      6  H   UNL A   1      32.787  30.970  28.237  1.00  0.00     0.163 HD
BRANCH   5   7
ATOM      7  C   UNL A   1      32.560  28.548  27.571  1.00  0.00     0.110 C 
BRANCH   7   8
ATOM      8  C   UNL A   1      31.456  28.675  26.522  1.00  0.00     0.110 C 
BRANCH   8   9
ATOM      9  C   UNL A   1      31.743  29.641  25.394  1.00  0.00     0.224 C 
ATOM     10  O   UNL A   1      31.300  30.795  25.474  1.00  0.00    -0.275 OA
ATOM     11  N   UNL A   1      32.405  29.325  24.246  1.00  0.00    -0.326 N 
ATOM     12  H   UNL A   1      32.683  30.116  23.730  1.00  0.00     0.169 HD
BRANCH  11  13
ATOM     13  C   UNL A   1      32.775  28.112  23.637  1.00  0.00     0.041 A 
ATOM     14  C   UNL A   1      31.973  27.674  22.566  1.00  0.00     0.027 A 
ATOM     15  C   UNL A   1      33.769  27.264  24.100  1.00  0.00     0.027 A 
ATOM     16  C   UNL A   1      32.040  26.347  22.114  1.00  0.00     0.016 A 
ATOM     17  C   UNL A   1      33.829  25.943  23.665  1.00  0.00     0.016 A 
ATOM     18  C   UNL A   1      32.921  25.458  22.726  1.00  0.00     0.040 A 
BRANCH  18  19
ATOM     19  C   UNL A   1      32.951  24.017  22.357  1.00  0.00     0.254 C 
ATOM     20  O   UNL A   1      33.277  23.668  21.231  1.00  0.00    -0.269 OA
ATOM     21  N   UNL A   1      32.711  23.144  23.401  1.00  0.00    -0.334 N 
ATOM     22  C   UNL A   1      31.385  22.964  23.990  1.00  0.00     0.148 C 
ATOM     23  C   UNL A   1      33.688  22.127  23.754  1.00  0.00     0.148 C 
ATOM     24  C   UNL A   1      31.479  22.711  25.500  1.00  0.00     0.181 C 
ATOM     25  C   UNL A   1      33.727  21.985  25.281  1.00  0.00     0.181 C 
ATOM     26  O   UNL A   1      32.424  21.665  25.798  1.00  0.00    -0.378 OA
ENDBRANCH  18  19
ENDBRANCH  11  13
ENDBRANCH   8   9
ENDBRANCH   7   8
ENDBRANCH   5   7
ENDBRANCH   2   3
ENDBRANCH   1   2
BRANCH   1  27
ATOM     27  C   UNL A   1      35.272  33.907  29.020  1.00  0.00     0.002 C 
BRANCH  27  28
ATOM     28  C   UNL A   1      34.410  34.822  28.146  1.00  0.00     0.002 C 
BRANCH  28  29
ATOM     29  C   UNL A   1      33.119  35.336  28.786  1.00  0.00     0.021 C 
BRANCH  29  30
ATOM     30  C   UNL A   1      33.273  36.543  29.709  1.00  0.00     0.116 C 
BRANCH  30  31
ATOM     31  N   UNL A   1      32.402  36.501  30.871  1.00  0.00    -0.352 N 
ATOM     32  C   UNL A   1      32.552  35.813  32.050  1.00  0.00     0.251 C 
ATOM     33  H   UNL A   1      31.583  37.045  30.803  1.00  0.00     0.163 HD
ATOM     34  O   UNL A   1      31.662  35.840  32.896  1.00  0.00    -0.269 OA
BRANCH  32  35
ATOM     35  C   UNL A   1      33.767  35.003  32.290  1.00  0.00     0.039 A 
ATOM     36  C   UNL A   1      35.013  35.629  32.207  1.00  0.00     0.014 A 
ATOM     37  C   UNL A   1      33.685  33.642  32.594  1.00  0.00     0.014 A 
ATOM     38  C   UNL A   1      36.173  34.908  32.499  1.00  0.00     0.010 A 
ATOM     39  C   UNL A   1      34.835  32.942  32.953  1.00  0.00     0.010 A 
ATOM     40  C   UNL A   1      36.091  33.568  32.912  1.00  0.00    -0.014 A 
BRANCH  40  41
ATOM     41  C   UNL A   1      37.304  32.810  33.312  1.00  0.00     0.031 A 
ATOM     42  C   UNL A   1      38.002  33.128  34.604  1.00  0.00     0.074 A 
ATOM     43  C   UNL A   1      37.814  31.883  32.479  1.00  0.00     0.049 A 
ATOM     44  N   UNL A   1      39.112  32.630  35.090  1.00  0.00    -0.248 NA
ATOM     45  C   UNL A   1      37.386  34.160  35.452  1.00  0.00     0.031 C 
ATOM     46  C   UNL A   1      37.255  31.517  31.177  1.00  0.00     0.029 A 
ATOM     47  N   UNL A   1      38.927  31.088  32.598  1.00  0.00    -0.354 N 
ATOM     48  C   UNL A   1      39.333  33.298  36.287  1.00  0.00     0.074 A 
ATOM     49  C   UNL A   1      38.271  34.270  36.431  1.00  0.00     0.031 C 
ATOM     50  C   UNL A   1      38.016  30.557  30.627  1.00  0.00     0.029 A 
ATOM     51  C   UNL A   1      39.135  30.267  31.516  1.00  0.00     0.049 A 
ATOM     52  H   UNL A   1      39.519  31.104  33.384  1.00  0.00     0.167 HD
ATOM     53  C   UNL A   1      40.320  33.100  37.195  1.00  0.00     0.037 A 
ATOM     54  C   UNL A   1      40.123  29.386  31.266  1.00  0.00     0.037 A 
ATOM     55  C   UNL A   1      41.360  32.115  37.060  1.00  0.00     0.049 A 
ATOM     56  C   UNL A   1      41.210  29.191  32.290  1.00  0.00     0.074 A 
ATOM     57  C   UNL A   1      42.368  31.798  37.954  1.00  0.00     0.029 A 
ATOM     58  N   UNL A   1      41.527  31.288  35.959  1.00  0.00    -0.354 N 
ATOM     59  N   UNL A   1      41.370  29.778  33.450  1.00  0.00    -0.248 NA
ATOM     60  C   UNL A   1      42.251  28.206  31.969  1.00  0.00     0.031 C 
ATOM     61  C   UNL A   1      43.173  30.812  37.373  1.00  0.00     0.029 A 
ATOM     62  C   UNL A   1      42.636  30.477  36.142  1.00  0.00     0.049 A 
ATOM     63  H   UNL A   1      40.944  31.280  35.166  1.00  0.00     0.167 HD
ATOM     64  C   UNL A   1      42.508  29.216  34.010  1.00  0.00     0.074 A 
ATOM     65  C   UNL A   1      42.992  28.228  33.067  1.00  0.00     0.031 C 
ATOM     66  C   UNL A   1      43.100  29.491  35.198  1.00  0.00     0.037 A 
BRANCH  53  67
ATOM     67  C   UNL A   1      40.318  33.968  38.420  1.00  0.00     0.064 A 
ATOM     68  C   UNL A   1      41.026  35.179  38.464  1.00  0.00     0.173 A 
ATOM     69  C   UNL A   1      39.571  33.605  39.551  1.00  0.00     0.173 A 
ATOM     70  F   UNL A   1      41.766  35.568  37.415  1.00  0.00    -0.203 F 
ATOM     71  C   UNL A   1      41.009  35.979  39.605  1.00  0.00     0.198 A 
ATOM     72  C   UNL A   1      39.530  34.422  40.678  1.00  0.00     0.198 A 
ATOM     73  F   UNL A   1      38.871  32.461  39.560  1.00  0.00    -0.203 F 
ATOM     74  F   UNL A   1      41.732  37.106  39.641  1.00  0.00    -0.200 F 
ATOM     75  C   UNL A   1      40.256  35.604  40.706  1.00  0.00     0.200 A 
ATOM     76  F   UNL A   1      38.791  34.065  41.737  1.00  0.00    -0.200 F 
ATOM     77  F   UNL A   1      40.234  36.378  41.800  1.00  0.00    -0.200 F 
ENDBRANCH  53  67
BRANCH  54  78
ATOM     78  C   UNL A   1      40.119  28.603  30.003  1.00  0.00     0.064 A 
ATOM     79  C   UNL A   1      39.472  27.361  29.930  1.00  0.00     0.173 A 
ATOM     80  C   UNL A   1      40.765  29.072  28.850  1.00  0.00     0.173 A 
ATOM     81  F   UNL A   1      38.858  26.862  31.013  1.00  0.00    -0.203 F 
ATOM     82  C   UNL A   1      39.489  26.609  28.757  1.00  0.00     0.198 A 
ATOM     83  C   UNL A   1      40.756  28.332  27.669  1.00  0.00     0.198 A 
ATOM     84  F   UNL A   1      41.395  30.256  28.867  1.00  0.00    -0.203 F 
ATOM     85  F   UNL A   1      38.903  25.405  28.729  1.00  0.00    -0.200 F 
ATOM     86  C   UNL A   1      40.126  27.097  27.627  1.00  0.00     0.200 A 
ATOM     87  F   UNL A   1      41.362  28.813  26.576  1.00  0.00    -0.200 F 
ATOM     88  F   UNL A   1      40.140  26.374  26.499  1.00  0.00    -0.200 F 
ENDBRANCH  54  78
BRANCH  66  89
ATOM     89  C   UNL A   1      44.315  28.690  35.566  1.00  0.00     0.064 A 
ATOM     90  C   UNL A   1      45.607  29.112  35.223  1.00  0.00     0.173 A 
ATOM     91  C   UNL A   1      44.185  27.504  36.304  1.00  0.00     0.173 A 
ATOM     92  F   UNL A   1      45.784  30.231  34.504  1.00  0.00    -0.203 F 
ATOM     93  C   UNL A   1      46.724  28.362  35.585  1.00  0.00     0.198 A 
ATOM     94  C   UNL A   1      45.305  26.774  36.691  1.00  0.00     0.198 A 
ATOM     95  F   UNL A   1      42.970  27.060  36.663  1.00  0.00    -0.203 F 
ATOM     96  F   UNL A   1      47.947  28.760  35.206  1.00  0.00    -0.200 F 
ATOM     97  C   UNL A   1      46.573  27.200  36.325  1.00  0.00     0.200 A 
ATOM     98  F   UNL A   1      45.157  25.658  37.419  1.00  0.00    -0.200 F 
ATOM     99  F   UNL A   1      47.649  26.484  36.680  1.00  0.00    -0.200 F 
ENDBRANCH  66  89
ENDBRANCH  40  41
ENDBRANCH  32  35
ENDBRANCH  30  31
ENDBRANCH  29  30
ENDBRANCH  28  29
ENDBRANCH  27  28
ENDBRANCH   1  27
TORSDOF 17
ENDMDL
