MODEL 1
REMARK VINA RESULT:     -11.7      0.000      0.000
REMARK SMILES CC(C)(C)OC(=O)N1CCC[C@H]1C(=O)N1CCC[C@H]1C(=O)N1CCC[C@@H]1C(=O)NCCCCCCNC(=O)c1ccc(-c2c3nc(c(-c4c(F)c(F)c(F)c(F)c4F)c4ccc([nH]4)c(-c4c(F)c(F)c(F)c(F)c4F)c4nc(c(-c5c(F)c(F)c(F)c(F)c5F)c5ccc2[nH]5)C=C4)C=C3)cc1
REMARK SMILES IDX 30 1 29 2 27 3 28 4 26 6 22 7 23 8 24 9 25 10 20 11 21 12
REMARK SMILES IDX 19 13 15 14 16 15 17 16 18 17 13 18 14 19 12 20 8 21 9 22
REMARK SMILES IDX 10 23 11 24 6 25 7 26 5 27 2 28 1 29 3 30 4 31 31 32 32 33
REMARK SMILES IDX 33 34 34 35 35 36 36 37 37 38 38 40 39 41 40 42 101 43 41 44
REMARK SMILES IDX 100 45 42 46 43 47 44 48 94 49 45 50 99 51 93 52 95 53 46 54
REMARK SMILES IDX 98 55 92 56 91 57 47 59 79 60 59 61 78 62 60 63 63 64 77 65
REMARK SMILES IDX 96 66 61 67 62 68 76 70 97 71 64 72 48 73 49 74 57 75 50 76
REMARK SMILES IDX 51 77 55 78 58 79 52 80 53 81 56 82 54 83 80 84 81 85 89 86
REMARK SMILES IDX 82 87 83 88 87 89 90 90 84 91 85 92 88 93 86 94 65 95 66 96
REMARK SMILES IDX 74 97 67 98 68 99 72 100 75 101 69 102 70 103 73 104 71 105
REMARK H PARENT 29 5 36 39 95 58 63 69
REMARK Flexibility Score: inf
ROOT
ATOM      1  C   UNL A   1      36.446  23.431  25.821  1.00  0.00     0.116 C 
ENDROOT
BRANCH   1   2
ATOM      2  N   UNL A   1      35.632  22.732  26.794  1.00  0.00    -0.354 N 
ATOM      3  C   UNL A   1      34.650  21.796  26.636  1.00  0.00     0.242 C 
ATOM      4  O   UNL A   1      34.011  21.479  27.646  1.00  0.00    -0.273 OA
ATOM      5  H   UNL A   1      35.820  22.971  27.731  1.00  0.00     0.163 HD
BRANCH   3   6
ATOM      6  C   UNL A   1      34.203  21.301  25.243  1.00  0.00     0.174 C 
ATOM      7  N   UNL A   1      32.773  21.038  25.149  1.00  0.00    -0.329 N 
ATOM      8  C   UNL A   1      32.503  19.784  24.478  1.00  0.00     0.120 C 
ATOM      9  C   UNL A   1      33.767  18.960  24.662  1.00  0.00     0.024 C 
ATOM     10  C   UNL A   1      34.886  19.982  24.866  1.00  0.00     0.037 C 
BRANCH   7  11
ATOM     11  C   UNL A   1      31.877  22.091  25.242  1.00  0.00     0.246 C 
ATOM     12  O   UNL A   1      31.148  22.245  26.221  1.00  0.00    -0.272 OA
BRANCH  11  13
ATOM     13  C   UNL A   1      31.800  23.010  24.002  1.00  0.00     0.174 C 
ATOM     14  N   UNL A   1      32.827  24.054  24.048  1.00  0.00    -0.329 N 
ATOM     15  C   UNL A   1      33.952  23.675  23.227  1.00  0.00     0.120 C 
ATOM     16  C   UNL A   1      33.274  22.993  22.057  1.00  0.00     0.024 C 
ATOM     17  C   UNL A   1      32.106  22.239  22.710  1.00  0.00     0.037 C 
BRANCH  14  18
ATOM     18  C   UNL A   1      32.751  25.108  24.920  1.00  0.00     0.246 C 
ATOM     19  O   UNL A   1      33.295  25.026  26.021  1.00  0.00    -0.272 OA
BRANCH  18  20
ATOM     20  C   UNL A   1      31.930  26.369  24.543  1.00  0.00     0.178 C 
ATOM     21  N   UNL A   1      32.744  27.301  23.751  1.00  0.00    -0.296 N 
ATOM     22  C   UNL A   1      32.561  27.061  22.338  1.00  0.00     0.124 C 
ATOM     23  C   UNL A   1      31.081  26.755  22.256  1.00  0.00     0.024 C 
ATOM     24  C   UNL A   1      30.780  26.009  23.563  1.00  0.00     0.037 C 
BRANCH  21  25
ATOM     25  C   UNL A   1      33.371  28.389  24.293  1.00  0.00     0.410 C 
ATOM     26  O   UNL A   1      33.894  29.270  23.626  1.00  0.00    -0.224 OA
BRANCH  25  27
ATOM     27  O   UNL A   1      33.379  28.356  25.648  1.00  0.00    -0.444 OA
BRANCH  27  28
ATOM     28  C   UNL A   1      32.526  29.227  26.436  1.00  0.00     0.106 C 
ATOM     29  C   UNL A   1      33.494  30.188  27.137  1.00  0.00     0.056 C 
ATOM     30  C   UNL A   1      31.806  28.367  27.478  1.00  0.00     0.056 C 
ATOM     31  C   UNL A   1      31.528  30.066  25.623  1.00  0.00     0.056 C 
ENDBRANCH  27  28
ENDBRANCH  25  27
ENDBRANCH  21  25
ENDBRANCH  18  20
ENDBRANCH  14  18
ENDBRANCH  11  13
ENDBRANCH   7  11
ENDBRANCH   3   6
ENDBRANCH   1   2
BRANCH   1  32
ATOM     32  C   UNL A   1      37.891  23.555  26.287  1.00  0.00     0.021 C 
BRANCH  32  33
ATOM     33  C   UNL A   1      38.717  22.282  26.072  1.00  0.00     0.002 C 
BRANCH  33  34
ATOM     34  C   UNL A   1      38.172  21.328  25.004  1.00  0.00     0.002 C 
BRANCH  34  35
ATOM     35  C   UNL A   1      38.782  19.924  25.001  1.00  0.00     0.021 C 
BRANCH  35  36
ATOM     36  C   UNL A   1      39.552  19.568  26.266  1.00  0.00     0.116 C 
BRANCH  36  37
ATOM     37  N   UNL A   1      40.776  18.845  25.962  1.00  0.00    -0.352 N 
ATOM     38  C   UNL A   1      42.067  19.296  25.868  1.00  0.00     0.251 C 
ATOM     39  H   UNL A   1      40.660  17.881  25.800  1.00  0.00     0.163 HD
ATOM     40  O   UNL A   1      42.929  18.567  25.381  1.00  0.00    -0.269 OA
BRANCH  38  41
ATOM     41  C   UNL A   1      42.433  20.652  26.332  1.00  0.00     0.039 A 
ATOM     42  C   UNL A   1      42.877  21.583  25.389  1.00  0.00     0.014 A 
ATOM     43  C   UNL A   1      42.396  20.999  27.687  1.00  0.00     0.014 A 
ATOM     44  C   UNL A   1      43.244  22.865  25.796  1.00  0.00     0.010 A 
ATOM     45  C   UNL A   1      42.685  22.303  28.082  1.00  0.00     0.010 A 
ATOM     46  C   UNL A   1      43.128  23.244  27.144  1.00  0.00    -0.014 A 
BRANCH  46  47
ATOM     47  C   UNL A   1      43.481  24.619  27.573  1.00  0.00     0.031 A 
ATOM     48  C   UNL A   1      44.918  25.065  27.603  1.00  0.00     0.074 A 
ATOM     49  C   UNL A   1      42.504  25.457  27.966  1.00  0.00     0.049 A 
ATOM     50  N   UNL A   1      45.415  26.232  27.928  1.00  0.00    -0.248 NA
ATOM     51  C   UNL A   1      45.933  24.060  27.250  1.00  0.00     0.031 C 
ATOM     52  C   UNL A   1      41.083  25.115  28.049  1.00  0.00     0.029 A 
ATOM     53  N   UNL A   1      42.554  26.768  28.365  1.00  0.00    -0.354 N 
ATOM     54  C   UNL A   1      46.793  26.097  27.828  1.00  0.00     0.074 A 
ATOM     55  C   UNL A   1      47.059  24.722  27.471  1.00  0.00     0.031 C 
ATOM     56  C   UNL A   1      40.392  26.200  28.434  1.00  0.00     0.029 A 
ATOM     57  C   UNL A   1      41.322  27.303  28.649  1.00  0.00     0.049 A 
ATOM     58  H   UNL A   1      43.394  27.276  28.442  1.00  0.00     0.167 HD
ATOM     59  C   UNL A   1      47.749  27.043  27.993  1.00  0.00     0.037 A 
ATOM     60  C   UNL A   1      40.982  28.551  29.023  1.00  0.00     0.037 A 
ATOM     61  C   UNL A   1      47.477  28.419  28.319  1.00  0.00     0.049 A 
ATOM     62  C   UNL A   1      42.058  29.593  29.153  1.00  0.00     0.074 A 
ATOM     63  C   UNL A   1      48.367  29.471  28.448  1.00  0.00     0.029 A 
ATOM     64  N   UNL A   1      46.212  28.934  28.567  1.00  0.00    -0.354 N 
ATOM     65  N   UNL A   1      43.352  29.474  28.979  1.00  0.00    -0.248 NA
ATOM     66  C   UNL A   1      41.622  30.948  29.514  1.00  0.00     0.031 C 
ATOM     67  C   UNL A   1      47.645  30.614  28.809  1.00  0.00     0.029 A 
ATOM     68  C   UNL A   1      46.301  30.285  28.861  1.00  0.00     0.049 A 
ATOM     69  H   UNL A   1      45.376  28.416  28.537  1.00  0.00     0.167 HD
ATOM     70  C   UNL A   1      43.882  30.738  29.189  1.00  0.00     0.074 A 
ATOM     71  C   UNL A   1      42.766  31.616  29.477  1.00  0.00     0.031 C 
ATOM     72  C   UNL A   1      45.177  31.139  29.151  1.00  0.00     0.037 A 
BRANCH  59  73
ATOM     73  C   UNL A   1      49.179  26.623  27.813  1.00  0.00     0.064 A 
ATOM     74  C   UNL A   1      49.749  26.483  26.537  1.00  0.00     0.173 A 
ATOM     75  C   UNL A   1      50.000  26.386  28.926  1.00  0.00     0.173 A 
ATOM     76  F   UNL A   1      49.004  26.684  25.440  1.00  0.00    -0.203 F 
ATOM     77  C   UNL A   1      51.077  26.093  26.383  1.00  0.00     0.198 A 
ATOM     78  C   UNL A   1      51.337  26.025  28.767  1.00  0.00     0.198 A 
ATOM     79  F   UNL A   1      49.509  26.509  30.167  1.00  0.00    -0.203 F 
ATOM     80  F   UNL A   1      51.584  25.917  25.154  1.00  0.00    -0.200 F 
ATOM     81  C   UNL A   1      51.872  25.871  27.498  1.00  0.00     0.200 A 
ATOM     82  F   UNL A   1      52.106  25.823  29.845  1.00  0.00    -0.200 F 
ATOM     83  F   UNL A   1      53.150  25.502  27.347  1.00  0.00    -0.200 F 
ENDBRANCH  59  73
BRANCH  60  84
ATOM     84  C   UNL A   1      39.554  28.892  29.249  1.00  0.00     0.064 A 
ATOM     85  C   UNL A   1      38.975  28.754  30.520  1.00  0.00     0.173 A 
ATOM     86  C   UNL A   1      38.743  29.368  28.211  1.00  0.00     0.173 A 
ATOM     87  F   UNL A   1      39.709  28.286  31.541  1.00  0.00    -0.203 F 
ATOM     88  C   UNL A   1      37.634  29.057  30.736  1.00  0.00     0.198 A 
ATOM     89  C   UNL A   1      37.408  29.697  28.434  1.00  0.00     0.198 A 
ATOM     90  F   UNL A   1      39.252  29.527  26.981  1.00  0.00    -0.203 F 
ATOM     91  F   UNL A   1      37.095  28.874  31.949  1.00  0.00    -0.200 F 
ATOM     92  C   UNL A   1      36.852  29.534  29.694  1.00  0.00     0.200 A 
ATOM     93  F   UNL A   1      36.660  30.174  27.430  1.00  0.00    -0.200 F 
ATOM     94  F   UNL A   1      35.563  29.831  29.904  1.00  0.00    -0.200 F 
ENDBRANCH  60  84
BRANCH  72  95
ATOM     95  C   UNL A   1      45.445  32.592  29.414  1.00  0.00     0.064 A 
ATOM     96  C   UNL A   1      45.711  33.067  30.707  1.00  0.00     0.173 A 
ATOM     97  C   UNL A   1      45.438  33.518  28.360  1.00  0.00     0.173 A 
ATOM     98  F   UNL A   1      45.712  32.223  31.749  1.00  0.00    -0.203 F 
ATOM     99  C   UNL A   1      45.923  34.422  30.940  1.00  0.00     0.198 A 
ATOM    100  C   UNL A   1      45.681  34.869  28.593  1.00  0.00     0.198 A 
ATOM    101  F   UNL A   1      45.196  33.113  27.104  1.00  0.00    -0.203 F 
ATOM    102  F   UNL A   1      46.115  34.863  32.192  1.00  0.00    -0.200 F 
ATOM    103  C   UNL A   1      45.912  35.322  29.884  1.00  0.00     0.200 A 
ATOM    104  F   UNL A   1      45.681  35.734  27.570  1.00  0.00    -0.200 F 
ATOM    105  F   UNL A   1      46.113  36.626  30.111  1.00  0.00    -0.200 F 
ENDBRANCH  72  95
ENDBRANCH  46  47
ENDBRANCH  38  41
ENDBRANCH  36  37
ENDBRANCH  35  36
ENDBRANCH  34  35
ENDBRANCH  33  34
ENDBRANCH  32  33
ENDBRANCH   1  32
TORSDOF 20
ENDMDL
MODEL 2
REMARK VINA RESULT:     -11.5      0.550      6.991
REMARK SMILES CC(C)(C)OC(=O)N1CCC[C@H]1C(=O)N1CCC[C@H]1C(=O)N1CCC[C@@H]1C(=O)NCCCCCCNC(=O)c1ccc(-c2c3nc(c(-c4c(F)c(F)c(F)c(F)c4F)c4ccc([nH]4)c(-c4c(F)c(F)c(F)c(F)c4F)c4nc(c(-c5c(F)c(F)c(F)c(F)c5F)c5ccc2[nH]5)C=C4)C=C3)cc1
REMARK SMILES IDX 30 1 29 2 27 3 28 4 26 6 22 7 23 8 24 9 25 10 20 11 21 12
REMARK SMILES IDX 19 13 15 14 16 15 17 16 18 17 13 18 14 19 12 20 8 21 9 22
REMARK SMILES IDX 10 23 11 24 6 25 7 26 5 27 2 28 1 29 3 30 4 31 31 32 32 33
REMARK SMILES IDX 33 34 34 35 35 36 36 37 37 38 38 40 39 41 40 42 101 43 41 44
REMARK SMILES IDX 100 45 42 46 43 47 44 48 94 49 45 50 99 51 93 52 95 53 46 54
REMARK SMILES IDX 98 55 92 56 91 57 47 59 79 60 59 61 78 62 60 63 63 64 77 65
REMARK SMILES IDX 96 66 61 67 62 68 76 70 97 71 64 72 48 73 49 74 57 75 50 76
REMARK SMILES IDX 51 77 55 78 58 79 52 80 53 81 56 82 54 83 80 84 81 85 89 86
REMARK SMILES IDX 82 87 83 88 87 89 90 90 84 91 85 92 88 93 86 94 65 95 66 96
REMARK SMILES IDX 74 97 67 98 68 99 72 100 75 101 69 102 70 103 73 104 71 105
REMARK H PARENT 29 5 36 39 95 58 63 69
REMARK Flexibility Score: inf
ROOT
ATOM      1  C   UNL A   1      36.353  23.529  25.772  1.00  0.00     0.116 C 
ENDROOT
BRANCH   1   2
ATOM      2  N   UNL A   1      35.608  22.791  26.771  1.00  0.00    -0.354 N 
ATOM      3  C   UNL A   1      34.665  21.813  26.645  1.00  0.00     0.242 C 
ATOM      4  O   UNL A   1      34.077  21.465  27.677  1.00  0.00    -0.273 OA
ATOM      5  H   UNL A   1      35.818  23.037  27.701  1.00  0.00     0.163 HD
BRANCH   3   6
ATOM      6  C   UNL A   1      34.189  21.301  25.268  1.00  0.00     0.174 C 
ATOM      7  N   UNL A   1      32.761  21.018  25.212  1.00  0.00    -0.329 N 
ATOM      8  C   UNL A   1      32.492  19.755  24.558  1.00  0.00     0.120 C 
ATOM      9  C   UNL A   1      33.771  18.949  24.715  1.00  0.00     0.024 C 
ATOM     10  C   UNL A   1      34.881  19.988  24.884  1.00  0.00     0.037 C 
BRANCH   7  11
ATOM     11  C   UNL A   1      31.853  22.059  25.319  1.00  0.00     0.246 C 
ATOM     12  O   UNL A   1      31.176  22.235  26.331  1.00  0.00    -0.272 OA
BRANCH  11  13
ATOM     13  C   UNL A   1      31.694  22.934  24.056  1.00  0.00     0.174 C 
ATOM     14  N   UNL A   1      32.707  23.992  24.009  1.00  0.00    -0.329 N 
ATOM     15  C   UNL A   1      33.789  23.600  23.139  1.00  0.00     0.120 C 
ATOM     16  C   UNL A   1      33.056  22.871  22.032  1.00  0.00     0.024 C 
ATOM     17  C   UNL A   1      31.937  22.124  22.774  1.00  0.00     0.037 C 
BRANCH  14  18
ATOM     18  C   UNL A   1      32.664  25.074  24.848  1.00  0.00     0.246 C 
ATOM     19  O   UNL A   1      33.196  25.005  25.957  1.00  0.00    -0.272 OA
BRANCH  18  20
ATOM     20  C   UNL A   1      31.895  26.354  24.428  1.00  0.00     0.178 C 
ATOM     21  N   UNL A   1      32.772  27.265  23.680  1.00  0.00    -0.296 N 
ATOM     22  C   UNL A   1      32.660  27.026  22.259  1.00  0.00     0.124 C 
ATOM     23  C   UNL A   1      31.180  26.755  22.098  1.00  0.00     0.024 C 
ATOM     24  C   UNL A   1      30.791  26.019  23.386  1.00  0.00     0.037 C 
BRANCH  21  25
ATOM     25  C   UNL A   1      33.396  28.339  24.255  1.00  0.00     0.410 C 
ATOM     26  O   UNL A   1      33.997  29.191  23.618  1.00  0.00    -0.224 OA
BRANCH  25  27
ATOM     27  O   UNL A   1      33.302  28.324  25.606  1.00  0.00    -0.444 OA
BRANCH  27  28
ATOM     28  C   UNL A   1      32.568  29.348  26.330  1.00  0.00     0.106 C 
ATOM     29  C   UNL A   1      31.819  28.583  27.429  1.00  0.00     0.056 C 
ATOM     30  C   UNL A   1      31.565  29.983  25.365  1.00  0.00     0.056 C 
ATOM     31  C   UNL A   1      33.442  30.415  27.006  1.00  0.00     0.056 C 
ENDBRANCH  27  28
ENDBRANCH  25  27
ENDBRANCH  21  25
ENDBRANCH  18  20
ENDBRANCH  14  18
ENDBRANCH  11  13
ENDBRANCH   7  11
ENDBRANCH   3   6
ENDBRANCH   1   2
BRANCH   1  32
ATOM     32  C   UNL A   1      37.810  23.704  26.177  1.00  0.00     0.021 C 
BRANCH  32  33
ATOM     33  C   UNL A   1      38.638  22.420  26.064  1.00  0.00     0.002 C 
BRANCH  33  34
ATOM     34  C   UNL A   1      38.179  21.446  24.974  1.00  0.00     0.002 C 
BRANCH  34  35
ATOM     35  C   UNL A   1      38.809  20.053  25.026  1.00  0.00     0.021 C 
BRANCH  35  36
ATOM     36  C   UNL A   1      39.546  19.741  26.321  1.00  0.00     0.116 C 
BRANCH  36  37
ATOM     37  N   UNL A   1      40.764  18.986  26.078  1.00  0.00    -0.352 N 
ATOM     38  C   UNL A   1      42.055  19.418  25.921  1.00  0.00     0.251 C 
ATOM     39  H   UNL A   1      40.642  18.011  26.015  1.00  0.00     0.163 HD
ATOM     40  O   UNL A   1      42.907  18.640  25.499  1.00  0.00    -0.269 OA
BRANCH  38  41
ATOM     41  C   UNL A   1      42.432  20.813  26.240  1.00  0.00     0.039 A 
ATOM     42  C   UNL A   1      42.519  21.189  27.583  1.00  0.00     0.014 A 
ATOM     43  C   UNL A   1      42.647  21.763  25.237  1.00  0.00     0.014 A 
ATOM     44  C   UNL A   1      42.857  22.500  27.918  1.00  0.00     0.010 A 
ATOM     45  C   UNL A   1      43.063  23.050  25.570  1.00  0.00     0.010 A 
ATOM     46  C   UNL A   1      43.156  23.436  26.914  1.00  0.00    -0.014 A 
BRANCH  46  47
ATOM     47  C   UNL A   1      43.554  24.820  27.268  1.00  0.00     0.031 A 
ATOM     48  C   UNL A   1      42.521  25.822  27.708  1.00  0.00     0.074 A 
ATOM     49  C   UNL A   1      44.846  25.180  27.164  1.00  0.00     0.049 A 
ATOM     50  N   UNL A   1      42.683  27.068  28.078  1.00  0.00    -0.248 NA
ATOM     51  C   UNL A   1      41.119  25.378  27.705  1.00  0.00     0.031 C 
ATOM     52  C   UNL A   1      45.926  24.318  26.680  1.00  0.00     0.029 A 
ATOM     53  N   UNL A   1      45.473  26.364  27.460  1.00  0.00    -0.354 N 
ATOM     54  C   UNL A   1      41.409  27.554  28.339  1.00  0.00     0.074 A 
ATOM     55  C   UNL A   1      40.480  26.491  28.030  1.00  0.00     0.031 C 
ATOM     56  C   UNL A   1      47.087  24.988  26.750  1.00  0.00     0.029 A 
ATOM     57  C   UNL A   1      46.831  26.330  27.259  1.00  0.00     0.049 A 
ATOM     58  H   UNL A   1      44.995  27.160  27.786  1.00  0.00     0.167 HD
ATOM     59  C   UNL A   1      41.050  28.769  28.819  1.00  0.00     0.037 A 
ATOM     60  C   UNL A   1      47.765  27.274  27.479  1.00  0.00     0.037 A 
ATOM     61  C   UNL A   1      41.982  29.815  29.154  1.00  0.00     0.049 A 
ATOM     62  C   UNL A   1      47.345  28.597  28.056  1.00  0.00     0.074 A 
ATOM     63  C   UNL A   1      41.728  31.058  29.705  1.00  0.00     0.029 A 
ATOM     64  N   UNL A   1      43.355  29.733  28.968  1.00  0.00    -0.354 N 
ATOM     65  N   UNL A   1      46.145  29.018  28.375  1.00  0.00    -0.248 NA
ATOM     66  C   UNL A   1      48.414  29.569  28.322  1.00  0.00     0.031 C 
ATOM     67  C   UNL A   1      42.943  31.744  29.818  1.00  0.00     0.029 A 
ATOM     68  C   UNL A   1      43.959  30.910  29.380  1.00  0.00     0.049 A 
ATOM     69  H   UNL A   1      43.830  28.954  28.598  1.00  0.00     0.167 HD
ATOM     70  C   UNL A   1      46.314  30.293  28.895  1.00  0.00     0.074 A 
ATOM     71  C   UNL A   1      47.737  30.566  28.875  1.00  0.00     0.031 C 
ATOM     72  C   UNL A   1      45.377  31.163  29.346  1.00  0.00     0.037 A 
BRANCH  59  73
ATOM     73  C   UNL A   1      39.585  29.029  29.021  1.00  0.00     0.064 A 
ATOM     74  C   UNL A   1      38.976  28.869  30.277  1.00  0.00     0.173 A 
ATOM     75  C   UNL A   1      38.785  29.474  27.958  1.00  0.00     0.173 A 
ATOM     76  F   UNL A   1      39.693  28.434  31.323  1.00  0.00    -0.203 F 
ATOM     77  C   UNL A   1      37.617  29.114  30.452  1.00  0.00     0.198 A 
ATOM     78  C   UNL A   1      37.431  29.746  28.144  1.00  0.00     0.198 A 
ATOM     79  F   UNL A   1      39.315  29.647  26.738  1.00  0.00    -0.203 F 
ATOM     80  F   UNL A   1      37.048  28.905  31.647  1.00  0.00    -0.200 F 
ATOM     81  C   UNL A   1      36.847  29.559  29.387  1.00  0.00     0.200 A 
ATOM     82  F   UNL A   1      36.691  30.187  27.118  1.00  0.00    -0.200 F 
ATOM     83  F   UNL A   1      35.541  29.800  29.559  1.00  0.00    -0.200 F 
ENDBRANCH  59  73
BRANCH  60  84
ATOM     84  C   UNL A   1      49.194  26.980  27.199  1.00  0.00     0.064 A 
ATOM     85  C   UNL A   1      50.042  26.507  28.211  1.00  0.00     0.173 A 
ATOM     86  C   UNL A   1      49.740  27.157  25.920  1.00  0.00     0.173 A 
ATOM     87  F   UNL A   1      49.569  26.338  29.455  1.00  0.00    -0.203 F 
ATOM     88  C   UNL A   1      51.386  26.245  27.960  1.00  0.00     0.198 A 
ATOM     89  C   UNL A   1      51.078  26.867  25.662  1.00  0.00     0.198 A 
ATOM     90  F   UNL A   1      48.967  27.597  24.916  1.00  0.00    -0.203 F 
ATOM     91  F   UNL A   1      52.184  25.836  28.955  1.00  0.00    -0.200 F 
ATOM     92  C   UNL A   1      51.902  26.420  26.684  1.00  0.00     0.200 A 
ATOM     93  F   UNL A   1      51.568  27.021  24.426  1.00  0.00    -0.200 F 
ATOM     94  F   UNL A   1      53.194  26.161  26.441  1.00  0.00    -0.200 F 
ENDBRANCH  60  84
BRANCH  72  95
ATOM     95  C   UNL A   1      45.871  32.481  29.867  1.00  0.00     0.064 A 
ATOM     96  C   UNL A   1      45.999  33.599  29.029  1.00  0.00     0.173 A 
ATOM     97  C   UNL A   1      46.217  32.627  31.218  1.00  0.00     0.173 A 
ATOM     98  F   UNL A   1      45.696  33.505  27.725  1.00  0.00    -0.203 F 
ATOM     99  C   UNL A   1      46.491  34.806  29.518  1.00  0.00     0.198 A 
ATOM    100  C   UNL A   1      46.680  33.845  31.710  1.00  0.00     0.198 A 
ATOM    101  F   UNL A   1      46.105  31.590  32.061  1.00  0.00    -0.203 F 
ATOM    102  F   UNL A   1      46.663  35.843  28.686  1.00  0.00    -0.200 F 
ATOM    103  C   UNL A   1      46.827  34.929  30.858  1.00  0.00     0.200 A 
ATOM    104  F   UNL A   1      46.994  33.965  33.007  1.00  0.00    -0.200 F 
ATOM    105  F   UNL A   1      47.305  36.089  31.326  1.00  0.00    -0.200 F 
ENDBRANCH  72  95
ENDBRANCH  46  47
ENDBRANCH  38  41
ENDBRANCH  36  37
ENDBRANCH  35  36
ENDBRANCH  34  35
ENDBRANCH  33  34
ENDBRANCH  32  33
ENDBRANCH   1  32
TORSDOF 20
ENDMDL
MODEL 3
REMARK VINA RESULT:     -11.4      4.353      8.644
REMARK SMILES CC(C)(C)OC(=O)N1CCC[C@H]1C(=O)N1CCC[C@H]1C(=O)N1CCC[C@@H]1C(=O)NCCCCCCNC(=O)c1ccc(-c2c3nc(c(-c4c(F)c(F)c(F)c(F)c4F)c4ccc([nH]4)c(-c4c(F)c(F)c(F)c(F)c4F)c4nc(c(-c5c(F)c(F)c(F)c(F)c5F)c5ccc2[nH]5)C=C4)C=C3)cc1
REMARK SMILES IDX 30 1 29 2 27 3 28 4 26 6 22 7 23 8 24 9 25 10 20 11 21 12
REMARK SMILES IDX 19 13 15 14 16 15 17 16 18 17 13 18 14 19 12 20 8 21 9 22
REMARK SMILES IDX 10 23 11 24 6 25 7 26 5 27 2 28 1 29 3 30 4 31 31 32 32 33
REMARK SMILES IDX 33 34 34 35 35 36 36 37 37 38 38 40 39 41 40 42 101 43 41 44
REMARK SMILES IDX 100 45 42 46 43 47 44 48 94 49 45 50 99 51 93 52 95 53 46 54
REMARK SMILES IDX 98 55 92 56 91 57 47 59 79 60 59 61 78 62 60 63 63 64 77 65
REMARK SMILES IDX 96 66 61 67 62 68 76 70 97 71 64 72 48 73 49 74 57 75 50 76
REMARK SMILES IDX 51 77 55 78 58 79 52 80 53 81 56 82 54 83 80 84 81 85 89 86
REMARK SMILES IDX 82 87 83 88 87 89 90 90 84 91 85 92 88 93 86 94 65 95 66 96
REMARK SMILES IDX 74 97 67 98 68 99 72 100 75 101 69 102 70 103 73 104 71 105
REMARK H PARENT 29 5 36 39 95 58 63 69
REMARK Flexibility Score: inf
ROOT
ATOM      1  C   UNL A   1      37.250  23.446  25.599  1.00  0.00     0.116 C 
ENDROOT
BRANCH   1   2
ATOM      2  N   UNL A   1      36.182  22.988  26.464  1.00  0.00    -0.354 N 
ATOM      3  C   UNL A   1      35.072  22.239  26.199  1.00  0.00     0.242 C 
ATOM      4  O   UNL A   1      34.242  22.126  27.109  1.00  0.00    -0.273 OA
ATOM      5  H   UNL A   1      36.273  23.263  27.405  1.00  0.00     0.163 HD
BRANCH   3   6
ATOM      6  C   UNL A   1      34.746  21.725  24.780  1.00  0.00     0.174 C 
ATOM      7  N   UNL A   1      33.757  22.534  24.080  1.00  0.00    -0.329 N 
ATOM      8  C   UNL A   1      32.761  21.711  23.425  1.00  0.00     0.120 C 
ATOM      9  C   UNL A   1      32.771  20.397  24.189  1.00  0.00     0.024 C 
ATOM     10  C   UNL A   1      34.166  20.306  24.812  1.00  0.00     0.037 C 
BRANCH   7  11
ATOM     11  C   UNL A   1      34.071  23.832  23.712  1.00  0.00     0.246 C 
ATOM     12  O   UNL A   1      35.055  24.096  23.023  1.00  0.00    -0.272 OA
BRANCH  11  13
ATOM     13  C   UNL A   1      33.149  24.928  24.292  1.00  0.00     0.174 C 
ATOM     14  N   UNL A   1      32.317  25.532  23.247  1.00  0.00    -0.329 N 
ATOM     15  C   UNL A   1      30.999  24.945  23.266  1.00  0.00     0.120 C 
ATOM     16  C   UNL A   1      30.758  24.758  24.750  1.00  0.00     0.024 C 
ATOM     17  C   UNL A   1      32.137  24.345  25.288  1.00  0.00     0.037 C 
BRANCH  14  18
ATOM     18  C   UNL A   1      32.839  26.373  22.301  1.00  0.00     0.246 C 
ATOM     19  O   UNL A   1      33.309  25.905  21.263  1.00  0.00    -0.272 OA
BRANCH  18  20
ATOM     20  C   UNL A   1      32.895  27.901  22.565  1.00  0.00     0.178 C 
ATOM     21  N   UNL A   1      31.625  28.377  23.130  1.00  0.00    -0.296 N 
ATOM     22  C   UNL A   1      31.678  28.373  24.574  1.00  0.00     0.124 C 
ATOM     23  C   UNL A   1      33.092  28.837  24.842  1.00  0.00     0.024 C 
ATOM     24  C   UNL A   1      33.910  28.230  23.695  1.00  0.00     0.037 C 
BRANCH  21  25
ATOM     25  C   UNL A   1      30.651  28.971  22.375  1.00  0.00     0.410 C 
ATOM     26  O   UNL A   1      30.884  29.701  21.423  1.00  0.00    -0.224 OA
BRANCH  25  27
ATOM     27  O   UNL A   1      29.406  28.688  22.828  1.00  0.00    -0.444 OA
BRANCH  27  28
ATOM     28  C   UNL A   1      28.316  29.639  22.708  1.00  0.00     0.106 C 
ATOM     29  C   UNL A   1      28.731  30.819  23.597  1.00  0.00     0.056 C 
ATOM     30  C   UNL A   1      27.052  28.986  23.272  1.00  0.00     0.056 C 
ATOM     31  C   UNL A   1      28.077  30.176  21.288  1.00  0.00     0.056 C 
ENDBRANCH  27  28
ENDBRANCH  25  27
ENDBRANCH  21  25
ENDBRANCH  18  20
ENDBRANCH  14  18
ENDBRANCH  11  13
ENDBRANCH   7  11
ENDBRANCH   3   6
ENDBRANCH   1   2
BRANCH   1  32
ATOM     32  C   UNL A   1      38.617  23.222  26.231  1.00  0.00     0.021 C 
BRANCH  32  33
ATOM     33  C   UNL A   1      39.132  21.786  26.088  1.00  0.00     0.002 C 
BRANCH  33  34
ATOM     34  C   UNL A   1      40.316  21.429  26.993  1.00  0.00     0.002 C 
BRANCH  34  35
ATOM     35  C   UNL A   1      41.629  21.119  26.269  1.00  0.00     0.021 C 
BRANCH  35  36
ATOM     36  C   UNL A   1      42.838  21.873  26.806  1.00  0.00     0.116 C 
BRANCH  36  37
ATOM     37  N   UNL A   1      43.502  22.634  25.760  1.00  0.00    -0.352 N 
ATOM     38  C   UNL A   1      43.582  23.989  25.569  1.00  0.00     0.251 C 
ATOM     39  H   UNL A   1      43.966  22.091  25.082  1.00  0.00     0.163 HD
ATOM     40  O   UNL A   1      44.001  24.426  24.500  1.00  0.00    -0.269 OA
BRANCH  38  41
ATOM     41  C   UNL A   1      43.160  24.931  26.630  1.00  0.00     0.039 A 
ATOM     42  C   UNL A   1      42.182  24.517  27.538  1.00  0.00     0.014 A 
ATOM     43  C   UNL A   1      43.676  26.229  26.706  1.00  0.00     0.014 A 
ATOM     44  C   UNL A   1      41.751  25.386  28.540  1.00  0.00     0.010 A 
ATOM     45  C   UNL A   1      43.305  27.067  27.755  1.00  0.00     0.010 A 
ATOM     46  C   UNL A   1      42.327  26.661  28.672  1.00  0.00    -0.014 A 
BRANCH  46  47
ATOM     47  C   UNL A   1      41.898  27.572  29.761  1.00  0.00     0.031 A 
ATOM     48  C   UNL A   1      40.644  28.392  29.621  1.00  0.00     0.074 A 
ATOM     49  C   UNL A   1      42.659  27.682  30.865  1.00  0.00     0.049 A 
ATOM     50  N   UNL A   1      40.101  29.224  30.474  1.00  0.00    -0.248 NA
ATOM     51  C   UNL A   1      39.919  28.286  28.346  1.00  0.00     0.031 C 
ATOM     52  C   UNL A   1      43.933  26.993  31.084  1.00  0.00     0.029 A 
ATOM     53  N   UNL A   1      42.474  28.409  32.013  1.00  0.00    -0.354 N 
ATOM     54  C   UNL A   1      38.984  29.745  29.836  1.00  0.00     0.074 A 
ATOM     55  C   UNL A   1      38.957  29.182  28.504  1.00  0.00     0.031 C 
ATOM     56  C   UNL A   1      44.394  27.300  32.307  1.00  0.00     0.029 A 
ATOM     57  C   UNL A   1      43.463  28.223  32.947  1.00  0.00     0.049 A 
ATOM     58  H   UNL A   1      41.704  29.007  32.154  1.00  0.00     0.167 HD
ATOM     59  C   UNL A   1      38.049  30.595  30.326  1.00  0.00     0.037 A 
ATOM     60  C   UNL A   1      43.593  28.729  34.187  1.00  0.00     0.037 A 
ATOM     61  C   UNL A   1      38.064  31.129  31.664  1.00  0.00     0.049 A 
ATOM     62  C   UNL A   1      42.518  29.633  34.724  1.00  0.00     0.074 A 
ATOM     63  C   UNL A   1      37.134  31.947  32.280  1.00  0.00     0.029 A 
ATOM     64  N   UNL A   1      39.066  30.892  32.594  1.00  0.00    -0.354 N 
ATOM     65  N   UNL A   1      41.424  30.056  34.139  1.00  0.00    -0.248 NA
ATOM     66  C   UNL A   1      42.689  30.114  36.101  1.00  0.00     0.031 C 
ATOM     67  C   UNL A   1      37.591  32.236  33.571  1.00  0.00     0.029 A 
ATOM     68  C   UNL A   1      38.783  31.560  33.775  1.00  0.00     0.049 A 
ATOM     69  H   UNL A   1      39.860  30.332  32.438  1.00  0.00     0.167 HD
ATOM     70  C   UNL A   1      40.766  30.835  35.080  1.00  0.00     0.074 A 
ATOM     71  C   UNL A   1      41.572  30.804  36.284  1.00  0.00     0.031 C 
ATOM     72  C   UNL A   1      39.602  31.520  34.959  1.00  0.00     0.037 A 
BRANCH  59  73
ATOM     73  C   UNL A   1      36.925  30.992  29.413  1.00  0.00     0.064 A 
ATOM     74  C   UNL A   1      36.877  32.262  28.815  1.00  0.00     0.173 A 
ATOM     75  C   UNL A   1      35.901  30.084  29.105  1.00  0.00     0.173 A 
ATOM     76  F   UNL A   1      37.824  33.171  29.087  1.00  0.00    -0.203 F 
ATOM     77  C   UNL A   1      35.830  32.617  27.969  1.00  0.00     0.198 A 
ATOM     78  C   UNL A   1      34.871  30.433  28.234  1.00  0.00     0.198 A 
ATOM     79  F   UNL A   1      35.900  28.856  29.644  1.00  0.00    -0.203 F 
ATOM     80  F   UNL A   1      35.778  33.852  27.451  1.00  0.00    -0.200 F 
ATOM     81  C   UNL A   1      34.831  31.701  27.674  1.00  0.00     0.200 A 
ATOM     82  F   UNL A   1      33.914  29.543  27.940  1.00  0.00    -0.200 F 
ATOM     83  F   UNL A   1      33.828  32.042  26.855  1.00  0.00    -0.200 F 
ENDBRANCH  59  73
BRANCH  60  84
ATOM     84  C   UNL A   1      44.762  28.350  35.022  1.00  0.00     0.064 A 
ATOM     85  C   UNL A   1      44.731  27.197  35.820  1.00  0.00     0.173 A 
ATOM     86  C   UNL A   1      45.932  29.122  35.035  1.00  0.00     0.173 A 
ATOM     87  F   UNL A   1      43.627  26.436  35.853  1.00  0.00    -0.203 F 
ATOM     88  C   UNL A   1      45.817  26.844  36.617  1.00  0.00     0.198 A 
ATOM     89  C   UNL A   1      47.028  28.753  35.811  1.00  0.00     0.198 A 
ATOM     90  F   UNL A   1      46.015  30.228  34.281  1.00  0.00    -0.203 F 
ATOM     91  F   UNL A   1      45.744  25.762  37.404  1.00  0.00    -0.200 F 
ATOM     92  C   UNL A   1      46.967  27.620  36.608  1.00  0.00     0.200 A 
ATOM     93  F   UNL A   1      48.144  29.494  35.787  1.00  0.00    -0.200 F 
ATOM     94  F   UNL A   1      48.014  27.276  37.370  1.00  0.00    -0.200 F 
ENDBRANCH  60  84
BRANCH  72  95
ATOM     95  C   UNL A   1      39.131  32.273  36.168  1.00  0.00     0.064 A 
ATOM     96  C   UNL A   1      39.533  33.595  36.412  1.00  0.00     0.173 A 
ATOM     97  C   UNL A   1      38.264  31.667  37.090  1.00  0.00     0.173 A 
ATOM     98  F   UNL A   1      40.373  34.212  35.567  1.00  0.00    -0.203 F 
ATOM     99  C   UNL A   1      39.115  34.270  37.555  1.00  0.00     0.198 A 
ATOM    100  C   UNL A   1      37.824  32.356  38.217  1.00  0.00     0.198 A 
ATOM    101  F   UNL A   1      37.845  30.408  36.899  1.00  0.00    -0.203 F 
ATOM    102  F   UNL A   1      39.561  35.510  37.799  1.00  0.00    -0.200 F 
ATOM    103  C   UNL A   1      38.259  33.652  38.455  1.00  0.00     0.200 A 
ATOM    104  F   UNL A   1      36.989  31.762  39.080  1.00  0.00    -0.200 F 
ATOM    105  F   UNL A   1      37.862  34.301  39.557  1.00  0.00    -0.200 F 
ENDBRANCH  72  95
ENDBRANCH  46  47
ENDBRANCH  38  41
ENDBRANCH  36  37
ENDBRANCH  35  36
ENDBRANCH  34  35
ENDBRANCH  33  34
ENDBRANCH  32  33
ENDBRANCH   1  32
TORSDOF 20
ENDMDL
