MODEL 1
REMARK VINA RESULT:     -12.1      0.000      0.000
REMARK SMILES O=C(NCCCCCCNC(=O)[C@@H]1CCC[N@@H+](Cc2ccc(F)cc2Cl)C1)c1ccc(-c2c3nc(c(-c4c(F)c(F)c(F)c(F)c4F)c4ccc([nH]4)c(-c4c(F)c(F)c(F)c(F)c4F)c4nc(c(-c5c(F)c(F)c(F)c(F)c5F)c5ccc2[nH]5)C=C4)C=C3)cc1
REMARK SMILES IDX 6 1 5 2 4 3 3 4 1 5 2 6 28 8 29 9 90 10 30 11 89 12 31 13
REMARK SMILES IDX 32 14 33 15 83 16 34 17 88 18 82 19 84 20 35 21 87 22 81 23
REMARK SMILES IDX 80 24 36 26 68 27 48 28 67 29 49 30 52 31 66 32 85 33 50 34
REMARK SMILES IDX 51 35 65 37 86 38 53 39 37 40 38 41 46 42 39 43 40 44 44 45
REMARK SMILES IDX 47 46 41 47 42 48 45 49 43 50 69 51 70 52 78 53 71 54 72 55
REMARK SMILES IDX 76 56 79 57 73 58 74 59 77 60 75 61 54 62 55 63 63 64 56 65
REMARK SMILES IDX 57 66 61 67 64 68 58 69 59 70 62 71 60 72 7 73 8 74 9 75
REMARK SMILES IDX 10 76 11 77 12 79 13 80 14 81 27 82 15 83 17 84 16 85 18 87
REMARK SMILES IDX 19 88 20 89 25 90 21 91 24 92 26 93 22 94 23 95
REMARK H PARENT 3 7 84 25 52 36 10 78 17 86
REMARK Flexibility Score: inf
ROOT
ATOM      1  C   UNL A   1      31.591  30.869  26.218  1.00  0.00     0.002 C 
ENDROOT
BRANCH   1   2
ATOM      2  C   UNL A   1      31.395  32.250  26.841  1.00  0.00     0.021 C 
BRANCH   2   3
ATOM      3  C   UNL A   1      32.681  33.041  27.028  1.00  0.00     0.116 C 
BRANCH   3   4
ATOM      4  N   UNL A   1      32.445  34.343  27.629  1.00  0.00    -0.352 N 
ATOM      5  O   UNL A   1      32.607  35.934  29.225  1.00  0.00    -0.269 OA
ATOM      6  C   UNL A   1      33.039  34.896  28.736  1.00  0.00     0.251 C 
ATOM      7  H   UNL A   1      31.769  34.902  27.183  1.00  0.00     0.163 HD
BRANCH   6   8
ATOM      8  C   UNL A   1      34.200  34.217  29.349  1.00  0.00     0.039 A 
ATOM      9  C   UNL A   1      35.501  34.589  29.001  1.00  0.00     0.014 A 
ATOM     10  C   UNL A   1      33.983  33.200  30.282  1.00  0.00     0.014 A 
ATOM     11  C   UNL A   1      36.579  33.863  29.490  1.00  0.00     0.010 A 
ATOM     12  C   UNL A   1      35.073  32.528  30.840  1.00  0.00     0.010 A 
ATOM     13  C   UNL A   1      36.379  32.843  30.434  1.00  0.00    -0.014 A 
BRANCH  13  14
ATOM     14  C   UNL A   1      37.558  32.188  31.051  1.00  0.00     0.031 A 
ATOM     15  C   UNL A   1      38.029  32.559  32.427  1.00  0.00     0.074 A 
ATOM     16  C   UNL A   1      38.195  31.232  30.347  1.00  0.00     0.049 A 
ATOM     17  N   UNL A   1      39.040  32.078  33.108  1.00  0.00    -0.248 NA
ATOM     18  C   UNL A   1      37.276  33.606  33.133  1.00  0.00     0.031 C 
ATOM     19  C   UNL A   1      37.833  30.805  28.992  1.00  0.00     0.029 A 
ATOM     20  N   UNL A   1      39.266  30.440  30.668  1.00  0.00    -0.354 N 
ATOM     21  C   UNL A   1      39.057  32.774  34.309  1.00  0.00     0.074 A 
ATOM     22  C   UNL A   1      37.967  33.725  34.260  1.00  0.00     0.031 C 
ATOM     23  C   UNL A   1      38.640  29.804  28.615  1.00  0.00     0.029 A 
ATOM     24  C   UNL A   1      39.616  29.563  29.670  1.00  0.00     0.049 A 
ATOM     25  H   UNL A   1      39.739  30.494  31.529  1.00  0.00     0.167 HD
ATOM     26  C   UNL A   1      39.905  32.623  35.355  1.00  0.00     0.037 A 
ATOM     27  C   UNL A   1      40.626  28.677  29.603  1.00  0.00     0.037 A 
ATOM     28  C   UNL A   1      40.977  31.661  35.399  1.00  0.00     0.049 A 
ATOM     29  C   UNL A   1      41.558  28.550  30.772  1.00  0.00     0.074 A 
ATOM     30  C   UNL A   1      41.862  31.402  36.433  1.00  0.00     0.029 A 
ATOM     31  N   UNL A   1      41.314  30.803  34.362  1.00  0.00    -0.354 N 
ATOM     32  N   UNL A   1      41.536  29.183  31.919  1.00  0.00    -0.248 NA
ATOM     33  C   UNL A   1      42.660  27.588  30.635  1.00  0.00     0.031 C 
ATOM     34  C   UNL A   1      42.762  30.421  36.004  1.00  0.00     0.029 A 
ATOM     35  C   UNL A   1      42.408  30.032  34.722  1.00  0.00     0.049 A 
ATOM     36  H   UNL A   1      40.845  30.750  33.498  1.00  0.00     0.167 HD
ATOM     37  C   UNL A   1      42.605  28.685  32.648  1.00  0.00     0.074 A 
ATOM     38  C   UNL A   1      43.242  27.680  31.822  1.00  0.00     0.031 C 
ATOM     39  C   UNL A   1      43.026  29.034  33.888  1.00  0.00     0.037 A 
BRANCH  26  40
ATOM     40  C   UNL A   1      39.726  33.524  36.542  1.00  0.00     0.064 A 
ATOM     41  C   UNL A   1      40.332  34.787  36.609  1.00  0.00     0.173 A 
ATOM     42  C   UNL A   1      38.869  33.152  37.591  1.00  0.00     0.173 A 
ATOM     43  F   UNL A   1      41.166  35.188  35.637  1.00  0.00    -0.203 F 
ATOM     44  C   UNL A   1      40.097  35.639  37.685  1.00  0.00     0.198 A 
ATOM     45  C   UNL A   1      38.617  34.016  38.653  1.00  0.00     0.198 A 
ATOM     46  F   UNL A   1      38.259  31.957  37.573  1.00  0.00    -0.203 F 
ATOM     47  F   UNL A   1      40.709  36.830  37.742  1.00  0.00    -0.200 F 
ATOM     48  C   UNL A   1      39.233  35.257  38.701  1.00  0.00     0.200 A 
ATOM     49  F   UNL A   1      37.771  33.651  39.627  1.00  0.00    -0.200 F 
ATOM     50  F   UNL A   1      38.995  36.085  39.728  1.00  0.00    -0.200 F 
ENDBRANCH  26  40
BRANCH  27  51
ATOM     51  C   UNL A   1      40.810  27.856  28.377  1.00  0.00     0.064 A 
ATOM     52  C   UNL A   1      41.575  28.325  27.301  1.00  0.00     0.173 A 
ATOM     53  C   UNL A   1      40.225  26.587  28.260  1.00  0.00     0.173 A 
ATOM     54  F   UNL A   1      42.139  29.541  27.361  1.00  0.00    -0.203 F 
ATOM     55  C   UNL A   1      41.728  27.566  26.144  1.00  0.00     0.198 A 
ATOM     56  C   UNL A   1      40.408  25.814  27.115  1.00  0.00     0.198 A 
ATOM     57  F   UNL A   1      39.490  26.089  29.265  1.00  0.00    -0.203 F 
ATOM     58  F   UNL A   1      42.424  28.058  25.110  1.00  0.00    -0.200 F 
ATOM     59  C   UNL A   1      41.150  26.307  26.055  1.00  0.00     0.200 A 
ATOM     60  F   UNL A   1      39.862  24.593  27.042  1.00  0.00    -0.200 F 
ATOM     61  F   UNL A   1      41.303  25.576  24.944  1.00  0.00    -0.200 F 
ENDBRANCH  27  51
BRANCH  39  62
ATOM     62  C   UNL A   1      44.215  28.299  34.433  1.00  0.00     0.064 A 
ATOM     63  C   UNL A   1      45.520  28.785  34.264  1.00  0.00     0.173 A 
ATOM     64  C   UNL A   1      44.044  27.106  35.151  1.00  0.00     0.173 A 
ATOM     65  F   UNL A   1      45.736  29.912  33.569  1.00  0.00    -0.203 F 
ATOM     66  C   UNL A   1      46.613  28.088  34.770  1.00  0.00     0.198 A 
ATOM     67  C   UNL A   1      45.137  26.427  35.681  1.00  0.00     0.198 A 
ATOM     68  F   UNL A   1      42.816  26.602  35.344  1.00  0.00    -0.203 F 
ATOM     69  F   UNL A   1      47.855  28.543  34.551  1.00  0.00    -0.200 F 
ATOM     70  C   UNL A   1      46.421  26.914  35.483  1.00  0.00     0.200 A 
ATOM     71  F   UNL A   1      44.949  25.299  36.379  1.00  0.00    -0.200 F 
ATOM     72  F   UNL A   1      47.474  26.246  35.971  1.00  0.00    -0.200 F 
ENDBRANCH  39  62
ENDBRANCH  13  14
ENDBRANCH   6   8
ENDBRANCH   3   4
ENDBRANCH   2   3
ENDBRANCH   1   2
BRANCH   1  73
ATOM     73  C   UNL A   1      32.178  29.813  27.162  1.00  0.00     0.002 C 
BRANCH  73  74
ATOM     74  C   UNL A   1      33.693  29.917  27.404  1.00  0.00     0.021 C 
BRANCH  74  75
ATOM     75  C   UNL A   1      34.523  28.888  26.633  1.00  0.00     0.116 C 
BRANCH  75  76
ATOM     76  N   UNL A   1      34.087  28.823  25.254  1.00  0.00    -0.356 N 
ATOM     77  C   UNL A   1      33.619  27.760  24.542  1.00  0.00     0.228 C 
ATOM     78  H   UNL A   1      34.134  29.671  24.758  1.00  0.00     0.163 HD
ATOM     79  O   UNL A   1      33.729  27.818  23.318  1.00  0.00    -0.275 OA
BRANCH  77  80
ATOM     80  C   UNL A   1      32.930  26.610  25.272  1.00  0.00     0.133 C 
ATOM     81  C   UNL A   1      33.326  25.239  24.727  1.00  0.00     0.025 C 
ATOM     82  C   UNL A   1      31.409  26.820  25.228  1.00  0.00     0.276 C 
ATOM     83  C   UNL A   1      32.644  24.912  23.405  1.00  0.00     0.062 C 
ATOM     84  N   UNL A   1      30.826  26.521  23.919  1.00  0.00    -0.330 N 
ATOM     85  C   UNL A   1      31.139  25.170  23.452  1.00  0.00     0.262 C 
ATOM     86  H   UNL A   1      31.299  27.155  23.274  1.00  0.00     0.348 HD
BRANCH  84  87
ATOM     87  C   UNL A   1      29.407  26.886  23.779  1.00  0.00     0.300 C 
BRANCH  87  88
ATOM     88  C   UNL A   1      29.123  28.181  23.038  1.00  0.00     0.025 A 
ATOM     89  C   UNL A   1      30.182  28.825  22.367  1.00  0.00     0.014 A 
ATOM     90  C   UNL A   1      27.856  28.795  23.024  1.00  0.00     0.052 A 
ATOM     91  C   UNL A   1      29.998  30.069  21.765  1.00  0.00     0.040 A 
ATOM     92  C   UNL A   1      27.672  30.036  22.412  1.00  0.00     0.060 A 
ATOM     93  Cl  UNL A   1      26.463  28.069  23.747  1.00  0.00    -0.084 Cl
ATOM     94  C   UNL A   1      28.747  30.666  21.803  1.00  0.00     0.124 A 
ATOM     95  F   UNL A   1      28.575  31.870  21.241  1.00  0.00    -0.207 F 
ENDBRANCH  87  88
ENDBRANCH  84  87
ENDBRANCH  77  80
ENDBRANCH  75  76
ENDBRANCH  74  75
ENDBRANCH  73  74
ENDBRANCH   1  73
TORSDOF 15
ENDMDL
MODEL 2
REMARK VINA RESULT:     -12.0      1.654      2.812
REMARK SMILES O=C(NCCCCCCNC(=O)[C@@H]1CCC[N@@H+](Cc2ccc(F)cc2Cl)C1)c1ccc(-c2c3nc(c(-c4c(F)c(F)c(F)c(F)c4F)c4ccc([nH]4)c(-c4c(F)c(F)c(F)c(F)c4F)c4nc(c(-c5c(F)c(F)c(F)c(F)c5F)c5ccc2[nH]5)C=C4)C=C3)cc1
REMARK SMILES IDX 6 1 5 2 4 3 3 4 1 5 2 6 28 8 29 9 90 10 30 11 89 12 31 13
REMARK SMILES IDX 32 14 33 15 83 16 34 17 88 18 82 19 84 20 35 21 87 22 81 23
REMARK SMILES IDX 80 24 36 26 68 27 48 28 67 29 49 30 52 31 66 32 85 33 50 34
REMARK SMILES IDX 51 35 65 37 86 38 53 39 37 40 38 41 46 42 39 43 40 44 44 45
REMARK SMILES IDX 47 46 41 47 42 48 45 49 43 50 69 51 70 52 78 53 71 54 72 55
REMARK SMILES IDX 76 56 79 57 73 58 74 59 77 60 75 61 54 62 55 63 63 64 56 65
REMARK SMILES IDX 57 66 61 67 64 68 58 69 59 70 62 71 60 72 7 73 8 74 9 75
REMARK SMILES IDX 10 76 11 77 12 79 13 80 14 81 27 82 15 83 17 84 16 85 18 87
REMARK SMILES IDX 19 88 20 89 25 90 21 91 24 92 26 93 22 94 23 95
REMARK H PARENT 3 7 84 25 52 36 10 78 17 86
REMARK Flexibility Score: inf
ROOT
ATOM      1  C   UNL A   1      34.519  34.474  28.322  1.00  0.00     0.002 C 
ENDROOT
BRANCH   1   2
ATOM      2  C   UNL A   1      33.222  35.118  28.807  1.00  0.00     0.021 C 
BRANCH   2   3
ATOM      3  C   UNL A   1      33.421  36.315  29.725  1.00  0.00     0.116 C 
BRANCH   3   4
ATOM      4  N   UNL A   1      32.466  36.335  30.820  1.00  0.00    -0.352 N 
ATOM      5  O   UNL A   1      31.555  35.648  32.771  1.00  0.00    -0.269 OA
ATOM      6  C   UNL A   1      32.525  35.670  32.020  1.00  0.00     0.251 C 
ATOM      7  H   UNL A   1      31.672  36.900  30.683  1.00  0.00     0.163 HD
BRANCH   6   8
ATOM      8  C   UNL A   1      33.766  34.961  32.394  1.00  0.00     0.039 A 
ATOM      9  C   UNL A   1      35.004  35.598  32.283  1.00  0.00     0.014 A 
ATOM     10  C   UNL A   1      33.688  33.647  32.862  1.00  0.00     0.014 A 
ATOM     11  C   UNL A   1      36.171  34.883  32.522  1.00  0.00     0.010 A 
ATOM     12  C   UNL A   1      34.859  32.956  33.184  1.00  0.00     0.010 A 
ATOM     13  C   UNL A   1      36.110  33.564  32.999  1.00  0.00    -0.014 A 
BRANCH  13  14
ATOM     14  C   UNL A   1      37.367  32.878  33.387  1.00  0.00     0.031 A 
ATOM     15  C   UNL A   1      38.052  33.177  34.689  1.00  0.00     0.074 A 
ATOM     16  C   UNL A   1      37.876  31.960  32.543  1.00  0.00     0.049 A 
ATOM     17  N   UNL A   1      39.155  32.662  35.175  1.00  0.00    -0.248 NA
ATOM     18  C   UNL A   1      37.429  34.187  35.557  1.00  0.00     0.031 C 
ATOM     19  C   UNL A   1      37.301  31.604  31.243  1.00  0.00     0.029 A 
ATOM     20  N   UNL A   1      38.978  31.152  32.649  1.00  0.00    -0.354 N 
ATOM     21  C   UNL A   1      39.367  33.294  36.392  1.00  0.00     0.074 A 
ATOM     22  C   UNL A   1      38.290  34.246  36.565  1.00  0.00     0.031 C 
ATOM     23  C   UNL A   1      38.029  30.623  30.692  1.00  0.00     0.029 A 
ATOM     24  C   UNL A   1      39.158  30.327  31.565  1.00  0.00     0.049 A 
ATOM     25  H   UNL A   1      39.581  31.161  33.426  1.00  0.00     0.167 HD
ATOM     26  C   UNL A   1      40.369  33.089  37.282  1.00  0.00     0.037 A 
ATOM     27  C   UNL A   1      40.137  29.446  31.294  1.00  0.00     0.037 A 
ATOM     28  C   UNL A   1      41.426  32.125  37.106  1.00  0.00     0.049 A 
ATOM     29  C   UNL A   1      41.242  29.259  32.292  1.00  0.00     0.074 A 
ATOM     30  C   UNL A   1      42.461  31.813  37.972  1.00  0.00     0.029 A 
ATOM     31  N   UNL A   1      41.588  31.322  35.986  1.00  0.00    -0.354 N 
ATOM     32  N   UNL A   1      41.407  29.831  33.459  1.00  0.00    -0.248 NA
ATOM     33  C   UNL A   1      42.300  28.304  31.934  1.00  0.00     0.031 C 
ATOM     34  C   UNL A   1      43.273  30.856  37.356  1.00  0.00     0.029 A 
ATOM     35  C   UNL A   1      42.718  30.534  36.129  1.00  0.00     0.049 A 
ATOM     36  H   UNL A   1      40.987  31.314  35.206  1.00  0.00     0.167 HD
ATOM     37  C   UNL A   1      42.573  29.296  33.983  1.00  0.00     0.074 A 
ATOM     38  C   UNL A   1      43.063  28.335  33.016  1.00  0.00     0.031 C 
ATOM     39  C   UNL A   1      43.188  29.580  35.157  1.00  0.00     0.037 A 
BRANCH  26  40
ATOM     40  C   UNL A   1      40.387  33.927  38.527  1.00  0.00     0.064 A 
ATOM     41  C   UNL A   1      39.720  33.529  39.694  1.00  0.00     0.173 A 
ATOM     42  C   UNL A   1      41.152  35.104  38.578  1.00  0.00     0.173 A 
ATOM     43  F   UNL A   1      38.969  32.417  39.697  1.00  0.00    -0.203 F 
ATOM     44  C   UNL A   1      39.806  34.283  40.862  1.00  0.00     0.198 A 
ATOM     45  C   UNL A   1      41.256  35.842  39.754  1.00  0.00     0.198 A 
ATOM     46  F   UNL A   1      41.815  35.526  37.491  1.00  0.00    -0.203 F 
ATOM     47  F   UNL A   1      39.138  33.898  41.958  1.00  0.00    -0.200 F 
ATOM     48  C   UNL A   1      40.582  35.433  40.894  1.00  0.00     0.200 A 
ATOM     49  F   UNL A   1      42.017  36.946  39.786  1.00  0.00    -0.200 F 
ATOM     50  F   UNL A   1      40.678  36.148  42.023  1.00  0.00    -0.200 F 
ENDBRANCH  26  40
BRANCH  27  51
ATOM     51  C   UNL A   1      40.118  28.690  30.014  1.00  0.00     0.064 A 
ATOM     52  C   UNL A   1      39.510  27.431  29.927  1.00  0.00     0.173 A 
ATOM     53  C   UNL A   1      40.707  29.213  28.854  1.00  0.00     0.173 A 
ATOM     54  F   UNL A   1      38.949  26.883  31.016  1.00  0.00    -0.203 F 
ATOM     55  C   UNL A   1      39.511  26.713  28.734  1.00  0.00     0.198 A 
ATOM     56  C   UNL A   1      40.678  28.508  27.652  1.00  0.00     0.198 A 
ATOM     57  F   UNL A   1      41.296  30.417  28.882  1.00  0.00    -0.203 F 
ATOM     58  F   UNL A   1      38.966  25.490  28.690  1.00  0.00    -0.200 F 
ATOM     59  C   UNL A   1      40.090  27.255  27.595  1.00  0.00     0.200 A 
ATOM     60  F   UNL A   1      41.223  29.045  26.552  1.00  0.00    -0.200 F 
ATOM     61  F   UNL A   1      40.086  26.566  26.447  1.00  0.00    -0.200 F 
ENDBRANCH  27  51
BRANCH  39  62
ATOM     62  C   UNL A   1      44.442  28.818  35.469  1.00  0.00     0.064 A 
ATOM     63  C   UNL A   1      45.706  29.303  35.103  1.00  0.00     0.173 A 
ATOM     64  C   UNL A   1      44.379  27.599  36.160  1.00  0.00     0.173 A 
ATOM     65  F   UNL A   1      45.817  30.455  34.424  1.00  0.00    -0.203 F 
ATOM     66  C   UNL A   1      46.860  28.580  35.393  1.00  0.00     0.198 A 
ATOM     67  C   UNL A   1      45.536  26.894  36.474  1.00  0.00     0.198 A 
ATOM     68  F   UNL A   1      43.193  27.095  36.536  1.00  0.00    -0.203 F 
ATOM     69  F   UNL A   1      48.054  29.037  34.988  1.00  0.00    -0.200 F 
ATOM     70  C   UNL A   1      46.775  27.381  36.084  1.00  0.00     0.200 A 
ATOM     71  F   UNL A   1      45.453  25.740  37.152  1.00  0.00    -0.200 F 
ATOM     72  F   UNL A   1      47.886  26.688  36.365  1.00  0.00    -0.200 F 
ENDBRANCH  39  62
ENDBRANCH  13  14
ENDBRANCH   6   8
ENDBRANCH   3   4
ENDBRANCH   2   3
ENDBRANCH   1   2
BRANCH   1  73
ATOM     73  C   UNL A   1      34.916  33.190  29.059  1.00  0.00     0.002 C 
BRANCH  73  74
ATOM     74  C   UNL A   1      35.276  31.998  28.157  1.00  0.00     0.021 C 
BRANCH  74  75
ATOM     75  C   UNL A   1      34.108  31.051  27.874  1.00  0.00     0.116 C 
BRANCH  75  76
ATOM     76  N   UNL A   1      34.334  30.329  26.640  1.00  0.00    -0.356 N 
ATOM     77  C   UNL A   1      33.595  29.340  26.065  1.00  0.00     0.228 C 
ATOM     78  H   UNL A   1      35.142  30.592  26.142  1.00  0.00     0.163 HD
ATOM     79  O   UNL A   1      34.180  28.587  25.288  1.00  0.00    -0.275 OA
BRANCH  77  80
ATOM     80  C   UNL A   1      32.097  29.261  26.347  1.00  0.00     0.133 C 
ATOM     81  C   UNL A   1      31.746  28.207  27.396  1.00  0.00     0.025 C 
ATOM     82  C   UNL A   1      31.344  29.021  25.030  1.00  0.00     0.276 C 
ATOM     83  C   UNL A   1      31.798  26.788  26.845  1.00  0.00     0.062 C 
ATOM     84  N   UNL A   1      31.466  27.647  24.540  1.00  0.00    -0.330 N 
ATOM     85  C   UNL A   1      31.039  26.653  25.526  1.00  0.00     0.262 C 
ATOM     86  H   UNL A   1      32.468  27.503  24.418  1.00  0.00     0.348 HD
BRANCH  84  87
ATOM     87  C   UNL A   1      30.920  27.422  23.193  1.00  0.00     0.300 C 
BRANCH  87  88
ATOM     88  C   UNL A   1      29.863  28.410  22.729  1.00  0.00     0.025 A 
ATOM     89  C   UNL A   1      30.268  29.540  21.992  1.00  0.00     0.014 A 
ATOM     90  C   UNL A   1      28.496  28.272  23.038  1.00  0.00     0.052 A 
ATOM     91  C   UNL A   1      29.353  30.530  21.637  1.00  0.00     0.040 A 
ATOM     92  C   UNL A   1      27.581  29.260  22.674  1.00  0.00     0.060 A 
ATOM     93  Cl  UNL A   1      27.866  26.896  23.873  1.00  0.00    -0.084 Cl
ATOM     94  C   UNL A   1      28.020  30.385  21.992  1.00  0.00     0.124 A 
ATOM     95  F   UNL A   1      27.145  31.346  21.668  1.00  0.00    -0.207 F 
ENDBRANCH  87  88
ENDBRANCH  84  87
ENDBRANCH  77  80
ENDBRANCH  75  76
ENDBRANCH  74  75
ENDBRANCH  73  74
ENDBRANCH   1  73
TORSDOF 15
ENDMDL
MODEL 3
REMARK VINA RESULT:     -11.9      0.369      7.386
REMARK SMILES O=C(NCCCCCCNC(=O)[C@@H]1CCC[N@@H+](Cc2ccc(F)cc2Cl)C1)c1ccc(-c2c3nc(c(-c4c(F)c(F)c(F)c(F)c4F)c4ccc([nH]4)c(-c4c(F)c(F)c(F)c(F)c4F)c4nc(c(-c5c(F)c(F)c(F)c(F)c5F)c5ccc2[nH]5)C=C4)C=C3)cc1
REMARK SMILES IDX 6 1 5 2 4 3 3 4 1 5 2 6 28 8 29 9 90 10 30 11 89 12 31 13
REMARK SMILES IDX 32 14 33 15 83 16 34 17 88 18 82 19 84 20 35 21 87 22 81 23
REMARK SMILES IDX 80 24 36 26 68 27 48 28 67 29 49 30 52 31 66 32 85 33 50 34
REMARK SMILES IDX 51 35 65 37 86 38 53 39 37 40 38 41 46 42 39 43 40 44 44 45
REMARK SMILES IDX 47 46 41 47 42 48 45 49 43 50 69 51 70 52 78 53 71 54 72 55
REMARK SMILES IDX 76 56 79 57 73 58 74 59 77 60 75 61 54 62 55 63 63 64 56 65
REMARK SMILES IDX 57 66 61 67 64 68 58 69 59 70 62 71 60 72 7 73 8 74 9 75
REMARK SMILES IDX 10 76 11 77 12 79 13 80 14 81 27 82 15 83 17 84 16 85 18 87
REMARK SMILES IDX 19 88 20 89 25 90 21 91 24 92 26 93 22 94 23 95
REMARK H PARENT 3 7 84 25 52 36 10 78 17 86
REMARK Flexibility Score: inf
ROOT
ATOM      1  C   UNL A   1      31.570  30.820  26.252  1.00  0.00     0.002 C 
ENDROOT
BRANCH   1   2
ATOM      2  C   UNL A   1      31.357  32.229  26.804  1.00  0.00     0.021 C 
BRANCH   2   3
ATOM      3  C   UNL A   1      32.639  33.015  27.027  1.00  0.00     0.116 C 
BRANCH   3   4
ATOM      4  N   UNL A   1      32.390  34.325  27.605  1.00  0.00    -0.352 N 
ATOM      5  O   UNL A   1      32.546  35.951  29.167  1.00  0.00    -0.269 OA
ATOM      6  C   UNL A   1      32.990  34.910  28.692  1.00  0.00     0.251 C 
ATOM      7  H   UNL A   1      31.699  34.864  27.157  1.00  0.00     0.163 HD
BRANCH   6   8
ATOM      8  C   UNL A   1      34.169  34.263  29.303  1.00  0.00     0.039 A 
ATOM      9  C   UNL A   1      34.011  33.339  30.339  1.00  0.00     0.014 A 
ATOM     10  C   UNL A   1      35.445  34.583  28.832  1.00  0.00     0.014 A 
ATOM     11  C   UNL A   1      35.130  32.830  30.986  1.00  0.00     0.010 A 
ATOM     12  C   UNL A   1      36.568  34.003  29.427  1.00  0.00     0.010 A 
ATOM     13  C   UNL A   1      36.419  33.136  30.520  1.00  0.00    -0.014 A 
BRANCH  13  14
ATOM     14  C   UNL A   1      37.587  32.459  31.135  1.00  0.00     0.031 A 
ATOM     15  C   UNL A   1      38.341  31.384  30.408  1.00  0.00     0.074 A 
ATOM     16  C   UNL A   1      37.970  32.847  32.367  1.00  0.00     0.049 A 
ATOM     17  N   UNL A   1      39.385  30.698  30.806  1.00  0.00    -0.248 NA
ATOM     18  C   UNL A   1      37.864  31.024  29.064  1.00  0.00     0.031 C 
ATOM     19  C   UNL A   1      37.299  33.871  33.172  1.00  0.00     0.029 A 
ATOM     20  N   UNL A   1      39.016  32.441  33.154  1.00  0.00    -0.354 N 
ATOM     21  C   UNL A   1      39.677  29.816  29.775  1.00  0.00     0.074 A 
ATOM     22  C   UNL A   1      38.691  30.037  28.739  1.00  0.00     0.031 C 
ATOM     23  C   UNL A   1      37.971  34.042  34.319  1.00  0.00     0.029 A 
ATOM     24  C   UNL A   1      39.079  33.096  34.360  1.00  0.00     0.049 A 
ATOM     25  H   UNL A   1      39.660  31.749  32.882  1.00  0.00     0.167 HD
ATOM     26  C   UNL A   1      40.683  28.910  29.705  1.00  0.00     0.037 A 
ATOM     27  C   UNL A   1      39.923  32.937  35.396  1.00  0.00     0.037 A 
ATOM     28  C   UNL A   1      41.670  28.711  30.736  1.00  0.00     0.049 A 
ATOM     29  C   UNL A   1      41.013  31.911  35.292  1.00  0.00     0.074 A 
ATOM     30  C   UNL A   1      42.753  27.849  30.738  1.00  0.00     0.029 A 
ATOM     31  N   UNL A   1      41.689  29.378  31.953  1.00  0.00    -0.354 N 
ATOM     32  N   UNL A   1      41.305  31.114  34.294  1.00  0.00    -0.248 NA
ATOM     33  C   UNL A   1      41.889  31.759  36.462  1.00  0.00     0.031 C 
ATOM     34  C   UNL A   1      43.400  27.961  31.973  1.00  0.00     0.029 A 
ATOM     35  C   UNL A   1      42.751  28.928  32.721  1.00  0.00     0.049 A 
ATOM     36  H   UNL A   1      41.044  30.069  32.229  1.00  0.00     0.167 HD
ATOM     37  C   UNL A   1      42.407  30.380  34.705  1.00  0.00     0.074 A 
ATOM     38  C   UNL A   1      42.745  30.843  36.034  1.00  0.00     0.031 C 
ATOM     39  C   UNL A   1      43.075  29.404  34.042  1.00  0.00     0.037 A 
BRANCH  26  40
ATOM     40  C   UNL A   1      40.770  28.049  28.478  1.00  0.00     0.064 A 
ATOM     41  C   UNL A   1      41.556  28.414  27.375  1.00  0.00     0.173 A 
ATOM     42  C   UNL A   1      40.125  26.802  28.440  1.00  0.00     0.173 A 
ATOM     43  F   UNL A   1      42.188  29.597  27.358  1.00  0.00    -0.203 F 
ATOM     44  C   UNL A   1      41.683  27.569  26.275  1.00  0.00     0.198 A 
ATOM     45  C   UNL A   1      40.274  25.950  27.349  1.00  0.00     0.198 A 
ATOM     46  F   UNL A   1      39.366  26.403  29.472  1.00  0.00    -0.203 F 
ATOM     47  F   UNL A   1      42.417  27.950  25.220  1.00  0.00    -0.200 F 
ATOM     48  C   UNL A   1      41.050  26.335  26.267  1.00  0.00     0.200 A 
ATOM     49  F   UNL A   1      39.672  24.752  27.349  1.00  0.00    -0.200 F 
ATOM     50  F   UNL A   1      41.187  25.516  25.215  1.00  0.00    -0.200 F 
ENDBRANCH  26  40
BRANCH  27  51
ATOM     51  C   UNL A   1      39.754  33.761  36.621  1.00  0.00     0.064 A 
ATOM     52  C   UNL A   1      38.943  33.328  37.678  1.00  0.00     0.173 A 
ATOM     53  C   UNL A   1      40.402  34.997  36.759  1.00  0.00     0.173 A 
ATOM     54  F   UNL A   1      38.288  32.160  37.584  1.00  0.00    -0.203 F 
ATOM     55  C   UNL A   1      38.767  34.111  38.816  1.00  0.00     0.198 A 
ATOM     56  C   UNL A   1      40.253  35.764  37.912  1.00  0.00     0.198 A 
ATOM     57  F   UNL A   1      41.196  35.454  35.779  1.00  0.00    -0.203 F 
ATOM     58  F   UNL A   1      37.947  33.696  39.791  1.00  0.00    -0.200 F 
ATOM     59  C   UNL A   1      39.427  35.325  38.935  1.00  0.00     0.200 A 
ATOM     60  F   UNL A   1      40.907  36.927  38.029  1.00  0.00    -0.200 F 
ATOM     61  F   UNL A   1      39.262  36.075  40.033  1.00  0.00    -0.200 F 
ENDBRANCH  27  51
BRANCH  39  62
ATOM     62  C   UNL A   1      44.255  28.796  34.739  1.00  0.00     0.064 A 
ATOM     63  C   UNL A   1      44.127  27.651  35.539  1.00  0.00     0.173 A 
ATOM     64  C   UNL A   1      45.534  29.353  34.587  1.00  0.00     0.173 A 
ATOM     65  F   UNL A   1      42.922  27.093  35.730  1.00  0.00    -0.203 F 
ATOM     66  C   UNL A   1      45.231  27.103  36.185  1.00  0.00     0.198 A 
ATOM     67  C   UNL A   1      46.641  28.785  35.210  1.00  0.00     0.198 A 
ATOM     68  F   UNL A   1      45.710  30.445  33.828  1.00  0.00    -0.203 F 
ATOM     69  F   UNL A   1      45.077  26.040  36.988  1.00  0.00    -0.200 F 
ATOM     70  C   UNL A   1      46.488  27.666  36.015  1.00  0.00     0.200 A 
ATOM     71  F   UNL A   1      47.856  29.323  35.035  1.00  0.00    -0.200 F 
ATOM     72  F   UNL A   1      47.550  27.136  36.635  1.00  0.00    -0.200 F 
ENDBRANCH  39  62
ENDBRANCH  13  14
ENDBRANCH   6   8
ENDBRANCH   3   4
ENDBRANCH   2   3
ENDBRANCH   1   2
BRANCH   1  73
ATOM     73  C   UNL A   1      32.213  29.833  27.232  1.00  0.00     0.002 C 
BRANCH  73  74
ATOM     74  C   UNL A   1      33.732  29.986  27.417  1.00  0.00     0.021 C 
BRANCH  74  75
ATOM     75  C   UNL A   1      34.564  28.966  26.634  1.00  0.00     0.116 C 
BRANCH  75  76
ATOM     76  N   UNL A   1      34.155  28.945  25.246  1.00  0.00    -0.356 N 
ATOM     77  C   UNL A   1      33.749  27.896  24.477  1.00  0.00     0.228 C 
ATOM     78  H   UNL A   1      34.172  29.817  24.790  1.00  0.00     0.163 HD
ATOM     79  O   UNL A   1      33.879  28.016  23.260  1.00  0.00    -0.275 OA
BRANCH  77  80
ATOM     80  C   UNL A   1      33.101  26.684  25.141  1.00  0.00     0.133 C 
ATOM     81  C   UNL A   1      33.498  25.364  24.482  1.00  0.00     0.025 C 
ATOM     82  C   UNL A   1      31.577  26.871  25.162  1.00  0.00     0.276 C 
ATOM     83  C   UNL A   1      32.778  25.126  23.162  1.00  0.00     0.062 C 
ATOM     84  N   UNL A   1      30.954  26.662  23.854  1.00  0.00    -0.330 N 
ATOM     85  C   UNL A   1      31.271  25.354  23.277  1.00  0.00     0.262 C 
ATOM     86  H   UNL A   1      31.397  27.349  23.243  1.00  0.00     0.348 HD
BRANCH  84  87
ATOM     87  C   UNL A   1      29.527  27.013  23.787  1.00  0.00     0.300 C 
BRANCH  87  88
ATOM     88  C   UNL A   1      29.187  28.273  23.011  1.00  0.00     0.025 A 
ATOM     89  C   UNL A   1      30.216  28.941  22.318  1.00  0.00     0.014 A 
ATOM     90  C   UNL A   1      27.896  28.833  22.985  1.00  0.00     0.052 A 
ATOM     91  C   UNL A   1      29.979  30.159  21.682  1.00  0.00     0.040 A 
ATOM     92  C   UNL A   1      27.659  30.048  22.339  1.00  0.00     0.060 A 
ATOM     93  Cl  UNL A   1      26.537  28.071  23.734  1.00  0.00    -0.084 Cl
ATOM     94  C   UNL A   1      28.705  30.705  21.709  1.00  0.00     0.124 A 
ATOM     95  F   UNL A   1      28.481  31.884  21.114  1.00  0.00    -0.207 F 
ENDBRANCH  87  88
ENDBRANCH  84  87
ENDBRANCH  77  80
ENDBRANCH  75  76
ENDBRANCH  74  75
ENDBRANCH  73  74
ENDBRANCH   1  73
TORSDOF 15
ENDMDL
