MODEL 1
REMARK VINA RESULT:      -9.5      0.000      0.000
REMARK SMILES O=C(NCCCCCCNC(=O)c1ccccc1NC(=O)c1ccc(N2C(=O)[C@H]3CC=CC[C@H]3C2=O)cc1)c1ccc(-c2c3nc(c(-c4c(F)c(F)c(F)c(F)c4F)c4ccc([nH]4)c(-c4c(F)c(F)c(F)c(F)c4F)c4nc(c(-c5c(F)c(F)c(F)c(F)c5F)c5ccc2[nH]5)C=C4)C=C3)cc1
REMARK SMILES IDX 7 1 6 2 5 3 4 4 3 5 1 6 2 7 39 9 40 10 101 11 41 12 100 13
REMARK SMILES IDX 42 14 43 15 44 16 94 17 45 18 99 19 93 20 95 21 46 22 98 23
REMARK SMILES IDX 92 24 91 25 47 27 79 28 59 29 78 30 60 31 63 32 77 33 96 34
REMARK SMILES IDX 61 35 62 36 76 38 97 39 64 40 48 41 49 42 57 43 50 44 51 45
REMARK SMILES IDX 55 46 58 47 52 48 53 49 56 50 54 51 80 52 81 53 89 54 82 55
REMARK SMILES IDX 83 56 87 57 90 58 84 59 85 60 88 61 86 62 65 63 66 64 74 65
REMARK SMILES IDX 67 66 68 67 72 68 75 69 69 70 70 71 73 72 71 73 8 74 9 75
REMARK SMILES IDX 10 76 11 77 12 79 13 80 14 81 18 82 15 83 17 84 16 85 19 86
REMARK SMILES IDX 20 87 21 89 22 90 23 91 38 92 24 93 37 94 25 95 26 96 27 97
REMARK SMILES IDX 35 98 28 99 29 100 34 101 36 102 30 103 33 104 31 105 32 106
REMARK H PARENT 3 8 95 26 63 37 10 78 19 88
REMARK Flexibility Score: inf
ROOT
ATOM      1  C   UNL A   1      34.972  34.866  32.369  1.00  0.00     0.002 C 
ENDROOT
BRANCH   1   2
ATOM      2  C   UNL A   1      35.541  34.459  33.731  1.00  0.00     0.002 C 
BRANCH   2   3
ATOM      3  C   UNL A   1      36.633  33.389  33.690  1.00  0.00     0.021 C 
BRANCH   3   4
ATOM      4  C   UNL A   1      37.739  33.566  34.723  1.00  0.00     0.116 C 
BRANCH   4   5
ATOM      5  N   UNL A   1      37.570  32.687  35.869  1.00  0.00    -0.352 N 
ATOM      6  O   UNL A   1      37.770  30.784  37.064  1.00  0.00    -0.269 OA
ATOM      7  C   UNL A   1      38.162  31.480  36.130  1.00  0.00     0.251 C 
ATOM      8  H   UNL A   1      36.939  33.005  36.554  1.00  0.00     0.163 HD
BRANCH   7   9
ATOM      9  C   UNL A   1      39.266  31.003  35.274  1.00  0.00     0.039 A 
ATOM     10  C   UNL A   1      39.017  30.171  34.177  1.00  0.00     0.014 A 
ATOM     11  C   UNL A   1      40.569  31.415  35.564  1.00  0.00     0.014 A 
ATOM     12  C   UNL A   1      40.081  29.661  33.439  1.00  0.00     0.010 A 
ATOM     13  C   UNL A   1      41.627  30.961  34.778  1.00  0.00     0.010 A 
ATOM     14  C   UNL A   1      41.394  30.064  33.723  1.00  0.00    -0.014 A 
BRANCH  14  15
ATOM     15  C   UNL A   1      42.523  29.595  32.884  1.00  0.00     0.031 A 
ATOM     16  C   UNL A   1      43.271  28.344  33.241  1.00  0.00     0.074 A 
ATOM     17  C   UNL A   1      42.904  30.335  31.828  1.00  0.00     0.049 A 
ATOM     18  N   UNL A   1      44.355  27.845  32.703  1.00  0.00    -0.248 NA
ATOM     19  C   UNL A   1      42.737  27.558  34.361  1.00  0.00     0.031 C 
ATOM     20  C   UNL A   1      42.252  31.568  31.387  1.00  0.00     0.029 A 
ATOM     21  N   UNL A   1      43.944  30.173  30.947  1.00  0.00    -0.354 N 
ATOM     22  C   UNL A   1      44.647  26.702  33.433  1.00  0.00     0.074 A 
ATOM     23  C   UNL A   1      43.642  26.595  34.469  1.00  0.00     0.031 C 
ATOM     24  C   UNL A   1      42.905  32.052  30.322  1.00  0.00     0.029 A 
ATOM     25  C   UNL A   1      44.058  31.202  30.048  1.00  0.00     0.049 A 
ATOM     26  H   UNL A   1      44.547  29.396  30.960  1.00  0.00     0.167 HD
ATOM     27  C   UNL A   1      45.664  25.824  33.250  1.00  0.00     0.037 A 
ATOM     28  C   UNL A   1      45.012  31.461  29.133  1.00  0.00     0.037 A 
ATOM     29  C   UNL A   1      46.658  25.947  32.214  1.00  0.00     0.049 A 
ATOM     30  C   UNL A   1      46.158  30.503  28.977  1.00  0.00     0.074 A 
ATOM     31  C   UNL A   1      47.703  25.090  31.915  1.00  0.00     0.029 A 
ATOM     32  N   UNL A   1      46.740  27.005  31.317  1.00  0.00    -0.354 N 
ATOM     33  N   UNL A   1      46.407  29.403  29.645  1.00  0.00    -0.248 NA
ATOM     34  C   UNL A   1      47.151  30.819  27.944  1.00  0.00     0.031 C 
ATOM     35  C   UNL A   1      48.458  25.664  30.886  1.00  0.00     0.029 A 
ATOM     36  C   UNL A   1      47.839  26.839  30.488  1.00  0.00     0.049 A 
ATOM     37  H   UNL A   1      46.111  27.760  31.276  1.00  0.00     0.167 HD
ATOM     38  C   UNL A   1      47.567  28.877  29.094  1.00  0.00     0.074 A 
ATOM     39  C   UNL A   1      47.973  29.781  28.038  1.00  0.00     0.031 C 
ATOM     40  C   UNL A   1      48.227  27.741  29.431  1.00  0.00     0.037 A 
BRANCH  27  41
ATOM     41  C   UNL A   1      45.775  24.680  34.219  1.00  0.00     0.064 A 
ATOM     42  C   UNL A   1      45.128  23.453  34.001  1.00  0.00     0.173 A 
ATOM     43  C   UNL A   1      46.548  24.812  35.384  1.00  0.00     0.173 A 
ATOM     44  F   UNL A   1      44.373  23.272  32.908  1.00  0.00    -0.203 F 
ATOM     45  C   UNL A   1      45.210  22.423  34.936  1.00  0.00     0.198 A 
ATOM     46  C   UNL A   1      46.658  23.766  36.297  1.00  0.00     0.198 A 
ATOM     47  F   UNL A   1      47.200  25.956  35.638  1.00  0.00    -0.203 F 
ATOM     48  F   UNL A   1      44.528  21.286  34.738  1.00  0.00    -0.200 F 
ATOM     49  C   UNL A   1      45.978  22.578  36.081  1.00  0.00     0.200 A 
ATOM     50  F   UNL A   1      47.416  23.913  37.392  1.00  0.00    -0.200 F 
ATOM     51  F   UNL A   1      46.053  21.587  36.978  1.00  0.00    -0.200 F 
ENDBRANCH  27  41
BRANCH  28  52
ATOM     52  C   UNL A   1      44.906  32.693  28.311  1.00  0.00     0.064 A 
ATOM     53  C   UNL A   1      44.255  32.680  27.070  1.00  0.00     0.173 A 
ATOM     54  C   UNL A   1      45.400  33.921  28.778  1.00  0.00     0.173 A 
ATOM     55  F   UNL A   1      43.778  31.528  26.577  1.00  0.00    -0.203 F 
ATOM     56  C   UNL A   1      44.105  33.849  26.327  1.00  0.00     0.198 A 
ATOM     57  C   UNL A   1      45.224  35.093  28.048  1.00  0.00     0.198 A 
ATOM     58  F   UNL A   1      46.022  33.986  29.965  1.00  0.00    -0.203 F 
ATOM     59  F   UNL A   1      43.500  33.807  25.132  1.00  0.00    -0.200 F 
ATOM     60  C   UNL A   1      44.579  35.055  26.820  1.00  0.00     0.200 A 
ATOM     61  F   UNL A   1      45.665  36.258  28.539  1.00  0.00    -0.200 F 
ATOM     62  F   UNL A   1      44.415  36.182  26.115  1.00  0.00    -0.200 F 
ENDBRANCH  28  52
BRANCH  40  63
ATOM     63  C   UNL A   1      49.431  27.368  28.615  1.00  0.00     0.064 A 
ATOM     64  C   UNL A   1      49.328  26.603  27.445  1.00  0.00     0.173 A 
ATOM     65  C   UNL A   1      50.697  27.858  28.971  1.00  0.00     0.173 A 
ATOM     66  F   UNL A   1      48.144  26.096  27.070  1.00  0.00    -0.203 F 
ATOM     67  C   UNL A   1      50.451  26.337  26.664  1.00  0.00     0.198 A 
ATOM     68  C   UNL A   1      51.811  27.617  28.172  1.00  0.00     0.198 A 
ATOM     69  F   UNL A   1      50.850  28.597  30.080  1.00  0.00    -0.203 F 
ATOM     70  F   UNL A   1      50.336  25.578  25.565  1.00  0.00    -0.200 F 
ATOM     71  C   UNL A   1      51.687  26.854  27.021  1.00  0.00     0.200 A 
ATOM     72  F   UNL A   1      53.001  28.131  28.511  1.00  0.00    -0.200 F 
ATOM     73  F   UNL A   1      52.762  26.617  26.255  1.00  0.00    -0.200 F 
ENDBRANCH  40  63
ENDBRANCH  14  15
ENDBRANCH   7   9
ENDBRANCH   4   5
ENDBRANCH   3   4
ENDBRANCH   2   3
ENDBRANCH   1   2
BRANCH   1  74
ATOM     74  C   UNL A   1      34.451  33.717  31.496  1.00  0.00     0.021 C 
BRANCH  74  75
ATOM     75  C   UNL A   1      34.358  34.034  30.007  1.00  0.00     0.116 C 
BRANCH  75  76
ATOM     76  N   UNL A   1      34.745  32.898  29.189  1.00  0.00    -0.352 N 
ATOM     77  C   UNL A   1      35.993  32.434  28.873  1.00  0.00     0.253 C 
ATOM     78  H   UNL A   1      33.997  32.385  28.804  1.00  0.00     0.163 HD
ATOM     79  O   UNL A   1      36.121  31.582  27.998  1.00  0.00    -0.269 OA
BRANCH  77  80
ATOM     80  C   UNL A   1      37.194  32.932  29.578  1.00  0.00     0.063 A 
ATOM     81  C   UNL A   1      37.646  34.203  29.188  1.00  0.00     0.016 A 
ATOM     82  C   UNL A   1      37.907  32.165  30.524  1.00  0.00     0.054 A 
ATOM     83  C   UNL A   1      38.816  34.726  29.731  1.00  0.00     0.001 A 
ATOM     84  C   UNL A   1      39.124  32.678  30.982  1.00  0.00     0.027 A 
ATOM     85  C   UNL A   1      39.564  33.955  30.610  1.00  0.00     0.002 A 
BRANCH  82  86
ATOM     86  N   UNL A   1      37.372  30.927  30.957  1.00  0.00    -0.321 N 
ATOM     87  C   UNL A   1      37.630  29.613  30.634  1.00  0.00     0.255 C 
ATOM     88  H   UNL A   1      36.664  31.027  31.633  1.00  0.00     0.170 HD
ATOM     89  O   UNL A   1      37.029  28.711  31.214  1.00  0.00    -0.269 OA
BRANCH  87  90
ATOM     90  C   UNL A   1      38.623  29.243  29.618  1.00  0.00     0.040 A 
ATOM     91  C   UNL A   1      39.948  29.130  30.032  1.00  0.00     0.016 A 
ATOM     92  C   UNL A   1      38.264  28.941  28.302  1.00  0.00     0.016 A 
ATOM     93  C   UNL A   1      40.889  28.564  29.174  1.00  0.00     0.027 A 
ATOM     94  C   UNL A   1      39.220  28.387  27.442  1.00  0.00     0.027 A 
ATOM     95  C   UNL A   1      40.530  28.131  27.889  1.00  0.00     0.052 A 
BRANCH  95  96
ATOM     96  N   UNL A   1      41.432  27.362  27.103  1.00  0.00    -0.250 N 
ATOM     97  C   UNL A   1      42.079  27.852  25.991  1.00  0.00     0.238 C 
ATOM     98  C   UNL A   1      41.829  26.084  27.406  1.00  0.00     0.238 C 
ATOM     99  O   UNL A   1      41.958  28.953  25.464  1.00  0.00    -0.274 OA
ATOM    100  C   UNL A   1      43.065  26.825  25.487  1.00  0.00     0.096 C 
ATOM    101  C   UNL A   1      42.941  25.666  26.476  1.00  0.00     0.096 C 
ATOM    102  O   UNL A   1      41.374  25.336  28.263  1.00  0.00    -0.274 OA
ATOM    103  C   UNL A   1      44.459  27.453  25.376  1.00  0.00     0.041 C 
ATOM    104  C   UNL A   1      44.189  25.346  27.307  1.00  0.00     0.041 C 
ATOM    105  C   UNL A   1      45.155  27.536  26.702  1.00  0.00    -0.030 C 
ATOM    106  C   UNL A   1      45.023  26.556  27.605  1.00  0.00    -0.030 C 
ENDBRANCH  95  96
ENDBRANCH  87  90
ENDBRANCH  82  86
ENDBRANCH  77  80
ENDBRANCH  75  76
ENDBRANCH  74  75
ENDBRANCH   1  74
TORSDOF 16
ENDMDL
MODEL 2
REMARK VINA RESULT:      -9.4      3.262     11.491
REMARK SMILES O=C(NCCCCCCNC(=O)c1ccccc1NC(=O)c1ccc(N2C(=O)[C@H]3CC=CC[C@H]3C2=O)cc1)c1ccc(-c2c3nc(c(-c4c(F)c(F)c(F)c(F)c4F)c4ccc([nH]4)c(-c4c(F)c(F)c(F)c(F)c4F)c4nc(c(-c5c(F)c(F)c(F)c(F)c5F)c5ccc2[nH]5)C=C4)C=C3)cc1
REMARK SMILES IDX 7 1 6 2 5 3 4 4 3 5 1 6 2 7 39 9 40 10 101 11 41 12 100 13
REMARK SMILES IDX 42 14 43 15 44 16 94 17 45 18 99 19 93 20 95 21 46 22 98 23
REMARK SMILES IDX 92 24 91 25 47 27 79 28 59 29 78 30 60 31 63 32 77 33 96 34
REMARK SMILES IDX 61 35 62 36 76 38 97 39 64 40 48 41 49 42 57 43 50 44 51 45
REMARK SMILES IDX 55 46 58 47 52 48 53 49 56 50 54 51 80 52 81 53 89 54 82 55
REMARK SMILES IDX 83 56 87 57 90 58 84 59 85 60 88 61 86 62 65 63 66 64 74 65
REMARK SMILES IDX 67 66 68 67 72 68 75 69 69 70 70 71 73 72 71 73 8 74 9 75
REMARK SMILES IDX 10 76 11 77 12 79 13 80 14 81 18 82 15 83 17 84 16 85 19 86
REMARK SMILES IDX 20 87 21 89 22 90 23 91 38 92 24 93 37 94 25 95 26 96 27 97
REMARK SMILES IDX 35 98 28 99 29 100 34 101 36 102 30 103 33 104 31 105 32 106
REMARK H PARENT 3 8 95 26 63 37 10 78 19 88
REMARK Flexibility Score: inf
ROOT
ATOM      1  C   UNL A   1      46.596  25.334  28.275  1.00  0.00     0.002 C 
ENDROOT
BRANCH   1   2
ATOM      2  C   UNL A   1      48.073  24.962  28.117  1.00  0.00     0.002 C 
BRANCH   2   3
ATOM      3  C   UNL A   1      48.601  24.974  26.682  1.00  0.00     0.021 C 
BRANCH   3   4
ATOM      4  C   UNL A   1      47.523  25.016  25.605  1.00  0.00     0.116 C 
BRANCH   4   5
ATOM      5  N   UNL A   1      47.812  25.995  24.572  1.00  0.00    -0.352 N 
ATOM      6  O   UNL A   1      47.604  27.941  23.448  1.00  0.00    -0.269 OA
ATOM      7  C   UNL A   1      47.418  27.304  24.482  1.00  0.00     0.251 C 
ATOM      8  H   UNL A   1      48.371  25.671  23.828  1.00  0.00     0.163 HD
BRANCH   7   9
ATOM      9  C   UNL A   1      46.747  27.948  25.629  1.00  0.00     0.039 A 
ATOM     10  C   UNL A   1      47.487  28.610  26.614  1.00  0.00     0.014 A 
ATOM     11  C   UNL A   1      45.353  27.906  25.704  1.00  0.00     0.014 A 
ATOM     12  C   UNL A   1      46.842  29.132  27.731  1.00  0.00     0.010 A 
ATOM     13  C   UNL A   1      44.703  28.493  26.788  1.00  0.00     0.010 A 
ATOM     14  C   UNL A   1      45.443  29.092  27.821  1.00  0.00    -0.014 A 
BRANCH  14  15
ATOM     15  C   UNL A   1      44.744  29.725  28.966  1.00  0.00     0.031 A 
ATOM     16  C   UNL A   1      44.408  31.187  28.941  1.00  0.00     0.074 A 
ATOM     17  C   UNL A   1      44.462  28.982  30.050  1.00  0.00     0.049 A 
ATOM     18  N   UNL A   1      43.912  31.938  29.891  1.00  0.00    -0.248 NA
ATOM     19  C   UNL A   1      44.680  31.901  27.686  1.00  0.00     0.031 C 
ATOM     20  C   UNL A   1      44.742  27.552  30.186  1.00  0.00     0.029 A 
ATOM     21  N   UNL A   1      43.900  29.328  31.253  1.00  0.00    -0.354 N 
ATOM     22  C   UNL A   1      43.835  33.218  29.359  1.00  0.00     0.074 A 
ATOM     23  C   UNL A   1      44.360  33.146  28.012  1.00  0.00     0.031 C 
ATOM     24  C   UNL A   1      44.353  27.143  31.401  1.00  0.00     0.029 A 
ATOM     25  C   UNL A   1      43.860  28.292  32.152  1.00  0.00     0.049 A 
ATOM     26  H   UNL A   1      43.559  30.230  31.451  1.00  0.00     0.167 HD
ATOM     27  C   UNL A   1      43.367  34.347  29.946  1.00  0.00     0.037 A 
ATOM     28  C   UNL A   1      43.510  28.276  33.452  1.00  0.00     0.037 A 
ATOM     29  C   UNL A   1      42.849  34.400  31.290  1.00  0.00     0.049 A 
ATOM     30  C   UNL A   1      43.040  29.547  34.100  1.00  0.00     0.074 A 
ATOM     31  C   UNL A   1      42.311  35.482  31.965  1.00  0.00     0.029 A 
ATOM     32  N   UNL A   1      42.823  33.327  32.172  1.00  0.00    -0.354 N 
ATOM     33  N   UNL A   1      42.933  30.746  33.580  1.00  0.00    -0.248 NA
ATOM     34  C   UNL A   1      42.643  29.465  35.510  1.00  0.00     0.031 C 
ATOM     35  C   UNL A   1      42.024  35.082  33.274  1.00  0.00     0.029 A 
ATOM     36  C   UNL A   1      42.309  33.730  33.395  1.00  0.00     0.049 A 
ATOM     37  H   UNL A   1      43.123  32.415  31.959  1.00  0.00     0.167 HD
ATOM     38  C   UNL A   1      42.426  31.555  34.587  1.00  0.00     0.074 A 
ATOM     39  C   UNL A   1      42.249  30.710  35.750  1.00  0.00     0.031 C 
ATOM     40  C   UNL A   1      42.127  32.876  34.543  1.00  0.00     0.037 A 
BRANCH  27  41
ATOM     41  C   UNL A   1      43.436  35.621  29.152  1.00  0.00     0.064 A 
ATOM     42  C   UNL A   1      42.384  36.040  28.320  1.00  0.00     0.173 A 
ATOM     43  C   UNL A   1      44.572  36.442  29.229  1.00  0.00     0.173 A 
ATOM     44  F   UNL A   1      41.276  35.293  28.205  1.00  0.00    -0.203 F 
ATOM     45  C   UNL A   1      42.490  37.202  27.560  1.00  0.00     0.198 A 
ATOM     46  C   UNL A   1      44.658  37.624  28.496  1.00  0.00     0.198 A 
ATOM     47  F   UNL A   1      45.602  36.100  30.018  1.00  0.00    -0.203 F 
ATOM     48  F   UNL A   1      41.501  37.544  26.722  1.00  0.00    -0.200 F 
ATOM     49  C   UNL A   1      43.625  37.995  27.652  1.00  0.00     0.200 A 
ATOM     50  F   UNL A   1      45.747  38.397  28.602  1.00  0.00    -0.200 F 
ATOM     51  F   UNL A   1      43.724  39.112  26.918  1.00  0.00    -0.200 F 
ENDBRANCH  27  41
BRANCH  28  52
ATOM     52  C   UNL A   1      43.608  27.003  34.209  1.00  0.00     0.064 A 
ATOM     53  C   UNL A   1      42.464  26.258  34.521  1.00  0.00     0.173 A 
ATOM     54  C   UNL A   1      44.854  26.476  34.582  1.00  0.00     0.173 A 
ATOM     55  F   UNL A   1      41.251  26.727  34.197  1.00  0.00    -0.203 F 
ATOM     56  C   UNL A   1      42.562  25.034  35.180  1.00  0.00     0.198 A 
ATOM     57  C   UNL A   1      44.953  25.240  35.214  1.00  0.00     0.198 A 
ATOM     58  F   UNL A   1      45.980  27.147  34.296  1.00  0.00    -0.203 F 
ATOM     59  F   UNL A   1      41.452  24.351  35.488  1.00  0.00    -0.200 F 
ATOM     60  C   UNL A   1      43.806  24.521  35.516  1.00  0.00     0.200 A 
ATOM     61  F   UNL A   1      46.159  24.739  35.517  1.00  0.00    -0.200 F 
ATOM     62  F   UNL A   1      43.901  23.334  36.130  1.00  0.00    -0.200 F 
ENDBRANCH  28  52
BRANCH  40  63
ATOM     63  C   UNL A   1      41.519  33.494  35.770  1.00  0.00     0.064 A 
ATOM     64  C   UNL A   1      40.153  33.376  36.061  1.00  0.00     0.173 A 
ATOM     65  C   UNL A   1      42.338  34.140  36.708  1.00  0.00     0.173 A 
ATOM     66  F   UNL A   1      39.324  32.782  35.190  1.00  0.00    -0.203 F 
ATOM     67  C   UNL A   1      39.629  33.890  37.245  1.00  0.00     0.198 A 
ATOM     68  C   UNL A   1      41.817  34.625  37.903  1.00  0.00     0.198 A 
ATOM     69  F   UNL A   1      43.653  34.277  36.478  1.00  0.00    -0.203 F 
ATOM     70  F   UNL A   1      38.314  33.795  37.491  1.00  0.00    -0.200 F 
ATOM     71  C   UNL A   1      40.462  34.502  38.170  1.00  0.00     0.200 A 
ATOM     72  F   UNL A   1      42.628  35.201  38.802  1.00  0.00    -0.200 F 
ATOM     73  F   UNL A   1      39.959  34.974  39.319  1.00  0.00    -0.200 F 
ENDBRANCH  40  63
ENDBRANCH  14  15
ENDBRANCH   7   9
ENDBRANCH   4   5
ENDBRANCH   3   4
ENDBRANCH   2   3
ENDBRANCH   1   2
BRANCH   1  74
ATOM     74  C   UNL A   1      45.691  24.234  28.843  1.00  0.00     0.021 C 
BRANCH  74  75
ATOM     75  C   UNL A   1      44.302  24.159  28.217  1.00  0.00     0.116 C 
BRANCH  75  76
ATOM     76  N   UNL A   1      44.354  24.292  26.772  1.00  0.00    -0.352 N 
ATOM     77  C   UNL A   1      43.354  24.159  25.846  1.00  0.00     0.253 C 
ATOM     78  H   UNL A   1      45.240  24.512  26.403  1.00  0.00     0.163 HD
ATOM     79  O   UNL A   1      43.636  24.105  24.652  1.00  0.00    -0.269 OA
BRANCH  77  80
ATOM     80  C   UNL A   1      41.936  24.092  26.258  1.00  0.00     0.063 A 
ATOM     81  C   UNL A   1      41.545  22.910  26.908  1.00  0.00     0.016 A 
ATOM     82  C   UNL A   1      40.995  25.100  25.955  1.00  0.00     0.054 A 
ATOM     83  C   UNL A   1      40.214  22.712  27.260  1.00  0.00     0.001 A 
ATOM     84  C   UNL A   1      39.653  24.834  26.240  1.00  0.00     0.027 A 
ATOM     85  C   UNL A   1      39.266  23.664  26.907  1.00  0.00     0.002 A 
BRANCH  82  86
ATOM     86  N   UNL A   1      41.443  26.314  25.380  1.00  0.00    -0.321 N 
ATOM     87  C   UNL A   1      41.425  27.627  25.793  1.00  0.00     0.255 C 
ATOM     88  H   UNL A   1      41.857  26.194  24.495  1.00  0.00     0.170 HD
ATOM     89  O   UNL A   1      41.939  28.498  25.093  1.00  0.00    -0.269 OA
BRANCH  87  90
ATOM     90  C   UNL A   1      40.818  28.033  27.068  1.00  0.00     0.040 A 
ATOM     91  C   UNL A   1      41.437  27.596  28.236  1.00  0.00     0.016 A 
ATOM     92  C   UNL A   1      39.709  28.881  27.127  1.00  0.00     0.016 A 
ATOM     93  C   UNL A   1      41.045  28.133  29.462  1.00  0.00     0.027 A 
ATOM     94  C   UNL A   1      39.313  29.403  28.365  1.00  0.00     0.027 A 
ATOM     95  C   UNL A   1      40.019  29.086  29.540  1.00  0.00     0.052 A 
BRANCH  95  96
ATOM     96  N   UNL A   1      39.770  29.787  30.752  1.00  0.00    -0.250 N 
ATOM     97  C   UNL A   1      40.102  31.109  30.948  1.00  0.00     0.238 C 
ATOM     98  C   UNL A   1      39.097  29.263  31.827  1.00  0.00     0.238 C 
ATOM     99  O   UNL A   1      40.695  31.864  30.186  1.00  0.00    -0.274 OA
ATOM    100  C   UNL A   1      39.567  31.571  32.283  1.00  0.00     0.096 C 
ATOM    101  C   UNL A   1      38.839  30.350  32.841  1.00  0.00     0.096 C 
ATOM    102  O   UNL A   1      38.757  28.100  32.010  1.00  0.00    -0.274 OA
ATOM    103  C   UNL A   1      38.706  32.825  32.092  1.00  0.00     0.041 C 
ATOM    104  C   UNL A   1      37.326  30.494  33.040  1.00  0.00     0.041 C 
ATOM    105  C   UNL A   1      37.326  32.500  31.601  1.00  0.00    -0.030 C 
ATOM    106  C   UNL A   1      36.685  31.409  32.039  1.00  0.00    -0.030 C 
ENDBRANCH  95  96
ENDBRANCH  87  90
ENDBRANCH  82  86
ENDBRANCH  77  80
ENDBRANCH  75  76
ENDBRANCH  74  75
ENDBRANCH   1  74
TORSDOF 16
ENDMDL
MODEL 3
REMARK VINA RESULT:      -9.4      3.541     11.730
REMARK SMILES O=C(NCCCCCCNC(=O)c1ccccc1NC(=O)c1ccc(N2C(=O)[C@H]3CC=CC[C@H]3C2=O)cc1)c1ccc(-c2c3nc(c(-c4c(F)c(F)c(F)c(F)c4F)c4ccc([nH]4)c(-c4c(F)c(F)c(F)c(F)c4F)c4nc(c(-c5c(F)c(F)c(F)c(F)c5F)c5ccc2[nH]5)C=C4)C=C3)cc1
REMARK SMILES IDX 7 1 6 2 5 3 4 4 3 5 1 6 2 7 39 9 40 10 101 11 41 12 100 13
REMARK SMILES IDX 42 14 43 15 44 16 94 17 45 18 99 19 93 20 95 21 46 22 98 23
REMARK SMILES IDX 92 24 91 25 47 27 79 28 59 29 78 30 60 31 63 32 77 33 96 34
REMARK SMILES IDX 61 35 62 36 76 38 97 39 64 40 48 41 49 42 57 43 50 44 51 45
REMARK SMILES IDX 55 46 58 47 52 48 53 49 56 50 54 51 80 52 81 53 89 54 82 55
REMARK SMILES IDX 83 56 87 57 90 58 84 59 85 60 88 61 86 62 65 63 66 64 74 65
REMARK SMILES IDX 67 66 68 67 72 68 75 69 69 70 70 71 73 72 71 73 8 74 9 75
REMARK SMILES IDX 10 76 11 77 12 79 13 80 14 81 18 82 15 83 17 84 16 85 19 86
REMARK SMILES IDX 20 87 21 89 22 90 23 91 38 92 24 93 37 94 25 95 26 96 27 97
REMARK SMILES IDX 35 98 28 99 29 100 34 101 36 102 30 103 33 104 31 105 32 106
REMARK H PARENT 3 8 95 26 63 37 10 78 19 88
REMARK Flexibility Score: inf
ROOT
ATOM      1  C   UNL A   1      45.320  21.116  25.200  1.00  0.00     0.002 C 
ENDROOT
BRANCH   1   2
ATOM      2  C   UNL A   1      45.869  22.456  24.701  1.00  0.00     0.002 C 
BRANCH   2   3
ATOM      3  C   UNL A   1      46.416  23.384  25.786  1.00  0.00     0.021 C 
BRANCH   3   4
ATOM      4  C   UNL A   1      45.831  24.791  25.777  1.00  0.00     0.116 C 
BRANCH   4   5
ATOM      5  N   UNL A   1      46.469  25.648  24.793  1.00  0.00    -0.352 N 
ATOM      6  O   UNL A   1      46.925  27.577  23.714  1.00  0.00    -0.269 OA
ATOM      7  C   UNL A   1      46.486  27.016  24.715  1.00  0.00     0.251 C 
ATOM      8  H   UNL A   1      46.957  25.179  24.078  1.00  0.00     0.163 HD
BRANCH   7   9
ATOM      9  C   UNL A   1      45.958  27.821  25.834  1.00  0.00     0.039 A 
ATOM     10  C   UNL A   1      44.598  28.135  25.914  1.00  0.00     0.014 A 
ATOM     11  C   UNL A   1      46.840  28.249  26.830  1.00  0.00     0.014 A 
ATOM     12  C   UNL A   1      44.138  28.971  26.928  1.00  0.00     0.010 A 
ATOM     13  C   UNL A   1      46.364  29.026  27.885  1.00  0.00     0.010 A 
ATOM     14  C   UNL A   1      45.014  29.410  27.931  1.00  0.00    -0.014 A 
BRANCH  14  15
ATOM     15  C   UNL A   1      44.512  30.227  29.063  1.00  0.00     0.031 A 
ATOM     16  C   UNL A   1      44.392  31.716  28.935  1.00  0.00     0.074 A 
ATOM     17  C   UNL A   1      44.217  29.619  30.226  1.00  0.00     0.049 A 
ATOM     18  N   UNL A   1      44.091  32.604  29.849  1.00  0.00    -0.248 NA
ATOM     19  C   UNL A   1      44.658  32.284  27.607  1.00  0.00     0.031 C 
ATOM     20  C   UNL A   1      44.297  28.178  30.466  1.00  0.00     0.029 A 
ATOM     21  N   UNL A   1      43.815  30.137  31.431  1.00  0.00    -0.354 N 
ATOM     22  C   UNL A   1      44.158  33.837  29.214  1.00  0.00     0.074 A 
ATOM     23  C   UNL A   1      44.552  33.584  27.844  1.00  0.00     0.031 C 
ATOM     24  C   UNL A   1      43.956  27.926  31.737  1.00  0.00     0.029 A 
ATOM     25  C   UNL A   1      43.700  29.190  32.418  1.00  0.00     0.049 A 
ATOM     26  H   UNL A   1      43.627  31.093  31.573  1.00  0.00     0.167 HD
ATOM     27  C   UNL A   1      43.909  35.065  29.732  1.00  0.00     0.037 A 
ATOM     28  C   UNL A   1      43.462  29.326  33.736  1.00  0.00     0.037 A 
ATOM     29  C   UNL A   1      43.519  35.298  31.100  1.00  0.00     0.049 A 
ATOM     30  C   UNL A   1      43.238  30.699  34.302  1.00  0.00     0.074 A 
ATOM     31  C   UNL A   1      43.203  36.497  31.714  1.00  0.00     0.029 A 
ATOM     32  N   UNL A   1      43.411  34.311  32.072  1.00  0.00    -0.354 N 
ATOM     33  N   UNL A   1      43.263  31.857  33.689  1.00  0.00    -0.248 NA
ATOM     34  C   UNL A   1      42.953  30.786  35.740  1.00  0.00     0.031 C 
ATOM     35  C   UNL A   1      42.972  36.245  33.071  1.00  0.00     0.029 A 
ATOM     36  C   UNL A   1      43.067  34.879  33.289  1.00  0.00     0.049 A 
ATOM     37  H   UNL A   1      43.557  33.350  31.919  1.00  0.00     0.167 HD
ATOM     38  C   UNL A   1      42.966  32.807  34.655  1.00  0.00     0.074 A 
ATOM     39  C   UNL A   1      42.766  32.090  35.897  1.00  0.00     0.031 C 
ATOM     40  C   UNL A   1      42.859  34.152  34.517  1.00  0.00     0.037 A 
BRANCH  27  41
ATOM     41  C   UNL A   1      44.096  36.250  28.827  1.00  0.00     0.064 A 
ATOM     42  C   UNL A   1      45.323  36.926  28.727  1.00  0.00     0.173 A 
ATOM     43  C   UNL A   1      43.030  36.715  28.040  1.00  0.00     0.173 A 
ATOM     44  F   UNL A   1      46.375  36.529  29.459  1.00  0.00    -0.203 F 
ATOM     45  C   UNL A   1      45.459  38.049  27.914  1.00  0.00     0.198 A 
ATOM     46  C   UNL A   1      43.182  37.815  27.200  1.00  0.00     0.198 A 
ATOM     47  F   UNL A   1      41.839  36.100  28.083  1.00  0.00    -0.203 F 
ATOM     48  F   UNL A   1      46.621  38.718  27.889  1.00  0.00    -0.200 F 
ATOM     49  C   UNL A   1      44.391  38.490  27.148  1.00  0.00     0.200 A 
ATOM     50  F   UNL A   1      42.153  38.226  26.446  1.00  0.00    -0.200 F 
ATOM     51  F   UNL A   1      44.524  39.572  26.369  1.00  0.00    -0.200 F 
ENDBRANCH  27  41
BRANCH  28  52
ATOM     52  C   UNL A   1      43.438  28.114  34.592  1.00  0.00     0.064 A 
ATOM     53  C   UNL A   1      42.268  27.358  34.741  1.00  0.00     0.173 A 
ATOM     54  C   UNL A   1      44.600  27.653  35.230  1.00  0.00     0.173 A 
ATOM     55  F   UNL A   1      41.129  27.766  34.162  1.00  0.00    -0.203 F 
ATOM     56  C   UNL A   1      42.260  26.188  35.497  1.00  0.00     0.198 A 
ATOM     57  C   UNL A   1      44.599  26.468  35.961  1.00  0.00     0.198 A 
ATOM     58  F   UNL A   1      45.748  28.336  35.109  1.00  0.00    -0.203 F 
ATOM     59  F   UNL A   1      41.123  25.495  35.645  1.00  0.00    -0.200 F 
ATOM     60  C   UNL A   1      43.427  25.738  36.098  1.00  0.00     0.200 A 
ATOM     61  F   UNL A   1      45.733  26.027  36.520  1.00  0.00    -0.200 F 
ATOM     62  F   UNL A   1      43.425  24.602  36.806  1.00  0.00    -0.200 F 
ENDBRANCH  28  52
BRANCH  40  63
ATOM     63  C   UNL A   1      42.452  34.946  35.726  1.00  0.00     0.064 A 
ATOM     64  C   UNL A   1      43.394  35.553  36.567  1.00  0.00     0.173 A 
ATOM     65  C   UNL A   1      41.092  35.169  35.991  1.00  0.00     0.173 A 
ATOM     66  F   UNL A   1      44.706  35.356  36.367  1.00  0.00    -0.203 F 
ATOM     67  C   UNL A   1      42.989  36.348  37.637  1.00  0.00     0.198 A 
ATOM     68  C   UNL A   1      40.692  35.990  37.041  1.00  0.00     0.198 A 
ATOM     69  F   UNL A   1      40.151  34.613  35.214  1.00  0.00    -0.203 F 
ATOM     70  F   UNL A   1      43.905  36.895  38.449  1.00  0.00    -0.200 F 
ATOM     71  C   UNL A   1      41.640  36.576  37.864  1.00  0.00     0.200 A 
ATOM     72  F   UNL A   1      39.387  36.221  37.249  1.00  0.00    -0.200 F 
ATOM     73  F   UNL A   1      41.252  37.363  38.879  1.00  0.00    -0.200 F 
ENDBRANCH  40  63
ENDBRANCH  14  15
ENDBRANCH   7   9
ENDBRANCH   4   5
ENDBRANCH   3   4
ENDBRANCH   2   3
ENDBRANCH   1   2
BRANCH   1  74
ATOM     74  C   UNL A   1      43.810  21.075  25.466  1.00  0.00     0.021 C 
BRANCH  74  75
ATOM     75  C   UNL A   1      43.050  22.332  25.054  1.00  0.00     0.116 C 
BRANCH  75  76
ATOM     76  N   UNL A   1      41.744  22.404  25.684  1.00  0.00    -0.352 N 
ATOM     77  C   UNL A   1      41.410  22.752  26.965  1.00  0.00     0.253 C 
ATOM     78  H   UNL A   1      40.985  22.167  25.103  1.00  0.00     0.163 HD
ATOM     79  O   UNL A   1      40.268  22.553  27.371  1.00  0.00    -0.269 OA
BRANCH  77  80
ATOM     80  C   UNL A   1      42.399  23.378  27.868  1.00  0.00     0.063 A 
ATOM     81  C   UNL A   1      42.969  22.530  28.831  1.00  0.00     0.016 A 
ATOM     82  C   UNL A   1      42.707  24.756  27.840  1.00  0.00     0.054 A 
ATOM     83  C   UNL A   1      43.847  23.039  29.782  1.00  0.00     0.001 A 
ATOM     84  C   UNL A   1      43.520  25.254  28.862  1.00  0.00     0.027 A 
ATOM     85  C   UNL A   1      44.104  24.404  29.810  1.00  0.00     0.002 A 
BRANCH  82  86
ATOM     86  N   UNL A   1      42.183  25.561  26.800  1.00  0.00    -0.321 N 
ATOM     87  C   UNL A   1      41.303  26.620  26.766  1.00  0.00     0.255 C 
ATOM     88  H   UNL A   1      42.520  25.311  25.910  1.00  0.00     0.170 HD
ATOM     89  O   UNL A   1      41.053  27.176  25.698  1.00  0.00    -0.269 OA
BRANCH  87  90
ATOM     90  C   UNL A   1      40.652  27.128  27.981  1.00  0.00     0.040 A 
ATOM     91  C   UNL A   1      41.317  28.123  28.692  1.00  0.00     0.016 A 
ATOM     92  C   UNL A   1      39.385  26.697  28.382  1.00  0.00     0.016 A 
ATOM     93  C   UNL A   1      40.651  28.799  29.713  1.00  0.00     0.027 A 
ATOM     94  C   UNL A   1      38.729  27.372  29.419  1.00  0.00     0.027 A 
ATOM     95  C   UNL A   1      39.329  28.475  30.054  1.00  0.00     0.052 A 
BRANCH  95  96
ATOM     96  N   UNL A   1      38.583  29.302  30.938  1.00  0.00    -0.250 N 
ATOM     97  C   UNL A   1      38.243  28.933  32.220  1.00  0.00     0.238 C 
ATOM     98  C   UNL A   1      38.194  30.588  30.654  1.00  0.00     0.238 C 
ATOM     99  O   UNL A   1      38.449  27.864  32.783  1.00  0.00    -0.274 OA
ATOM    100  C   UNL A   1      37.585  30.097  32.922  1.00  0.00     0.096 C 
ATOM    101  C   UNL A   1      37.611  31.225  31.891  1.00  0.00     0.096 C 
ATOM    102  O   UNL A   1      38.255  31.174  29.580  1.00  0.00    -0.274 OA
ATOM    103  C   UNL A   1      38.313  30.388  34.240  1.00  0.00     0.041 C 
ATOM    104  C   UNL A   1      38.447  32.457  32.255  1.00  0.00     0.041 C 
ATOM    105  C   UNL A   1      39.577  31.170  34.033  1.00  0.00    -0.030 C 
ATOM    106  C   UNL A   1      39.641  32.130  33.102  1.00  0.00    -0.030 C 
ENDBRANCH  95  96
ENDBRANCH  87  90
ENDBRANCH  82  86
ENDBRANCH  77  80
ENDBRANCH  75  76
ENDBRANCH  74  75
ENDBRANCH   1  74
TORSDOF 16
ENDMDL
