MODEL 1
REMARK VINA RESULT:     -10.1      0.000      0.000
REMARK SMILES COc1ccc(C(=O)SC[C@H]([NH3+])C(=O)NCCCCCCNC(=O)c2ccc(-c3c4nc(c(-c5c(F)c(F)c(F)c(F)c5F)c5ccc([nH]5)c(-c5c(F)c(F)c(F)c(F)c5F)c5nc(c(-c6c(F)c(F)c(F)c(F)c6F)c6ccc3[nH]6)C=C5)C=C4)cc2)cc1
REMARK SMILES IDX 17 1 16 2 15 3 13 4 14 5 11 7 10 8 9 9 7 10 8 11 6 12 3 13
REMARK SMILES IDX 4 14 89 15 5 16 88 17 2 18 1 19 12 20 18 24 19 25 20 26
REMARK SMILES IDX 21 27 22 28 23 29 24 31 25 32 26 33 87 34 27 35 86 36 28 37
REMARK SMILES IDX 29 38 30 39 80 40 31 41 85 42 79 43 81 44 32 45 84 46 78 47
REMARK SMILES IDX 77 48 33 50 65 51 45 52 64 53 46 54 49 55 63 56 82 57 47 58
REMARK SMILES IDX 48 59 62 61 83 62 50 63 34 64 35 65 43 66 36 67 37 68 41 69
REMARK SMILES IDX 44 70 38 71 39 72 42 73 40 74 66 75 67 76 75 77 68 78 69 79
REMARK SMILES IDX 73 80 76 81 70 82 71 83 74 84 72 85 51 86 52 87 60 88 53 89
REMARK SMILES IDX 54 90 58 91 61 92 55 93 56 94 59 95 57 96
REMARK H PARENT 15 6 12 21 12 22 12 23 22 30 81 49 49 60
REMARK Flexibility Score: inf
ROOT
ATOM      1  C   UNL A   1      39.925  22.281  26.638  1.00  0.00     0.021 C 
ENDROOT
BRANCH   1   2
ATOM      2  C   UNL A   1      38.723  21.752  25.863  1.00  0.00     0.116 C 
BRANCH   2   3
ATOM      3  N   UNL A   1      37.774  22.762  25.440  1.00  0.00    -0.351 N 
ATOM      4  C   UNL A   1      36.413  22.769  25.586  1.00  0.00     0.279 C 
ATOM      5  O   UNL A   1      35.815  23.816  25.310  1.00  0.00    -0.268 OA
ATOM      6  H   UNL A   1      38.160  23.546  24.986  1.00  0.00     0.163 HD
BRANCH   4   7
ATOM      7  C   UNL A   1      35.622  21.535  26.088  1.00  0.00     0.281 C 
BRANCH   7   8
ATOM      8  C   UNL A   1      34.864  20.744  25.000  1.00  0.00     0.153 C 
BRANCH   8   9
ATOM      9  S   UNL A   1      33.084  20.423  25.134  1.00  0.00    -0.076 SA
BRANCH   9  10
ATOM     10  C   UNL A   1      32.393  22.031  25.355  1.00  0.00     0.219 C 
ATOM     11  O   UNL A   1      31.767  22.326  26.368  1.00  0.00    -0.282 OA
BRANCH  10  12
ATOM     12  C   UNL A   1      32.647  23.038  24.267  1.00  0.00     0.029 A 
ATOM     13  C   UNL A   1      33.239  24.986  22.295  1.00  0.00     0.118 A 
ATOM     14  C   UNL A   1      32.863  25.368  23.588  1.00  0.00     0.047 A 
ATOM     15  C   UNL A   1      33.279  23.631  21.981  1.00  0.00     0.047 A 
ATOM     16  C   UNL A   1      32.570  24.405  24.567  1.00  0.00     0.016 A 
ATOM     17  C   UNL A   1      32.995  22.669  22.958  1.00  0.00     0.016 A 
BRANCH  13  18
ATOM     18  O   UNL A   1      33.589  26.008  21.458  1.00  0.00    -0.497 OA
ATOM     19  C   UNL A   1      33.651  27.323  22.004  1.00  0.00     0.278 C 
ENDBRANCH  13  18
ENDBRANCH  10  12
ENDBRANCH   9  10
ENDBRANCH   8   9
ENDBRANCH   7   8
BRANCH   7  20
ATOM     20  N   UNL A   1      34.850  21.839  27.312  1.00  0.00    -0.347 N 
ATOM     21  H   UNL A   1      35.276  21.368  28.109  1.00  0.00     0.345 HD
ATOM     22  H   UNL A   1      33.889  21.515  27.197  1.00  0.00     0.345 HD
ATOM     23  H   UNL A   1      34.850  22.847  27.472  1.00  0.00     0.345 HD
ENDBRANCH   7  20
ENDBRANCH   4   7
ENDBRANCH   2   3
ENDBRANCH   1   2
BRANCH   1  24
ATOM     24  C   UNL A   1      41.294  21.750  26.198  1.00  0.00     0.002 C 
BRANCH  24  25
ATOM     25  C   UNL A   1      41.820  20.492  26.910  1.00  0.00     0.002 C 
BRANCH  25  26
ATOM     26  C   UNL A   1      41.838  19.202  26.086  1.00  0.00     0.021 C 
BRANCH  26  27
ATOM     27  C   UNL A   1      43.128  18.383  26.127  1.00  0.00     0.116 C 
BRANCH  27  28
ATOM     28  N   UNL A   1      43.907  18.509  24.903  1.00  0.00    -0.352 N 
ATOM     29  C   UNL A   1      44.550  19.550  24.277  1.00  0.00     0.251 C 
ATOM     30  H   UNL A   1      43.991  17.658  24.415  1.00  0.00     0.163 HD
ATOM     31  O   UNL A   1      45.002  19.325  23.151  1.00  0.00    -0.269 OA
BRANCH  29  32
ATOM     32  C   UNL A   1      44.718  20.926  24.836  1.00  0.00     0.039 A 
ATOM     33  C   UNL A   1      44.334  22.004  24.013  1.00  0.00     0.014 A 
ATOM     34  C   UNL A   1      45.278  21.226  26.077  1.00  0.00     0.014 A 
ATOM     35  C   UNL A   1      44.445  23.333  24.445  1.00  0.00     0.010 A 
ATOM     36  C   UNL A   1      45.332  22.552  26.539  1.00  0.00     0.010 A 
ATOM     37  C   UNL A   1      44.928  23.624  25.725  1.00  0.00    -0.014 A 
BRANCH  37  38
ATOM     38  C   UNL A   1      45.097  25.035  26.177  1.00  0.00     0.031 A 
ATOM     39  C   UNL A   1      46.447  25.699  26.089  1.00  0.00     0.074 A 
ATOM     40  C   UNL A   1      44.057  25.734  26.676  1.00  0.00     0.049 A 
ATOM     41  N   UNL A   1      46.807  26.910  26.440  1.00  0.00    -0.248 NA
ATOM     42  C   UNL A   1      47.544  24.882  25.551  1.00  0.00     0.031 C 
ATOM     43  C   UNL A   1      42.698  25.221  26.843  1.00  0.00     0.029 A 
ATOM     44  N   UNL A   1      43.985  27.026  27.142  1.00  0.00    -0.354 N 
ATOM     45  C   UNL A   1      48.168  26.992  26.177  1.00  0.00     0.074 A 
ATOM     46  C   UNL A   1      48.580  25.693  25.691  1.00  0.00     0.031 C 
ATOM     47  C   UNL A   1      41.925  26.190  27.362  1.00  0.00     0.029 A 
ATOM     48  C   UNL A   1      42.737  27.383  27.597  1.00  0.00     0.049 A 
ATOM     49  H   UNL A   1      44.755  27.639  27.149  1.00  0.00     0.167 HD
ATOM     50  C   UNL A   1      48.999  28.054  26.308  1.00  0.00     0.037 A 
ATOM     51  C   UNL A   1      42.301  28.533  28.150  1.00  0.00     0.037 A 
ATOM     52  C   UNL A   1      48.596  29.355  26.778  1.00  0.00     0.049 A 
ATOM     53  C   UNL A   1      43.248  29.694  28.315  1.00  0.00     0.074 A 
ATOM     54  C   UNL A   1      49.357  30.506  26.886  1.00  0.00     0.029 A 
ATOM     55  N   UNL A   1      47.325  29.673  27.233  1.00  0.00    -0.354 N 
ATOM     56  N   UNL A   1      44.516  29.783  27.993  1.00  0.00    -0.248 NA
ATOM     57  C   UNL A   1      42.699  30.921  28.913  1.00  0.00     0.031 C 
ATOM     58  C   UNL A   1      48.566  31.502  27.470  1.00  0.00     0.029 A 
ATOM     59  C   UNL A   1      47.291  30.993  27.658  1.00  0.00     0.049 A 
ATOM     60  H   UNL A   1      46.560  29.053  27.251  1.00  0.00     0.167 HD
ATOM     61  C   UNL A   1      44.906  31.076  28.320  1.00  0.00     0.074 A 
ATOM     62  C   UNL A   1      43.738  31.743  28.851  1.00  0.00     0.031 C 
ATOM     63  C   UNL A   1      46.125  31.657  28.185  1.00  0.00     0.037 A 
BRANCH  50  64
ATOM     64  C   UNL A   1      50.446  27.846  25.953  1.00  0.00     0.064 A 
ATOM     65  C   UNL A   1      50.904  27.928  24.629  1.00  0.00     0.173 A 
ATOM     66  C   UNL A   1      51.389  27.570  26.955  1.00  0.00     0.173 A 
ATOM     67  F   UNL A   1      50.044  28.181  23.631  1.00  0.00    -0.203 F 
ATOM     68  C   UNL A   1      52.242  27.698  24.317  1.00  0.00     0.198 A 
ATOM     69  C   UNL A   1      52.732  27.377  26.644  1.00  0.00     0.198 A 
ATOM     70  F   UNL A   1      51.009  27.489  28.240  1.00  0.00    -0.203 F 
ATOM     71  F   UNL A   1      52.641  27.714  23.038  1.00  0.00    -0.200 F 
ATOM     72  C   UNL A   1      53.154  27.428  25.325  1.00  0.00     0.200 A 
ATOM     73  F   UNL A   1      53.616  27.134  27.620  1.00  0.00    -0.200 F 
ATOM     74  F   UNL A   1      54.442  27.206  25.022  1.00  0.00    -0.200 F 
ENDBRANCH  50  64
BRANCH  51  75
ATOM     75  C   UNL A   1      40.882  28.651  28.587  1.00  0.00     0.064 A 
ATOM     76  C   UNL A   1      40.500  28.351  29.902  1.00  0.00     0.173 A 
ATOM     77  C   UNL A   1      39.878  29.052  27.693  1.00  0.00     0.173 A 
ATOM     78  F   UNL A   1      41.418  27.935  30.788  1.00  0.00    -0.203 F 
ATOM     79  C   UNL A   1      39.167  28.432  30.302  1.00  0.00     0.198 A 
ATOM     80  C   UNL A   1      38.550  29.162  28.103  1.00  0.00     0.198 A 
ATOM     81  F   UNL A   1      40.188  29.347  26.422  1.00  0.00    -0.203 F 
ATOM     82  F   UNL A   1      38.823  28.092  31.553  1.00  0.00    -0.200 F 
ATOM     83  C   UNL A   1      38.195  28.845  29.404  1.00  0.00     0.200 A 
ATOM     84  F   UNL A   1      37.615  29.573  27.234  1.00  0.00    -0.200 F 
ATOM     85  F   UNL A   1      36.914  28.928  29.790  1.00  0.00    -0.200 F 
ENDBRANCH  51  75
BRANCH  63  86
ATOM     86  C   UNL A   1      46.260  33.102  28.583  1.00  0.00     0.064 A 
ATOM     87  C   UNL A   1      46.651  33.484  29.875  1.00  0.00     0.173 A 
ATOM     88  C   UNL A   1      46.037  34.121  27.642  1.00  0.00     0.173 A 
ATOM     89  F   UNL A   1      46.866  32.554  30.818  1.00  0.00    -0.203 F 
ATOM     90  C   UNL A   1      46.789  34.828  30.216  1.00  0.00     0.198 A 
ATOM     91  C   UNL A   1      46.209  35.461  27.976  1.00  0.00     0.198 A 
ATOM     92  F   UNL A   1      45.668  33.815  26.389  1.00  0.00    -0.203 F 
ATOM     93  F   UNL A   1      47.115  35.169  31.471  1.00  0.00    -0.200 F 
ATOM     94  C   UNL A   1      46.576  35.814  29.265  1.00  0.00     0.200 A 
ATOM     95  F   UNL A   1      46.021  36.411  27.050  1.00  0.00    -0.200 F 
ATOM     96  F   UNL A   1      46.719  37.106  29.593  1.00  0.00    -0.200 F 
ENDBRANCH  63  86
ENDBRANCH  37  38
ENDBRANCH  29  32
ENDBRANCH  27  28
ENDBRANCH  26  27
ENDBRANCH  25  26
ENDBRANCH  24  25
ENDBRANCH   1  24
TORSDOF 19
ENDMDL
MODEL 2
REMARK VINA RESULT:     -10.1      5.292     10.616
REMARK SMILES COc1ccc(C(=O)SC[C@H]([NH3+])C(=O)NCCCCCCNC(=O)c2ccc(-c3c4nc(c(-c5c(F)c(F)c(F)c(F)c5F)c5ccc([nH]5)c(-c5c(F)c(F)c(F)c(F)c5F)c5nc(c(-c6c(F)c(F)c(F)c(F)c6F)c6ccc3[nH]6)C=C5)C=C4)cc2)cc1
REMARK SMILES IDX 17 1 16 2 15 3 13 4 14 5 11 7 10 8 9 9 7 10 8 11 6 12 3 13
REMARK SMILES IDX 4 14 89 15 5 16 88 17 2 18 1 19 12 20 18 24 19 25 20 26
REMARK SMILES IDX 21 27 22 28 23 29 24 31 25 32 26 33 87 34 27 35 86 36 28 37
REMARK SMILES IDX 29 38 30 39 80 40 31 41 85 42 79 43 81 44 32 45 84 46 78 47
REMARK SMILES IDX 77 48 33 50 65 51 45 52 64 53 46 54 49 55 63 56 82 57 47 58
REMARK SMILES IDX 48 59 62 61 83 62 50 63 34 64 35 65 43 66 36 67 37 68 41 69
REMARK SMILES IDX 44 70 38 71 39 72 42 73 40 74 66 75 67 76 75 77 68 78 69 79
REMARK SMILES IDX 73 80 76 81 70 82 71 83 74 84 72 85 51 86 52 87 60 88 53 89
REMARK SMILES IDX 54 90 58 91 61 92 55 93 56 94 59 95 57 96
REMARK H PARENT 15 6 12 21 12 22 12 23 22 30 81 49 49 60
REMARK Flexibility Score: inf
ROOT
ATOM      1  C   UNL A   1      33.782  26.102  24.135  1.00  0.00     0.021 C 
ENDROOT
BRANCH   1   2
ATOM      2  C   UNL A   1      34.353  24.701  23.950  1.00  0.00     0.116 C 
BRANCH   2   3
ATOM      3  N   UNL A   1      35.240  24.257  25.007  1.00  0.00    -0.351 N 
ATOM      4  C   UNL A   1      35.394  22.997  25.519  1.00  0.00     0.279 C 
ATOM      5  O   UNL A   1      36.337  22.809  26.297  1.00  0.00    -0.268 OA
ATOM      6  H   UNL A   1      35.806  24.956  25.410  1.00  0.00     0.163 HD
BRANCH   4   7
ATOM      7  C   UNL A   1      34.449  21.826  25.150  1.00  0.00     0.281 C 
BRANCH   7   8
ATOM      8  C   UNL A   1      32.996  21.960  25.655  1.00  0.00     0.153 C 
BRANCH   8   9
ATOM      9  S   UNL A   1      32.595  22.948  27.123  1.00  0.00    -0.076 SA
BRANCH   9  10
ATOM     10  C   UNL A   1      30.921  23.430  26.845  1.00  0.00     0.219 C 
ATOM     11  O   UNL A   1      29.999  22.954  27.500  1.00  0.00    -0.282 OA
BRANCH  10  12
ATOM     12  C   UNL A   1      30.679  24.487  25.802  1.00  0.00     0.029 A 
ATOM     13  C   UNL A   1      30.103  26.405  23.796  1.00  0.00     0.118 A 
ATOM     14  C   UNL A   1      30.366  25.073  23.458  1.00  0.00     0.047 A 
ATOM     15  C   UNL A   1      30.169  26.782  25.134  1.00  0.00     0.047 A 
ATOM     16  C   UNL A   1      30.651  24.120  24.449  1.00  0.00     0.016 A 
ATOM     17  C   UNL A   1      30.444  25.833  26.125  1.00  0.00     0.016 A 
BRANCH  13  18
ATOM     18  O   UNL A   1      29.747  27.218  22.756  1.00  0.00    -0.497 OA
ATOM     19  C   UNL A   1      30.637  28.272  22.402  1.00  0.00     0.278 C 
ENDBRANCH  13  18
ENDBRANCH  10  12
ENDBRANCH   9  10
ENDBRANCH   8   9
ENDBRANCH   7   8
BRANCH   7  20
ATOM     20  N   UNL A   1      35.088  20.512  25.382  1.00  0.00    -0.347 N 
ATOM     21  H   UNL A   1      35.682  20.278  24.587  1.00  0.00     0.345 HD
ATOM     22  H   UNL A   1      34.367  19.799  25.491  1.00  0.00     0.345 HD
ATOM     23  H   UNL A   1      35.654  20.554  26.229  1.00  0.00     0.345 HD
ENDBRANCH   7  20
ENDBRANCH   4   7
ENDBRANCH   2   3
ENDBRANCH   1   2
BRANCH   1  24
ATOM     24  C   UNL A   1      33.741  26.627  25.575  1.00  0.00     0.002 C 
BRANCH  24  25
ATOM     25  C   UNL A   1      34.103  28.106  25.792  1.00  0.00     0.002 C 
BRANCH  25  26
ATOM     26  C   UNL A   1      33.012  29.128  25.467  1.00  0.00     0.021 C 
BRANCH  26  27
ATOM     27  C   UNL A   1      32.243  29.709  26.653  1.00  0.00     0.116 C 
BRANCH  27  28
ATOM     28  N   UNL A   1      32.371  31.156  26.746  1.00  0.00    -0.352 N 
ATOM     29  C   UNL A   1      33.277  32.004  27.338  1.00  0.00     0.251 C 
ATOM     30  H   UNL A   1      31.647  31.634  26.281  1.00  0.00     0.163 HD
ATOM     31  O   UNL A   1      32.991  33.204  27.342  1.00  0.00    -0.269 OA
BRANCH  29  32
ATOM     32  C   UNL A   1      34.552  31.586  27.998  1.00  0.00     0.039 A 
ATOM     33  C   UNL A   1      34.596  30.288  28.544  1.00  0.00     0.014 A 
ATOM     34  C   UNL A   1      35.671  32.399  28.167  1.00  0.00     0.014 A 
ATOM     35  C   UNL A   1      35.746  29.797  29.178  1.00  0.00     0.010 A 
ATOM     36  C   UNL A   1      36.847  31.891  28.745  1.00  0.00     0.010 A 
ATOM     37  C   UNL A   1      36.896  30.588  29.269  1.00  0.00    -0.014 A 
BRANCH  37  38
ATOM     38  C   UNL A   1      38.109  30.095  29.985  1.00  0.00     0.031 A 
ATOM     39  C   UNL A   1      38.392  30.554  31.392  1.00  0.00     0.074 A 
ATOM     40  C   UNL A   1      38.970  29.245  29.389  1.00  0.00     0.049 A 
ATOM     41  N   UNL A   1      39.395  30.255  32.182  1.00  0.00    -0.248 NA
ATOM     42  C   UNL A   1      37.426  31.491  31.982  1.00  0.00     0.031 C 
ATOM     43  C   UNL A   1      38.841  28.731  28.027  1.00  0.00     0.029 A 
ATOM     44  N   UNL A   1      40.130  28.670  29.854  1.00  0.00    -0.354 N 
ATOM     45  C   UNL A   1      39.185  30.975  33.351  1.00  0.00     0.074 A 
ATOM     46  C   UNL A   1      37.992  31.768  33.146  1.00  0.00     0.031 C 
ATOM     47  C   UNL A   1      39.873  27.909  27.769  1.00  0.00     0.029 A 
ATOM     48  C   UNL A   1      40.756  27.862  28.934  1.00  0.00     0.049 A 
ATOM     49  H   UNL A   1      40.480  28.823  30.761  1.00  0.00     0.167 HD
ATOM     50  C   UNL A   1      39.905  30.966  34.499  1.00  0.00     0.037 A 
ATOM     51  C   UNL A   1      41.912  27.173  29.015  1.00  0.00     0.037 A 
ATOM     52  C   UNL A   1      41.087  30.171  34.717  1.00  0.00     0.049 A 
ATOM     53  C   UNL A   1      42.715  27.199  30.291  1.00  0.00     0.074 A 
ATOM     54  C   UNL A   1      41.845  30.053  35.869  1.00  0.00     0.029 A 
ATOM     55  N   UNL A   1      41.689  29.370  33.759  1.00  0.00    -0.354 N 
ATOM     56  N   UNL A   1      42.465  27.826  31.415  1.00  0.00    -0.248 NA
ATOM     57  C   UNL A   1      43.958  26.412  30.311  1.00  0.00     0.031 C 
ATOM     58  C   UNL A   1      42.945  29.235  35.588  1.00  0.00     0.029 A 
ATOM     59  C   UNL A   1      42.832  28.783  34.283  1.00  0.00     0.049 A 
ATOM     60  H   UNL A   1      41.355  29.236  32.842  1.00  0.00     0.167 HD
ATOM     61  C   UNL A   1      43.498  27.487  32.281  1.00  0.00     0.074 A 
ATOM     62  C   UNL A   1      44.371  26.587  31.559  1.00  0.00     0.031 C 
ATOM     63  C   UNL A   1      43.699  27.885  33.563  1.00  0.00     0.037 A 
BRANCH  50  64
ATOM     64  C   UNL A   1      39.442  31.867  35.610  1.00  0.00     0.064 A 
ATOM     65  C   UNL A   1      38.499  31.446  36.562  1.00  0.00     0.173 A 
ATOM     66  C   UNL A   1      39.958  33.167  35.732  1.00  0.00     0.173 A 
ATOM     67  F   UNL A   1      37.967  30.217  36.488  1.00  0.00    -0.203 F 
ATOM     68  C   UNL A   1      38.057  32.308  37.562  1.00  0.00     0.198 A 
ATOM     69  C   UNL A   1      39.541  34.012  36.756  1.00  0.00     0.198 A 
ATOM     70  F   UNL A   1      40.869  33.618  34.856  1.00  0.00    -0.203 F 
ATOM     71  F   UNL A   1      37.105  31.907  38.416  1.00  0.00    -0.200 F 
ATOM     72  C   UNL A   1      38.582  33.587  37.662  1.00  0.00     0.200 A 
ATOM     73  F   UNL A   1      40.062  35.241  36.861  1.00  0.00    -0.200 F 
ATOM     74  F   UNL A   1      38.155  34.415  38.626  1.00  0.00    -0.200 F 
ENDBRANCH  50  64
BRANCH  51  75
ATOM     75  C   UNL A   1      42.385  26.381  27.845  1.00  0.00     0.064 A 
ATOM     76  C   UNL A   1      41.911  25.083  27.608  1.00  0.00     0.173 A 
ATOM     77  C   UNL A   1      43.331  26.903  26.950  1.00  0.00     0.173 A 
ATOM     78  F   UNL A   1      41.027  24.528  28.451  1.00  0.00    -0.203 F 
ATOM     79  C   UNL A   1      42.377  24.331  26.531  1.00  0.00     0.198 A 
ATOM     80  C   UNL A   1      43.773  26.161  25.856  1.00  0.00     0.198 A 
ATOM     81  F   UNL A   1      43.819  28.138  27.133  1.00  0.00    -0.203 F 
ATOM     82  F   UNL A   1      41.944  23.075  26.356  1.00  0.00    -0.200 F 
ATOM     83  C   UNL A   1      43.302  24.874  25.652  1.00  0.00     0.200 A 
ATOM     84  F   UNL A   1      44.658  26.694  25.002  1.00  0.00    -0.200 F 
ATOM     85  F   UNL A   1      43.746  24.153  24.613  1.00  0.00    -0.200 F 
ENDBRANCH  51  75
BRANCH  63  86
ATOM     86  C   UNL A   1      44.891  27.324  34.291  1.00  0.00     0.064 A 
ATOM     87  C   UNL A   1      44.825  26.120  35.008  1.00  0.00     0.173 A 
ATOM     88  C   UNL A   1      46.131  27.981  34.233  1.00  0.00     0.173 A 
ATOM     89  F   UNL A   1      43.664  25.456  35.108  1.00  0.00    -0.203 F 
ATOM     90  C   UNL A   1      45.947  25.609  35.659  1.00  0.00     0.198 A 
ATOM     91  C   UNL A   1      47.257  27.450  34.855  1.00  0.00     0.198 A 
ATOM     92  F   UNL A   1      46.255  29.133  33.556  1.00  0.00    -0.203 F 
ATOM     93  F   UNL A   1      45.846  24.483  36.379  1.00  0.00    -0.200 F 
ATOM     94  C   UNL A   1      47.163  26.269  35.575  1.00  0.00     0.200 A 
ATOM     95  F   UNL A   1      48.436  28.081  34.757  1.00  0.00    -0.200 F 
ATOM     96  F   UNL A   1      48.243  25.771  36.193  1.00  0.00    -0.200 F 
ENDBRANCH  63  86
ENDBRANCH  37  38
ENDBRANCH  29  32
ENDBRANCH  27  28
ENDBRANCH  26  27
ENDBRANCH  25  26
ENDBRANCH  24  25
ENDBRANCH   1  24
TORSDOF 19
ENDMDL
MODEL 3
REMARK VINA RESULT:     -10.0      5.895     11.368
REMARK SMILES COc1ccc(C(=O)SC[C@H]([NH3+])C(=O)NCCCCCCNC(=O)c2ccc(-c3c4nc(c(-c5c(F)c(F)c(F)c(F)c5F)c5ccc([nH]5)c(-c5c(F)c(F)c(F)c(F)c5F)c5nc(c(-c6c(F)c(F)c(F)c(F)c6F)c6ccc3[nH]6)C=C5)C=C4)cc2)cc1
REMARK SMILES IDX 17 1 16 2 15 3 13 4 14 5 11 7 10 8 9 9 7 10 8 11 6 12 3 13
REMARK SMILES IDX 4 14 89 15 5 16 88 17 2 18 1 19 12 20 18 24 19 25 20 26
REMARK SMILES IDX 21 27 22 28 23 29 24 31 25 32 26 33 87 34 27 35 86 36 28 37
REMARK SMILES IDX 29 38 30 39 80 40 31 41 85 42 79 43 81 44 32 45 84 46 78 47
REMARK SMILES IDX 77 48 33 50 65 51 45 52 64 53 46 54 49 55 63 56 82 57 47 58
REMARK SMILES IDX 48 59 62 61 83 62 50 63 34 64 35 65 43 66 36 67 37 68 41 69
REMARK SMILES IDX 44 70 38 71 39 72 42 73 40 74 66 75 67 76 75 77 68 78 69 79
REMARK SMILES IDX 73 80 76 81 70 82 71 83 74 84 72 85 51 86 52 87 60 88 53 89
REMARK SMILES IDX 54 90 58 91 61 92 55 93 56 94 59 95 57 96
REMARK H PARENT 15 6 12 21 12 22 12 23 22 30 81 49 49 60
REMARK Flexibility Score: inf
ROOT
ATOM      1  C   UNL A   1      33.623  28.085  25.499  1.00  0.00     0.021 C 
ENDROOT
BRANCH   1   2
ATOM      2  C   UNL A   1      33.389  26.596  25.269  1.00  0.00     0.116 C 
BRANCH   2   3
ATOM      3  N   UNL A   1      32.559  25.946  26.262  1.00  0.00    -0.351 N 
ATOM      4  C   UNL A   1      31.856  24.775  26.154  1.00  0.00     0.279 C 
ATOM      5  O   UNL A   1      31.357  24.312  27.186  1.00  0.00    -0.268 OA
ATOM      6  H   UNL A   1      32.490  26.408  27.129  1.00  0.00     0.163 HD
BRANCH   4   7
ATOM      7  C   UNL A   1      31.686  24.027  24.808  1.00  0.00     0.281 C 
BRANCH   7   8
ATOM      8  C   UNL A   1      30.444  24.423  23.980  1.00  0.00     0.153 C 
BRANCH   8   9
ATOM      9  S   UNL A   1      29.557  25.975  24.293  1.00  0.00    -0.076 SA
BRANCH   9  10
ATOM     10  C   UNL A   1      30.325  27.115  23.188  1.00  0.00     0.219 C 
ATOM     11  O   UNL A   1      31.216  26.764  22.421  1.00  0.00    -0.282 OA
BRANCH  10  12
ATOM     12  C   UNL A   1      29.806  28.528  23.195  1.00  0.00     0.029 A 
ATOM     13  C   UNL A   1      28.705  31.138  23.273  1.00  0.00     0.118 A 
ATOM     14  C   UNL A   1      28.089  30.123  22.531  1.00  0.00     0.047 A 
ATOM     15  C   UNL A   1      29.892  30.853  23.940  1.00  0.00     0.047 A 
ATOM     16  C   UNL A   1      28.631  28.829  22.492  1.00  0.00     0.016 A 
ATOM     17  C   UNL A   1      30.431  29.562  23.909  1.00  0.00     0.016 A 
BRANCH  13  18
ATOM     18  O   UNL A   1      28.035  32.329  23.311  1.00  0.00    -0.497 OA
ATOM     19  C   UNL A   1      28.786  33.521  23.101  1.00  0.00     0.278 C 
ENDBRANCH  13  18
ENDBRANCH  10  12
ENDBRANCH   9  10
ENDBRANCH   8   9
ENDBRANCH   7   8
BRANCH   7  20
ATOM     20  N   UNL A   1      31.920  22.574  24.955  1.00  0.00    -0.347 N 
ATOM     21  H   UNL A   1      32.831  22.335  24.566  1.00  0.00     0.345 HD
ATOM     22  H   UNL A   1      31.191  22.061  24.458  1.00  0.00     0.345 HD
ATOM     23  H   UNL A   1      31.896  22.325  25.944  1.00  0.00     0.345 HD
ENDBRANCH   7  20
ENDBRANCH   4   7
ENDBRANCH   2   3
ENDBRANCH   1   2
BRANCH   1  24
ATOM     24  C   UNL A   1      33.446  28.578  26.940  1.00  0.00     0.002 C 
BRANCH  24  25
ATOM     25  C   UNL A   1      33.806  30.045  27.228  1.00  0.00     0.002 C 
BRANCH  25  26
ATOM     26  C   UNL A   1      33.019  31.103  26.451  1.00  0.00     0.021 C 
BRANCH  26  27
ATOM     27  C   UNL A   1      31.993  31.911  27.244  1.00  0.00     0.116 C 
BRANCH  27  28
ATOM     28  N   UNL A   1      32.375  33.309  27.390  1.00  0.00    -0.352 N 
ATOM     29  C   UNL A   1      33.440  33.957  27.969  1.00  0.00     0.251 C 
ATOM     30  H   UNL A   1      31.726  33.927  26.984  1.00  0.00     0.163 HD
ATOM     31  O   UNL A   1      33.368  35.187  28.037  1.00  0.00    -0.269 OA
BRANCH  29  32
ATOM     32  C   UNL A   1      34.650  33.294  28.544  1.00  0.00     0.039 A 
ATOM     33  C   UNL A   1      34.453  32.450  29.655  1.00  0.00     0.014 A 
ATOM     34  C   UNL A   1      35.958  33.493  28.106  1.00  0.00     0.014 A 
ATOM     35  C   UNL A   1      35.520  31.776  30.263  1.00  0.00     0.010 A 
ATOM     36  C   UNL A   1      37.023  32.772  28.672  1.00  0.00     0.010 A 
ATOM     37  C   UNL A   1      36.820  31.913  29.765  1.00  0.00    -0.014 A 
BRANCH  37  38
ATOM     38  C   UNL A   1      37.971  31.240  30.435  1.00  0.00     0.031 A 
ATOM     39  C   UNL A   1      38.320  31.584  31.860  1.00  0.00     0.074 A 
ATOM     40  C   UNL A   1      38.719  30.328  29.781  1.00  0.00     0.049 A 
ATOM     41  N   UNL A   1      39.287  31.124  32.617  1.00  0.00    -0.248 NA
ATOM     42  C   UNL A   1      37.478  32.595  32.514  1.00  0.00     0.031 C 
ATOM     43  C   UNL A   1      38.517  29.909  28.395  1.00  0.00     0.029 A 
ATOM     44  N   UNL A   1      39.805  29.594  30.196  1.00  0.00    -0.354 N 
ATOM     45  C   UNL A   1      39.175  31.799  33.826  1.00  0.00     0.074 A 
ATOM     46  C   UNL A   1      38.084  32.738  33.682  1.00  0.00     0.031 C 
ATOM     47  C   UNL A   1      39.441  28.985  28.078  1.00  0.00     0.029 A 
ATOM     48  C   UNL A   1      40.322  28.769  29.225  1.00  0.00     0.049 A 
ATOM     49  H   UNL A   1      40.180  29.654  31.105  1.00  0.00     0.167 HD
ATOM     50  C   UNL A   1      39.899  31.641  34.961  1.00  0.00     0.037 A 
ATOM     51  C   UNL A   1      41.388  27.943  29.251  1.00  0.00     0.037 A 
ATOM     52  C   UNL A   1      40.978  30.699  35.118  1.00  0.00     0.049 A 
ATOM     53  C   UNL A   1      42.199  27.803  30.514  1.00  0.00     0.074 A 
ATOM     54  C   UNL A   1      41.727  30.429  36.250  1.00  0.00     0.029 A 
ATOM     55  N   UNL A   1      41.472  29.886  34.109  1.00  0.00    -0.354 N 
ATOM     56  N   UNL A   1      42.036  28.392  31.674  1.00  0.00    -0.248 NA
ATOM     57  C   UNL A   1      43.339  26.874  30.473  1.00  0.00     0.031 C 
ATOM     58  C   UNL A   1      42.719  29.502  35.908  1.00  0.00     0.029 A 
ATOM     59  C   UNL A   1      42.541  29.140  34.583  1.00  0.00     0.049 A 
ATOM     60  H   UNL A   1      41.116  29.844  33.192  1.00  0.00     0.167 HD
ATOM     61  C   UNL A   1      43.029  27.885  32.505  1.00  0.00     0.074 A 
ATOM     62  C   UNL A   1      43.781  26.929  31.722  1.00  0.00     0.031 C 
ATOM     63  C   UNL A   1      43.287  28.185  33.803  1.00  0.00     0.037 A 
BRANCH  50  64
ATOM     64  C   UNL A   1      39.557  32.528  36.126  1.00  0.00     0.064 A 
ATOM     65  C   UNL A   1      40.227  33.740  36.357  1.00  0.00     0.173 A 
ATOM     66  C   UNL A   1      38.537  32.165  37.019  1.00  0.00     0.173 A 
ATOM     67  F   UNL A   1      41.216  34.132  35.539  1.00  0.00    -0.203 F 
ATOM     68  C   UNL A   1      39.919  34.531  37.461  1.00  0.00     0.198 A 
ATOM     69  C   UNL A   1      38.207  32.976  38.101  1.00  0.00     0.198 A 
ATOM     70  F   UNL A   1      37.857  31.022  36.841  1.00  0.00    -0.203 F 
ATOM     71  F   UNL A   1      40.619  35.649  37.698  1.00  0.00    -0.200 F 
ATOM     72  C   UNL A   1      38.907  34.150  38.328  1.00  0.00     0.200 A 
ATOM     73  F   UNL A   1      37.217  32.616  38.928  1.00  0.00    -0.200 F 
ATOM     74  F   UNL A   1      38.612  34.913  39.391  1.00  0.00    -0.200 F 
ENDBRANCH  50  64
BRANCH  51  75
ATOM     75  C   UNL A   1      41.751  27.167  28.033  1.00  0.00     0.064 A 
ATOM     76  C   UNL A   1      42.600  27.706  27.056  1.00  0.00     0.173 A 
ATOM     77  C   UNL A   1      41.244  25.878  27.815  1.00  0.00     0.173 A 
ATOM     78  F   UNL A   1      43.088  28.947  27.203  1.00  0.00    -0.203 F 
ATOM     79  C   UNL A   1      42.915  26.991  25.901  1.00  0.00     0.198 A 
ATOM     80  C   UNL A   1      41.585  25.152  26.675  1.00  0.00     0.198 A 
ATOM     81  F   UNL A   1      40.424  25.317  28.716  1.00  0.00    -0.203 F 
ATOM     82  F   UNL A   1      43.690  27.550  24.961  1.00  0.00    -0.200 F 
ATOM     83  C   UNL A   1      42.413  25.713  25.715  1.00  0.00     0.200 A 
ATOM     84  F   UNL A   1      41.107  23.911  26.505  1.00  0.00    -0.200 F 
ATOM     85  F   UNL A   1      42.721  25.023  24.608  1.00  0.00    -0.200 F 
ENDBRANCH  51  75
BRANCH  63  86
ATOM     86  C   UNL A   1      44.410  27.447  34.482  1.00  0.00     0.064 A 
ATOM     87  C   UNL A   1      45.709  27.971  34.551  1.00  0.00     0.173 A 
ATOM     88  C   UNL A   1      44.169  26.216  35.113  1.00  0.00     0.173 A 
ATOM     89  F   UNL A   1      46.000  29.138  33.955  1.00  0.00    -0.203 F 
ATOM     90  C   UNL A   1      46.729  27.279  35.202  1.00  0.00     0.198 A 
ATOM     91  C   UNL A   1      45.181  25.544  35.792  1.00  0.00     0.198 A 
ATOM     92  F   UNL A   1      42.944  25.670  35.086  1.00  0.00    -0.203 F 
ATOM     93  F   UNL A   1      47.974  27.777  35.210  1.00  0.00    -0.200 F 
ATOM     94  C   UNL A   1      46.463  26.072  35.829  1.00  0.00     0.200 A 
ATOM     95  F   UNL A   1      44.917  24.387  36.413  1.00  0.00    -0.200 F 
ATOM     96  F   UNL A   1      47.443  25.414  36.464  1.00  0.00    -0.200 F 
ENDBRANCH  63  86
ENDBRANCH  37  38
ENDBRANCH  29  32
ENDBRANCH  27  28
ENDBRANCH  26  27
ENDBRANCH  25  26
ENDBRANCH  24  25
ENDBRANCH   1  24
TORSDOF 19
ENDMDL
