MODEL 1
REMARK VINA RESULT:     -12.4      0.000      0.000
REMARK SMILES Cc1ccc(NC(=O)C[C@H]2C(=O)NCCN2C(=O)CCC(=O)NCCCCCCNC(=O)c2ccc(-c3c4nc(c(-c5c(F)c(F)c(F)c(F)c5F)c5ccc([nH]5)c(-c5c(F)c(F)c(F)c(F)c5F)c5nc(c(-c6c(F)c(F)c(F)c(F)c6F)c6ccc3[nH]6)C=C5)C=C4)cc2)c(C)c1
REMARK SMILES IDX 24 1 23 2 21 3 22 4 20 6 19 7 17 8 18 9 16 10 10 11 11 12
REMARK SMILES IDX 12 13 13 14 15 15 14 16 9 18 7 19 6 20 8 22 5 23 1 24 2 25
REMARK SMILES IDX 3 26 98 27 4 28 96 29 97 30 25 31 26 32 27 33 28 34 29 35
REMARK SMILES IDX 30 36 31 37 32 39 33 40 34 41 95 42 35 43 94 44 36 45 37 46
REMARK SMILES IDX 38 47 88 48 39 49 93 50 87 51 89 52 40 53 92 54 86 55 85 56
REMARK SMILES IDX 41 58 73 59 53 60 72 61 54 62 57 63 71 64 90 65 55 66 56 67
REMARK SMILES IDX 70 69 91 70 58 71 42 72 43 73 51 74 44 75 45 76 49 77 52 78
REMARK SMILES IDX 46 79 47 80 50 81 48 82 74 83 75 84 83 85 76 86 77 87 81 88
REMARK SMILES IDX 84 89 78 90 79 91 82 92 80 93 59 94 60 95 68 96 61 97 62 98
REMARK SMILES IDX 66 99 69 100 63 101 64 102 67 103 65 104
REMARK H PARENT 23 5 13 17 6 21 30 38 89 57 57 68
REMARK Flexibility Score: inf
ROOT
ATOM      1  C   UNL A   1      34.583  29.348  27.285  1.00  0.00     0.116 C 
ENDROOT
BRANCH   1   2
ATOM      2  N   UNL A   1      33.194  28.972  27.578  1.00  0.00    -0.356 N 
ATOM      3  C   UNL A   1      32.360  27.920  27.340  1.00  0.00     0.220 C 
ATOM      4  O   UNL A   1      31.262  27.877  27.903  1.00  0.00    -0.275 OA
ATOM      5  H   UNL A   1      32.738  29.678  28.091  1.00  0.00     0.163 HD
BRANCH   3   6
ATOM      6  C   UNL A   1      32.660  26.910  26.303  1.00  0.00     0.110 C 
BRANCH   6   7
ATOM      7  C   UNL A   1      31.387  26.120  26.088  1.00  0.00     0.110 C 
BRANCH   7   8
ATOM      8  C   UNL A   1      31.704  24.686  26.344  1.00  0.00     0.223 C 
ATOM      9  O   UNL A   1      31.242  24.205  27.393  1.00  0.00    -0.275 OA
BRANCH   8  10
ATOM     10  N   UNL A   1      32.553  23.938  25.509  1.00  0.00    -0.328 N 
ATOM     11  C   UNL A   1      32.311  23.383  24.073  1.00  0.00     0.183 C 
ATOM     12  C   UNL A   1      32.845  21.920  23.951  1.00  0.00     0.243 C 
ATOM     13  O   UNL A   1      32.514  21.171  23.034  1.00  0.00    -0.273 OA
ATOM     14  N   UNL A   1      33.705  21.420  24.888  1.00  0.00    -0.353 N 
ATOM     15  C   UNL A   1      33.668  23.429  26.335  1.00  0.00     0.141 C 
ATOM     16  C   UNL A   1      34.352  22.146  25.940  1.00  0.00     0.137 C 
ATOM     17  H   UNL A   1      33.899  20.457  24.836  1.00  0.00     0.163 HD
BRANCH  11  18
ATOM     18  C   UNL A   1      32.269  24.158  22.525  1.00  0.00     0.135 C 
BRANCH  18  19
ATOM     19  C   UNL A   1      32.448  25.676  21.839  1.00  0.00     0.227 C 
ATOM     20  N   UNL A   1      31.939  26.961  22.035  1.00  0.00    -0.326 N 
ATOM     21  H   UNL A   1      32.344  27.542  21.351  1.00  0.00     0.169 HD
ATOM     22  O   UNL A   1      33.272  25.707  20.894  1.00  0.00    -0.275 OA
BRANCH  20  23
ATOM     23  C   UNL A   1      31.062  27.786  22.831  1.00  0.00     0.044 A 
ATOM     24  C   UNL A   1      28.008  30.753  23.234  1.00  0.00     0.044 C 
ATOM     25  C   UNL A   1      29.013  29.650  23.451  1.00  0.00    -0.051 A 
ATOM     26  C   UNL A   1      28.693  28.318  23.189  1.00  0.00     0.005 A 
ATOM     27  C   UNL A   1      30.356  29.947  23.702  1.00  0.00     0.009 A 
ATOM     28  C   UNL A   1      29.717  27.379  22.937  1.00  0.00     0.026 A 
ATOM     29  C   UNL A   1      31.384  29.005  23.434  1.00  0.00    -0.027 A 
ATOM     30  C   UNL A   1      32.774  29.326  23.889  1.00  0.00     0.046 C 
ENDBRANCH  20  23
ENDBRANCH  18  19
ENDBRANCH  11  18
ENDBRANCH   8  10
ENDBRANCH   7   8
ENDBRANCH   6   7
ENDBRANCH   3   6
ENDBRANCH   1   2
BRANCH   1  31
ATOM     31  C   UNL A   1      35.400  30.397  28.161  1.00  0.00     0.021 C 
BRANCH  31  32
ATOM     32  C   UNL A   1      35.503  31.933  28.003  1.00  0.00     0.002 C 
BRANCH  32  33
ATOM     33  C   UNL A   1      34.215  32.779  28.124  1.00  0.00     0.002 C 
BRANCH  33  34
ATOM     34  C   UNL A   1      33.975  33.412  29.481  1.00  0.00     0.021 C 
BRANCH  34  35
ATOM     35  C   UNL A   1      33.807  34.918  29.435  1.00  0.00     0.116 C 
BRANCH  35  36
ATOM     36  N   UNL A   1      32.824  35.421  30.384  1.00  0.00    -0.352 N 
ATOM     37  C   UNL A   1      32.839  35.345  31.766  1.00  0.00     0.251 C 
ATOM     38  H   UNL A   1      32.045  35.877  29.990  1.00  0.00     0.163 HD
ATOM     39  O   UNL A   1      31.907  35.715  32.435  1.00  0.00    -0.269 OA
BRANCH  37  40
ATOM     40  C   UNL A   1      34.035  34.743  32.399  1.00  0.00     0.039 A 
ATOM     41  C   UNL A   1      33.935  33.469  32.956  1.00  0.00     0.014 A 
ATOM     42  C   UNL A   1      35.267  35.395  32.315  1.00  0.00     0.014 A 
ATOM     43  C   UNL A   1      35.098  32.805  33.346  1.00  0.00     0.010 A 
ATOM     44  C   UNL A   1      36.426  34.691  32.596  1.00  0.00     0.010 A 
ATOM     45  C   UNL A   1      36.355  33.390  33.119  1.00  0.00    -0.014 A 
BRANCH  45  46
ATOM     46  C   UNL A   1      37.614  32.672  33.434  1.00  0.00     0.031 A 
ATOM     47  C   UNL A   1      38.329  32.963  34.723  1.00  0.00     0.074 A 
ATOM     48  C   UNL A   1      38.154  31.831  32.530  1.00  0.00     0.049 A 
ATOM     49  N   UNL A   1      39.482  32.517  35.150  1.00  0.00    -0.248 NA
ATOM     50  C   UNL A   1      37.682  33.919  35.636  1.00  0.00     0.031 C 
ATOM     51  C   UNL A   1      37.593  31.524  31.213  1.00  0.00     0.029 A 
ATOM     52  N   UNL A   1      39.305  31.084  32.580  1.00  0.00    -0.354 N 
ATOM     53  C   UNL A   1      39.706  33.159  36.361  1.00  0.00     0.074 A 
ATOM     54  C   UNL A   1      38.606  34.071  36.570  1.00  0.00     0.031 C 
ATOM     55  C   UNL A   1      38.383  30.630  30.594  1.00  0.00     0.029 A 
ATOM     56  C   UNL A   1      39.519  30.324  31.456  1.00  0.00     0.049 A 
ATOM     57  H   UNL A   1      39.919  31.094  33.350  1.00  0.00     0.167 HD
ATOM     58  C   UNL A   1      40.721  32.976  37.238  1.00  0.00     0.037 A 
ATOM     59  C   UNL A   1      40.521  29.473  31.162  1.00  0.00     0.037 A 
ATOM     60  C   UNL A   1      41.785  32.028  37.049  1.00  0.00     0.049 A 
ATOM     61  C   UNL A   1      41.613  29.252  32.173  1.00  0.00     0.074 A 
ATOM     62  C   UNL A   1      42.821  31.710  37.908  1.00  0.00     0.029 A 
ATOM     63  N   UNL A   1      41.940  31.236  35.921  1.00  0.00    -0.354 N 
ATOM     64  N   UNL A   1      41.776  29.809  33.349  1.00  0.00    -0.248 NA
ATOM     65  C   UNL A   1      42.654  28.277  31.822  1.00  0.00     0.031 C 
ATOM     66  C   UNL A   1      43.622  30.747  37.286  1.00  0.00     0.029 A 
ATOM     67  C   UNL A   1      43.062  30.436  36.057  1.00  0.00     0.049 A 
ATOM     68  H   UNL A   1      41.341  31.241  35.139  1.00  0.00     0.167 HD
ATOM     69  C   UNL A   1      42.917  29.235  33.888  1.00  0.00     0.074 A 
ATOM     70  C   UNL A   1      43.400  28.275  32.917  1.00  0.00     0.031 C 
ATOM     71  C   UNL A   1      43.515  29.480  35.080  1.00  0.00     0.037 A 
BRANCH  58  72
ATOM     72  C   UNL A   1      40.714  33.810  38.485  1.00  0.00     0.064 A 
ATOM     73  C   UNL A   1      39.946  33.450  39.604  1.00  0.00     0.173 A 
ATOM     74  C   UNL A   1      41.492  34.973  38.569  1.00  0.00     0.173 A 
ATOM     75  F   UNL A   1      39.170  32.357  39.567  1.00  0.00    -0.203 F 
ATOM     76  C   UNL A   1      39.932  34.243  40.748  1.00  0.00     0.198 A 
ATOM     77  C   UNL A   1      41.501  35.746  39.728  1.00  0.00     0.198 A 
ATOM     78  F   UNL A   1      42.245  35.362  37.529  1.00  0.00    -0.203 F 
ATOM     79  F   UNL A   1      39.148  33.910  41.782  1.00  0.00    -0.200 F 
ATOM     80  C   UNL A   1      40.715  35.386  40.811  1.00  0.00     0.200 A 
ATOM     81  F   UNL A   1      42.264  36.846  39.791  1.00  0.00    -0.200 F 
ATOM     82  F   UNL A   1      40.704  36.145  41.915  1.00  0.00    -0.200 F 
ENDBRANCH  58  72
BRANCH  59  83
ATOM     83  C   UNL A   1      40.511  28.729  29.876  1.00  0.00     0.064 A 
ATOM     84  C   UNL A   1      39.764  27.550  29.737  1.00  0.00     0.173 A 
ATOM     85  C   UNL A   1      41.239  29.176  28.765  1.00  0.00     0.173 A 
ATOM     86  F   UNL A   1      39.066  27.074  30.778  1.00  0.00    -0.203 F 
ATOM     87  C   UNL A   1      39.763  26.836  28.540  1.00  0.00     0.198 A 
ATOM     88  C   UNL A   1      41.217  28.473  27.561  1.00  0.00     0.198 A 
ATOM     89  F   UNL A   1      41.964  30.301  28.845  1.00  0.00    -0.203 F 
ATOM     90  F   UNL A   1      39.074  25.690  28.448  1.00  0.00    -0.200 F 
ATOM     91  C   UNL A   1      40.486  27.300  27.452  1.00  0.00     0.200 A 
ATOM     92  F   UNL A   1      41.906  28.932  26.507  1.00  0.00    -0.200 F 
ATOM     93  F   UNL A   1      40.482  26.615  26.301  1.00  0.00    -0.200 F 
ENDBRANCH  59  83
BRANCH  71  94
ATOM     94  C   UNL A   1      44.735  28.675  35.414  1.00  0.00     0.064 A 
ATOM     95  C   UNL A   1      46.022  29.124  35.087  1.00  0.00     0.173 A 
ATOM     96  C   UNL A   1      44.615  27.462  36.109  1.00  0.00     0.173 A 
ATOM     97  F   UNL A   1      46.185  30.270  34.410  1.00  0.00    -0.203 F 
ATOM     98  C   UNL A   1      47.146  28.374  35.424  1.00  0.00     0.198 A 
ATOM     99  C   UNL A   1      45.742  26.729  36.468  1.00  0.00     0.198 A 
ATOM    100  F   UNL A   1      43.404  26.994  36.450  1.00  0.00    -0.203 F 
ATOM    101  F   UNL A   1      48.365  28.800  35.065  1.00  0.00    -0.200 F 
ATOM    102  C   UNL A   1      47.005  27.182  36.120  1.00  0.00     0.200 A 
ATOM    103  F   UNL A   1      45.605  25.584  37.150  1.00  0.00    -0.200 F 
ATOM    104  F   UNL A   1      48.089  26.466  36.449  1.00  0.00    -0.200 F 
ENDBRANCH  71  94
ENDBRANCH  45  46
ENDBRANCH  37  40
ENDBRANCH  35  36
ENDBRANCH  34  35
ENDBRANCH  33  34
ENDBRANCH  32  33
ENDBRANCH  31  32
ENDBRANCH   1  31
TORSDOF 19
ENDMDL
MODEL 2
REMARK VINA RESULT:     -12.4      1.814      2.882
REMARK SMILES Cc1ccc(NC(=O)C[C@H]2C(=O)NCCN2C(=O)CCC(=O)NCCCCCCNC(=O)c2ccc(-c3c4nc(c(-c5c(F)c(F)c(F)c(F)c5F)c5ccc([nH]5)c(-c5c(F)c(F)c(F)c(F)c5F)c5nc(c(-c6c(F)c(F)c(F)c(F)c6F)c6ccc3[nH]6)C=C5)C=C4)cc2)c(C)c1
REMARK SMILES IDX 24 1 23 2 21 3 22 4 20 6 19 7 17 8 18 9 16 10 10 11 11 12
REMARK SMILES IDX 12 13 13 14 15 15 14 16 9 18 7 19 6 20 8 22 5 23 1 24 2 25
REMARK SMILES IDX 3 26 98 27 4 28 96 29 97 30 25 31 26 32 27 33 28 34 29 35
REMARK SMILES IDX 30 36 31 37 32 39 33 40 34 41 95 42 35 43 94 44 36 45 37 46
REMARK SMILES IDX 38 47 88 48 39 49 93 50 87 51 89 52 40 53 92 54 86 55 85 56
REMARK SMILES IDX 41 58 73 59 53 60 72 61 54 62 57 63 71 64 90 65 55 66 56 67
REMARK SMILES IDX 70 69 91 70 58 71 42 72 43 73 51 74 44 75 45 76 49 77 52 78
REMARK SMILES IDX 46 79 47 80 50 81 48 82 74 83 75 84 83 85 76 86 77 87 81 88
REMARK SMILES IDX 84 89 78 90 79 91 82 92 80 93 59 94 60 95 68 96 61 97 62 98
REMARK SMILES IDX 66 99 69 100 63 101 64 102 67 103 65 104
REMARK H PARENT 23 5 13 17 6 21 30 38 89 57 57 68
REMARK Flexibility Score: inf
ROOT
ATOM      1  C   UNL A   1      33.693  27.212  25.854  1.00  0.00     0.116 C 
ENDROOT
BRANCH   1   2
ATOM      2  N   UNL A   1      32.999  25.946  26.120  1.00  0.00    -0.356 N 
ATOM      3  C   UNL A   1      33.273  24.611  26.063  1.00  0.00     0.220 C 
ATOM      4  O   UNL A   1      32.468  23.806  26.537  1.00  0.00    -0.275 OA
ATOM      5  H   UNL A   1      32.077  26.105  26.425  1.00  0.00     0.163 HD
BRANCH   3   6
ATOM      6  C   UNL A   1      34.430  24.087  25.305  1.00  0.00     0.110 C 
BRANCH   6   7
ATOM      7  C   UNL A   1      35.392  23.516  26.325  1.00  0.00     0.110 C 
BRANCH   7   8
ATOM      8  C   UNL A   1      34.969  22.114  26.599  1.00  0.00     0.223 C 
ATOM      9  O   UNL A   1      34.873  21.799  27.798  1.00  0.00    -0.275 OA
BRANCH   8  10
ATOM     10  N   UNL A   1      34.781  21.166  25.577  1.00  0.00    -0.328 N 
ATOM     11  C   UNL A   1      33.468  20.520  25.040  1.00  0.00     0.183 C 
ATOM     12  C   UNL A   1      33.664  18.987  24.811  1.00  0.00     0.243 C 
ATOM     13  O   UNL A   1      32.716  18.214  24.680  1.00  0.00    -0.273 OA
ATOM     14  N   UNL A   1      34.920  18.452  24.762  1.00  0.00    -0.353 N 
ATOM     15  C   UNL A   1      36.097  20.571  25.263  1.00  0.00     0.141 C 
ATOM     16  C   UNL A   1      36.161  19.165  24.724  1.00  0.00     0.137 C 
ATOM     17  H   UNL A   1      34.978  17.469  24.753  1.00  0.00     0.163 HD
BRANCH  11  18
ATOM     18  C   UNL A   1      32.201  21.139  24.035  1.00  0.00     0.135 C 
BRANCH  18  19
ATOM     19  C   UNL A   1      31.985  22.103  22.681  1.00  0.00     0.227 C 
ATOM     20  N   UNL A   1      31.696  23.440  22.405  1.00  0.00    -0.326 N 
ATOM     21  H   UNL A   1      31.651  23.531  21.425  1.00  0.00     0.169 HD
ATOM     22  O   UNL A   1      32.131  21.487  21.598  1.00  0.00    -0.275 OA
BRANCH  20  23
ATOM     23  C   UNL A   1      31.435  24.743  22.967  1.00  0.00     0.044 A 
ATOM     24  C   UNL A   1      29.251  28.417  23.126  1.00  0.00     0.044 C 
ATOM     25  C   UNL A   1      30.152  27.238  23.396  1.00  0.00    -0.051 A 
ATOM     26  C   UNL A   1      29.668  26.087  24.016  1.00  0.00     0.005 A 
ATOM     27  C   UNL A   1      31.431  27.174  22.836  1.00  0.00     0.009 A 
ATOM     28  C   UNL A   1      30.340  24.856  23.848  1.00  0.00     0.026 A 
ATOM     29  C   UNL A   1      32.098  25.934  22.657  1.00  0.00    -0.027 A 
ATOM     30  C   UNL A   1      33.529  25.956  22.215  1.00  0.00     0.046 C 
ENDBRANCH  20  23
ENDBRANCH  18  19
ENDBRANCH  11  18
ENDBRANCH   8  10
ENDBRANCH   7   8
ENDBRANCH   6   7
ENDBRANCH   3   6
ENDBRANCH   1   2
BRANCH   1  31
ATOM     31  C   UNL A   1      33.128  28.625  26.323  1.00  0.00     0.021 C 
BRANCH  31  32
ATOM     32  C   UNL A   1      31.772  29.293  25.993  1.00  0.00     0.002 C 
BRANCH  32  33
ATOM     33  C   UNL A   1      31.716  30.833  25.857  1.00  0.00     0.002 C 
BRANCH  33  34
ATOM     34  C   UNL A   1      31.781  31.604  27.161  1.00  0.00     0.021 C 
BRANCH  34  35
ATOM     35  C   UNL A   1      32.942  32.578  27.240  1.00  0.00     0.116 C 
BRANCH  35  36
ATOM     36  N   UNL A   1      32.534  33.942  27.542  1.00  0.00    -0.352 N 
ATOM     37  C   UNL A   1      33.026  34.796  28.513  1.00  0.00     0.251 C 
ATOM     38  H   UNL A   1      31.812  34.306  26.979  1.00  0.00     0.163 HD
ATOM     39  O   UNL A   1      32.528  35.873  28.727  1.00  0.00    -0.269 OA
BRANCH  37  40
ATOM     40  C   UNL A   1      34.170  34.316  29.322  1.00  0.00     0.039 A 
ATOM     41  C   UNL A   1      33.924  33.475  30.407  1.00  0.00     0.014 A 
ATOM     42  C   UNL A   1      35.475  34.600  28.915  1.00  0.00     0.014 A 
ATOM     43  C   UNL A   1      34.998  32.839  31.030  1.00  0.00     0.010 A 
ATOM     44  C   UNL A   1      36.526  33.880  29.460  1.00  0.00     0.010 A 
ATOM     45  C   UNL A   1      36.300  32.995  30.527  1.00  0.00    -0.014 A 
BRANCH  45  46
ATOM     46  C   UNL A   1      37.450  32.258  31.105  1.00  0.00     0.031 A 
ATOM     47  C   UNL A   1      37.941  32.615  32.480  1.00  0.00     0.074 A 
ATOM     48  C   UNL A   1      38.100  31.338  30.367  1.00  0.00     0.049 A 
ATOM     49  N   UNL A   1      38.980  32.161  33.132  1.00  0.00    -0.248 NA
ATOM     50  C   UNL A   1      37.189  33.655  33.201  1.00  0.00     0.031 C 
ATOM     51  C   UNL A   1      37.764  30.958  28.993  1.00  0.00     0.029 A 
ATOM     52  N   UNL A   1      39.189  30.557  30.668  1.00  0.00    -0.354 N 
ATOM     53  C   UNL A   1      39.018  32.879  34.321  1.00  0.00     0.074 A 
ATOM     54  C   UNL A   1      37.942  33.841  34.273  1.00  0.00     0.031 C 
ATOM     55  C   UNL A   1      38.608  29.996  28.583  1.00  0.00     0.029 A 
ATOM     56  C   UNL A   1      39.561  29.713  29.651  1.00  0.00     0.049 A 
ATOM     57  H   UNL A   1      39.659  30.600  31.533  1.00  0.00     0.167 HD
ATOM     58  C   UNL A   1      39.854  32.724  35.373  1.00  0.00     0.037 A 
ATOM     59  C   UNL A   1      40.558  28.809  29.593  1.00  0.00     0.037 A 
ATOM     60  C   UNL A   1      40.890  31.729  35.437  1.00  0.00     0.049 A 
ATOM     61  C   UNL A   1      41.445  28.623  30.795  1.00  0.00     0.074 A 
ATOM     62  C   UNL A   1      41.743  31.437  36.485  1.00  0.00     0.029 A 
ATOM     63  N   UNL A   1      41.203  30.854  34.407  1.00  0.00    -0.354 N 
ATOM     64  N   UNL A   1      41.425  29.256  31.944  1.00  0.00    -0.248 NA
ATOM     65  C   UNL A   1      42.485  27.590  30.697  1.00  0.00     0.031 C 
ATOM     66  C   UNL A   1      42.596  30.405  36.078  1.00  0.00     0.029 A 
ATOM     67  C   UNL A   1      42.245  30.028  34.791  1.00  0.00     0.049 A 
ATOM     68  H   UNL A   1      40.751  30.825  33.533  1.00  0.00     0.167 HD
ATOM     69  C   UNL A   1      42.427  28.682  32.712  1.00  0.00     0.074 A 
ATOM     70  C   UNL A   1      43.028  27.640  31.905  1.00  0.00     0.031 C 
ATOM     71  C   UNL A   1      42.818  28.990  33.973  1.00  0.00     0.037 A 
BRANCH  58  72
ATOM     72  C   UNL A   1      39.667  33.644  36.544  1.00  0.00     0.064 A 
ATOM     73  C   UNL A   1      40.299  34.896  36.602  1.00  0.00     0.173 A 
ATOM     74  C   UNL A   1      38.837  33.277  37.613  1.00  0.00     0.173 A 
ATOM     75  F   UNL A   1      41.117  35.286  35.614  1.00  0.00    -0.203 F 
ATOM     76  C   UNL A   1      40.133  35.732  37.703  1.00  0.00     0.198 A 
ATOM     77  C   UNL A   1      38.648  34.130  38.698  1.00  0.00     0.198 A 
ATOM     78  F   UNL A   1      38.209  32.091  37.607  1.00  0.00    -0.203 F 
ATOM     79  F   UNL A   1      40.791  36.898  37.762  1.00  0.00    -0.200 F 
ATOM     80  C   UNL A   1      39.302  35.351  38.746  1.00  0.00     0.200 A 
ATOM     81  F   UNL A   1      37.838  33.765  39.701  1.00  0.00    -0.200 F 
ATOM     82  F   UNL A   1      39.140  36.159  39.803  1.00  0.00    -0.200 F 
ENDBRANCH  58  72
BRANCH  59  83
ATOM     83  C   UNL A   1      40.739  27.977  28.377  1.00  0.00     0.064 A 
ATOM     84  C   UNL A   1      40.112  26.728  28.264  1.00  0.00     0.173 A 
ATOM     85  C   UNL A   1      41.534  28.408  27.305  1.00  0.00     0.173 A 
ATOM     86  F   UNL A   1      39.356  26.265  29.270  1.00  0.00    -0.203 F 
ATOM     87  C   UNL A   1      40.290  25.932  27.134  1.00  0.00     0.198 A 
ATOM     88  C   UNL A   1      41.691  27.621  26.165  1.00  0.00     0.198 A 
ATOM     89  F   UNL A   1      42.149  29.597  27.361  1.00  0.00    -0.203 F 
ATOM     90  F   UNL A   1      39.713  24.724  27.070  1.00  0.00    -0.200 F 
ATOM     91  C   UNL A   1      41.076  26.381  26.083  1.00  0.00     0.200 A 
ATOM     92  F   UNL A   1      42.440  28.064  25.146  1.00  0.00    -0.200 F 
ATOM     93  F   UNL A   1      41.244  25.617  24.996  1.00  0.00    -0.200 F 
ENDBRANCH  59  83
BRANCH  71  94
ATOM     94  C   UNL A   1      43.922  28.169  34.569  1.00  0.00     0.064 A 
ATOM     95  C   UNL A   1      45.260  28.582  34.503  1.00  0.00     0.173 A 
ATOM     96  C   UNL A   1      43.630  26.979  35.252  1.00  0.00     0.173 A 
ATOM     97  F   UNL A   1      45.588  29.704  33.847  1.00  0.00    -0.203 F 
ATOM     98  C   UNL A   1      46.271  27.818  35.080  1.00  0.00     0.198 A 
ATOM     99  C   UNL A   1      44.640  26.233  35.852  1.00  0.00     0.198 A 
ATOM    100  F   UNL A   1      42.363  26.547  35.349  1.00  0.00    -0.203 F 
ATOM    101  F   UNL A   1      47.548  28.208  34.969  1.00  0.00    -0.200 F 
ATOM    102  C   UNL A   1      45.959  26.650  35.760  1.00  0.00     0.200 A 
ATOM    103  F   UNL A   1      44.336  25.111  36.518  1.00  0.00    -0.200 F 
ATOM    104  F   UNL A   1      46.934  25.921  36.321  1.00  0.00    -0.200 F 
ENDBRANCH  71  94
ENDBRANCH  45  46
ENDBRANCH  37  40
ENDBRANCH  35  36
ENDBRANCH  34  35
ENDBRANCH  33  34
ENDBRANCH  32  33
ENDBRANCH  31  32
ENDBRANCH   1  31
TORSDOF 19
ENDMDL
MODEL 3
REMARK VINA RESULT:     -12.4      1.848      4.527
REMARK SMILES Cc1ccc(NC(=O)C[C@H]2C(=O)NCCN2C(=O)CCC(=O)NCCCCCCNC(=O)c2ccc(-c3c4nc(c(-c5c(F)c(F)c(F)c(F)c5F)c5ccc([nH]5)c(-c5c(F)c(F)c(F)c(F)c5F)c5nc(c(-c6c(F)c(F)c(F)c(F)c6F)c6ccc3[nH]6)C=C5)C=C4)cc2)c(C)c1
REMARK SMILES IDX 24 1 23 2 21 3 22 4 20 6 19 7 17 8 18 9 16 10 10 11 11 12
REMARK SMILES IDX 12 13 13 14 15 15 14 16 9 18 7 19 6 20 8 22 5 23 1 24 2 25
REMARK SMILES IDX 3 26 98 27 4 28 96 29 97 30 25 31 26 32 27 33 28 34 29 35
REMARK SMILES IDX 30 36 31 37 32 39 33 40 34 41 95 42 35 43 94 44 36 45 37 46
REMARK SMILES IDX 38 47 88 48 39 49 93 50 87 51 89 52 40 53 92 54 86 55 85 56
REMARK SMILES IDX 41 58 73 59 53 60 72 61 54 62 57 63 71 64 90 65 55 66 56 67
REMARK SMILES IDX 70 69 91 70 58 71 42 72 43 73 51 74 44 75 45 76 49 77 52 78
REMARK SMILES IDX 46 79 47 80 50 81 48 82 74 83 75 84 83 85 76 86 77 87 81 88
REMARK SMILES IDX 84 89 78 90 79 91 82 92 80 93 59 94 60 95 68 96 61 97 62 98
REMARK SMILES IDX 66 99 69 100 63 101 64 102 67 103 65 104
REMARK H PARENT 23 5 13 17 6 21 30 38 89 57 57 68
REMARK Flexibility Score: inf
ROOT
ATOM      1  C   UNL A   1      32.554  26.603  26.627  1.00  0.00     0.116 C 
ENDROOT
BRANCH   1   2
ATOM      2  N   UNL A   1      31.446  25.667  26.855  1.00  0.00    -0.356 N 
ATOM      3  C   UNL A   1      30.930  24.551  26.267  1.00  0.00     0.220 C 
ATOM      4  O   UNL A   1      30.055  23.906  26.852  1.00  0.00    -0.275 OA
ATOM      5  H   UNL A   1      30.932  25.915  27.657  1.00  0.00     0.163 HD
BRANCH   3   6
ATOM      6  C   UNL A   1      31.267  24.178  24.876  1.00  0.00     0.110 C 
BRANCH   6   7
ATOM      7  C   UNL A   1      30.104  24.621  24.016  1.00  0.00     0.110 C 
BRANCH   7   8
ATOM      8  C   UNL A   1      30.114  26.111  23.986  1.00  0.00     0.223 C 
ATOM      9  O   UNL A   1      29.268  26.675  24.700  1.00  0.00    -0.275 OA
BRANCH   8  10
ATOM     10  N   UNL A   1      30.957  26.845  23.132  1.00  0.00    -0.328 N 
ATOM     11  C   UNL A   1      32.513  26.865  23.036  1.00  0.00     0.183 C 
ATOM     12  C   UNL A   1      33.034  28.329  22.878  1.00  0.00     0.243 C 
ATOM     13  O   UNL A   1      34.209  28.636  23.078  1.00  0.00    -0.273 OA
ATOM     14  N   UNL A   1      32.179  29.331  22.517  1.00  0.00    -0.353 N 
ATOM     15  C   UNL A   1      30.149  27.913  22.505  1.00  0.00     0.141 C 
ATOM     16  C   UNL A   1      30.823  29.191  22.077  1.00  0.00     0.137 C 
ATOM     17  H   UNL A   1      32.532  30.248  22.565  1.00  0.00     0.163 HD
BRANCH  11  18
ATOM     18  C   UNL A   1      33.647  25.730  22.386  1.00  0.00     0.135 C 
BRANCH  18  19
ATOM     19  C   UNL A   1      33.860  24.076  22.215  1.00  0.00     0.227 C 
ATOM     20  N   UNL A   1      34.505  23.045  22.900  1.00  0.00    -0.326 N 
ATOM     21  H   UNL A   1      34.356  22.218  22.387  1.00  0.00     0.169 HD
ATOM     22  O   UNL A   1      33.279  23.596  21.212  1.00  0.00    -0.275 OA
BRANCH  20  23
ATOM     23  C   UNL A   1      35.302  22.696  24.051  1.00  0.00     0.044 A 
ATOM     24  C   UNL A   1      38.986  21.516  25.875  1.00  0.00     0.044 C 
ATOM     25  C   UNL A   1      37.587  21.998  25.583  1.00  0.00    -0.051 A 
ATOM     26  C   UNL A   1      37.334  23.334  25.272  1.00  0.00     0.005 A 
ATOM     27  C   UNL A   1      36.544  21.088  25.393  1.00  0.00     0.009 A 
ATOM     28  C   UNL A   1      36.166  23.686  24.559  1.00  0.00     0.026 A 
ATOM     29  C   UNL A   1      35.378  21.442  24.664  1.00  0.00    -0.027 A 
ATOM     30  C   UNL A   1      34.232  20.478  24.650  1.00  0.00     0.046 C 
ENDBRANCH  20  23
ENDBRANCH  18  19
ENDBRANCH  11  18
ENDBRANCH   8  10
ENDBRANCH   7   8
ENDBRANCH   6   7
ENDBRANCH   3   6
ENDBRANCH   1   2
BRANCH   1  31
ATOM     31  C   UNL A   1      32.416  28.176  26.834  1.00  0.00     0.021 C 
BRANCH  31  32
ATOM     32  C   UNL A   1      31.442  29.170  26.155  1.00  0.00     0.002 C 
BRANCH  32  33
ATOM     33  C   UNL A   1      31.914  30.622  25.911  1.00  0.00     0.002 C 
BRANCH  33  34
ATOM     34  C   UNL A   1      31.775  31.560  27.094  1.00  0.00     0.021 C 
BRANCH  34  35
ATOM     35  C   UNL A   1      32.941  32.516  27.258  1.00  0.00     0.116 C 
BRANCH  35  36
ATOM     36  N   UNL A   1      32.533  33.881  27.559  1.00  0.00    -0.352 N 
ATOM     37  C   UNL A   1      33.025  34.736  28.529  1.00  0.00     0.251 C 
ATOM     38  H   UNL A   1      31.811  34.244  26.996  1.00  0.00     0.163 HD
ATOM     39  O   UNL A   1      32.527  35.813  28.742  1.00  0.00    -0.269 OA
BRANCH  37  40
ATOM     40  C   UNL A   1      34.169  34.257  29.338  1.00  0.00     0.039 A 
ATOM     41  C   UNL A   1      33.921  33.448  30.446  1.00  0.00     0.014 A 
ATOM     42  C   UNL A   1      35.474  34.509  28.911  1.00  0.00     0.014 A 
ATOM     43  C   UNL A   1      34.991  32.809  31.074  1.00  0.00     0.010 A 
ATOM     44  C   UNL A   1      36.519  33.785  29.463  1.00  0.00     0.010 A 
ATOM     45  C   UNL A   1      36.290  32.931  30.554  1.00  0.00    -0.014 A 
BRANCH  45  46
ATOM     46  C   UNL A   1      37.433  32.190  31.139  1.00  0.00     0.031 A 
ATOM     47  C   UNL A   1      37.922  32.549  32.515  1.00  0.00     0.074 A 
ATOM     48  C   UNL A   1      38.082  31.264  30.406  1.00  0.00     0.049 A 
ATOM     49  N   UNL A   1      38.955  32.091  33.172  1.00  0.00    -0.248 NA
ATOM     50  C   UNL A   1      37.172  33.595  33.229  1.00  0.00     0.031 C 
ATOM     51  C   UNL A   1      37.749  30.882  29.032  1.00  0.00     0.029 A 
ATOM     52  N   UNL A   1      39.165  30.479  30.714  1.00  0.00    -0.354 N 
ATOM     53  C   UNL A   1      38.993  32.812  34.359  1.00  0.00     0.074 A 
ATOM     54  C   UNL A   1      37.922  33.780  34.304  1.00  0.00     0.031 C 
ATOM     55  C   UNL A   1      38.590  29.914  28.628  1.00  0.00     0.029 A 
ATOM     56  C   UNL A   1      39.537  29.629  29.700  1.00  0.00     0.049 A 
ATOM     57  H   UNL A   1      39.632  30.521  31.580  1.00  0.00     0.167 HD
ATOM     58  C   UNL A   1      39.824  32.656  35.415  1.00  0.00     0.037 A 
ATOM     59  C   UNL A   1      40.529  28.720  29.650  1.00  0.00     0.037 A 
ATOM     60  C   UNL A   1      40.854  31.655  35.486  1.00  0.00     0.049 A 
ATOM     61  C   UNL A   1      41.410  28.532  30.855  1.00  0.00     0.074 A 
ATOM     62  C   UNL A   1      41.702  31.362  36.538  1.00  0.00     0.029 A 
ATOM     63  N   UNL A   1      41.166  30.776  34.460  1.00  0.00    -0.354 N 
ATOM     64  N   UNL A   1      41.389  29.169  32.002  1.00  0.00    -0.248 NA
ATOM     65  C   UNL A   1      42.445  27.494  30.764  1.00  0.00     0.031 C 
ATOM     66  C   UNL A   1      42.550  30.325  36.138  1.00  0.00     0.029 A 
ATOM     67  C   UNL A   1      42.203  29.946  34.850  1.00  0.00     0.049 A 
ATOM     68  H   UNL A   1      40.717  30.746  33.584  1.00  0.00     0.167 HD
ATOM     69  C   UNL A   1      42.385  28.592  32.776  1.00  0.00     0.074 A 
ATOM     70  C   UNL A   1      42.984  27.545  31.974  1.00  0.00     0.031 C 
ATOM     71  C   UNL A   1      42.773  28.902  34.038  1.00  0.00     0.037 A 
BRANCH  58  72
ATOM     72  C   UNL A   1      39.637  33.580  36.583  1.00  0.00     0.064 A 
ATOM     73  C   UNL A   1      40.282  34.825  36.643  1.00  0.00     0.173 A 
ATOM     74  C   UNL A   1      38.794  33.225  37.645  1.00  0.00     0.173 A 
ATOM     75  F   UNL A   1      41.114  35.204  35.661  1.00  0.00    -0.203 F 
ATOM     76  C   UNL A   1      40.116  35.665  37.741  1.00  0.00     0.198 A 
ATOM     77  C   UNL A   1      38.605  34.082  38.726  1.00  0.00     0.198 A 
ATOM     78  F   UNL A   1      38.153  32.047  37.636  1.00  0.00    -0.203 F 
ATOM     79  F   UNL A   1      40.787  36.824  37.803  1.00  0.00    -0.200 F 
ATOM     80  C   UNL A   1      39.273  35.296  38.777  1.00  0.00     0.200 A 
ATOM     81  F   UNL A   1      37.783  33.728  39.724  1.00  0.00    -0.200 F 
ATOM     82  F   UNL A   1      39.111  36.108  39.831  1.00  0.00    -0.200 F 
ENDBRANCH  58  72
BRANCH  59  83
ATOM     83  C   UNL A   1      40.710  27.883  28.436  1.00  0.00     0.064 A 
ATOM     84  C   UNL A   1      41.525  28.318  27.381  1.00  0.00     0.173 A 
ATOM     85  C   UNL A   1      40.081  26.638  28.303  1.00  0.00     0.173 A 
ATOM     86  F   UNL A   1      42.134  29.511  27.455  1.00  0.00    -0.203 F 
ATOM     87  C   UNL A   1      41.687  27.549  26.231  1.00  0.00     0.198 A 
ATOM     88  C   UNL A   1      40.262  25.858  27.162  1.00  0.00     0.198 A 
ATOM     89  F   UNL A   1      39.296  26.174  29.286  1.00  0.00    -0.203 F 
ATOM     90  F   UNL A   1      42.438  28.008  25.220  1.00  0.00    -0.200 F 
ATOM     91  C   UNL A   1      41.059  26.317  26.124  1.00  0.00     0.200 A 
ATOM     92  F   UNL A   1      39.665  24.662  27.068  1.00  0.00    -0.200 F 
ATOM     93  F   UNL A   1      41.217  25.576  25.019  1.00  0.00    -0.200 F 
ENDBRANCH  59  83
BRANCH  71  94
ATOM     94  C   UNL A   1      43.870  28.077  34.640  1.00  0.00     0.064 A 
ATOM     95  C   UNL A   1      43.606  26.852  35.267  1.00  0.00     0.173 A 
ATOM     96  C   UNL A   1      45.205  28.497  34.547  1.00  0.00     0.173 A 
ATOM     97  F   UNL A   1      42.344  26.416  35.393  1.00  0.00    -0.203 F 
ATOM     98  C   UNL A   1      44.639  26.087  35.803  1.00  0.00     0.198 A 
ATOM     99  C   UNL A   1      46.237  27.718  35.058  1.00  0.00     0.198 A 
ATOM    100  F   UNL A   1      45.509  29.660  33.949  1.00  0.00    -0.203 F 
ATOM    101  F   UNL A   1      44.362  24.939  36.436  1.00  0.00    -0.200 F 
ATOM    102  C   UNL A   1      45.953  26.517  35.691  1.00  0.00     0.200 A 
ATOM    103  F   UNL A   1      47.508  28.129  34.940  1.00  0.00    -0.200 F 
ATOM    104  F   UNL A   1      46.947  25.775  36.200  1.00  0.00    -0.200 F 
ENDBRANCH  71  94
ENDBRANCH  45  46
ENDBRANCH  37  40
ENDBRANCH  35  36
ENDBRANCH  34  35
ENDBRANCH  33  34
ENDBRANCH  32  33
ENDBRANCH  31  32
ENDBRANCH   1  31
TORSDOF 19
ENDMDL
