MODEL 1
REMARK VINA RESULT:     -12.9      0.000      0.000
REMARK SMILES O=C(N[C@]1(C(=O)NCCCCCCNC(=O)c2ccc(-c3c4nc(c(-c5c(F)c(F)c(F)c(F)c5F)c5ccc([nH]5)c(-c5c(F)c(F)c(F)c(F)c5F)c5nc(c(-c6c(F)c(F)c(F)c(F)c6F)c6ccc3[nH]6)C=C5)C=C4)cc2)CC[C@H](c2ccccc2)CC1)OCC1c2ccccc2-c2ccccc21
REMARK SMILES IDX 9 1 8 2 7 3 5 4 6 5 4 7 80 8 90 9 81 10 89 11 82 12 3 13
REMARK SMILES IDX 1 14 2 15 91 17 92 18 93 19 94 20 105 21 95 22 99 23 100 24
REMARK SMILES IDX 104 25 96 26 98 27 101 28 103 29 97 30 102 31 83 32 84 33
REMARK SMILES IDX 88 34 85 35 87 36 86 37 10 38 11 39 12 40 13 41 14 42 15 43
REMARK SMILES IDX 16 45 17 46 18 47 79 48 19 49 78 50 20 51 21 52 22 53 72 54
REMARK SMILES IDX 23 55 77 56 71 57 73 58 24 59 76 60 70 61 69 62 25 64 57 65
REMARK SMILES IDX 37 66 56 67 38 68 41 69 55 70 74 71 39 72 40 73 54 75 75 76
REMARK SMILES IDX 42 77 26 78 27 79 35 80 28 81 29 82 33 83 36 84 30 85 31 86
REMARK SMILES IDX 34 87 32 88 58 89 59 90 67 91 60 92 61 93 65 94 68 95 62 96
REMARK SMILES IDX 63 97 66 98 64 99 43 100 44 101 52 102 45 103 46 104 50 105
REMARK SMILES IDX 53 106 47 107 48 108 51 109 49 110
REMARK H PARENT 7 6 3 16 14 44 73 63 41 74
REMARK Flexibility Score: inf
ROOT
ATOM      1  C   UNL A   1      32.924  29.748  25.535  1.00  0.00     0.021 C 
ENDROOT
BRANCH   1   2
ATOM      2  C   UNL A   1      31.462  30.034  25.119  1.00  0.00     0.116 C 
BRANCH   2   3
ATOM      3  N   UNL A   1      31.221  29.504  23.774  1.00  0.00    -0.354 N 
ATOM      4  C   UNL A   1      31.340  28.417  22.994  1.00  0.00     0.245 C 
ATOM      5  O   UNL A   1      30.666  28.598  21.955  1.00  0.00    -0.272 OA
ATOM      6  H   UNL A   1      30.817  30.222  23.234  1.00  0.00     0.163 HD
BRANCH   4   7
ATOM      7  C   UNL A   1      32.068  26.998  23.194  1.00  0.00     0.122 C 
ATOM      8  C   UNL A   1      31.082  25.884  23.581  1.00  0.00     0.039 C 
ATOM      9  C   UNL A   1      33.336  26.767  24.005  1.00  0.00     0.039 C 
ATOM     10  C   UNL A   1      30.922  25.700  25.110  1.00  0.00     0.011 C 
ATOM     11  C   UNL A   1      33.452  26.053  25.305  1.00  0.00     0.011 C 
ATOM     12  C   UNL A   1      32.201  25.494  25.955  1.00  0.00     0.019 C 
BRANCH   7  13
ATOM     13  N   UNL A   1      32.614  26.837  21.791  1.00  0.00    -0.307 N 
ATOM     14  O   UNL A   1      32.939  25.427  20.005  1.00  0.00    -0.225 OA
ATOM     15  C   UNL A   1      32.802  25.585  21.203  1.00  0.00     0.408 C 
ATOM     16  H   UNL A   1      32.846  27.643  21.276  1.00  0.00     0.168 HD
BRANCH  15  17
ATOM     17  O   UNL A   1      32.731  24.567  22.118  1.00  0.00    -0.449 OA
BRANCH  17  18
ATOM     18  C   UNL A   1      33.784  23.560  22.159  1.00  0.00     0.248 C 
BRANCH  18  19
ATOM     19  C   UNL A   1      33.765  22.848  23.560  1.00  0.00     0.088 C 
ATOM     20  C   UNL A   1      33.392  21.347  23.716  1.00  0.00    -0.029 A 
ATOM     21  C   UNL A   1      35.166  22.825  24.163  1.00  0.00    -0.029 A 
ATOM     22  C   UNL A   1      32.221  20.669  23.448  1.00  0.00     0.005 A 
ATOM     23  C   UNL A   1      34.414  20.630  24.355  1.00  0.00    -0.014 A 
ATOM     24  C   UNL A   1      35.515  21.523  24.586  1.00  0.00    -0.014 A 
ATOM     25  C   UNL A   1      36.050  23.878  24.308  1.00  0.00     0.005 A 
ATOM     26  C   UNL A   1      32.089  19.297  23.704  1.00  0.00     0.000 A 
ATOM     27  C   UNL A   1      34.267  19.286  24.708  1.00  0.00     0.009 A 
ATOM     28  C   UNL A   1      36.765  21.248  25.102  1.00  0.00     0.009 A 
ATOM     29  C   UNL A   1      37.315  23.603  24.827  1.00  0.00     0.000 A 
ATOM     30  C   UNL A   1      33.100  18.609  24.360  1.00  0.00     0.001 A 
ATOM     31  C   UNL A   1      37.674  22.300  25.208  1.00  0.00     0.001 A 
ENDBRANCH  18  19
ENDBRANCH  17  18
ENDBRANCH  15  17
ENDBRANCH   7  13
BRANCH  12  32
ATOM     32  C   UNL A   1      32.671  24.097  26.365  1.00  0.00    -0.045 A 
ATOM     33  C   UNL A   1      33.909  23.880  26.968  1.00  0.00     0.004 A 
ATOM     34  C   UNL A   1      31.673  23.092  26.480  1.00  0.00     0.004 A 
ATOM     35  C   UNL A   1      34.106  22.743  27.760  1.00  0.00     0.000 A 
ATOM     36  C   UNL A   1      31.861  21.985  27.303  1.00  0.00     0.000 A 
ATOM     37  C   UNL A   1      33.075  21.822  27.959  1.00  0.00     0.000 A 
ENDBRANCH  12  32
ENDBRANCH   4   7
ENDBRANCH   2   3
ENDBRANCH   1   2
BRANCH   1  38
ATOM     38  C   UNL A   1      33.358  29.841  27.003  1.00  0.00     0.002 C 
BRANCH  38  39
ATOM     39  C   UNL A   1      33.892  31.154  27.560  1.00  0.00     0.002 C 
BRANCH  39  40
ATOM     40  C   UNL A   1      32.872  32.191  28.029  1.00  0.00     0.021 C 
BRANCH  40  41
ATOM     41  C   UNL A   1      32.679  33.421  27.139  1.00  0.00     0.116 C 
BRANCH  41  42
ATOM     42  N   UNL A   1      32.454  34.649  27.884  1.00  0.00    -0.352 N 
ATOM     43  C   UNL A   1      33.082  35.187  28.979  1.00  0.00     0.251 C 
ATOM     44  H   UNL A   1      31.711  35.196  27.540  1.00  0.00     0.163 HD
ATOM     45  O   UNL A   1      32.611  36.192  29.507  1.00  0.00    -0.269 OA
BRANCH  43  46
ATOM     46  C   UNL A   1      34.302  34.579  29.557  1.00  0.00     0.039 A 
ATOM     47  C   UNL A   1      34.217  34.014  30.834  1.00  0.00     0.014 A 
ATOM     48  C   UNL A   1      35.536  34.618  28.903  1.00  0.00     0.014 A 
ATOM     49  C   UNL A   1      35.344  33.438  31.426  1.00  0.00     0.010 A 
ATOM     50  C   UNL A   1      36.646  33.983  29.464  1.00  0.00     0.010 A 
ATOM     51  C   UNL A   1      36.563  33.385  30.732  1.00  0.00    -0.014 A 
BRANCH  51  52
ATOM     52  C   UNL A   1      37.745  32.702  31.325  1.00  0.00     0.031 A 
ATOM     53  C   UNL A   1      38.341  31.489  30.665  1.00  0.00     0.074 A 
ATOM     54  C   UNL A   1      38.267  33.161  32.479  1.00  0.00     0.049 A 
ATOM     55  N   UNL A   1      39.352  30.749  31.050  1.00  0.00    -0.248 NA
ATOM     56  C   UNL A   1      37.706  31.033  29.420  1.00  0.00     0.031 C 
ATOM     57  C   UNL A   1      37.764  34.310  33.233  1.00  0.00     0.029 A 
ATOM     58  N   UNL A   1      39.334  32.719  33.223  1.00  0.00    -0.354 N 
ATOM     59  C   UNL A   1      39.470  29.742  30.101  1.00  0.00     0.074 A 
ATOM     60  C   UNL A   1      38.393  29.931  29.152  1.00  0.00     0.031 C 
ATOM     61  C   UNL A   1      38.536  34.499  34.314  1.00  0.00     0.029 A 
ATOM     62  C   UNL A   1      39.563  33.462  34.356  1.00  0.00     0.049 A 
ATOM     63  H   UNL A   1      39.884  31.942  32.968  1.00  0.00     0.167 HD
ATOM     64  C   UNL A   1      40.404  28.763  30.014  1.00  0.00     0.037 A 
ATOM     65  C   UNL A   1      40.490  33.321  35.323  1.00  0.00     0.037 A 
ATOM     66  C   UNL A   1      41.482  28.584  30.953  1.00  0.00     0.049 A 
ATOM     67  C   UNL A   1      41.494  32.204  35.220  1.00  0.00     0.074 A 
ATOM     68  C   UNL A   1      42.502  27.650  30.927  1.00  0.00     0.029 A 
ATOM     69  N   UNL A   1      41.674  29.352  32.093  1.00  0.00    -0.354 N 
ATOM     70  N   UNL A   1      41.632  31.297  34.283  1.00  0.00    -0.248 NA
ATOM     71  C   UNL A   1      42.476  32.094  36.308  1.00  0.00     0.031 C 
ATOM     72  C   UNL A   1      43.279  27.815  32.079  1.00  0.00     0.029 A 
ATOM     73  C   UNL A   1      42.780  28.894  32.791  1.00  0.00     0.049 A 
ATOM     74  H   UNL A   1      41.108  30.110  32.366  1.00  0.00     0.167 HD
ATOM     75  C   UNL A   1      42.733  30.533  34.650  1.00  0.00     0.074 A 
ATOM     76  C   UNL A   1      43.235  31.093  35.887  1.00  0.00     0.031 C 
ATOM     77  C   UNL A   1      43.277  29.465  34.018  1.00  0.00     0.037 A 
BRANCH  64  78
ATOM     78  C   UNL A   1      40.303  27.803  28.861  1.00  0.00     0.064 A 
ATOM     79  C   UNL A   1      40.971  28.034  27.648  1.00  0.00     0.173 A 
ATOM     80  C   UNL A   1      39.565  26.615  28.986  1.00  0.00     0.173 A 
ATOM     81  F   UNL A   1      41.683  29.157  27.473  1.00  0.00    -0.203 F 
ATOM     82  C   UNL A   1      40.878  27.128  26.595  1.00  0.00     0.198 A 
ATOM     83  C   UNL A   1      39.503  25.696  27.941  1.00  0.00     0.198 A 
ATOM     84  F   UNL A   1      38.913  26.340  30.125  1.00  0.00    -0.203 F 
ATOM     85  F   UNL A   1      41.482  27.396  25.428  1.00  0.00    -0.200 F 
ATOM     86  C   UNL A   1      40.151  25.957  26.744  1.00  0.00     0.200 A 
ATOM     87  F   UNL A   1      38.812  24.557  28.093  1.00  0.00    -0.200 F 
ATOM     88  F   UNL A   1      40.071  25.083  25.732  1.00  0.00    -0.200 F 
ENDBRANCH  64  78
BRANCH  65  89
ATOM     89  C   UNL A   1      40.527  34.273  36.465  1.00  0.00     0.064 A 
ATOM     90  C   UNL A   1      41.364  35.397  36.441  1.00  0.00     0.173 A 
ATOM     91  C   UNL A   1      39.740  34.072  37.609  1.00  0.00     0.173 A 
ATOM     92  F   UNL A   1      42.152  35.622  35.378  1.00  0.00    -0.203 F 
ATOM     93  C   UNL A   1      41.431  36.270  37.525  1.00  0.00     0.198 A 
ATOM     94  C   UNL A   1      39.783  34.964  38.679  1.00  0.00     0.198 A 
ATOM     95  F   UNL A   1      38.919  33.014  37.684  1.00  0.00    -0.203 F 
ATOM     96  F   UNL A   1      42.279  37.307  37.495  1.00  0.00    -0.200 F 
ATOM     97  C   UNL A   1      40.636  36.056  38.641  1.00  0.00     0.200 A 
ATOM     98  F   UNL A   1      39.001  34.762  39.748  1.00  0.00    -0.200 F 
ATOM     99  F   UNL A   1      40.698  36.897  39.681  1.00  0.00    -0.200 F 
ENDBRANCH  65  89
BRANCH  77 100
ATOM    100  C   UNL A   1      44.506  28.853  34.628  1.00  0.00     0.064 A 
ATOM    101  C   UNL A   1      45.795  29.316  34.322  1.00  0.00     0.173 A 
ATOM    102  C   UNL A   1      44.391  27.811  35.562  1.00  0.00     0.173 A 
ATOM    103  F   UNL A   1      45.963  30.300  33.425  1.00  0.00    -0.203 F 
ATOM    104  C   UNL A   1      46.921  28.740  34.905  1.00  0.00     0.198 A 
ATOM    105  C   UNL A   1      45.516  27.262  36.170  1.00  0.00     0.198 A 
ATOM    106  F   UNL A   1      43.181  27.334  35.897  1.00  0.00    -0.203 F 
ATOM    107  F   UNL A   1      48.144  29.164  34.556  1.00  0.00    -0.200 F 
ATOM    108  C   UNL A   1      46.781  27.720  35.834  1.00  0.00     0.200 A 
ATOM    109  F   UNL A   1      45.376  26.287  37.079  1.00  0.00    -0.200 F 
ATOM    110  F   UNL A   1      47.865  27.173  36.401  1.00  0.00    -0.200 F 
ENDBRANCH  77 100
ENDBRANCH  51  52
ENDBRANCH  43  46
ENDBRANCH  41  42
ENDBRANCH  40  41
ENDBRANCH  39  40
ENDBRANCH  38  39
ENDBRANCH   1  38
TORSDOF 18
ENDMDL
MODEL 2
REMARK VINA RESULT:     -12.9      0.746      6.659
REMARK SMILES O=C(N[C@]1(C(=O)NCCCCCCNC(=O)c2ccc(-c3c4nc(c(-c5c(F)c(F)c(F)c(F)c5F)c5ccc([nH]5)c(-c5c(F)c(F)c(F)c(F)c5F)c5nc(c(-c6c(F)c(F)c(F)c(F)c6F)c6ccc3[nH]6)C=C5)C=C4)cc2)CC[C@H](c2ccccc2)CC1)OCC1c2ccccc2-c2ccccc21
REMARK SMILES IDX 9 1 8 2 7 3 5 4 6 5 4 7 80 8 90 9 81 10 89 11 82 12 3 13
REMARK SMILES IDX 1 14 2 15 91 17 92 18 93 19 94 20 105 21 95 22 99 23 100 24
REMARK SMILES IDX 104 25 96 26 98 27 101 28 103 29 97 30 102 31 83 32 84 33
REMARK SMILES IDX 88 34 85 35 87 36 86 37 10 38 11 39 12 40 13 41 14 42 15 43
REMARK SMILES IDX 16 45 17 46 18 47 79 48 19 49 78 50 20 51 21 52 22 53 72 54
REMARK SMILES IDX 23 55 77 56 71 57 73 58 24 59 76 60 70 61 69 62 25 64 57 65
REMARK SMILES IDX 37 66 56 67 38 68 41 69 55 70 74 71 39 72 40 73 54 75 75 76
REMARK SMILES IDX 42 77 26 78 27 79 35 80 28 81 29 82 33 83 36 84 30 85 31 86
REMARK SMILES IDX 34 87 32 88 58 89 59 90 67 91 60 92 61 93 65 94 68 95 62 96
REMARK SMILES IDX 63 97 66 98 64 99 43 100 44 101 52 102 45 103 46 104 50 105
REMARK SMILES IDX 53 106 47 107 48 108 51 109 49 110
REMARK H PARENT 7 6 3 16 14 44 73 63 41 74
REMARK Flexibility Score: inf
ROOT
ATOM      1  C   UNL A   1      32.648  29.753  25.320  1.00  0.00     0.021 C 
ENDROOT
BRANCH   1   2
ATOM      2  C   UNL A   1      31.154  29.930  24.961  1.00  0.00     0.116 C 
BRANCH   2   3
ATOM      3  N   UNL A   1      30.901  29.379  23.627  1.00  0.00    -0.354 N 
ATOM      4  C   UNL A   1      31.039  28.289  22.854  1.00  0.00     0.245 C 
ATOM      5  O   UNL A   1      30.336  28.438  21.829  1.00  0.00    -0.272 OA
ATOM      6  H   UNL A   1      30.461  30.078  23.089  1.00  0.00     0.163 HD
BRANCH   4   7
ATOM      7  C   UNL A   1      31.818  26.897  23.050  1.00  0.00     0.122 C 
ATOM      8  C   UNL A   1      30.897  25.780  23.568  1.00  0.00     0.039 C 
ATOM      9  C   UNL A   1      33.156  26.731  23.757  1.00  0.00     0.039 C 
ATOM     10  C   UNL A   1      30.874  25.660  25.111  1.00  0.00     0.011 C 
ATOM     11  C   UNL A   1      33.401  26.077  25.071  1.00  0.00     0.011 C 
ATOM     12  C   UNL A   1      32.226  25.520  25.850  1.00  0.00     0.019 C 
BRANCH   7  13
ATOM     13  N   UNL A   1      32.246  26.686  21.614  1.00  0.00    -0.307 N 
ATOM     14  O   UNL A   1      32.983  25.195  20.026  1.00  0.00    -0.225 OA
ATOM     15  C   UNL A   1      32.903  25.528  21.193  1.00  0.00     0.408 C 
ATOM     16  H   UNL A   1      32.054  27.390  20.952  1.00  0.00     0.168 HD
BRANCH  15  17
ATOM     17  O   UNL A   1      33.369  24.785  22.247  1.00  0.00    -0.449 OA
BRANCH  17  18
ATOM     18  C   UNL A   1      33.633  23.364  22.066  1.00  0.00     0.248 C 
BRANCH  18  19
ATOM     19  C   UNL A   1      33.642  22.656  23.470  1.00  0.00     0.088 C 
ATOM     20  C   UNL A   1      33.311  21.147  23.634  1.00  0.00    -0.029 A 
ATOM     21  C   UNL A   1      35.047  22.674  24.064  1.00  0.00    -0.029 A 
ATOM     22  C   UNL A   1      32.157  20.437  23.376  1.00  0.00     0.005 A 
ATOM     23  C   UNL A   1      34.355  20.461  24.268  1.00  0.00    -0.014 A 
ATOM     24  C   UNL A   1      35.434  21.383  24.489  1.00  0.00    -0.014 A 
ATOM     25  C   UNL A   1      35.903  23.751  24.199  1.00  0.00     0.005 A 
ATOM     26  C   UNL A   1      32.063  19.063  23.638  1.00  0.00     0.000 A 
ATOM     27  C   UNL A   1      34.247  19.114  24.628  1.00  0.00     0.009 A 
ATOM     28  C   UNL A   1      36.694  21.144  24.998  1.00  0.00     0.009 A 
ATOM     29  C   UNL A   1      37.178  23.512  24.710  1.00  0.00     0.000 A 
ATOM     30  C   UNL A   1      33.097  18.404  24.290  1.00  0.00     0.001 A 
ATOM     31  C   UNL A   1      37.575  22.220  25.094  1.00  0.00     0.001 A 
ENDBRANCH  18  19
ENDBRANCH  17  18
ENDBRANCH  15  17
ENDBRANCH   7  13
BRANCH  12  32
ATOM     32  C   UNL A   1      32.765  24.153  26.277  1.00  0.00    -0.045 A 
ATOM     33  C   UNL A   1      34.016  24.005  26.876  1.00  0.00     0.004 A 
ATOM     34  C   UNL A   1      31.818  23.103  26.411  1.00  0.00     0.004 A 
ATOM     35  C   UNL A   1      34.272  22.891  27.682  1.00  0.00     0.000 A 
ATOM     36  C   UNL A   1      32.064  22.019  27.249  1.00  0.00     0.000 A 
ATOM     37  C   UNL A   1      33.288  21.923  27.900  1.00  0.00     0.000 A 
ENDBRANCH  12  32
ENDBRANCH   4   7
ENDBRANCH   2   3
ENDBRANCH   1   2
BRANCH   1  38
ATOM     38  C   UNL A   1      33.109  29.724  26.783  1.00  0.00     0.002 C 
BRANCH  38  39
ATOM     39  C   UNL A   1      33.494  31.017  27.489  1.00  0.00     0.002 C 
BRANCH  39  40
ATOM     40  C   UNL A   1      32.422  32.100  27.619  1.00  0.00     0.021 C 
BRANCH  40  41
ATOM     41  C   UNL A   1      32.710  33.441  26.941  1.00  0.00     0.116 C 
BRANCH  41  42
ATOM     42  N   UNL A   1      32.451  34.591  27.793  1.00  0.00    -0.352 N 
ATOM     43  C   UNL A   1      33.024  35.010  28.967  1.00  0.00     0.251 C 
ATOM     44  H   UNL A   1      31.730  35.176  27.468  1.00  0.00     0.163 HD
ATOM     45  O   UNL A   1      32.531  35.962  29.568  1.00  0.00    -0.269 OA
BRANCH  43  46
ATOM     46  C   UNL A   1      34.210  34.335  29.543  1.00  0.00     0.039 A 
ATOM     47  C   UNL A   1      34.028  33.531  30.673  1.00  0.00     0.014 A 
ATOM     48  C   UNL A   1      35.498  34.536  29.041  1.00  0.00     0.014 A 
ATOM     49  C   UNL A   1      35.118  32.883  31.259  1.00  0.00     0.010 A 
ATOM     50  C   UNL A   1      36.578  33.834  29.584  1.00  0.00     0.010 A 
ATOM     51  C   UNL A   1      36.400  33.000  30.699  1.00  0.00    -0.014 A 
BRANCH  51  52
ATOM     52  C   UNL A   1      37.550  32.248  31.271  1.00  0.00     0.031 A 
ATOM     53  C   UNL A   1      38.073  32.573  32.644  1.00  0.00     0.074 A 
ATOM     54  C   UNL A   1      38.145  31.287  30.538  1.00  0.00     0.049 A 
ATOM     55  N   UNL A   1      39.081  32.043  33.293  1.00  0.00    -0.248 NA
ATOM     56  C   UNL A   1      37.387  33.648  33.376  1.00  0.00     0.031 C 
ATOM     57  C   UNL A   1      37.754  30.897  29.183  1.00  0.00     0.029 A 
ATOM     58  N   UNL A   1      39.206  30.463  30.826  1.00  0.00    -0.354 N 
ATOM     59  C   UNL A   1      39.152  32.722  34.503  1.00  0.00     0.074 A 
ATOM     60  C   UNL A   1      38.123  33.739  34.475  1.00  0.00     0.031 C 
ATOM     61  C   UNL A   1      38.542  29.892  28.769  1.00  0.00     0.029 A 
ATOM     62  C   UNL A   1      39.523  29.595  29.809  1.00  0.00     0.049 A 
ATOM     63  H   UNL A   1      39.695  30.492  31.681  1.00  0.00     0.167 HD
ATOM     64  C   UNL A   1      39.983  32.502  35.551  1.00  0.00     0.037 A 
ATOM     65  C   UNL A   1      40.498  28.670  29.719  1.00  0.00     0.037 A 
ATOM     66  C   UNL A   1      40.999  31.481  35.581  1.00  0.00     0.049 A 
ATOM     67  C   UNL A   1      41.429  28.469  30.884  1.00  0.00     0.074 A 
ATOM     68  C   UNL A   1      41.861  31.152  36.612  1.00  0.00     0.029 A 
ATOM     69  N   UNL A   1      41.295  30.628  34.527  1.00  0.00    -0.354 N 
ATOM     70  N   UNL A   1      41.445  29.075  32.047  1.00  0.00    -0.248 NA
ATOM     71  C   UNL A   1      42.478  27.451  30.727  1.00  0.00     0.031 C 
ATOM     72  C   UNL A   1      42.716  30.139  36.164  1.00  0.00     0.029 A 
ATOM     73  C   UNL A   1      42.345  29.793  34.875  1.00  0.00     0.049 A 
ATOM     74  H   UNL A   1      40.828  30.618  33.660  1.00  0.00     0.167 HD
ATOM     75  C   UNL A   1      42.478  28.491  32.770  1.00  0.00     0.074 A 
ATOM     76  C   UNL A   1      43.055  27.471  31.919  1.00  0.00     0.031 C 
ATOM     77  C   UNL A   1      42.907  28.774  34.023  1.00  0.00     0.037 A 
BRANCH  64  78
ATOM     78  C   UNL A   1      39.832  33.385  36.759  1.00  0.00     0.064 A 
ATOM     79  C   UNL A   1      40.579  34.564  36.909  1.00  0.00     0.173 A 
ATOM     80  C   UNL A   1      38.895  33.073  37.757  1.00  0.00     0.173 A 
ATOM     81  F   UNL A   1      41.494  34.904  35.989  1.00  0.00    -0.203 F 
ATOM     82  C   UNL A   1      40.418  35.378  38.027  1.00  0.00     0.198 A 
ATOM     83  C   UNL A   1      38.712  33.909  38.856  1.00  0.00     0.198 A 
ATOM     84  F   UNL A   1      38.148  31.964  37.661  1.00  0.00    -0.203 F 
ATOM     85  F   UNL A   1      41.181  36.470  38.173  1.00  0.00    -0.200 F 
ATOM     86  C   UNL A   1      39.480  35.055  38.995  1.00  0.00     0.200 A 
ATOM     87  F   UNL A   1      37.794  33.602  39.783  1.00  0.00    -0.200 F 
ATOM     88  F   UNL A   1      39.320  35.845  40.065  1.00  0.00    -0.200 F 
ENDBRANCH  64  78
BRANCH  65  89
ATOM     89  C   UNL A   1      40.633  27.845  28.489  1.00  0.00     0.064 A 
ATOM     90  C   UNL A   1      41.417  28.279  27.411  1.00  0.00     0.173 A 
ATOM     91  C   UNL A   1      39.971  26.615  28.357  1.00  0.00     0.173 A 
ATOM     92  F   UNL A   1      42.054  29.458  27.478  1.00  0.00    -0.203 F 
ATOM     93  C   UNL A   1      41.514  27.528  26.241  1.00  0.00     0.198 A 
ATOM     94  C   UNL A   1      40.095  25.849  27.200  1.00  0.00     0.198 A 
ATOM     95  F   UNL A   1      39.210  26.150  29.361  1.00  0.00    -0.203 F 
ATOM     96  F   UNL A   1      42.228  27.993  25.207  1.00  0.00    -0.200 F 
ATOM     97  C   UNL A   1      40.858  26.310  26.139  1.00  0.00     0.200 A 
ATOM     98  F   UNL A   1      39.473  24.665  27.113  1.00  0.00    -0.200 F 
ATOM     99  F   UNL A   1      40.955  25.587  25.016  1.00  0.00    -0.200 F 
ENDBRANCH  65  89
BRANCH  77 100
ATOM    100  C   UNL A   1      44.031  27.942  34.573  1.00  0.00     0.064 A 
ATOM    101  C   UNL A   1      45.371  28.342  34.461  1.00  0.00     0.173 A 
ATOM    102  C   UNL A   1      43.760  26.745  35.254  1.00  0.00     0.173 A 
ATOM    103  F   UNL A   1      45.688  29.470  33.807  1.00  0.00    -0.203 F 
ATOM    104  C   UNL A   1      46.399  27.561  34.986  1.00  0.00     0.198 A 
ATOM    105  C   UNL A   1      44.785  25.985  35.808  1.00  0.00     0.198 A 
ATOM    106  F   UNL A   1      42.495  26.320  35.397  1.00  0.00    -0.203 F 
ATOM    107  F   UNL A   1      47.675  27.936  34.820  1.00  0.00    -0.200 F 
ATOM    108  C   UNL A   1      46.105  26.388  35.665  1.00  0.00     0.200 A 
ATOM    109  F   UNL A   1      44.498  24.860  36.479  1.00  0.00    -0.200 F 
ATOM    110  F   UNL A   1      47.094  25.642  36.177  1.00  0.00    -0.200 F 
ENDBRANCH  77 100
ENDBRANCH  51  52
ENDBRANCH  43  46
ENDBRANCH  41  42
ENDBRANCH  40  41
ENDBRANCH  39  40
ENDBRANCH  38  39
ENDBRANCH   1  38
TORSDOF 18
ENDMDL
MODEL 3
REMARK VINA RESULT:     -12.8      4.623     10.117
REMARK SMILES O=C(N[C@]1(C(=O)NCCCCCCNC(=O)c2ccc(-c3c4nc(c(-c5c(F)c(F)c(F)c(F)c5F)c5ccc([nH]5)c(-c5c(F)c(F)c(F)c(F)c5F)c5nc(c(-c6c(F)c(F)c(F)c(F)c6F)c6ccc3[nH]6)C=C5)C=C4)cc2)CC[C@H](c2ccccc2)CC1)OCC1c2ccccc2-c2ccccc21
REMARK SMILES IDX 9 1 8 2 7 3 5 4 6 5 4 7 80 8 90 9 81 10 89 11 82 12 3 13
REMARK SMILES IDX 1 14 2 15 91 17 92 18 93 19 94 20 105 21 95 22 99 23 100 24
REMARK SMILES IDX 104 25 96 26 98 27 101 28 103 29 97 30 102 31 83 32 84 33
REMARK SMILES IDX 88 34 85 35 87 36 86 37 10 38 11 39 12 40 13 41 14 42 15 43
REMARK SMILES IDX 16 45 17 46 18 47 79 48 19 49 78 50 20 51 21 52 22 53 72 54
REMARK SMILES IDX 23 55 77 56 71 57 73 58 24 59 76 60 70 61 69 62 25 64 57 65
REMARK SMILES IDX 37 66 56 67 38 68 41 69 55 70 74 71 39 72 40 73 54 75 75 76
REMARK SMILES IDX 42 77 26 78 27 79 35 80 28 81 29 82 33 83 36 84 30 85 31 86
REMARK SMILES IDX 34 87 32 88 58 89 59 90 67 91 60 92 61 93 65 94 68 95 62 96
REMARK SMILES IDX 63 97 66 98 64 99 43 100 44 101 52 102 45 103 46 104 50 105
REMARK SMILES IDX 53 106 47 107 48 108 51 109 49 110
REMARK H PARENT 7 6 3 16 14 44 73 63 41 74
REMARK Flexibility Score: inf
ROOT
ATOM      1  C   UNL A   1      36.057  23.139  25.919  1.00  0.00     0.021 C 
ENDROOT
BRANCH   1   2
ATOM      2  C   UNL A   1      35.489  24.481  25.400  1.00  0.00     0.116 C 
BRANCH   2   3
ATOM      3  N   UNL A   1      34.113  24.649  25.877  1.00  0.00    -0.354 N 
ATOM      4  C   UNL A   1      32.904  24.068  25.943  1.00  0.00     0.245 C 
ATOM      5  O   UNL A   1      32.201  24.705  26.759  1.00  0.00    -0.272 OA
ATOM      6  H   UNL A   1      34.051  25.527  26.319  1.00  0.00     0.163 HD
BRANCH   4   7
ATOM      7  C   UNL A   1      32.286  22.742  25.274  1.00  0.00     0.122 C 
ATOM      8  C   UNL A   1      32.093  21.609  26.294  1.00  0.00     0.039 C 
ATOM      9  C   UNL A   1      32.777  22.099  23.984  1.00  0.00     0.039 C 
ATOM     10  C   UNL A   1      33.305  20.651  26.395  1.00  0.00     0.011 C 
ATOM     11  C   UNL A   1      33.501  20.806  23.846  1.00  0.00     0.011 C 
ATOM     12  C   UNL A   1      33.837  20.011  25.092  1.00  0.00     0.019 C 
BRANCH   7  13
ATOM     13  N   UNL A   1      30.976  23.333  24.797  1.00  0.00    -0.307 N 
ATOM     14  O   UNL A   1      29.905  24.600  23.207  1.00  0.00    -0.225 OA
ATOM     15  C   UNL A   1      30.918  24.329  23.821  1.00  0.00     0.408 C 
ATOM     16  H   UNL A   1      30.135  23.004  25.190  1.00  0.00     0.168 HD
BRANCH  15  17
ATOM     17  O   UNL A   1      32.144  24.898  23.588  1.00  0.00    -0.449 OA
BRANCH  17  18
ATOM     18  C   UNL A   1      32.234  26.322  23.294  1.00  0.00     0.248 C 
BRANCH  18  19
ATOM     19  C   UNL A   1      31.541  27.134  24.448  1.00  0.00     0.088 C 
ATOM     20  C   UNL A   1      32.342  28.076  25.389  1.00  0.00    -0.029 A 
ATOM     21  C   UNL A   1      30.548  28.137  23.869  1.00  0.00    -0.029 A 
ATOM     22  C   UNL A   1      33.352  27.815  26.292  1.00  0.00     0.005 A 
ATOM     23  C   UNL A   1      31.829  29.380  25.364  1.00  0.00    -0.014 A 
ATOM     24  C   UNL A   1      30.763  29.428  24.402  1.00  0.00    -0.014 A 
ATOM     25  C   UNL A   1      29.550  27.911  22.939  1.00  0.00     0.005 A 
ATOM     26  C   UNL A   1      33.917  28.828  27.079  1.00  0.00     0.000 A 
ATOM     27  C   UNL A   1      32.311  30.383  26.210  1.00  0.00     0.009 A 
ATOM     28  C   UNL A   1      30.026  30.513  23.972  1.00  0.00     0.009 A 
ATOM     29  C   UNL A   1      28.806  29.006  22.501  1.00  0.00     0.000 A 
ATOM     30  C   UNL A   1      33.380  30.108  27.060  1.00  0.00     0.001 A 
ATOM     31  C   UNL A   1      29.049  30.295  23.002  1.00  0.00     0.001 A 
ENDBRANCH  18  19
ENDBRANCH  17  18
ENDBRANCH  15  17
ENDBRANCH   7  13
BRANCH  12  32
ATOM     32  C   UNL A   1      33.425  18.598  24.671  1.00  0.00    -0.045 A 
ATOM     33  C   UNL A   1      34.107  17.893  23.680  1.00  0.00     0.004 A 
ATOM     34  C   UNL A   1      32.595  17.877  25.570  1.00  0.00     0.004 A 
ATOM     35  C   UNL A   1      34.052  16.496  23.659  1.00  0.00     0.000 A 
ATOM     36  C   UNL A   1      32.579  16.485  25.570  1.00  0.00     0.000 A 
ATOM     37  C   UNL A   1      33.324  15.794  24.623  1.00  0.00     0.000 A 
ENDBRANCH  12  32
ENDBRANCH   4   7
ENDBRANCH   2   3
ENDBRANCH   1   2
BRANCH   1  38
ATOM     38  C   UNL A   1      37.322  22.528  25.303  1.00  0.00     0.002 C 
BRANCH  38  39
ATOM     39  C   UNL A   1      37.216  21.315  24.389  1.00  0.00     0.002 C 
BRANCH  39  40
ATOM     40  C   UNL A   1      37.891  20.022  24.848  1.00  0.00     0.021 C 
BRANCH  40  41
ATOM     41  C   UNL A   1      38.868  20.132  26.020  1.00  0.00     0.116 C 
BRANCH  41  42
ATOM     42  N   UNL A   1      40.030  19.266  25.893  1.00  0.00    -0.352 N 
ATOM     43  C   UNL A   1      41.374  19.510  26.020  1.00  0.00     0.251 C 
ATOM     44  H   UNL A   1      39.811  18.332  25.674  1.00  0.00     0.163 HD
ATOM     45  O   UNL A   1      42.173  18.622  25.731  1.00  0.00    -0.269 OA
BRANCH  43  46
ATOM     46  C   UNL A   1      41.891  20.820  26.475  1.00  0.00     0.039 A 
ATOM     47  C   UNL A   1      42.209  21.777  25.505  1.00  0.00     0.014 A 
ATOM     48  C   UNL A   1      42.137  21.097  27.822  1.00  0.00     0.014 A 
ATOM     49  C   UNL A   1      42.711  23.025  25.885  1.00  0.00     0.010 A 
ATOM     50  C   UNL A   1      42.574  22.367  28.207  1.00  0.00     0.010 A 
ATOM     51  C   UNL A   1      42.866  23.345  27.243  1.00  0.00    -0.014 A 
BRANCH  51  52
ATOM     52  C   UNL A   1      43.324  24.700  27.656  1.00  0.00     0.031 A 
ATOM     53  C   UNL A   1      42.330  25.764  28.035  1.00  0.00     0.074 A 
ATOM     54  C   UNL A   1      44.641  24.982  27.662  1.00  0.00     0.049 A 
ATOM     55  N   UNL A   1      42.543  27.006  28.394  1.00  0.00    -0.248 NA
ATOM     56  C   UNL A   1      40.909  25.391  27.984  1.00  0.00     0.031 C 
ATOM     57  C   UNL A   1      45.704  24.048  27.288  1.00  0.00     0.029 A 
ATOM     58  N   UNL A   1      45.314  26.133  27.992  1.00  0.00    -0.354 N 
ATOM     59  C   UNL A   1      41.288  27.561  28.607  1.00  0.00     0.074 A 
ATOM     60  C   UNL A   1      40.316  26.539  28.282  1.00  0.00     0.031 C 
ATOM     61  C   UNL A   1      46.894  24.652  27.436  1.00  0.00     0.029 A 
ATOM     62  C   UNL A   1      46.679  26.028  27.874  1.00  0.00     0.049 A 
ATOM     63  H   UNL A   1      44.860  26.957  28.286  1.00  0.00     0.167 HD
ATOM     64  C   UNL A   1      40.974  28.802  29.054  1.00  0.00     0.037 A 
ATOM     65  C   UNL A   1      47.649  26.939  28.087  1.00  0.00     0.037 A 
ATOM     66  C   UNL A   1      41.942  29.814  29.387  1.00  0.00     0.049 A 
ATOM     67  C   UNL A   1      47.270  28.320  28.550  1.00  0.00     0.074 A 
ATOM     68  C   UNL A   1      41.725  31.085  29.890  1.00  0.00     0.029 A 
ATOM     69  N   UNL A   1      43.315  29.672  29.245  1.00  0.00    -0.354 N 
ATOM     70  N   UNL A   1      46.081  28.812  28.808  1.00  0.00    -0.248 NA
ATOM     71  C   UNL A   1      48.369  29.273  28.758  1.00  0.00     0.031 C 
ATOM     72  C   UNL A   1      42.960  31.732  29.998  1.00  0.00     0.029 A 
ATOM     73  C   UNL A   1      43.954  30.843  29.624  1.00  0.00     0.049 A 
ATOM     74  H   UNL A   1      43.770  28.860  28.923  1.00  0.00     0.167 HD
ATOM     75  C   UNL A   1      46.292  30.115  29.239  1.00  0.00     0.074 A 
ATOM     76  C   UNL A   1      47.723  30.333  29.223  1.00  0.00     0.031 C 
ATOM     77  C   UNL A   1      45.381  31.046  29.613  1.00  0.00     0.037 A 
BRANCH  64  78
ATOM     78  C   UNL A   1      39.516  29.139  29.209  1.00  0.00     0.064 A 
ATOM     79  C   UNL A   1      38.871  29.070  30.453  1.00  0.00     0.173 A 
ATOM     80  C   UNL A   1      38.766  29.579  28.106  1.00  0.00     0.173 A 
ATOM     81  F   UNL A   1      39.539  28.647  31.537  1.00  0.00    -0.203 F 
ATOM     82  C   UNL A   1      37.524  29.398  30.582  1.00  0.00     0.198 A 
ATOM     83  C   UNL A   1      37.428  29.940  28.247  1.00  0.00     0.198 A 
ATOM     84  F   UNL A   1      39.333  29.672  26.895  1.00  0.00    -0.203 F 
ATOM     85  F   UNL A   1      36.917  29.274  31.771  1.00  0.00    -0.200 F 
ATOM     86  C   UNL A   1      36.806  29.840  29.482  1.00  0.00     0.200 A 
ATOM     87  F   UNL A   1      36.740  30.382  27.185  1.00  0.00    -0.200 F 
ATOM     88  F   UNL A   1      35.512  30.164  29.610  1.00  0.00    -0.200 F 
ENDBRANCH  64  78
BRANCH  65  89
ATOM     89  C   UNL A   1      49.075  26.571  27.884  1.00  0.00     0.064 A 
ATOM     90  C   UNL A   1      49.906  26.272  28.973  1.00  0.00     0.173 A 
ATOM     91  C   UNL A   1      49.642  26.523  26.601  1.00  0.00     0.173 A 
ATOM     92  F   UNL A   1      49.417  26.324  30.221  1.00  0.00    -0.203 F 
ATOM     93  C   UNL A   1      51.253  25.966  28.790  1.00  0.00     0.198 A 
ATOM     94  C   UNL A   1      50.981  26.183  26.417  1.00  0.00     0.198 A 
ATOM     95  F   UNL A   1      48.891  26.796  25.524  1.00  0.00    -0.203 F 
ATOM     96  F   UNL A   1      52.036  25.736  29.854  1.00  0.00    -0.200 F 
ATOM     97  C   UNL A   1      51.788  25.915  27.512  1.00  0.00     0.200 A 
ATOM     98  F   UNL A   1      51.489  26.120  25.179  1.00  0.00    -0.200 F 
ATOM     99  F   UNL A   1      53.081  25.617  27.336  1.00  0.00    -0.200 F 
ENDBRANCH  65  89
BRANCH  77 100
ATOM    100  C   UNL A   1      45.903  32.376  30.080  1.00  0.00     0.064 A 
ATOM    101  C   UNL A   1      46.250  32.607  31.419  1.00  0.00     0.173 A 
ATOM    102  C   UNL A   1      46.093  33.423  29.165  1.00  0.00     0.173 A 
ATOM    103  F   UNL A   1      46.074  31.645  32.338  1.00  0.00    -0.203 F 
ATOM    104  C   UNL A   1      46.740  33.845  31.830  1.00  0.00     0.198 A 
ATOM    105  C   UNL A   1      46.617  34.647  29.571  1.00  0.00     0.198 A 
ATOM    106  F   UNL A   1      45.785  33.254  27.869  1.00  0.00    -0.203 F 
ATOM    107  F   UNL A   1      47.014  34.059  33.124  1.00  0.00    -0.200 F 
ATOM    108  C   UNL A   1      46.931  34.860  30.905  1.00  0.00     0.200 A 
ATOM    109  F   UNL A   1      46.816  35.622  28.672  1.00  0.00    -0.200 F 
ATOM    110  F   UNL A   1      47.411  36.048  31.300  1.00  0.00    -0.200 F 
ENDBRANCH  77 100
ENDBRANCH  51  52
ENDBRANCH  43  46
ENDBRANCH  41  42
ENDBRANCH  40  41
ENDBRANCH  39  40
ENDBRANCH  38  39
ENDBRANCH   1  38
TORSDOF 18
ENDMDL
