MODEL 1
REMARK VINA RESULT:     -11.8      0.000      0.000
REMARK SMILES [NH3+][C@@H](CC(=O)NCCCCCCNC(=O)c1ccc(-c2c3nc(c(-c4c(F)c(F)c(F)c(F)c4F)c4ccc([nH]4)c(-c4c(F)c(F)c(F)c(F)c4F)c4nc(c(-c5c(F)c(F)c(F)c(F)c5F)c5ccc2[nH]5)C=C4)C=C3)cc1)Cc1ccc(F)cc1
REMARK SMILES IDX 9 1 8 2 7 3 6 4 4 5 5 6 3 8 2 9 1 10 79 14 80 15 81 16 86 17
REMARK SMILES IDX 82 18 85 19 83 20 84 21 10 22 11 23 12 24 13 25 14 26 15 28
REMARK SMILES IDX 16 29 17 30 78 31 18 32 77 33 19 34 20 35 21 36 71 37 22 38
REMARK SMILES IDX 76 39 70 40 72 41 23 42 75 43 69 44 68 45 24 47 56 48 36 49
REMARK SMILES IDX 55 50 37 51 40 52 54 53 73 54 38 55 39 56 53 58 74 59 41 60
REMARK SMILES IDX 25 61 26 62 34 63 27 64 28 65 32 66 35 67 29 68 30 69 33 70
REMARK SMILES IDX 31 71 57 72 58 73 66 74 59 75 60 76 64 77 67 78 61 79 62 80
REMARK SMILES IDX 65 81 63 82 42 83 43 84 51 85 44 86 45 87 49 88 52 89 46 90
REMARK SMILES IDX 47 91 50 92 48 93
REMARK H PARENT 6 7 1 11 1 12 1 13 13 27 72 46 40 57
REMARK Flexibility Score: inf
ROOT
ATOM      1  C   UNL A   1      32.408  29.734  27.221  1.00  0.00     0.002 C 
ENDROOT
BRANCH   1   2
ATOM      2  C   UNL A   1      31.783  28.334  27.260  1.00  0.00     0.021 C 
BRANCH   2   3
ATOM      3  C   UNL A   1      32.268  27.416  26.135  1.00  0.00     0.116 C 
BRANCH   3   4
ATOM      4  N   UNL A   1      31.947  26.037  26.435  1.00  0.00    -0.356 N 
ATOM      5  C   UNL A   1      30.793  25.351  26.221  1.00  0.00     0.225 C 
ATOM      6  O   UNL A   1      30.702  24.207  26.672  1.00  0.00    -0.275 OA
ATOM      7  H   UNL A   1      32.672  25.520  26.856  1.00  0.00     0.163 HD
BRANCH   5   8
ATOM      8  C   UNL A   1      29.655  25.970  25.436  1.00  0.00     0.165 C 
BRANCH   8   9
ATOM      9  C   UNL A   1      29.668  25.771  23.907  1.00  0.00     0.194 C 
BRANCH   9  10
ATOM     10  N   UNL A   1      30.265  24.489  23.504  1.00  0.00    -0.354 N 
ATOM     11  H   UNL A   1      29.565  23.923  23.026  1.00  0.00     0.344 HD
ATOM     12  H   UNL A   1      30.596  23.994  24.332  1.00  0.00     0.344 HD
ATOM     13  H   UNL A   1      31.050  24.663  22.876  1.00  0.00     0.344 HD
ENDBRANCH   9  10
BRANCH   9  14
ATOM     14  C   UNL A   1      30.235  26.985  23.123  1.00  0.00     0.101 C 
BRANCH  14  15
ATOM     15  C   UNL A   1      29.402  28.246  23.240  1.00  0.00    -0.042 A 
ATOM     16  C   UNL A   1      30.032  29.483  23.465  1.00  0.00     0.007 A 
ATOM     17  C   UNL A   1      28.009  28.210  23.073  1.00  0.00     0.007 A 
ATOM     18  C   UNL A   1      29.287  30.661  23.488  1.00  0.00     0.039 A 
ATOM     19  C   UNL A   1      27.266  29.391  23.094  1.00  0.00     0.039 A 
ATOM     20  C   UNL A   1      27.912  30.605  23.294  1.00  0.00     0.123 A 
ATOM     21  F   UNL A   1      27.200  31.739  23.295  1.00  0.00    -0.207 F 
ENDBRANCH  14  15
ENDBRANCH   9  14
ENDBRANCH   8   9
ENDBRANCH   5   8
ENDBRANCH   3   4
ENDBRANCH   2   3
ENDBRANCH   1   2
BRANCH   1  22
ATOM     22  C   UNL A   1      31.731  30.714  26.256  1.00  0.00     0.002 C 
BRANCH  22  23
ATOM     23  C   UNL A   1      31.491  32.115  26.822  1.00  0.00     0.021 C 
BRANCH  23  24
ATOM     24  C   UNL A   1      32.758  32.836  27.272  1.00  0.00     0.116 C 
BRANCH  24  25
ATOM     25  N   UNL A   1      32.495  34.226  27.614  1.00  0.00    -0.352 N 
ATOM     26  C   UNL A   1      33.022  34.984  28.627  1.00  0.00     0.251 C 
ATOM     27  H   UNL A   1      31.846  34.687  27.036  1.00  0.00     0.163 HD
ATOM     28  O   UNL A   1      32.519  36.067  28.920  1.00  0.00    -0.269 OA
BRANCH  26  29
ATOM     29  C   UNL A   1      34.193  34.490  29.378  1.00  0.00     0.039 A 
ATOM     30  C   UNL A   1      33.997  33.880  30.619  1.00  0.00     0.014 A 
ATOM     31  C   UNL A   1      35.482  34.627  28.855  1.00  0.00     0.014 A 
ATOM     32  C   UNL A   1      35.089  33.346  31.305  1.00  0.00     0.010 A 
ATOM     33  C   UNL A   1      36.557  34.029  29.503  1.00  0.00     0.010 A 
ATOM     34  C   UNL A   1      36.371  33.381  30.734  1.00  0.00    -0.014 A 
BRANCH  34  35
ATOM     35  C   UNL A   1      37.529  32.733  31.398  1.00  0.00     0.031 A 
ATOM     36  C   UNL A   1      38.234  31.582  30.737  1.00  0.00     0.074 A 
ATOM     37  C   UNL A   1      37.900  33.136  32.630  1.00  0.00     0.049 A 
ATOM     38  N   UNL A   1      39.208  30.835  31.192  1.00  0.00    -0.248 NA
ATOM     39  C   UNL A   1      37.763  31.202  29.395  1.00  0.00     0.031 C 
ATOM     40  C   UNL A   1      37.266  34.214  33.392  1.00  0.00     0.029 A 
ATOM     41  N   UNL A   1      38.888  32.677  33.464  1.00  0.00    -0.354 N 
ATOM     42  C   UNL A   1      39.459  29.896  30.201  1.00  0.00     0.074 A 
ATOM     43  C   UNL A   1      38.499  30.128  29.145  1.00  0.00     0.031 C 
ATOM     44  C   UNL A   1      37.894  34.346  34.570  1.00  0.00     0.029 A 
ATOM     45  C   UNL A   1      38.942  33.336  34.669  1.00  0.00     0.049 A 
ATOM     46  H   UNL A   1      39.502  31.946  33.221  1.00  0.00     0.167 HD
ATOM     47  C   UNL A   1      40.418  28.939  30.167  1.00  0.00     0.037 A 
ATOM     48  C   UNL A   1      39.736  33.136  35.737  1.00  0.00     0.037 A 
ATOM     49  C   UNL A   1      41.380  28.723  31.216  1.00  0.00     0.049 A 
ATOM     50  C   UNL A   1      40.772  32.046  35.686  1.00  0.00     0.074 A 
ATOM     51  C   UNL A   1      42.428  27.821  31.252  1.00  0.00     0.029 A 
ATOM     52  N   UNL A   1      41.405  29.413  32.420  1.00  0.00    -0.354 N 
ATOM     53  N   UNL A   1      41.049  31.211  34.713  1.00  0.00    -0.248 NA
ATOM     54  C   UNL A   1      41.610  31.871  36.881  1.00  0.00     0.031 C 
ATOM     55  C   UNL A   1      43.050  27.922  32.500  1.00  0.00     0.029 A 
ATOM     56  C   UNL A   1      42.431  28.931  33.219  1.00  0.00     0.049 A 
ATOM     57  H   UNL A   1      40.786  30.136  32.671  1.00  0.00     0.167 HD
ATOM     58  C   UNL A   1      42.106  30.433  35.166  1.00  0.00     0.074 A 
ATOM     59  C   UNL A   1      42.434  30.908  36.495  1.00  0.00     0.031 C 
ATOM     60  C   UNL A   1      42.748  29.418  34.538  1.00  0.00     0.037 A 
BRANCH  47  61
ATOM     61  C   UNL A   1      40.475  28.051  28.958  1.00  0.00     0.064 A 
ATOM     62  C   UNL A   1      39.749  26.852  28.890  1.00  0.00     0.173 A 
ATOM     63  C   UNL A   1      41.230  28.423  27.835  1.00  0.00     0.173 A 
ATOM     64  F   UNL A   1      39.018  26.444  29.937  1.00  0.00    -0.203 F 
ATOM     65  C   UNL A   1      39.802  26.044  27.755  1.00  0.00     0.198 A 
ATOM     66  C   UNL A   1      41.254  27.631  26.690  1.00  0.00     0.198 A 
ATOM     67  F   UNL A   1      41.937  29.563  27.843  1.00  0.00    -0.203 F 
ATOM     68  F   UNL A   1      39.141  24.879  27.733  1.00  0.00    -0.200 F 
ATOM     69  C   UNL A   1      40.547  26.439  26.654  1.00  0.00     0.200 A 
ATOM     70  F   UNL A   1      41.961  28.022  25.621  1.00  0.00    -0.200 F 
ATOM     71  F   UNL A   1      40.588  25.667  25.560  1.00  0.00    -0.200 F 
ENDBRANCH  47  61
BRANCH  48  72
ATOM     72  C   UNL A   1      39.588  33.992  36.945  1.00  0.00     0.064 A 
ATOM     73  C   UNL A   1      38.809  33.574  38.033  1.00  0.00     0.173 A 
ATOM     74  C   UNL A   1      40.211  35.245  37.033  1.00  0.00     0.173 A 
ATOM     75  F   UNL A   1      38.177  32.392  37.988  1.00  0.00    -0.203 F 
ATOM     76  C   UNL A   1      38.638  34.386  39.152  1.00  0.00     0.198 A 
ATOM     77  C   UNL A   1      40.067  36.043  38.167  1.00  0.00     0.198 A 
ATOM     78  F   UNL A   1      40.973  35.691  36.024  1.00  0.00    -0.203 F 
ATOM     79  F   UNL A   1      37.847  33.984  40.155  1.00  0.00    -0.200 F 
ATOM     80  C   UNL A   1      39.273  35.618  39.221  1.00  0.00     0.200 A 
ATOM     81  F   UNL A   1      40.696  37.224  38.237  1.00  0.00    -0.200 F 
ATOM     82  F   UNL A   1      39.113  36.397  40.299  1.00  0.00    -0.200 F 
ENDBRANCH  48  72
BRANCH  60  83
ATOM     83  C   UNL A   1      43.891  28.768  35.264  1.00  0.00     0.064 A 
ATOM     84  C   UNL A   1      45.215  29.201  35.095  1.00  0.00     0.173 A 
ATOM     85  C   UNL A   1      43.653  27.729  36.177  1.00  0.00     0.173 A 
ATOM     86  F   UNL A   1      45.499  30.180  34.222  1.00  0.00    -0.203 F 
ATOM     87  C   UNL A   1      46.258  28.604  35.797  1.00  0.00     0.198 A 
ATOM     88  C   UNL A   1      44.693  27.157  36.902  1.00  0.00     0.198 A 
ATOM     89  F   UNL A   1      42.404  27.280  36.380  1.00  0.00    -0.203 F 
ATOM     90  F   UNL A   1      47.520  29.002  35.585  1.00  0.00    -0.200 F 
ATOM     91  C   UNL A   1      45.996  27.590  36.707  1.00  0.00     0.200 A 
ATOM     92  F   UNL A   1      44.436  26.188  37.792  1.00  0.00    -0.200 F 
ATOM     93  F   UNL A   1      47.000  27.024  37.391  1.00  0.00    -0.200 F 
ENDBRANCH  60  83
ENDBRANCH  34  35
ENDBRANCH  26  29
ENDBRANCH  24  25
ENDBRANCH  23  24
ENDBRANCH  22  23
ENDBRANCH   1  22
TORSDOF 17
ENDMDL
MODEL 2
REMARK VINA RESULT:     -11.8      6.384     11.792
REMARK SMILES [NH3+][C@@H](CC(=O)NCCCCCCNC(=O)c1ccc(-c2c3nc(c(-c4c(F)c(F)c(F)c(F)c4F)c4ccc([nH]4)c(-c4c(F)c(F)c(F)c(F)c4F)c4nc(c(-c5c(F)c(F)c(F)c(F)c5F)c5ccc2[nH]5)C=C4)C=C3)cc1)Cc1ccc(F)cc1
REMARK SMILES IDX 9 1 8 2 7 3 6 4 4 5 5 6 3 8 2 9 1 10 79 14 80 15 81 16 86 17
REMARK SMILES IDX 82 18 85 19 83 20 84 21 10 22 11 23 12 24 13 25 14 26 15 28
REMARK SMILES IDX 16 29 17 30 78 31 18 32 77 33 19 34 20 35 21 36 71 37 22 38
REMARK SMILES IDX 76 39 70 40 72 41 23 42 75 43 69 44 68 45 24 47 56 48 36 49
REMARK SMILES IDX 55 50 37 51 40 52 54 53 73 54 38 55 39 56 53 58 74 59 41 60
REMARK SMILES IDX 25 61 26 62 34 63 27 64 28 65 32 66 35 67 29 68 30 69 33 70
REMARK SMILES IDX 31 71 57 72 58 73 66 74 59 75 60 76 64 77 67 78 61 79 62 80
REMARK SMILES IDX 65 81 63 82 42 83 43 84 51 85 44 86 45 87 49 88 52 89 46 90
REMARK SMILES IDX 47 91 50 92 48 93
REMARK H PARENT 6 7 1 11 1 12 1 13 13 27 72 46 40 57
REMARK Flexibility Score: inf
ROOT
ATOM      1  C   UNL A   1      37.117  22.197  25.685  1.00  0.00     0.002 C 
ENDROOT
BRANCH   1   2
ATOM      2  C   UNL A   1      36.644  23.554  25.149  1.00  0.00     0.021 C 
BRANCH   2   3
ATOM      3  C   UNL A   1      35.156  23.821  25.384  1.00  0.00     0.116 C 
BRANCH   3   4
ATOM      4  N   UNL A   1      34.631  24.698  24.360  1.00  0.00    -0.356 N 
ATOM      5  C   UNL A   1      34.139  24.394  23.130  1.00  0.00     0.225 C 
ATOM      6  O   UNL A   1      33.857  25.322  22.369  1.00  0.00    -0.275 OA
ATOM      7  H   UNL A   1      34.632  25.656  24.588  1.00  0.00     0.163 HD
BRANCH   5   8
ATOM      8  C   UNL A   1      33.924  22.953  22.713  1.00  0.00     0.165 C 
BRANCH   8   9
ATOM      9  C   UNL A   1      32.518  22.360  22.933  1.00  0.00     0.194 C 
BRANCH   9  10
ATOM     10  N   UNL A   1      31.454  23.371  22.851  1.00  0.00    -0.354 N 
ATOM     11  H   UNL A   1      31.158  23.474  21.880  1.00  0.00     0.344 HD
ATOM     12  H   UNL A   1      31.806  24.263  23.196  1.00  0.00     0.344 HD
ATOM     13  H   UNL A   1      30.660  23.076  23.419  1.00  0.00     0.344 HD
ENDBRANCH   9  10
BRANCH   9  14
ATOM     14  C   UNL A   1      32.411  21.459  24.193  1.00  0.00     0.101 C 
BRANCH  14  15
ATOM     15  C   UNL A   1      32.834  20.020  23.967  1.00  0.00    -0.042 A 
ATOM     16  C   UNL A   1      32.153  19.230  23.025  1.00  0.00     0.007 A 
ATOM     17  C   UNL A   1      33.934  19.476  24.647  1.00  0.00     0.007 A 
ATOM     18  C   UNL A   1      32.586  17.935  22.745  1.00  0.00     0.039 A 
ATOM     19  C   UNL A   1      34.368  18.180  24.363  1.00  0.00     0.039 A 
ATOM     20  C   UNL A   1      33.694  17.425  23.411  1.00  0.00     0.123 A 
ATOM     21  F   UNL A   1      34.122  16.188  23.125  1.00  0.00    -0.207 F 
ENDBRANCH  14  15
ENDBRANCH   9  14
ENDBRANCH   8   9
ENDBRANCH   5   8
ENDBRANCH   3   4
ENDBRANCH   2   3
ENDBRANCH   1   2
BRANCH   1  22
ATOM     22  C   UNL A   1      37.171  21.076  24.641  1.00  0.00     0.002 C 
BRANCH  22  23
ATOM     23  C   UNL A   1      38.085  19.903  25.000  1.00  0.00     0.021 C 
BRANCH  23  24
ATOM     24  C   UNL A   1      39.198  20.252  25.983  1.00  0.00     0.116 C 
BRANCH  24  25
ATOM     25  N   UNL A   1      40.204  19.203  26.053  1.00  0.00    -0.352 N 
ATOM     26  C   UNL A   1      41.569  19.314  26.126  1.00  0.00     0.251 C 
ATOM     27  H   UNL A   1      39.856  18.282  26.047  1.00  0.00     0.163 HD
ATOM     28  O   UNL A   1      42.284  18.332  25.941  1.00  0.00    -0.269 OA
BRANCH  26  29
ATOM     29  C   UNL A   1      42.181  20.626  26.415  1.00  0.00     0.039 A 
ATOM     30  C   UNL A   1      42.652  21.405  25.356  1.00  0.00     0.014 A 
ATOM     31  C   UNL A   1      42.288  21.085  27.731  1.00  0.00     0.014 A 
ATOM     32  C   UNL A   1      43.169  22.676  25.612  1.00  0.00     0.010 A 
ATOM     33  C   UNL A   1      42.732  22.379  27.977  1.00  0.00     0.010 A 
ATOM     34  C   UNL A   1      43.176  23.189  26.920  1.00  0.00    -0.014 A 
BRANCH  34  35
ATOM     35  C   UNL A   1      43.628  24.574  27.202  1.00  0.00     0.031 A 
ATOM     36  C   UNL A   1      42.655  25.597  27.716  1.00  0.00     0.074 A 
ATOM     37  C   UNL A   1      44.899  24.926  26.929  1.00  0.00     0.049 A 
ATOM     38  N   UNL A   1      42.837  26.874  27.943  1.00  0.00    -0.248 NA
ATOM     39  C   UNL A   1      41.285  25.130  27.983  1.00  0.00     0.031 C 
ATOM     40  C   UNL A   1      45.926  24.033  26.388  1.00  0.00     0.029 A 
ATOM     41  N   UNL A   1      45.542  26.133  27.053  1.00  0.00    -0.354 N 
ATOM     42  C   UNL A   1      41.609  27.361  28.369  1.00  0.00     0.074 A 
ATOM     43  C   UNL A   1      40.674  26.259  28.315  1.00  0.00     0.031 C 
ATOM     44  C   UNL A   1      47.073  24.716  26.247  1.00  0.00     0.029 A 
ATOM     45  C   UNL A   1      46.853  26.104  26.641  1.00  0.00     0.049 A 
ATOM     46  H   UNL A   1      45.105  26.943  27.405  1.00  0.00     0.167 HD
ATOM     47  C   UNL A   1      41.296  28.610  28.789  1.00  0.00     0.037 A 
ATOM     48  C   UNL A   1      47.768  27.089  26.575  1.00  0.00     0.037 A 
ATOM     49  C   UNL A   1      42.236  29.699  28.855  1.00  0.00     0.049 A 
ATOM     50  C   UNL A   1      47.385  28.476  27.017  1.00  0.00     0.074 A 
ATOM     51  C   UNL A   1      42.034  30.986  29.321  1.00  0.00     0.029 A 
ATOM     52  N   UNL A   1      43.556  29.630  28.432  1.00  0.00    -0.354 N 
ATOM     53  N   UNL A   1      46.240  28.908  27.488  1.00  0.00    -0.248 NA
ATOM     54  C   UNL A   1      48.423  29.512  26.920  1.00  0.00     0.031 C 
ATOM     55  C   UNL A   1      43.211  31.713  29.125  1.00  0.00     0.029 A 
ATOM     56  C   UNL A   1      44.169  30.863  28.596  1.00  0.00     0.049 A 
ATOM     57  H   UNL A   1      43.993  28.826  28.070  1.00  0.00     0.167 HD
ATOM     58  C   UNL A   1      46.427  30.255  27.769  1.00  0.00     0.074 A 
ATOM     59  C   UNL A   1      47.802  30.565  27.432  1.00  0.00     0.031 C 
ATOM     60  C   UNL A   1      45.541  31.155  28.262  1.00  0.00     0.037 A 
BRANCH  47  61
ATOM     61  C   UNL A   1      39.878  28.871  29.209  1.00  0.00     0.064 A 
ATOM     62  C   UNL A   1      38.907  29.305  28.294  1.00  0.00     0.173 A 
ATOM     63  C   UNL A   1      39.474  28.644  30.533  1.00  0.00     0.173 A 
ATOM     64  F   UNL A   1      39.240  29.547  27.017  1.00  0.00    -0.203 F 
ATOM     65  C   UNL A   1      37.591  29.530  28.695  1.00  0.00     0.198 A 
ATOM     66  C   UNL A   1      38.152  28.836  30.924  1.00  0.00     0.198 A 
ATOM     67  F   UNL A   1      40.360  28.222  31.448  1.00  0.00    -0.203 F 
ATOM     68  F   UNL A   1      36.694  29.992  27.815  1.00  0.00    -0.200 F 
ATOM     69  C   UNL A   1      37.214  29.287  30.007  1.00  0.00     0.200 A 
ATOM     70  F   UNL A   1      37.784  28.586  32.188  1.00  0.00    -0.200 F 
ATOM     71  F   UNL A   1      35.946  29.493  30.390  1.00  0.00    -0.200 F 
ENDBRANCH  47  61
BRANCH  48  72
ATOM     72  C   UNL A   1      49.139  26.798  26.076  1.00  0.00     0.064 A 
ATOM     73  C   UNL A   1      49.475  27.005  24.730  1.00  0.00     0.173 A 
ATOM     74  C   UNL A   1      50.136  26.299  26.927  1.00  0.00     0.173 A 
ATOM     75  F   UNL A   1      48.551  27.462  23.873  1.00  0.00    -0.203 F 
ATOM     76  C   UNL A   1      50.747  26.702  24.250  1.00  0.00     0.198 A 
ATOM     77  C   UNL A   1      51.418  26.028  26.454  1.00  0.00     0.198 A 
ATOM     78  F   UNL A   1      49.869  26.089  28.224  1.00  0.00    -0.203 F 
ATOM     79  F   UNL A   1      51.026  26.861  22.950  1.00  0.00    -0.200 F 
ATOM     80  C   UNL A   1      51.720  26.219  25.114  1.00  0.00     0.200 A 
ATOM     81  F   UNL A   1      52.359  25.578  27.294  1.00  0.00    -0.200 F 
ATOM     82  F   UNL A   1      52.945  25.932  24.653  1.00  0.00    -0.200 F 
ENDBRANCH  48  72
BRANCH  60  83
ATOM     83  C   UNL A   1      46.033  32.554  28.498  1.00  0.00     0.064 A 
ATOM     84  C   UNL A   1      45.921  33.551  27.517  1.00  0.00     0.173 A 
ATOM     85  C   UNL A   1      46.581  32.913  29.739  1.00  0.00     0.173 A 
ATOM     86  F   UNL A   1      45.421  33.255  26.308  1.00  0.00    -0.203 F 
ATOM     87  C   UNL A   1      46.359  34.849  27.764  1.00  0.00     0.198 A 
ATOM     88  C   UNL A   1      46.986  34.219  29.994  1.00  0.00     0.198 A 
ATOM     89  F   UNL A   1      46.705  31.999  30.714  1.00  0.00    -0.203 F 
ATOM     90  F   UNL A   1      46.286  35.774  26.796  1.00  0.00    -0.200 F 
ATOM     91  C   UNL A   1      46.882  35.185  29.004  1.00  0.00     0.200 A 
ATOM     92  F   UNL A   1      47.475  34.546  31.199  1.00  0.00    -0.200 F 
ATOM     93  F   UNL A   1      47.291  36.438  29.244  1.00  0.00    -0.200 F 
ENDBRANCH  60  83
ENDBRANCH  34  35
ENDBRANCH  26  29
ENDBRANCH  24  25
ENDBRANCH  23  24
ENDBRANCH  22  23
ENDBRANCH   1  22
TORSDOF 17
ENDMDL
MODEL 3
REMARK VINA RESULT:     -11.7      0.512      1.381
REMARK SMILES [NH3+][C@@H](CC(=O)NCCCCCCNC(=O)c1ccc(-c2c3nc(c(-c4c(F)c(F)c(F)c(F)c4F)c4ccc([nH]4)c(-c4c(F)c(F)c(F)c(F)c4F)c4nc(c(-c5c(F)c(F)c(F)c(F)c5F)c5ccc2[nH]5)C=C4)C=C3)cc1)Cc1ccc(F)cc1
REMARK SMILES IDX 9 1 8 2 7 3 6 4 4 5 5 6 3 8 2 9 1 10 79 14 80 15 81 16 86 17
REMARK SMILES IDX 82 18 85 19 83 20 84 21 10 22 11 23 12 24 13 25 14 26 15 28
REMARK SMILES IDX 16 29 17 30 78 31 18 32 77 33 19 34 20 35 21 36 71 37 22 38
REMARK SMILES IDX 76 39 70 40 72 41 23 42 75 43 69 44 68 45 24 47 56 48 36 49
REMARK SMILES IDX 55 50 37 51 40 52 54 53 73 54 38 55 39 56 53 58 74 59 41 60
REMARK SMILES IDX 25 61 26 62 34 63 27 64 28 65 32 66 35 67 29 68 30 69 33 70
REMARK SMILES IDX 31 71 57 72 58 73 66 74 59 75 60 76 64 77 67 78 61 79 62 80
REMARK SMILES IDX 65 81 63 82 42 83 43 84 51 85 44 86 45 87 49 88 52 89 46 90
REMARK SMILES IDX 47 91 50 92 48 93
REMARK H PARENT 6 7 1 11 1 12 1 13 13 27 72 46 40 57
REMARK Flexibility Score: inf
ROOT
ATOM      1  C   UNL A   1      32.922  29.970  27.251  1.00  0.00     0.002 C 
ENDROOT
BRANCH   1   2
ATOM      2  C   UNL A   1      33.948  29.264  26.357  1.00  0.00     0.021 C 
BRANCH   2   3
ATOM      3  C   UNL A   1      33.322  28.516  25.178  1.00  0.00     0.116 C 
BRANCH   3   4
ATOM      4  N   UNL A   1      33.372  27.087  25.402  1.00  0.00    -0.356 N 
ATOM      5  C   UNL A   1      32.371  26.228  25.734  1.00  0.00     0.225 C 
ATOM      6  O   UNL A   1      32.668  25.061  25.996  1.00  0.00    -0.275 OA
ATOM      7  H   UNL A   1      34.261  26.677  25.299  1.00  0.00     0.163 HD
BRANCH   5   8
ATOM      8  C   UNL A   1      30.929  26.690  25.763  1.00  0.00     0.165 C 
BRANCH   8   9
ATOM      9  C   UNL A   1      30.025  26.243  24.597  1.00  0.00     0.194 C 
BRANCH   9  10
ATOM     10  N   UNL A   1      30.070  24.792  24.364  1.00  0.00    -0.354 N 
ATOM     11  H   UNL A   1      29.161  24.472  24.030  1.00  0.00     0.344 HD
ATOM     12  H   UNL A   1      30.299  24.315  25.236  1.00  0.00     0.344 HD
ATOM     13  H   UNL A   1      30.782  24.582  23.664  1.00  0.00     0.344 HD
ENDBRANCH   9  10
BRANCH   9  14
ATOM     14  C   UNL A   1      30.217  27.078  23.302  1.00  0.00     0.101 C 
BRANCH  14  15
ATOM     15  C   UNL A   1      29.420  28.367  23.269  1.00  0.00    -0.042 A 
ATOM     16  C   UNL A   1      28.034  28.327  23.040  1.00  0.00     0.007 A 
ATOM     17  C   UNL A   1      30.036  29.603  23.517  1.00  0.00     0.007 A 
ATOM     18  C   UNL A   1      27.276  29.496  23.093  1.00  0.00     0.039 A 
ATOM     19  C   UNL A   1      29.274  30.772  23.572  1.00  0.00     0.039 A 
ATOM     20  C   UNL A   1      27.901  30.706  23.366  1.00  0.00     0.123 A 
ATOM     21  F   UNL A   1      27.169  31.825  23.438  1.00  0.00    -0.207 F 
ENDBRANCH  14  15
ENDBRANCH   9  14
ENDBRANCH   8   9
ENDBRANCH   5   8
ENDBRANCH   3   4
ENDBRANCH   2   3
ENDBRANCH   1   2
BRANCH   1  22
ATOM     22  C   UNL A   1      31.735  30.587  26.503  1.00  0.00     0.002 C 
BRANCH  22  23
ATOM     23  C   UNL A   1      31.547  32.090  26.719  1.00  0.00     0.021 C 
BRANCH  23  24
ATOM     24  C   UNL A   1      32.791  32.812  27.228  1.00  0.00     0.116 C 
BRANCH  24  25
ATOM     25  N   UNL A   1      32.503  34.191  27.595  1.00  0.00    -0.352 N 
ATOM     26  C   UNL A   1      33.014  34.939  28.624  1.00  0.00     0.251 C 
ATOM     27  H   UNL A   1      31.847  34.651  27.023  1.00  0.00     0.163 HD
ATOM     28  O   UNL A   1      32.491  36.007  28.936  1.00  0.00    -0.269 OA
BRANCH  26  29
ATOM     29  C   UNL A   1      34.190  34.451  29.369  1.00  0.00     0.039 A 
ATOM     30  C   UNL A   1      34.003  33.832  30.607  1.00  0.00     0.014 A 
ATOM     31  C   UNL A   1      35.477  34.603  28.844  1.00  0.00     0.014 A 
ATOM     32  C   UNL A   1      35.101  33.304  31.288  1.00  0.00     0.010 A 
ATOM     33  C   UNL A   1      36.559  34.011  29.487  1.00  0.00     0.010 A 
ATOM     34  C   UNL A   1      36.382  33.354  30.714  1.00  0.00    -0.014 A 
BRANCH  34  35
ATOM     35  C   UNL A   1      37.547  32.713  31.372  1.00  0.00     0.031 A 
ATOM     36  C   UNL A   1      38.259  31.570  30.704  1.00  0.00     0.074 A 
ATOM     37  C   UNL A   1      37.918  33.114  32.604  1.00  0.00     0.049 A 
ATOM     38  N   UNL A   1      39.241  30.829  31.153  1.00  0.00    -0.248 NA
ATOM     39  C   UNL A   1      37.786  31.191  29.363  1.00  0.00     0.031 C 
ATOM     40  C   UNL A   1      37.278  34.184  33.372  1.00  0.00     0.029 A 
ATOM     41  N   UNL A   1      38.913  32.660  33.433  1.00  0.00    -0.354 N 
ATOM     42  C   UNL A   1      39.495  29.895  30.158  1.00  0.00     0.074 A 
ATOM     43  C   UNL A   1      38.530  30.124  29.106  1.00  0.00     0.031 C 
ATOM     44  C   UNL A   1      37.910  34.317  34.549  1.00  0.00     0.029 A 
ATOM     45  C   UNL A   1      38.966  33.315  34.640  1.00  0.00     0.049 A 
ATOM     46  H   UNL A   1      39.532  31.935  33.186  1.00  0.00     0.167 HD
ATOM     47  C   UNL A   1      40.462  28.947  30.117  1.00  0.00     0.037 A 
ATOM     48  C   UNL A   1      39.765  33.117  35.705  1.00  0.00     0.037 A 
ATOM     49  C   UNL A   1      41.429  28.735  31.162  1.00  0.00     0.049 A 
ATOM     50  C   UNL A   1      40.810  32.035  35.647  1.00  0.00     0.074 A 
ATOM     51  C   UNL A   1      42.485  27.841  31.191  1.00  0.00     0.029 A 
ATOM     52  N   UNL A   1      41.452  29.420  32.369  1.00  0.00    -0.354 N 
ATOM     53  N   UNL A   1      41.090  31.206  34.670  1.00  0.00    -0.248 NA
ATOM     54  C   UNL A   1      41.652  31.863  36.838  1.00  0.00     0.031 C 
ATOM     55  C   UNL A   1      43.110  27.941  32.437  1.00  0.00     0.029 A 
ATOM     56  C   UNL A   1      42.485  28.944  33.162  1.00  0.00     0.049 A 
ATOM     57  H   UNL A   1      40.829  30.137  32.624  1.00  0.00     0.167 HD
ATOM     58  C   UNL A   1      42.155  30.436  35.116  1.00  0.00     0.074 A 
ATOM     59  C   UNL A   1      42.483  30.907  36.446  1.00  0.00     0.031 C 
ATOM     60  C   UNL A   1      42.803  29.427  34.482  1.00  0.00     0.037 A 
BRANCH  47  61
ATOM     61  C   UNL A   1      40.522  28.064  28.904  1.00  0.00     0.064 A 
ATOM     62  C   UNL A   1      39.797  26.865  28.829  1.00  0.00     0.173 A 
ATOM     63  C   UNL A   1      41.280  28.440  27.785  1.00  0.00     0.173 A 
ATOM     64  F   UNL A   1      39.062  26.452  29.873  1.00  0.00    -0.203 F 
ATOM     65  C   UNL A   1      39.852  26.062  27.692  1.00  0.00     0.198 A 
ATOM     66  C   UNL A   1      41.307  27.653  26.637  1.00  0.00     0.198 A 
ATOM     67  F   UNL A   1      41.988  29.580  27.800  1.00  0.00    -0.203 F 
ATOM     68  F   UNL A   1      39.191  24.897  27.663  1.00  0.00    -0.200 F 
ATOM     69  C   UNL A   1      40.600  26.461  26.594  1.00  0.00     0.200 A 
ATOM     70  F   UNL A   1      42.017  28.048  25.572  1.00  0.00    -0.200 F 
ATOM     71  F   UNL A   1      40.644  25.694  25.497  1.00  0.00    -0.200 F 
ENDBRANCH  47  61
BRANCH  48  72
ATOM     72  C   UNL A   1      39.615  33.967  36.916  1.00  0.00     0.064 A 
ATOM     73  C   UNL A   1      38.829  33.546  38.000  1.00  0.00     0.173 A 
ATOM     74  C   UNL A   1      40.240  35.219  37.014  1.00  0.00     0.173 A 
ATOM     75  F   UNL A   1      38.195  32.366  37.946  1.00  0.00    -0.203 F 
ATOM     76  C   UNL A   1      38.656  34.353  39.122  1.00  0.00     0.198 A 
ATOM     77  C   UNL A   1      40.093  36.011  38.151  1.00  0.00     0.198 A 
ATOM     78  F   UNL A   1      41.007  35.667  36.010  1.00  0.00    -0.203 F 
ATOM     79  F   UNL A   1      37.860  33.947  40.120  1.00  0.00    -0.200 F 
ATOM     80  C   UNL A   1      39.294  35.582  39.200  1.00  0.00     0.200 A 
ATOM     81  F   UNL A   1      40.725  37.190  38.230  1.00  0.00    -0.200 F 
ATOM     82  F   UNL A   1      39.131  36.357  40.281  1.00  0.00    -0.200 F 
ENDBRANCH  48  72
BRANCH  60  83
ATOM     83  C   UNL A   1      43.953  28.784  35.202  1.00  0.00     0.064 A 
ATOM     84  C   UNL A   1      43.769  27.682  36.051  1.00  0.00     0.173 A 
ATOM     85  C   UNL A   1      45.264  29.245  35.001  1.00  0.00     0.173 A 
ATOM     86  F   UNL A   1      42.535  27.213  36.290  1.00  0.00    -0.203 F 
ATOM     87  C   UNL A   1      44.851  27.082  36.689  1.00  0.00     0.198 A 
ATOM     88  C   UNL A   1      46.346  28.622  35.613  1.00  0.00     0.198 A 
ATOM     89  F   UNL A   1      45.496  30.292  34.194  1.00  0.00    -0.203 F 
ATOM     90  F   UNL A   1      44.646  26.061  37.533  1.00  0.00    -0.200 F 
ATOM     91  C   UNL A   1      46.139  27.545  36.462  1.00  0.00     0.200 A 
ATOM     92  F   UNL A   1      47.591  29.060  35.380  1.00  0.00    -0.200 F 
ATOM     93  F   UNL A   1      47.180  26.958  37.067  1.00  0.00    -0.200 F 
ENDBRANCH  60  83
ENDBRANCH  34  35
ENDBRANCH  26  29
ENDBRANCH  24  25
ENDBRANCH  23  24
ENDBRANCH  22  23
ENDBRANCH   1  22
TORSDOF 17
ENDMDL
