MODEL 1
REMARK VINA RESULT:     -11.3      0.000      0.000
REMARK SMILES CCCCNC(=O)c1cnn([C@@H](C)C(=O)NCCCCCCNC(=O)c2ccc(-c3c4nc(c(-c5c(F)c(F)c(F)c(F)c5F)c5ccc([nH]5)c(-c5c(F)c(F)c(F)c(F)c5F)c5nc(c(-c6c(F)c(F)c(F)c(F)c6F)c6ccc3[nH]6)C=C5)C=C4)cc2)c1
REMARK SMILES IDX 18 1 17 2 16 3 14 4 15 5 12 7 13 8 11 9 8 10 9 11 89 12
REMARK SMILES IDX 10 13 6 14 5 15 7 17 4 18 3 19 2 20 1 21 19 22 20 23 21 24
REMARK SMILES IDX 22 25 23 26 24 27 25 29 26 30 27 31 88 32 28 33 87 34 29 35
REMARK SMILES IDX 30 36 31 37 81 38 32 39 86 40 80 41 82 42 33 43 85 44 79 45
REMARK SMILES IDX 78 46 34 48 66 49 46 50 65 51 47 52 50 53 64 54 83 55 48 56
REMARK SMILES IDX 49 57 63 59 84 60 51 61 35 62 36 63 44 64 37 65 38 66 42 67
REMARK SMILES IDX 45 68 39 69 40 70 43 71 41 72 67 73 68 74 76 75 69 76 70 77
REMARK SMILES IDX 74 78 77 79 71 80 72 81 75 82 73 83 52 84 53 85 61 86 54 87
REMARK SMILES IDX 55 88 59 89 62 90 56 91 57 92 60 93 58 94
REMARK H PARENT 16 6 5 16 23 28 82 47 50 58
REMARK Flexibility Score: inf
ROOT
ATOM      1  C   UNL A   1      34.867  24.660  24.991  1.00  0.00     0.021 C 
ENDROOT
BRANCH   1   2
ATOM      2  C   UNL A   1      33.594  24.817  25.829  1.00  0.00     0.116 C 
BRANCH   2   3
ATOM      3  N   UNL A   1      32.848  23.573  25.910  1.00  0.00    -0.354 N 
ATOM      4  C   UNL A   1      31.904  23.043  25.081  1.00  0.00     0.244 C 
ATOM      5  O   UNL A   1      31.335  22.019  25.481  1.00  0.00    -0.273 OA
ATOM      6  H   UNL A   1      33.060  23.019  26.695  1.00  0.00     0.163 HD
BRANCH   4   7
ATOM      7  C   UNL A   1      31.576  23.598  23.696  1.00  0.00     0.193 C 
ATOM      8  C   UNL A   1      32.705  23.419  22.683  1.00  0.00     0.044 C 
BRANCH   7   9
ATOM      9  N   UNL A   1      31.022  24.946  23.744  1.00  0.00    -0.260 N 
ATOM     10  C   UNL A   1      30.584  27.074  23.373  1.00  0.00     0.077 A 
ATOM     11  C   UNL A   1      29.833  26.546  24.435  1.00  0.00     0.149 A 
ATOM     12  C   UNL A   1      31.296  25.989  22.897  1.00  0.00     0.123 A 
ATOM     13  N   UNL A   1      30.199  25.308  24.742  1.00  0.00    -0.180 NA
BRANCH  10  14
ATOM     14  C   UNL A   1      30.592  28.428  22.868  1.00  0.00     0.254 C 
ATOM     15  N   UNL A   1      31.288  29.373  23.591  1.00  0.00    -0.352 N 
ATOM     16  H   UNL A   1      31.127  30.307  23.327  1.00  0.00     0.163 HD
ATOM     17  O   UNL A   1      30.023  28.752  21.836  1.00  0.00    -0.269 OA
BRANCH  15  18
ATOM     18  C   UNL A   1      32.226  29.189  24.689  1.00  0.00     0.116 C 
BRANCH  18  19
ATOM     19  C   UNL A   1      31.927  30.104  25.873  1.00  0.00     0.021 C 
BRANCH  19  20
ATOM     20  C   UNL A   1      32.038  29.434  27.240  1.00  0.00    -0.002 C 
ATOM     21  C   UNL A   1      31.887  27.922  27.180  1.00  0.00     0.004 C 
ENDBRANCH  19  20
ENDBRANCH  18  19
ENDBRANCH  15  18
ENDBRANCH  10  14
ENDBRANCH   7   9
ENDBRANCH   4   7
ENDBRANCH   2   3
ENDBRANCH   1   2
BRANCH   1  22
ATOM     22  C   UNL A   1      36.013  23.956  25.718  1.00  0.00     0.002 C 
BRANCH  22  23
ATOM     23  C   UNL A   1      36.152  22.456  25.423  1.00  0.00     0.002 C 
BRANCH  23  24
ATOM     24  C   UNL A   1      37.583  21.938  25.217  1.00  0.00     0.021 C 
BRANCH  24  25
ATOM     25  C   UNL A   1      38.598  22.614  26.123  1.00  0.00     0.116 C 
BRANCH  25  26
ATOM     26  N   UNL A   1      39.909  21.964  26.063  1.00  0.00    -0.352 N 
ATOM     27  C   UNL A   1      41.161  22.542  26.097  1.00  0.00     0.251 C 
ATOM     28  H   UNL A   1      39.895  20.982  25.990  1.00  0.00     0.163 HD
ATOM     29  O   UNL A   1      42.152  21.942  25.704  1.00  0.00    -0.269 OA
BRANCH  27  30
ATOM     30  C   UNL A   1      41.284  23.904  26.637  1.00  0.00     0.039 A 
ATOM     31  C   UNL A   1      40.524  24.972  26.148  1.00  0.00     0.014 A 
ATOM     32  C   UNL A   1      42.181  24.086  27.682  1.00  0.00     0.014 A 
ATOM     33  C   UNL A   1      40.635  26.214  26.768  1.00  0.00     0.010 A 
ATOM     34  C   UNL A   1      42.133  25.234  28.414  1.00  0.00     0.010 A 
ATOM     35  C   UNL A   1      41.442  26.328  27.907  1.00  0.00    -0.014 A 
BRANCH  35  36
ATOM     36  C   UNL A   1      41.538  27.560  28.679  1.00  0.00     0.031 A 
ATOM     37  C   UNL A   1      42.693  28.428  28.311  1.00  0.00     0.074 A 
ATOM     38  C   UNL A   1      40.476  27.973  29.411  1.00  0.00     0.049 A 
ATOM     39  N   UNL A   1      43.628  28.883  29.078  1.00  0.00    -0.248 NA
ATOM     40  C   UNL A   1      42.909  28.726  26.882  1.00  0.00     0.031 C 
ATOM     41  C   UNL A   1      39.169  27.311  29.554  1.00  0.00     0.029 A 
ATOM     42  N   UNL A   1      40.274  29.149  30.064  1.00  0.00    -0.354 N 
ATOM     43  C   UNL A   1      44.434  29.686  28.270  1.00  0.00     0.074 A 
ATOM     44  C   UNL A   1      44.061  29.397  26.912  1.00  0.00     0.031 C 
ATOM     45  C   UNL A   1      38.255  28.191  30.018  1.00  0.00     0.029 A 
ATOM     46  C   UNL A   1      38.939  29.417  30.369  1.00  0.00     0.049 A 
ATOM     47  H   UNL A   1      41.009  29.761  30.302  1.00  0.00     0.167 HD
ATOM     48  C   UNL A   1      45.154  30.713  28.800  1.00  0.00     0.037 A 
ATOM     49  C   UNL A   1      38.439  30.592  30.828  1.00  0.00     0.037 A 
ATOM     50  C   UNL A   1      45.282  30.561  30.227  1.00  0.00     0.049 A 
ATOM     51  C   UNL A   1      39.588  31.375  31.347  1.00  0.00     0.074 A 
ATOM     52  C   UNL A   1      45.859  29.620  31.056  1.00  0.00     0.029 A 
ATOM     53  N   UNL A   1      44.426  31.285  31.018  1.00  0.00    -0.354 N 
ATOM     54  N   UNL A   1      40.289  31.022  32.390  1.00  0.00    -0.248 NA
ATOM     55  C   UNL A   1      40.255  32.272  30.415  1.00  0.00     0.031 C 
ATOM     56  C   UNL A   1      44.970  29.516  32.166  1.00  0.00     0.029 A 
ATOM     57  C   UNL A   1      43.949  30.451  31.993  1.00  0.00     0.049 A 
ATOM     58  H   UNL A   1      44.195  32.236  30.905  1.00  0.00     0.167 HD
ATOM     59  C   UNL A   1      41.603  31.293  32.037  1.00  0.00     0.074 A 
ATOM     60  C   UNL A   1      41.514  32.122  30.836  1.00  0.00     0.031 C 
ATOM     61  C   UNL A   1      42.633  30.574  32.573  1.00  0.00     0.037 A 
BRANCH  48  62
ATOM     62  C   UNL A   1      45.386  32.048  28.122  1.00  0.00     0.064 A 
ATOM     63  C   UNL A   1      44.267  32.848  27.804  1.00  0.00     0.173 A 
ATOM     64  C   UNL A   1      46.591  32.420  27.489  1.00  0.00     0.173 A 
ATOM     65  F   UNL A   1      43.066  32.591  28.345  1.00  0.00    -0.203 F 
ATOM     66  C   UNL A   1      44.329  33.863  26.846  1.00  0.00     0.198 A 
ATOM     67  C   UNL A   1      46.661  33.469  26.572  1.00  0.00     0.198 A 
ATOM     68  F   UNL A   1      47.725  31.728  27.633  1.00  0.00    -0.203 F 
ATOM     69  F   UNL A   1      43.209  34.498  26.475  1.00  0.00    -0.200 F 
ATOM     70  C   UNL A   1      45.524  34.165  26.222  1.00  0.00     0.200 A 
ATOM     71  F   UNL A   1      47.827  33.736  25.967  1.00  0.00    -0.200 F 
ATOM     72  F   UNL A   1      45.574  35.086  25.251  1.00  0.00    -0.200 F 
ENDBRANCH  48  62
BRANCH  49  73
ATOM     73  C   UNL A   1      37.123  31.208  30.528  1.00  0.00     0.064 A 
ATOM     74  C   UNL A   1      36.205  31.502  31.550  1.00  0.00     0.173 A 
ATOM     75  C   UNL A   1      36.855  31.775  29.266  1.00  0.00     0.173 A 
ATOM     76  F   UNL A   1      36.417  31.050  32.795  1.00  0.00    -0.203 F 
ATOM     77  C   UNL A   1      35.094  32.325  31.326  1.00  0.00     0.198 A 
ATOM     78  C   UNL A   1      35.745  32.593  29.043  1.00  0.00     0.198 A 
ATOM     79  F   UNL A   1      37.720  31.629  28.253  1.00  0.00    -0.203 F 
ATOM     80  F   UNL A   1      34.272  32.631  32.340  1.00  0.00    -0.200 F 
ATOM     81  C   UNL A   1      34.870  32.876  30.075  1.00  0.00     0.200 A 
ATOM     82  F   UNL A   1      35.571  33.159  27.841  1.00  0.00    -0.200 F 
ATOM     83  F   UNL A   1      33.843  33.715  29.876  1.00  0.00    -0.200 F 
ENDBRANCH  49  73
BRANCH  61  84
ATOM     84  C   UNL A   1      42.328  29.661  33.729  1.00  0.00     0.064 A 
ATOM     85  C   UNL A   1      41.928  28.321  33.595  1.00  0.00     0.173 A 
ATOM     86  C   UNL A   1      42.631  30.116  35.019  1.00  0.00     0.173 A 
ATOM     87  F   UNL A   1      41.709  27.784  32.389  1.00  0.00    -0.203 F 
ATOM     88  C   UNL A   1      41.813  27.484  34.704  1.00  0.00     0.198 A 
ATOM     89  C   UNL A   1      42.551  29.269  36.121  1.00  0.00     0.198 A 
ATOM     90  F   UNL A   1      43.069  31.371  35.201  1.00  0.00    -0.203 F 
ATOM     91  F   UNL A   1      41.432  26.207  34.549  1.00  0.00    -0.200 F 
ATOM     92  C   UNL A   1      42.136  27.957  35.965  1.00  0.00     0.200 A 
ATOM     93  F   UNL A   1      42.913  29.719  37.330  1.00  0.00    -0.200 F 
ATOM     94  F   UNL A   1      42.077  27.140  37.027  1.00  0.00    -0.200 F 
ENDBRANCH  61  84
ENDBRANCH  35  36
ENDBRANCH  27  30
ENDBRANCH  25  26
ENDBRANCH  24  25
ENDBRANCH  23  24
ENDBRANCH  22  23
ENDBRANCH   1  22
TORSDOF 18
ENDMDL
MODEL 2
REMARK VINA RESULT:     -11.1      1.343      2.023
REMARK SMILES CCCCNC(=O)c1cnn([C@@H](C)C(=O)NCCCCCCNC(=O)c2ccc(-c3c4nc(c(-c5c(F)c(F)c(F)c(F)c5F)c5ccc([nH]5)c(-c5c(F)c(F)c(F)c(F)c5F)c5nc(c(-c6c(F)c(F)c(F)c(F)c6F)c6ccc3[nH]6)C=C5)C=C4)cc2)c1
REMARK SMILES IDX 18 1 17 2 16 3 14 4 15 5 12 7 13 8 11 9 8 10 9 11 89 12
REMARK SMILES IDX 10 13 6 14 5 15 7 17 4 18 3 19 2 20 1 21 19 22 20 23 21 24
REMARK SMILES IDX 22 25 23 26 24 27 25 29 26 30 27 31 88 32 28 33 87 34 29 35
REMARK SMILES IDX 30 36 31 37 81 38 32 39 86 40 80 41 82 42 33 43 85 44 79 45
REMARK SMILES IDX 78 46 34 48 66 49 46 50 65 51 47 52 50 53 64 54 83 55 48 56
REMARK SMILES IDX 49 57 63 59 84 60 51 61 35 62 36 63 44 64 37 65 38 66 42 67
REMARK SMILES IDX 45 68 39 69 40 70 43 71 41 72 67 73 68 74 76 75 69 76 70 77
REMARK SMILES IDX 74 78 77 79 71 80 72 81 75 82 73 83 52 84 53 85 61 86 54 87
REMARK SMILES IDX 55 88 59 89 62 90 56 91 57 92 60 93 58 94
REMARK H PARENT 16 6 5 16 23 28 82 47 50 58
REMARK Flexibility Score: inf
ROOT
ATOM      1  C   UNL A   1      36.314  22.084  24.614  1.00  0.00     0.021 C 
ENDROOT
BRANCH   1   2
ATOM      2  C   UNL A   1      35.608  21.004  25.441  1.00  0.00     0.116 C 
BRANCH   2   3
ATOM      3  N   UNL A   1      34.337  20.621  24.851  1.00  0.00    -0.354 N 
ATOM      4  C   UNL A   1      33.129  21.254  24.846  1.00  0.00     0.244 C 
ATOM      5  O   UNL A   1      32.178  20.616  24.375  1.00  0.00    -0.273 OA
ATOM      6  H   UNL A   1      34.350  19.760  24.373  1.00  0.00     0.163 HD
BRANCH   4   7
ATOM      7  C   UNL A   1      32.917  22.691  25.317  1.00  0.00     0.193 C 
ATOM      8  C   UNL A   1      32.153  22.794  26.636  1.00  0.00     0.044 C 
BRANCH   7   9
ATOM      9  N   UNL A   1      32.412  23.563  24.263  1.00  0.00    -0.260 N 
ATOM     10  C   UNL A   1      32.239  24.983  22.586  1.00  0.00     0.077 A 
ATOM     11  C   UNL A   1      30.989  24.577  23.081  1.00  0.00     0.149 A 
ATOM     12  C   UNL A   1      33.145  24.250  23.330  1.00  0.00     0.123 A 
ATOM     13  N   UNL A   1      31.099  23.833  24.173  1.00  0.00    -0.180 NA
BRANCH  10  14
ATOM     14  C   UNL A   1      32.520  25.924  21.526  1.00  0.00     0.254 C 
ATOM     15  N   UNL A   1      32.168  27.240  21.733  1.00  0.00    -0.352 N 
ATOM     16  H   UNL A   1      32.204  27.816  20.935  1.00  0.00     0.163 HD
ATOM     17  O   UNL A   1      33.059  25.598  20.479  1.00  0.00    -0.269 OA
BRANCH  15  18
ATOM     18  C   UNL A   1      31.750  27.903  22.960  1.00  0.00     0.116 C 
BRANCH  18  19
ATOM     19  C   UNL A   1      32.884  28.681  23.619  1.00  0.00     0.021 C 
BRANCH  19  20
ATOM     20  C   UNL A   1      33.927  27.814  24.322  1.00  0.00    -0.002 C 
ATOM     21  C   UNL A   1      33.399  27.145  25.581  1.00  0.00     0.004 C 
ENDBRANCH  19  20
ENDBRANCH  18  19
ENDBRANCH  15  18
ENDBRANCH  10  14
ENDBRANCH   7   9
ENDBRANCH   4   7
ENDBRANCH   2   3
ENDBRANCH   1   2
BRANCH   1  22
ATOM     22  C   UNL A   1      36.541  23.397  25.364  1.00  0.00     0.002 C 
BRANCH  22  23
ATOM     23  C   UNL A   1      37.941  23.572  25.969  1.00  0.00     0.002 C 
BRANCH  23  24
ATOM     24  C   UNL A   1      38.796  22.299  26.072  1.00  0.00     0.021 C 
BRANCH  24  25
ATOM     25  C   UNL A   1      40.030  22.478  26.937  1.00  0.00     0.116 C 
BRANCH  25  26
ATOM     26  N   UNL A   1      41.268  22.298  26.175  1.00  0.00    -0.352 N 
ATOM     27  C   UNL A   1      42.136  23.259  25.698  1.00  0.00     0.251 C 
ATOM     28  H   UNL A   1      41.515  21.365  25.977  1.00  0.00     0.163 HD
ATOM     29  O   UNL A   1      42.933  23.012  24.804  1.00  0.00    -0.269 OA
BRANCH  27  30
ATOM     30  C   UNL A   1      42.095  24.596  26.307  1.00  0.00     0.039 A 
ATOM     31  C   UNL A   1      41.215  25.591  25.863  1.00  0.00     0.014 A 
ATOM     32  C   UNL A   1      42.960  24.830  27.368  1.00  0.00     0.014 A 
ATOM     33  C   UNL A   1      41.176  26.804  26.546  1.00  0.00     0.010 A 
ATOM     34  C   UNL A   1      42.774  25.926  28.155  1.00  0.00     0.010 A 
ATOM     35  C   UNL A   1      41.960  26.956  27.696  1.00  0.00    -0.014 A 
BRANCH  35  36
ATOM     36  C   UNL A   1      41.907  28.150  28.529  1.00  0.00     0.031 A 
ATOM     37  C   UNL A   1      42.981  29.144  28.247  1.00  0.00     0.074 A 
ATOM     38  C   UNL A   1      40.785  28.419  29.239  1.00  0.00     0.049 A 
ATOM     39  N   UNL A   1      43.839  29.650  29.069  1.00  0.00    -0.248 NA
ATOM     40  C   UNL A   1      43.213  29.534  26.843  1.00  0.00     0.031 C 
ATOM     41  C   UNL A   1      39.546  27.624  29.301  1.00  0.00     0.029 A 
ATOM     42  N   UNL A   1      40.445  29.534  29.939  1.00  0.00    -0.354 N 
ATOM     43  C   UNL A   1      44.587  30.568  28.331  1.00  0.00     0.074 A 
ATOM     44  C   UNL A   1      44.291  30.314  26.949  1.00  0.00     0.031 C 
ATOM     45  C   UNL A   1      38.534  28.385  29.771  1.00  0.00     0.029 A 
ATOM     46  C   UNL A   1      39.081  29.654  30.205  1.00  0.00     0.049 A 
ATOM     47  H   UNL A   1      41.106  30.202  30.233  1.00  0.00     0.167 HD
ATOM     48  C   UNL A   1      45.183  31.632  28.937  1.00  0.00     0.037 A 
ATOM     49  C   UNL A   1      38.450  30.749  30.700  1.00  0.00     0.037 A 
ATOM     50  C   UNL A   1      45.278  31.421  30.360  1.00  0.00     0.049 A 
ATOM     51  C   UNL A   1      39.497  31.613  31.299  1.00  0.00     0.074 A 
ATOM     52  C   UNL A   1      45.919  30.500  31.164  1.00  0.00     0.029 A 
ATOM     53  N   UNL A   1      44.328  32.016  31.151  1.00  0.00    -0.354 N 
ATOM     54  N   UNL A   1      40.195  31.278  32.350  1.00  0.00    -0.248 NA
ATOM     55  C   UNL A   1      40.102  32.618  30.437  1.00  0.00     0.031 C 
ATOM     56  C   UNL A   1      45.009  30.252  32.233  1.00  0.00     0.029 A 
ATOM     57  C   UNL A   1      43.905  31.090  32.066  1.00  0.00     0.049 A 
ATOM     58  H   UNL A   1      44.007  32.944  31.074  1.00  0.00     0.167 HD
ATOM     59  C   UNL A   1      41.486  31.695  32.060  1.00  0.00     0.074 A 
ATOM     60  C   UNL A   1      41.355  32.571  30.898  1.00  0.00     0.031 C 
ATOM     61  C   UNL A   1      42.565  31.054  32.601  1.00  0.00     0.037 A 
BRANCH  48  62
ATOM     62  C   UNL A   1      45.302  33.017  28.333  1.00  0.00     0.064 A 
ATOM     63  C   UNL A   1      46.584  33.596  28.217  1.00  0.00     0.173 A 
ATOM     64  C   UNL A   1      44.221  33.910  28.172  1.00  0.00     0.173 A 
ATOM     65  F   UNL A   1      47.688  32.845  28.351  1.00  0.00    -0.203 F 
ATOM     66  C   UNL A   1      46.765  34.973  28.066  1.00  0.00     0.198 A 
ATOM     67  C   UNL A   1      44.406  35.277  27.968  1.00  0.00     0.198 A 
ATOM     68  F   UNL A   1      42.947  33.534  28.315  1.00  0.00    -0.203 F 
ATOM     69  F   UNL A   1      48.000  35.490  28.106  1.00  0.00    -0.200 F 
ATOM     70  C   UNL A   1      45.675  35.814  27.954  1.00  0.00     0.200 A 
ATOM     71  F   UNL A   1      43.335  36.079  27.875  1.00  0.00    -0.200 F 
ATOM     72  F   UNL A   1      45.841  37.141  27.882  1.00  0.00    -0.200 F 
ENDBRANCH  48  62
BRANCH  49  73
ATOM     73  C   UNL A   1      37.090  31.247  30.380  1.00  0.00     0.064 A 
ATOM     74  C   UNL A   1      36.180  31.588  31.395  1.00  0.00     0.173 A 
ATOM     75  C   UNL A   1      36.755  31.662  29.076  1.00  0.00     0.173 A 
ATOM     76  F   UNL A   1      36.451  31.281  32.672  1.00  0.00    -0.203 F 
ATOM     77  C   UNL A   1      35.013  32.312  31.123  1.00  0.00     0.198 A 
ATOM     78  C   UNL A   1      35.589  32.381  28.805  1.00  0.00     0.198 A 
ATOM     79  F   UNL A   1      37.602  31.465  28.056  1.00  0.00    -0.203 F 
ATOM     80  F   UNL A   1      34.198  32.670  32.125  1.00  0.00    -0.200 F 
ATOM     81  C   UNL A   1      34.722  32.715  29.830  1.00  0.00     0.200 A 
ATOM     82  F   UNL A   1      35.348  32.807  27.557  1.00  0.00    -0.200 F 
ATOM     83  F   UNL A   1      33.639  33.463  29.578  1.00  0.00    -0.200 F 
ENDBRANCH  49  73
BRANCH  61  84
ATOM     84  C   UNL A   1      42.315  30.057  33.700  1.00  0.00     0.064 A 
ATOM     85  C   UNL A   1      42.104  28.684  33.490  1.00  0.00     0.173 A 
ATOM     86  C   UNL A   1      42.477  30.488  35.023  1.00  0.00     0.173 A 
ATOM     87  F   UNL A   1      42.029  28.179  32.253  1.00  0.00    -0.203 F 
ATOM     88  C   UNL A   1      42.034  27.789  34.557  1.00  0.00     0.198 A 
ATOM     89  C   UNL A   1      42.444  29.589  36.084  1.00  0.00     0.198 A 
ATOM     90  F   UNL A   1      42.735  31.780  35.279  1.00  0.00    -0.203 F 
ATOM     91  F   UNL A   1      41.835  26.483  34.330  1.00  0.00    -0.200 F 
ATOM     92  C   UNL A   1      42.216  28.243  35.854  1.00  0.00     0.200 A 
ATOM     93  F   UNL A   1      42.671  30.026  37.331  1.00  0.00    -0.200 F 
ATOM     94  F   UNL A   1      42.202  27.378  36.878  1.00  0.00    -0.200 F 
ENDBRANCH  61  84
ENDBRANCH  35  36
ENDBRANCH  27  30
ENDBRANCH  25  26
ENDBRANCH  24  25
ENDBRANCH  23  24
ENDBRANCH  22  23
ENDBRANCH   1  22
TORSDOF 18
ENDMDL
MODEL 3
REMARK VINA RESULT:     -11.1      3.044      8.533
REMARK SMILES CCCCNC(=O)c1cnn([C@@H](C)C(=O)NCCCCCCNC(=O)c2ccc(-c3c4nc(c(-c5c(F)c(F)c(F)c(F)c5F)c5ccc([nH]5)c(-c5c(F)c(F)c(F)c(F)c5F)c5nc(c(-c6c(F)c(F)c(F)c(F)c6F)c6ccc3[nH]6)C=C5)C=C4)cc2)c1
REMARK SMILES IDX 18 1 17 2 16 3 14 4 15 5 12 7 13 8 11 9 8 10 9 11 89 12
REMARK SMILES IDX 10 13 6 14 5 15 7 17 4 18 3 19 2 20 1 21 19 22 20 23 21 24
REMARK SMILES IDX 22 25 23 26 24 27 25 29 26 30 27 31 88 32 28 33 87 34 29 35
REMARK SMILES IDX 30 36 31 37 81 38 32 39 86 40 80 41 82 42 33 43 85 44 79 45
REMARK SMILES IDX 78 46 34 48 66 49 46 50 65 51 47 52 50 53 64 54 83 55 48 56
REMARK SMILES IDX 49 57 63 59 84 60 51 61 35 62 36 63 44 64 37 65 38 66 42 67
REMARK SMILES IDX 45 68 39 69 40 70 43 71 41 72 67 73 68 74 76 75 69 76 70 77
REMARK SMILES IDX 74 78 77 79 71 80 72 81 75 82 73 83 52 84 53 85 61 86 54 87
REMARK SMILES IDX 55 88 59 89 62 90 56 91 57 92 60 93 58 94
REMARK H PARENT 16 6 5 16 23 28 82 47 50 58
REMARK Flexibility Score: inf
ROOT
ATOM      1  C   UNL A   1      32.494  27.954  26.074  1.00  0.00     0.021 C 
ENDROOT
BRANCH   1   2
ATOM      2  C   UNL A   1      32.869  26.530  26.496  1.00  0.00     0.116 C 
BRANCH   2   3
ATOM      3  N   UNL A   1      31.693  25.734  26.802  1.00  0.00    -0.354 N 
ATOM      4  C   UNL A   1      30.851  25.037  25.987  1.00  0.00     0.244 C 
ATOM      5  O   UNL A   1      29.841  24.560  26.521  1.00  0.00    -0.273 OA
ATOM      6  H   UNL A   1      31.467  25.689  27.759  1.00  0.00     0.163 HD
BRANCH   4   7
ATOM      7  C   UNL A   1      31.121  24.770  24.508  1.00  0.00     0.193 C 
ATOM      8  C   UNL A   1      29.957  25.154  23.596  1.00  0.00     0.044 C 
BRANCH   7   9
ATOM      9  N   UNL A   1      31.660  23.437  24.263  1.00  0.00    -0.260 N 
ATOM     10  C   UNL A   1      32.543  21.431  24.492  1.00  0.00     0.077 A 
ATOM     11  C   UNL A   1      32.305  21.765  23.150  1.00  0.00     0.149 A 
ATOM     12  C   UNL A   1      32.046  22.511  25.198  1.00  0.00     0.123 A 
ATOM     13  N   UNL A   1      31.903  23.022  23.009  1.00  0.00    -0.180 NA
BRANCH  10  14
ATOM     14  C   UNL A   1      33.139  20.226  25.024  1.00  0.00     0.254 C 
ATOM     15  N   UNL A   1      34.514  20.132  24.999  1.00  0.00    -0.352 N 
ATOM     16  H   UNL A   1      34.878  19.239  25.196  1.00  0.00     0.163 HD
ATOM     17  O   UNL A   1      32.477  19.313  25.494  1.00  0.00    -0.269 OA
BRANCH  15  18
ATOM     18  C   UNL A   1      35.505  21.162  24.724  1.00  0.00     0.116 C 
BRANCH  18  19
ATOM     19  C   UNL A   1      35.979  21.871  25.989  1.00  0.00     0.021 C 
BRANCH  19  20
ATOM     20  C   UNL A   1      36.297  23.353  25.808  1.00  0.00    -0.002 C 
ATOM     21  C   UNL A   1      37.738  23.702  26.144  1.00  0.00     0.004 C 
ENDBRANCH  19  20
ENDBRANCH  18  19
ENDBRANCH  15  18
ENDBRANCH  10  14
ENDBRANCH   7   9
ENDBRANCH   4   7
ENDBRANCH   2   3
ENDBRANCH   1   2
BRANCH   1  22
ATOM     22  C   UNL A   1      32.211  28.900  27.241  1.00  0.00     0.002 C 
BRANCH  22  23
ATOM     23  C   UNL A   1      32.953  30.243  27.190  1.00  0.00     0.002 C 
BRANCH  23  24
ATOM     24  C   UNL A   1      34.458  30.195  27.497  1.00  0.00     0.021 C 
BRANCH  24  25
ATOM     25  C   UNL A   1      35.084  31.573  27.628  1.00  0.00     0.116 C 
BRANCH  25  26
ATOM     26  N   UNL A   1      34.708  32.231  28.881  1.00  0.00    -0.352 N 
ATOM     27  C   UNL A   1      35.141  31.959  30.162  1.00  0.00     0.251 C 
ATOM     28  H   UNL A   1      34.060  32.968  28.798  1.00  0.00     0.163 HD
ATOM     29  O   UNL A   1      34.514  32.338  31.142  1.00  0.00    -0.269 OA
BRANCH  27  30
ATOM     30  C   UNL A   1      36.395  31.210  30.329  1.00  0.00     0.039 A 
ATOM     31  C   UNL A   1      36.420  29.818  30.466  1.00  0.00     0.014 A 
ATOM     32  C   UNL A   1      37.572  31.948  30.322  1.00  0.00     0.014 A 
ATOM     33  C   UNL A   1      37.653  29.173  30.534  1.00  0.00     0.010 A 
ATOM     34  C   UNL A   1      38.765  31.306  30.178  1.00  0.00     0.010 A 
ATOM     35  C   UNL A   1      38.820  29.932  30.383  1.00  0.00    -0.014 A 
BRANCH  35  36
ATOM     36  C   UNL A   1      40.146  29.331  30.338  1.00  0.00     0.031 A 
ATOM     37  C   UNL A   1      40.789  29.163  31.673  1.00  0.00     0.074 A 
ATOM     38  C   UNL A   1      40.559  28.709  29.208  1.00  0.00     0.049 A 
ATOM     39  N   UNL A   1      41.939  29.601  32.066  1.00  0.00    -0.248 NA
ATOM     40  C   UNL A   1      40.001  28.534  32.750  1.00  0.00     0.031 C 
ATOM     41  C   UNL A   1      39.820  28.556  27.943  1.00  0.00     0.029 A 
ATOM     42  N   UNL A   1      41.663  27.945  28.989  1.00  0.00    -0.354 N 
ATOM     43  C   UNL A   1      42.104  29.134  33.371  1.00  0.00     0.074 A 
ATOM     44  C   UNL A   1      40.818  28.658  33.797  1.00  0.00     0.031 C 
ATOM     45  C   UNL A   1      40.366  27.564  27.208  1.00  0.00     0.029 A 
ATOM     46  C   UNL A   1      41.585  27.131  27.859  1.00  0.00     0.049 A 
ATOM     47  H   UNL A   1      42.451  27.965  29.579  1.00  0.00     0.167 HD
ATOM     48  C   UNL A   1      43.348  28.937  33.891  1.00  0.00     0.037 A 
ATOM     49  C   UNL A   1      42.444  26.136  27.523  1.00  0.00     0.037 A 
ATOM     50  C   UNL A   1      44.340  29.641  33.118  1.00  0.00     0.049 A 
ATOM     51  C   UNL A   1      43.682  26.352  28.313  1.00  0.00     0.074 A 
ATOM     52  C   UNL A   1      44.583  30.968  32.827  1.00  0.00     0.029 A 
ATOM     53  N   UNL A   1      45.051  28.916  32.195  1.00  0.00    -0.354 N 
ATOM     54  N   UNL A   1      44.472  27.377  28.150  1.00  0.00    -0.248 NA
ATOM     55  C   UNL A   1      43.765  25.694  29.609  1.00  0.00     0.031 C 
ATOM     56  C   UNL A   1      45.023  30.970  31.471  1.00  0.00     0.029 A 
ATOM     57  C   UNL A   1      45.101  29.646  31.038  1.00  0.00     0.049 A 
ATOM     58  H   UNL A   1      45.454  28.029  32.339  1.00  0.00     0.167 HD
ATOM     59  C   UNL A   1      44.827  27.754  29.438  1.00  0.00     0.074 A 
ATOM     60  C   UNL A   1      44.415  26.641  30.290  1.00  0.00     0.031 C 
ATOM     61  C   UNL A   1      45.145  29.052  29.723  1.00  0.00     0.037 A 
BRANCH  48  62
ATOM     62  C   UNL A   1      43.726  27.803  34.822  1.00  0.00     0.064 A 
ATOM     63  C   UNL A   1      44.350  28.115  36.049  1.00  0.00     0.173 A 
ATOM     64  C   UNL A   1      43.806  26.448  34.433  1.00  0.00     0.173 A 
ATOM     65  F   UNL A   1      44.340  29.371  36.521  1.00  0.00    -0.203 F 
ATOM     66  C   UNL A   1      45.087  27.171  36.767  1.00  0.00     0.198 A 
ATOM     67  C   UNL A   1      44.498  25.496  35.181  1.00  0.00     0.198 A 
ATOM     68  F   UNL A   1      43.323  26.002  33.270  1.00  0.00    -0.203 F 
ATOM     69  F   UNL A   1      45.780  27.550  37.850  1.00  0.00    -0.200 F 
ATOM     70  C   UNL A   1      45.171  25.864  36.326  1.00  0.00     0.200 A 
ATOM     71  F   UNL A   1      44.579  24.236  34.728  1.00  0.00    -0.200 F 
ATOM     72  F   UNL A   1      45.935  24.973  36.971  1.00  0.00    -0.200 F 
ENDBRANCH  48  62
BRANCH  49  73
ATOM     73  C   UNL A   1      42.140  24.848  26.852  1.00  0.00     0.064 A 
ATOM     74  C   UNL A   1      42.893  24.402  25.753  1.00  0.00     0.173 A 
ATOM     75  C   UNL A   1      41.285  23.901  27.449  1.00  0.00     0.173 A 
ATOM     76  F   UNL A   1      43.774  25.223  25.164  1.00  0.00    -0.203 F 
ATOM     77  C   UNL A   1      42.805  23.083  25.289  1.00  0.00     0.198 A 
ATOM     78  C   UNL A   1      41.195  22.587  26.983  1.00  0.00     0.198 A 
ATOM     79  F   UNL A   1      40.595  24.204  28.558  1.00  0.00    -0.203 F 
ATOM     80  F   UNL A   1      43.582  22.677  24.276  1.00  0.00    -0.200 F 
ATOM     81  C   UNL A   1      41.962  22.176  25.909  1.00  0.00     0.200 A 
ATOM     82  F   UNL A   1      40.413  21.708  27.626  1.00  0.00    -0.200 F 
ATOM     83  F   UNL A   1      41.926  20.897  25.506  1.00  0.00    -0.200 F 
ENDBRANCH  49  73
BRANCH  61  84
ATOM     84  C   UNL A   1      45.339  30.000  28.572  1.00  0.00     0.064 A 
ATOM     85  C   UNL A   1      44.318  30.789  28.015  1.00  0.00     0.173 A 
ATOM     86  C   UNL A   1      46.649  30.246  28.142  1.00  0.00     0.173 A 
ATOM     87  F   UNL A   1      43.054  30.679  28.438  1.00  0.00    -0.203 F 
ATOM     88  C   UNL A   1      44.595  31.762  27.055  1.00  0.00     0.198 A 
ATOM     89  C   UNL A   1      46.929  31.242  27.210  1.00  0.00     0.198 A 
ATOM     90  F   UNL A   1      47.670  29.560  28.678  1.00  0.00    -0.203 F 
ATOM     91  F   UNL A   1      43.603  32.504  26.541  1.00  0.00    -0.200 F 
ATOM     92  C   UNL A   1      45.903  31.994  26.662  1.00  0.00     0.200 A 
ATOM     93  F   UNL A   1      48.200  31.495  26.872  1.00  0.00    -0.200 F 
ATOM     94  F   UNL A   1      46.179  32.963  25.778  1.00  0.00    -0.200 F 
ENDBRANCH  61  84
ENDBRANCH  35  36
ENDBRANCH  27  30
ENDBRANCH  25  26
ENDBRANCH  24  25
ENDBRANCH  23  24
ENDBRANCH  22  23
ENDBRANCH   1  22
TORSDOF 18
ENDMDL
