MODEL 1
REMARK VINA RESULT:     -13.5      0.000      0.000
REMARK SMILES O=C(NCCCCCCNC(=O)c1[nH]ncc1C[N@H+]1CCC[C@H](C(=O)c2ccc3ccccc3c2)C1)c1ccc(-c2c3nc(c(-c4c(F)c(F)c(F)c(F)c4F)c4ccc([nH]4)c(-c4c(F)c(F)c(F)c(F)c4F)c4nc(c(-c5c(F)c(F)c(F)c(F)c5F)c5ccc2[nH]5)C=C4)C=C3)cc1
REMARK SMILES IDX 7 1 6 2 5 3 4 4 3 5 1 6 2 7 37 9 38 10 99 11 39 12 98 13
REMARK SMILES IDX 40 14 41 15 42 16 92 17 43 18 97 19 91 20 93 21 44 22 96 23
REMARK SMILES IDX 90 24 89 25 45 27 77 28 57 29 76 30 58 31 61 32 75 33 94 34
REMARK SMILES IDX 59 35 60 36 74 38 95 39 62 40 46 41 47 42 55 43 48 44 49 45
REMARK SMILES IDX 53 46 56 47 50 48 51 49 54 50 52 51 78 52 79 53 87 54 80 55
REMARK SMILES IDX 81 56 85 57 88 58 82 59 83 60 86 61 84 62 63 63 64 64 72 65
REMARK SMILES IDX 65 66 66 67 70 68 73 69 67 70 68 71 71 72 69 73 8 74 9 75
REMARK SMILES IDX 10 76 11 77 12 79 13 80 14 81 17 82 15 83 16 85 18 86 19 87
REMARK SMILES IDX 20 88 36 89 21 91 23 92 22 93 24 94 25 95 26 96 27 97 35 98
REMARK SMILES IDX 28 99 34 100 29 101 33 102 30 103 32 104 31 105
REMARK H PARENT 3 8 93 26 61 37 10 78 14 84 19 90
REMARK Flexibility Score: inf
ROOT
ATOM      1  C   UNL A   1      32.375  29.880  26.970  1.00  0.00     0.002 C 
ENDROOT
BRANCH   1   2
ATOM      2  C   UNL A   1      31.507  30.771  26.076  1.00  0.00     0.002 C 
BRANCH   2   3
ATOM      3  C   UNL A   1      31.352  32.238  26.492  1.00  0.00     0.021 C 
BRANCH   3   4
ATOM      4  C   UNL A   1      32.563  32.890  27.154  1.00  0.00     0.116 C 
BRANCH   4   5
ATOM      5  N   UNL A   1      32.294  34.208  27.696  1.00  0.00    -0.352 N 
ATOM      6  O   UNL A   1      32.551  35.987  29.052  1.00  0.00    -0.269 OA
ATOM      7  C   UNL A   1      32.978  34.902  28.665  1.00  0.00     0.251 C 
ATOM      8  H   UNL A   1      31.513  34.670  27.315  1.00  0.00     0.163 HD
BRANCH   7   9
ATOM      9  C   UNL A   1      34.201  34.338  29.287  1.00  0.00     0.039 A 
ATOM     10  C   UNL A   1      35.479  34.576  28.773  1.00  0.00     0.014 A 
ATOM     11  C   UNL A   1      34.058  33.572  30.448  1.00  0.00     0.014 A 
ATOM     12  C   UNL A   1      36.592  33.968  29.358  1.00  0.00     0.010 A 
ATOM     13  C   UNL A   1      35.177  32.991  31.055  1.00  0.00     0.010 A 
ATOM     14  C   UNL A   1      36.448  33.158  30.492  1.00  0.00    -0.014 A 
BRANCH  14  15
ATOM     15  C   UNL A   1      37.634  32.486  31.072  1.00  0.00     0.031 A 
ATOM     16  C   UNL A   1      38.092  32.821  32.462  1.00  0.00     0.074 A 
ATOM     17  C   UNL A   1      38.285  31.547  30.362  1.00  0.00     0.049 A 
ATOM     18  N   UNL A   1      39.056  32.280  33.166  1.00  0.00    -0.248 NA
ATOM     19  C   UNL A   1      37.377  33.903  33.155  1.00  0.00     0.031 C 
ATOM     20  C   UNL A   1      37.958  31.146  28.993  1.00  0.00     0.029 A 
ATOM     21  N   UNL A   1      39.344  30.747  30.704  1.00  0.00    -0.354 N 
ATOM     22  C   UNL A   1      39.077  32.967  34.370  1.00  0.00     0.074 A 
ATOM     23  C   UNL A   1      38.029  33.966  34.309  1.00  0.00     0.031 C 
ATOM     24  C   UNL A   1      38.779  30.148  28.622  1.00  0.00     0.029 A 
ATOM     25  C   UNL A   1      39.687  29.848  29.728  1.00  0.00     0.049 A 
ATOM     26  H   UNL A   1      39.813  30.813  31.568  1.00  0.00     0.167 HD
ATOM     27  C   UNL A   1      39.893  32.781  35.434  1.00  0.00     0.037 A 
ATOM     28  C   UNL A   1      40.618  28.877  29.733  1.00  0.00     0.037 A 
ATOM     29  C   UNL A   1      40.918  31.778  35.526  1.00  0.00     0.049 A 
ATOM     30  C   UNL A   1      41.472  28.653  30.944  1.00  0.00     0.074 A 
ATOM     31  C   UNL A   1      41.771  31.506  36.583  1.00  0.00     0.029 A 
ATOM     32  N   UNL A   1      41.221  30.875  34.521  1.00  0.00    -0.354 N 
ATOM     33  N   UNL A   1      41.462  29.292  32.086  1.00  0.00    -0.248 NA
ATOM     34  C   UNL A   1      42.460  27.566  30.866  1.00  0.00     0.031 C 
ATOM     35  C   UNL A   1      42.595  30.434  36.215  1.00  0.00     0.029 A 
ATOM     36  C   UNL A   1      42.248  30.042  34.932  1.00  0.00     0.049 A 
ATOM     37  H   UNL A   1      40.775  30.832  33.646  1.00  0.00     0.167 HD
ATOM     38  C   UNL A   1      42.432  28.685  32.867  1.00  0.00     0.074 A 
ATOM     39  C   UNL A   1      43.013  27.623  32.072  1.00  0.00     0.031 C 
ATOM     40  C   UNL A   1      42.806  28.987  34.133  1.00  0.00     0.037 A 
BRANCH  27  41
ATOM     41  C   UNL A   1      39.706  33.696  36.598  1.00  0.00     0.064 A 
ATOM     42  C   UNL A   1      40.347  34.941  36.652  1.00  0.00     0.173 A 
ATOM     43  C   UNL A   1      38.858  33.344  37.656  1.00  0.00     0.173 A 
ATOM     44  F   UNL A   1      41.177  35.315  35.669  1.00  0.00    -0.203 F 
ATOM     45  C   UNL A   1      40.144  35.800  37.729  1.00  0.00     0.198 A 
ATOM     46  C   UNL A   1      38.656  34.210  38.727  1.00  0.00     0.198 A 
ATOM     47  F   UNL A   1      38.230  32.159  37.653  1.00  0.00    -0.203 F 
ATOM     48  F   UNL A   1      40.777  36.980  37.768  1.00  0.00    -0.200 F 
ATOM     49  C   UNL A   1      39.297  35.438  38.764  1.00  0.00     0.200 A 
ATOM     50  F   UNL A   1      37.842  33.854  39.729  1.00  0.00    -0.200 F 
ATOM     51  F   UNL A   1      39.109  36.265  39.802  1.00  0.00    -0.200 F 
ENDBRANCH  27  41
BRANCH  28  52
ATOM     52  C   UNL A   1      40.755  28.005  28.548  1.00  0.00     0.064 A 
ATOM     53  C   UNL A   1      41.625  28.348  27.506  1.00  0.00     0.173 A 
ATOM     54  C   UNL A   1      40.037  26.810  28.438  1.00  0.00     0.173 A 
ATOM     55  F   UNL A   1      42.324  29.490  27.565  1.00  0.00    -0.203 F 
ATOM     56  C   UNL A   1      41.770  27.522  26.393  1.00  0.00     0.198 A 
ATOM     57  C   UNL A   1      40.189  25.984  27.325  1.00  0.00     0.198 A 
ATOM     58  F   UNL A   1      39.184  26.446  29.406  1.00  0.00    -0.203 F 
ATOM     59  F   UNL A   1      42.601  27.877  25.405  1.00  0.00    -0.200 F 
ATOM     60  C   UNL A   1      41.055  26.339  26.302  1.00  0.00     0.200 A 
ATOM     61  F   UNL A   1      39.494  24.844  27.241  1.00  0.00    -0.200 F 
ATOM     62  F   UNL A   1      41.197  25.546  25.231  1.00  0.00    -0.200 F 
ENDBRANCH  28  52
BRANCH  40  63
ATOM     63  C   UNL A   1      43.884  28.149  34.738  1.00  0.00     0.064 A 
ATOM     64  C   UNL A   1      43.578  26.968  35.427  1.00  0.00     0.173 A 
ATOM     65  C   UNL A   1      45.231  28.505  34.602  1.00  0.00     0.173 A 
ATOM     66  F   UNL A   1      42.302  26.591  35.590  1.00  0.00    -0.203 F 
ATOM     67  C   UNL A   1      44.590  26.175  35.962  1.00  0.00     0.198 A 
ATOM     68  C   UNL A   1      46.238  27.706  35.137  1.00  0.00     0.198 A 
ATOM     69  F   UNL A   1      45.571  29.631  33.959  1.00  0.00    -0.203 F 
ATOM     70  F   UNL A   1      44.278  25.056  36.628  1.00  0.00    -0.200 F 
ATOM     71  C   UNL A   1      45.919  26.540  35.816  1.00  0.00     0.200 A 
ATOM     72  F   UNL A   1      47.521  28.066  34.999  1.00  0.00    -0.200 F 
ATOM     73  F   UNL A   1      46.890  25.776  36.336  1.00  0.00    -0.200 F 
ENDBRANCH  40  63
ENDBRANCH  14  15
ENDBRANCH   7   9
ENDBRANCH   4   5
ENDBRANCH   3   4
ENDBRANCH   2   3
ENDBRANCH   1   2
BRANCH   1  74
ATOM     74  C   UNL A   1      31.727  28.605  27.520  1.00  0.00     0.021 C 
BRANCH  74  75
ATOM     75  C   UNL A   1      31.445  27.503  26.501  1.00  0.00     0.116 C 
BRANCH  75  76
ATOM     76  N   UNL A   1      31.562  26.171  27.063  1.00  0.00    -0.351 N 
ATOM     77  C   UNL A   1      31.436  24.954  26.443  1.00  0.00     0.269 C 
ATOM     78  H   UNL A   1      31.762  26.135  28.026  1.00  0.00     0.163 HD
ATOM     79  O   UNL A   1      31.376  23.945  27.145  1.00  0.00    -0.268 OA
BRANCH  77  80
ATOM     80  C   UNL A   1      31.303  24.894  25.014  1.00  0.00     0.131 A 
ATOM     81  N   UNL A   1      30.129  24.499  24.432  1.00  0.00    -0.272 N 
ATOM     82  C   UNL A   1      32.191  25.092  23.960  1.00  0.00     0.057 A 
ATOM     83  N   UNL A   1      30.123  24.609  23.095  1.00  0.00    -0.183 NA
ATOM     84  H   UNL A   1      29.359  24.165  24.947  1.00  0.00     0.190 HD
ATOM     85  C   UNL A   1      31.377  24.959  22.809  1.00  0.00     0.145 A 
BRANCH  82  86
ATOM     86  C   UNL A   1      33.648  25.413  24.021  1.00  0.00     0.303 C 
BRANCH  86  87
ATOM     87  N   UNL A   1      34.508  24.312  24.461  1.00  0.00    -0.330 N 
ATOM     88  C   UNL A   1      35.635  24.035  23.571  1.00  0.00     0.262 C 
ATOM     89  C   UNL A   1      34.909  24.368  25.865  1.00  0.00     0.274 C 
ATOM     90  H   UNL A   1      33.892  23.502  24.391  1.00  0.00     0.348 HD
ATOM     91  C   UNL A   1      36.240  22.671  23.899  1.00  0.00     0.062 C 
ATOM     92  C   UNL A   1      35.540  23.053  26.336  1.00  0.00     0.116 C 
ATOM     93  C   UNL A   1      36.611  22.531  25.374  1.00  0.00     0.023 C 
BRANCH  92  94
ATOM     94  C   UNL A   1      34.515  21.997  26.756  1.00  0.00     0.171 C 
ATOM     95  O   UNL A   1      34.159  21.865  27.926  1.00  0.00    -0.294 OA
BRANCH  94  96
ATOM     96  C   UNL A   1      33.933  21.080  25.758  1.00  0.00     0.019 A 
ATOM     97  C   UNL A   1      32.810  21.481  25.036  1.00  0.00     0.012 A 
ATOM     98  C   UNL A   1      34.562  19.864  25.480  1.00  0.00     0.020 A 
ATOM     99  C   UNL A   1      32.267  20.625  24.076  1.00  0.00     0.009 A 
ATOM    100  C   UNL A   1      34.029  18.997  24.512  1.00  0.00    -0.018 A 
ATOM    101  C   UNL A   1      32.860  19.380  23.809  1.00  0.00    -0.018 A 
ATOM    102  C   UNL A   1      34.632  17.763  24.220  1.00  0.00     0.009 A 
ATOM    103  C   UNL A   1      32.325  18.510  22.847  1.00  0.00     0.009 A 
ATOM    104  C   UNL A   1      34.089  16.911  23.257  1.00  0.00     0.001 A 
ATOM    105  C   UNL A   1      32.936  17.283  22.574  1.00  0.00     0.001 A 
ENDBRANCH  94  96
ENDBRANCH  92  94
ENDBRANCH  86  87
ENDBRANCH  82  86
ENDBRANCH  77  80
ENDBRANCH  75  76
ENDBRANCH  74  75
ENDBRANCH   1  74
TORSDOF 17
ENDMDL
MODEL 2
REMARK VINA RESULT:     -13.4      1.869      3.238
REMARK SMILES O=C(NCCCCCCNC(=O)c1[nH]ncc1C[N@H+]1CCC[C@H](C(=O)c2ccc3ccccc3c2)C1)c1ccc(-c2c3nc(c(-c4c(F)c(F)c(F)c(F)c4F)c4ccc([nH]4)c(-c4c(F)c(F)c(F)c(F)c4F)c4nc(c(-c5c(F)c(F)c(F)c(F)c5F)c5ccc2[nH]5)C=C4)C=C3)cc1
REMARK SMILES IDX 7 1 6 2 5 3 4 4 3 5 1 6 2 7 37 9 38 10 99 11 39 12 98 13
REMARK SMILES IDX 40 14 41 15 42 16 92 17 43 18 97 19 91 20 93 21 44 22 96 23
REMARK SMILES IDX 90 24 89 25 45 27 77 28 57 29 76 30 58 31 61 32 75 33 94 34
REMARK SMILES IDX 59 35 60 36 74 38 95 39 62 40 46 41 47 42 55 43 48 44 49 45
REMARK SMILES IDX 53 46 56 47 50 48 51 49 54 50 52 51 78 52 79 53 87 54 80 55
REMARK SMILES IDX 81 56 85 57 88 58 82 59 83 60 86 61 84 62 63 63 64 64 72 65
REMARK SMILES IDX 65 66 66 67 70 68 73 69 67 70 68 71 71 72 69 73 8 74 9 75
REMARK SMILES IDX 10 76 11 77 12 79 13 80 14 81 17 82 15 83 16 85 18 86 19 87
REMARK SMILES IDX 20 88 36 89 21 91 23 92 22 93 24 94 25 95 26 96 27 97 35 98
REMARK SMILES IDX 28 99 34 100 29 101 33 102 30 103 32 104 31 105
REMARK H PARENT 3 8 93 26 61 37 10 78 14 84 19 90
REMARK Flexibility Score: inf
ROOT
ATOM      1  C   UNL A   1      34.340  29.498  27.657  1.00  0.00     0.002 C 
ENDROOT
BRANCH   1   2
ATOM      2  C   UNL A   1      34.449  31.016  27.483  1.00  0.00     0.002 C 
BRANCH   2   3
ATOM      3  C   UNL A   1      33.237  31.855  27.904  1.00  0.00     0.021 C 
BRANCH   3   4
ATOM      4  C   UNL A   1      32.819  32.974  26.954  1.00  0.00     0.116 C 
BRANCH   4   5
ATOM      5  N   UNL A   1      32.445  34.203  27.626  1.00  0.00    -0.352 N 
ATOM      6  O   UNL A   1      32.528  35.823  29.187  1.00  0.00    -0.269 OA
ATOM      7  C   UNL A   1      33.038  34.816  28.703  1.00  0.00     0.251 C 
ATOM      8  H   UNL A   1      31.656  34.663  27.259  1.00  0.00     0.163 HD
BRANCH   7   9
ATOM      9  C   UNL A   1      34.263  34.251  29.322  1.00  0.00     0.039 A 
ATOM     10  C   UNL A   1      35.536  34.457  28.783  1.00  0.00     0.014 A 
ATOM     11  C   UNL A   1      34.128  33.520  30.507  1.00  0.00     0.014 A 
ATOM     12  C   UNL A   1      36.650  33.849  29.367  1.00  0.00     0.010 A 
ATOM     13  C   UNL A   1      35.247  32.940  31.112  1.00  0.00     0.010 A 
ATOM     14  C   UNL A   1      36.512  33.073  30.526  1.00  0.00    -0.014 A 
BRANCH  14  15
ATOM     15  C   UNL A   1      37.697  32.400  31.106  1.00  0.00     0.031 A 
ATOM     16  C   UNL A   1      38.141  32.718  32.505  1.00  0.00     0.074 A 
ATOM     17  C   UNL A   1      38.359  31.475  30.388  1.00  0.00     0.049 A 
ATOM     18  N   UNL A   1      39.102  32.174  33.209  1.00  0.00    -0.248 NA
ATOM     19  C   UNL A   1      37.414  33.786  33.206  1.00  0.00     0.031 C 
ATOM     20  C   UNL A   1      38.047  31.091  29.011  1.00  0.00     0.029 A 
ATOM     21  N   UNL A   1      39.420  30.676  30.729  1.00  0.00    -0.354 N 
ATOM     22  C   UNL A   1      39.109  32.844  34.423  1.00  0.00     0.074 A 
ATOM     23  C   UNL A   1      38.056  33.837  34.367  1.00  0.00     0.031 C 
ATOM     24  C   UNL A   1      38.876  30.103  28.634  1.00  0.00     0.029 A 
ATOM     25  C   UNL A   1      39.777  29.793  29.743  1.00  0.00     0.049 A 
ATOM     26  H   UNL A   1      39.882  30.733  31.597  1.00  0.00     0.167 HD
ATOM     27  C   UNL A   1      39.918  32.648  35.491  1.00  0.00     0.037 A 
ATOM     28  C   UNL A   1      40.714  28.828  29.743  1.00  0.00     0.037 A 
ATOM     29  C   UNL A   1      40.947  31.650  35.577  1.00  0.00     0.049 A 
ATOM     30  C   UNL A   1      41.559  28.592  30.958  1.00  0.00     0.074 A 
ATOM     31  C   UNL A   1      41.794  31.369  36.638  1.00  0.00     0.029 A 
ATOM     32  N   UNL A   1      41.265  30.763  34.563  1.00  0.00    -0.354 N 
ATOM     33  N   UNL A   1      41.535  29.215  32.108  1.00  0.00    -0.248 NA
ATOM     34  C   UNL A   1      42.554  27.512  30.873  1.00  0.00     0.031 C 
ATOM     35  C   UNL A   1      42.627  30.306  36.261  1.00  0.00     0.029 A 
ATOM     36  C   UNL A   1      42.294  29.931  34.970  1.00  0.00     0.049 A 
ATOM     37  H   UNL A   1      40.826  30.730  33.683  1.00  0.00     0.167 HD
ATOM     38  C   UNL A   1      42.503  28.603  32.889  1.00  0.00     0.074 A 
ATOM     39  C   UNL A   1      43.097  27.556  32.083  1.00  0.00     0.031 C 
ATOM     40  C   UNL A   1      42.864  28.889  34.162  1.00  0.00     0.037 A 
BRANCH  27  41
ATOM     41  C   UNL A   1      39.715  33.546  36.666  1.00  0.00     0.064 A 
ATOM     42  C   UNL A   1      40.369  34.781  36.755  1.00  0.00     0.173 A 
ATOM     43  C   UNL A   1      38.839  33.186  37.698  1.00  0.00     0.173 A 
ATOM     44  F   UNL A   1      41.226  35.162  35.797  1.00  0.00    -0.203 F 
ATOM     45  C   UNL A   1      40.153  35.625  37.841  1.00  0.00     0.198 A 
ATOM     46  C   UNL A   1      38.623  34.036  38.779  1.00  0.00     0.198 A 
ATOM     47  F   UNL A   1      38.198  32.009  37.661  1.00  0.00    -0.203 F 
ATOM     48  F   UNL A   1      40.798  36.796  37.914  1.00  0.00    -0.200 F 
ATOM     49  C   UNL A   1      39.279  35.255  38.852  1.00  0.00     0.200 A 
ATOM     50  F   UNL A   1      37.783  33.674  39.756  1.00  0.00    -0.200 F 
ATOM     51  F   UNL A   1      39.076  36.068  39.899  1.00  0.00    -0.200 F 
ENDBRANCH  27  41
BRANCH  28  52
ATOM     52  C   UNL A   1      40.866  27.973  28.546  1.00  0.00     0.064 A 
ATOM     53  C   UNL A   1      40.226  26.730  28.471  1.00  0.00     0.173 A 
ATOM     54  C   UNL A   1      41.634  28.385  27.452  1.00  0.00     0.173 A 
ATOM     55  F   UNL A   1      39.489  26.292  29.501  1.00  0.00    -0.203 F 
ATOM     56  C   UNL A   1      40.352  25.928  27.339  1.00  0.00     0.198 A 
ATOM     57  C   UNL A   1      41.753  27.580  26.320  1.00  0.00     0.198 A 
ATOM     58  F   UNL A   1      42.273  29.563  27.484  1.00  0.00    -0.203 F 
ATOM     59  F   UNL A   1      39.739  24.737  27.295  1.00  0.00    -0.200 F 
ATOM     60  C   UNL A   1      41.113  26.352  26.262  1.00  0.00     0.200 A 
ATOM     61  F   UNL A   1      42.491  27.994  25.284  1.00  0.00    -0.200 F 
ATOM     62  F   UNL A   1      41.233  25.578  25.174  1.00  0.00    -0.200 F 
ENDBRANCH  28  52
BRANCH  40  63
ATOM     63  C   UNL A   1      43.942  28.050  34.764  1.00  0.00     0.064 A 
ATOM     64  C   UNL A   1      45.285  28.439  34.690  1.00  0.00     0.173 A 
ATOM     65  C   UNL A   1      43.633  26.867  35.447  1.00  0.00     0.173 A 
ATOM     66  F   UNL A   1      45.630  29.559  34.039  1.00  0.00    -0.203 F 
ATOM     67  C   UNL A   1      46.283  27.668  35.280  1.00  0.00     0.198 A 
ATOM     68  C   UNL A   1      44.636  26.101  36.038  1.00  0.00     0.198 A 
ATOM     69  F   UNL A   1      42.363  26.450  35.535  1.00  0.00    -0.203 F 
ATOM     70  F   UNL A   1      47.563  28.049  35.189  1.00  0.00    -0.200 F 
ATOM     71  C   UNL A   1      45.960  26.501  35.956  1.00  0.00     0.200 A 
ATOM     72  F   UNL A   1      44.320  24.972  36.683  1.00  0.00    -0.200 F 
ATOM     73  F   UNL A   1      46.924  25.758  36.518  1.00  0.00    -0.200 F 
ENDBRANCH  40  63
ENDBRANCH  14  15
ENDBRANCH   7   9
ENDBRANCH   4   5
ENDBRANCH   3   4
ENDBRANCH   2   3
ENDBRANCH   1   2
BRANCH   1  74
ATOM     74  C   UNL A   1      33.653  28.715  26.533  1.00  0.00     0.021 C 
BRANCH  74  75
ATOM     75  C   UNL A   1      33.278  29.519  25.289  1.00  0.00     0.116 C 
BRANCH  75  76
ATOM     76  N   UNL A   1      33.821  28.955  24.068  1.00  0.00    -0.351 N 
ATOM     77  C   UNL A   1      33.165  28.543  22.937  1.00  0.00     0.269 C 
ATOM     78  H   UNL A   1      34.800  28.855  24.049  1.00  0.00     0.163 HD
ATOM     79  O   UNL A   1      33.799  27.909  22.093  1.00  0.00    -0.268 OA
BRANCH  77  80
ATOM     80  C   UNL A   1      31.757  28.791  22.800  1.00  0.00     0.131 A 
ATOM     81  N   UNL A   1      31.287  29.703  21.893  1.00  0.00    -0.272 N 
ATOM     82  C   UNL A   1      30.633  28.337  23.484  1.00  0.00     0.057 A 
ATOM     83  N   UNL A   1      29.950  29.736  21.801  1.00  0.00    -0.183 NA
ATOM     84  H   UNL A   1      31.877  30.282  21.357  1.00  0.00     0.190 HD
ATOM     85  C   UNL A   1      29.554  28.915  22.774  1.00  0.00     0.145 A 
BRANCH  82  86
ATOM     86  C   UNL A   1      30.571  27.422  24.664  1.00  0.00     0.303 C 
BRANCH  86  87
ATOM     87  N   UNL A   1      30.994  26.044  24.404  1.00  0.00    -0.330 N 
ATOM     88  C   UNL A   1      30.562  25.081  25.416  1.00  0.00     0.262 C 
ATOM     89  C   UNL A   1      30.747  25.571  23.044  1.00  0.00     0.274 C 
ATOM     90  H   UNL A   1      32.009  26.100  24.487  1.00  0.00     0.348 HD
ATOM     91  C   UNL A   1      31.345  23.777  25.267  1.00  0.00     0.062 C 
ATOM     92  C   UNL A   1      31.477  24.256  22.751  1.00  0.00     0.116 C 
ATOM     93  C   UNL A   1      31.277  23.209  23.851  1.00  0.00     0.023 C 
BRANCH  92  94
ATOM     94  C   UNL A   1      32.937  24.445  22.332  1.00  0.00     0.171 C 
ATOM     95  O   UNL A   1      33.249  24.755  21.184  1.00  0.00    -0.294 OA
BRANCH  94  96
ATOM     96  C   UNL A   1      34.027  24.235  23.304  1.00  0.00     0.019 A 
ATOM     97  C   UNL A   1      34.178  25.129  24.363  1.00  0.00     0.012 A 
ATOM     98  C   UNL A   1      34.837  23.101  23.207  1.00  0.00     0.020 A 
ATOM     99  C   UNL A   1      35.196  24.924  25.296  1.00  0.00     0.009 A 
ATOM    100  C   UNL A   1      35.861  22.882  24.143  1.00  0.00    -0.018 A 
ATOM    101  C   UNL A   1      36.048  23.811  25.195  1.00  0.00    -0.018 A 
ATOM    102  C   UNL A   1      36.699  21.757  24.064  1.00  0.00     0.009 A 
ATOM    103  C   UNL A   1      37.075  23.594  26.126  1.00  0.00     0.009 A 
ATOM    104  C   UNL A   1      37.713  21.553  25.001  1.00  0.00     0.001 A 
ATOM    105  C   UNL A   1      37.902  22.472  26.028  1.00  0.00     0.001 A 
ENDBRANCH  94  96
ENDBRANCH  92  94
ENDBRANCH  86  87
ENDBRANCH  82  86
ENDBRANCH  77  80
ENDBRANCH  75  76
ENDBRANCH  74  75
ENDBRANCH   1  74
TORSDOF 17
ENDMDL
MODEL 3
REMARK VINA RESULT:     -13.3      0.576      7.078
REMARK SMILES O=C(NCCCCCCNC(=O)c1[nH]ncc1C[N@H+]1CCC[C@H](C(=O)c2ccc3ccccc3c2)C1)c1ccc(-c2c3nc(c(-c4c(F)c(F)c(F)c(F)c4F)c4ccc([nH]4)c(-c4c(F)c(F)c(F)c(F)c4F)c4nc(c(-c5c(F)c(F)c(F)c(F)c5F)c5ccc2[nH]5)C=C4)C=C3)cc1
REMARK SMILES IDX 7 1 6 2 5 3 4 4 3 5 1 6 2 7 37 9 38 10 99 11 39 12 98 13
REMARK SMILES IDX 40 14 41 15 42 16 92 17 43 18 97 19 91 20 93 21 44 22 96 23
REMARK SMILES IDX 90 24 89 25 45 27 77 28 57 29 76 30 58 31 61 32 75 33 94 34
REMARK SMILES IDX 59 35 60 36 74 38 95 39 62 40 46 41 47 42 55 43 48 44 49 45
REMARK SMILES IDX 53 46 56 47 50 48 51 49 54 50 52 51 78 52 79 53 87 54 80 55
REMARK SMILES IDX 81 56 85 57 88 58 82 59 83 60 86 61 84 62 63 63 64 64 72 65
REMARK SMILES IDX 65 66 66 67 70 68 73 69 67 70 68 71 71 72 69 73 8 74 9 75
REMARK SMILES IDX 10 76 11 77 12 79 13 80 14 81 17 82 15 83 16 85 18 86 19 87
REMARK SMILES IDX 20 88 36 89 21 91 23 92 22 93 24 94 25 95 26 96 27 97 35 98
REMARK SMILES IDX 28 99 34 100 29 101 33 102 30 103 32 104 31 105
REMARK H PARENT 3 8 93 26 61 37 10 78 14 84 19 90
REMARK Flexibility Score: inf
ROOT
ATOM      1  C   UNL A   1      32.380  29.963  26.996  1.00  0.00     0.002 C 
ENDROOT
BRANCH   1   2
ATOM      2  C   UNL A   1      31.486  30.845  26.118  1.00  0.00     0.002 C 
BRANCH   2   3
ATOM      3  C   UNL A   1      31.371  32.325  26.504  1.00  0.00     0.021 C 
BRANCH   3   4
ATOM      4  C   UNL A   1      32.567  32.935  27.231  1.00  0.00     0.116 C 
BRANCH   4   5
ATOM      5  N   UNL A   1      32.346  34.296  27.678  1.00  0.00    -0.352 N 
ATOM      6  O   UNL A   1      32.622  36.133  28.950  1.00  0.00    -0.269 OA
ATOM      7  C   UNL A   1      33.004  35.004  28.655  1.00  0.00     0.251 C 
ATOM      8  H   UNL A   1      31.625  34.781  27.216  1.00  0.00     0.163 HD
BRANCH   7   9
ATOM      9  C   UNL A   1      34.142  34.405  29.395  1.00  0.00     0.039 A 
ATOM     10  C   UNL A   1      35.468  34.558  28.980  1.00  0.00     0.014 A 
ATOM     11  C   UNL A   1      33.867  33.694  30.568  1.00  0.00     0.014 A 
ATOM     12  C   UNL A   1      36.497  33.919  29.674  1.00  0.00     0.010 A 
ATOM     13  C   UNL A   1      34.901  33.083  31.284  1.00  0.00     0.010 A 
ATOM     14  C   UNL A   1      36.220  33.164  30.822  1.00  0.00    -0.014 A 
BRANCH  14  15
ATOM     15  C   UNL A   1      37.319  32.457  31.520  1.00  0.00     0.031 A 
ATOM     16  C   UNL A   1      38.081  31.365  30.826  1.00  0.00     0.074 A 
ATOM     17  C   UNL A   1      37.659  32.819  32.770  1.00  0.00     0.049 A 
ATOM     18  N   UNL A   1      39.123  30.691  31.246  1.00  0.00    -0.248 NA
ATOM     19  C   UNL A   1      37.613  30.975  29.487  1.00  0.00     0.031 C 
ATOM     20  C   UNL A   1      36.986  33.846  33.565  1.00  0.00     0.029 A 
ATOM     21  N   UNL A   1      38.670  32.374  33.581  1.00  0.00    -0.354 N 
ATOM     22  C   UNL A   1      39.421  29.788  30.236  1.00  0.00     0.074 A 
ATOM     23  C   UNL A   1      38.453  29.996  29.178  1.00  0.00     0.031 C 
ATOM     24  C   UNL A   1      37.625  33.979  34.740  1.00  0.00     0.029 A 
ATOM     25  C   UNL A   1      38.746  33.042  34.776  1.00  0.00     0.049 A 
ATOM     26  H   UNL A   1      39.282  31.644  33.331  1.00  0.00     0.167 HD
ATOM     27  C   UNL A   1      40.415  28.869  30.192  1.00  0.00     0.037 A 
ATOM     28  C   UNL A   1      39.635  32.925  35.779  1.00  0.00     0.037 A 
ATOM     29  C   UNL A   1      41.402  28.668  31.216  1.00  0.00     0.049 A 
ATOM     30  C   UNL A   1      40.760  31.939  35.683  1.00  0.00     0.074 A 
ATOM     31  C   UNL A   1      42.461  27.774  31.235  1.00  0.00     0.029 A 
ATOM     32  N   UNL A   1      41.455  29.378  32.403  1.00  0.00    -0.354 N 
ATOM     33  N   UNL A   1      41.046  31.112  34.710  1.00  0.00    -0.248 NA
ATOM     34  C   UNL A   1      41.689  31.881  36.822  1.00  0.00     0.031 C 
ATOM     35  C   UNL A   1      43.156  27.945  32.440  1.00  0.00     0.029 A 
ATOM     36  C   UNL A   1      42.528  28.946  33.163  1.00  0.00     0.049 A 
ATOM     37  H   UNL A   1      40.822  30.084  32.668  1.00  0.00     0.167 HD
ATOM     38  C   UNL A   1      42.189  30.439  35.112  1.00  0.00     0.074 A 
ATOM     39  C   UNL A   1      42.548  30.955  36.416  1.00  0.00     0.031 C 
ATOM     40  C   UNL A   1      42.876  29.476  34.452  1.00  0.00     0.037 A 
BRANCH  27  41
ATOM     41  C   UNL A   1      40.481  28.003  28.978  1.00  0.00     0.064 A 
ATOM     42  C   UNL A   1      39.762  26.803  28.906  1.00  0.00     0.173 A 
ATOM     43  C   UNL A   1      41.243  28.385  27.867  1.00  0.00     0.173 A 
ATOM     44  F   UNL A   1      39.029  26.390  29.949  1.00  0.00    -0.203 F 
ATOM     45  C   UNL A   1      39.807  26.014  27.759  1.00  0.00     0.198 A 
ATOM     46  C   UNL A   1      41.280  27.595  26.722  1.00  0.00     0.198 A 
ATOM     47  F   UNL A   1      41.956  29.521  27.895  1.00  0.00    -0.203 F 
ATOM     48  F   UNL A   1      39.124  24.863  27.714  1.00  0.00    -0.200 F 
ATOM     49  C   UNL A   1      40.563  26.410  26.666  1.00  0.00     0.200 A 
ATOM     50  F   UNL A   1      42.016  27.977  25.670  1.00  0.00    -0.200 F 
ATOM     51  F   UNL A   1      40.608  25.646  25.565  1.00  0.00    -0.200 F 
ENDBRANCH  27  41
BRANCH  28  52
ATOM     52  C   UNL A   1      39.514  33.812  36.955  1.00  0.00     0.064 A 
ATOM     53  C   UNL A   1      38.805  33.400  38.089  1.00  0.00     0.173 A 
ATOM     54  C   UNL A   1      40.113  35.075  36.977  1.00  0.00     0.173 A 
ATOM     55  F   UNL A   1      38.205  32.201  38.107  1.00  0.00    -0.203 F 
ATOM     56  C   UNL A   1      38.700  34.225  39.207  1.00  0.00     0.198 A 
ATOM     57  C   UNL A   1      40.011  35.895  38.100  1.00  0.00     0.198 A 
ATOM     58  F   UNL A   1      40.793  35.516  35.909  1.00  0.00    -0.203 F 
ATOM     59  F   UNL A   1      38.008  33.813  40.278  1.00  0.00    -0.200 F 
ATOM     60  C   UNL A   1      39.305  35.472  39.215  1.00  0.00     0.200 A 
ATOM     61  F   UNL A   1      40.594  37.100  38.100  1.00  0.00    -0.200 F 
ATOM     62  F   UNL A   1      39.203  36.265  40.292  1.00  0.00    -0.200 F 
ENDBRANCH  28  52
BRANCH  40  63
ATOM     63  C   UNL A   1      44.091  28.930  35.126  1.00  0.00     0.064 A 
ATOM     64  C   UNL A   1      45.344  29.533  34.955  1.00  0.00     0.173 A 
ATOM     65  C   UNL A   1      44.003  27.820  35.975  1.00  0.00     0.173 A 
ATOM     66  F   UNL A   1      45.479  30.593  34.145  1.00  0.00    -0.203 F 
ATOM     67  C   UNL A   1      46.468  29.038  35.611  1.00  0.00     0.198 A 
ATOM     68  C   UNL A   1      45.130  27.332  36.631  1.00  0.00     0.198 A 
ATOM     69  F   UNL A   1      42.827  27.204  36.162  1.00  0.00    -0.203 F 
ATOM     70  F   UNL A   1      47.659  29.620  35.425  1.00  0.00    -0.200 F 
ATOM     71  C   UNL A   1      46.363  27.940  36.451  1.00  0.00     0.200 A 
ATOM     72  F   UNL A   1      45.026  26.266  37.436  1.00  0.00    -0.200 F 
ATOM     73  F   UNL A   1      47.448  27.463  37.077  1.00  0.00    -0.200 F 
ENDBRANCH  40  63
ENDBRANCH  14  15
ENDBRANCH   7   9
ENDBRANCH   4   5
ENDBRANCH   3   4
ENDBRANCH   2   3
ENDBRANCH   1   2
BRANCH   1  74
ATOM     74  C   UNL A   1      31.767  28.664  27.528  1.00  0.00     0.021 C 
BRANCH  74  75
ATOM     75  C   UNL A   1      31.541  27.558  26.499  1.00  0.00     0.116 C 
BRANCH  75  76
ATOM     76  N   UNL A   1      31.647  26.228  27.067  1.00  0.00    -0.351 N 
ATOM     77  C   UNL A   1      31.491  25.010  26.458  1.00  0.00     0.269 C 
ATOM     78  H   UNL A   1      31.862  26.195  28.028  1.00  0.00     0.163 HD
ATOM     79  O   UNL A   1      31.427  24.006  27.168  1.00  0.00    -0.268 OA
BRANCH  77  80
ATOM     80  C   UNL A   1      31.333  24.943  25.032  1.00  0.00     0.131 A 
ATOM     81  N   UNL A   1      30.144  24.557  24.472  1.00  0.00    -0.272 N 
ATOM     82  C   UNL A   1      32.204  25.125  23.962  1.00  0.00     0.057 A 
ATOM     83  N   UNL A   1      30.117  24.659  23.135  1.00  0.00    -0.183 NA
ATOM     84  H   UNL A   1      29.380  24.235  25.002  1.00  0.00     0.190 HD
ATOM     85  C   UNL A   1      31.369  24.994  22.826  1.00  0.00     0.145 A 
BRANCH  82  86
ATOM     86  C   UNL A   1      33.666  25.430  23.996  1.00  0.00     0.303 C 
BRANCH  86  87
ATOM     87  N   UNL A   1      34.519  24.329  24.448  1.00  0.00    -0.330 N 
ATOM     88  C   UNL A   1      35.644  24.034  23.559  1.00  0.00     0.262 C 
ATOM     89  C   UNL A   1      34.922  24.399  25.850  1.00  0.00     0.274 C 
ATOM     90  H   UNL A   1      33.898  23.522  24.388  1.00  0.00     0.348 HD
ATOM     91  C   UNL A   1      36.241  22.671  23.903  1.00  0.00     0.062 C 
ATOM     92  C   UNL A   1      35.545  23.086  26.336  1.00  0.00     0.116 C 
ATOM     93  C   UNL A   1      36.612  22.546  25.379  1.00  0.00     0.023 C 
BRANCH  92  94
ATOM     94  C   UNL A   1      34.514  22.041  26.769  1.00  0.00     0.171 C 
ATOM     95  O   UNL A   1      34.156  21.927  27.940  1.00  0.00    -0.294 OA
BRANCH  94  96
ATOM     96  C   UNL A   1      33.929  21.113  25.783  1.00  0.00     0.019 A 
ATOM     97  C   UNL A   1      32.787  21.495  25.081  1.00  0.00     0.012 A 
ATOM     98  C   UNL A   1      34.572  19.906  25.496  1.00  0.00     0.020 A 
ATOM     99  C   UNL A   1      32.241  20.628  24.133  1.00  0.00     0.009 A 
ATOM    100  C   UNL A   1      34.036  19.030  24.539  1.00  0.00    -0.018 A 
ATOM    101  C   UNL A   1      32.849  19.392  23.857  1.00  0.00    -0.018 A 
ATOM    102  C   UNL A   1      34.653  17.804  24.239  1.00  0.00     0.009 A 
ATOM    103  C   UNL A   1      32.311  18.512  22.906  1.00  0.00     0.009 A 
ATOM    104  C   UNL A   1      34.107  16.942  23.287  1.00  0.00     0.001 A 
ATOM    105  C   UNL A   1      32.936  17.295  22.624  1.00  0.00     0.001 A 
ENDBRANCH  94  96
ENDBRANCH  92  94
ENDBRANCH  86  87
ENDBRANCH  82  86
ENDBRANCH  77  80
ENDBRANCH  75  76
ENDBRANCH  74  75
ENDBRANCH   1  74
TORSDOF 17
ENDMDL
