MODEL 1
REMARK VINA RESULT:     -12.7      0.000      0.000
REMARK SMILES [NH3+][C@@H](Cc1cn(-c2nc(Cl)nc(N3CCOCC3)n2)c2ccccc12)C(=O)NCCCCCCNC(=O)c1ccc(-c2c3nc(c(-c4c(F)c(F)c(F)c(F)c4F)c4ccc([nH]4)c(-c4c(F)c(F)c(F)c(F)c4F)c4nc(c(-c5c(F)c(F)c(F)c(F)c5F)c5ccc2[nH]5)C=C4)C=C3)cc1
REMARK SMILES IDX 30 1 29 2 28 3 26 4 27 5 2 7 1 8 3 12 4 13 5 14 25 15 6 16
REMARK SMILES IDX 20 17 24 18 21 19 23 20 22 21 7 22 8 23 19 24 9 25 12 26
REMARK SMILES IDX 10 27 11 28 13 29 14 30 18 31 15 32 17 33 16 34 31 35 32 36
REMARK SMILES IDX 33 37 34 38 35 39 36 40 37 42 38 43 39 44 100 45 40 46 99 47
REMARK SMILES IDX 41 48 42 49 43 50 93 51 44 52 98 53 92 54 94 55 45 56 97 57
REMARK SMILES IDX 91 58 90 59 46 61 78 62 58 63 77 64 59 65 62 66 76 67 95 68
REMARK SMILES IDX 60 69 61 70 75 72 96 73 63 74 47 75 48 76 56 77 49 78 50 79
REMARK SMILES IDX 54 80 57 81 51 82 52 83 55 84 53 85 79 86 80 87 88 88 81 89
REMARK SMILES IDX 82 90 86 91 89 92 83 93 84 94 87 95 85 96 64 97 65 98 73 99
REMARK SMILES IDX 66 100 67 101 71 102 74 103 68 104 69 105 72 106 70 107
REMARK H PARENT 28 6 1 9 1 10 1 11 35 41 94 60 62 71
REMARK Flexibility Score: inf
ROOT
ATOM      1  C   UNL A   1      32.895  20.195  24.994  1.00  0.00     0.021 C 
ENDROOT
BRANCH   1   2
ATOM      2  C   UNL A   1      31.933  21.348  25.057  1.00  0.00     0.116 C 
BRANCH   2   3
ATOM      3  N   UNL A   1      31.839  22.055  26.292  1.00  0.00    -0.351 N 
ATOM      4  C   UNL A   1      31.574  23.391  26.414  1.00  0.00     0.278 C 
ATOM      5  O   UNL A   1      31.442  23.833  27.561  1.00  0.00    -0.268 OA
ATOM      6  H   UNL A   1      31.977  21.542  27.121  1.00  0.00     0.163 HD
BRANCH   4   7
ATOM      7  C   UNL A   1      31.484  24.344  25.170  1.00  0.00     0.275 C 
BRANCH   7   8
ATOM      8  N   UNL A   1      30.107  24.837  24.964  1.00  0.00    -0.347 N 
ATOM      9  H   UNL A   1      29.846  24.721  23.985  1.00  0.00     0.345 HD
ATOM     10  H   UNL A   1      30.058  25.824  25.214  1.00  0.00     0.345 HD
ATOM     11  H   UNL A   1      29.464  24.305  25.552  1.00  0.00     0.345 HD
ENDBRANCH   7   8
BRANCH   7  12
ATOM     12  C   UNL A   1      32.615  25.374  24.941  1.00  0.00     0.113 C 
BRANCH  12  13
ATOM     13  C   UNL A   1      32.620  26.769  25.554  1.00  0.00    -0.015 A 
ATOM     14  C   UNL A   1      33.255  27.306  26.663  1.00  0.00     0.099 A 
ATOM     15  C   UNL A   1      31.844  27.854  25.025  1.00  0.00     0.004 A 
ATOM     16  N   UNL A   1      33.252  28.696  26.562  1.00  0.00    -0.285 N 
ATOM     17  C   UNL A   1      32.211  29.038  25.693  1.00  0.00     0.056 A 
ATOM     18  C   UNL A   1      30.862  27.898  24.009  1.00  0.00     0.010 A 
ATOM     19  C   UNL A   1      31.581  30.258  25.374  1.00  0.00     0.027 A 
ATOM     20  C   UNL A   1      30.224  29.098  23.708  1.00  0.00     0.001 A 
ATOM     21  C   UNL A   1      30.576  30.257  24.389  1.00  0.00     0.002 A 
BRANCH  16  22
ATOM     22  C   UNL A   1      34.205  29.546  27.248  1.00  0.00     0.240 A 
ATOM     23  N   UNL A   1      35.457  29.136  27.303  1.00  0.00    -0.181 NA
ATOM     24  N   UNL A   1      33.810  30.790  27.645  1.00  0.00    -0.176 NA
ATOM     25  C   UNL A   1      36.275  30.101  27.712  1.00  0.00     0.228 A 
ATOM     26  C   UNL A   1      34.714  31.699  28.056  1.00  0.00     0.231 A 
ATOM     27  Cl  UNL A   1      37.922  29.653  27.832  1.00  0.00    -0.041 Cl
ATOM     28  N   UNL A   1      35.992  31.360  28.073  1.00  0.00    -0.182 NA
BRANCH  26  29
ATOM     29  N   UNL A   1      34.356  32.953  28.603  1.00  0.00    -0.336 N 
ATOM     30  C   UNL A   1      35.160  33.880  29.508  1.00  0.00     0.148 C 
ATOM     31  C   UNL A   1      33.547  33.821  27.723  1.00  0.00     0.148 C 
ATOM     32  C   UNL A   1      34.281  34.836  30.330  1.00  0.00     0.181 C 
ATOM     33  C   UNL A   1      32.678  34.737  28.617  1.00  0.00     0.181 C 
ATOM     34  O   UNL A   1      33.458  35.609  29.455  1.00  0.00    -0.378 OA
ENDBRANCH  26  29
ENDBRANCH  16  22
ENDBRANCH  12  13
ENDBRANCH   7  12
ENDBRANCH   4   7
ENDBRANCH   2   3
ENDBRANCH   1   2
BRANCH   1  35
ATOM     35  C   UNL A   1      34.359  20.568  24.689  1.00  0.00     0.002 C 
BRANCH  35  36
ATOM     36  C   UNL A   1      35.110  21.859  25.178  1.00  0.00     0.002 C 
BRANCH  36  37
ATOM     37  C   UNL A   1      36.395  22.723  24.722  1.00  0.00     0.021 C 
BRANCH  37  38
ATOM     38  C   UNL A   1      37.804  23.243  25.232  1.00  0.00     0.116 C 
BRANCH  38  39
ATOM     39  N   UNL A   1      38.717  22.492  26.118  1.00  0.00    -0.352 N 
ATOM     40  C   UNL A   1      39.691  22.753  27.046  1.00  0.00     0.251 C 
ATOM     41  H   UNL A   1      38.589  21.522  26.009  1.00  0.00     0.163 HD
ATOM     42  O   UNL A   1      40.280  21.853  27.641  1.00  0.00    -0.269 OA
BRANCH  40  43
ATOM     43  C   UNL A   1      40.042  24.120  27.312  1.00  0.00     0.039 A 
ATOM     44  C   UNL A   1      41.237  24.314  27.980  1.00  0.00     0.014 A 
ATOM     45  C   UNL A   1      39.101  25.126  27.079  1.00  0.00     0.014 A 
ATOM     46  C   UNL A   1      41.332  25.443  28.728  1.00  0.00     0.010 A 
ATOM     47  C   UNL A   1      39.277  26.330  27.725  1.00  0.00     0.010 A 
ATOM     48  C   UNL A   1      40.337  26.432  28.621  1.00  0.00    -0.014 A 
BRANCH  48  49
ATOM     49  C   UNL A   1      40.600  27.617  29.411  1.00  0.00     0.031 A 
ATOM     50  C   UNL A   1      41.628  28.482  28.772  1.00  0.00     0.074 A 
ATOM     51  C   UNL A   1      40.009  27.882  30.585  1.00  0.00     0.049 A 
ATOM     52  N   UNL A   1      42.805  28.774  29.220  1.00  0.00    -0.248 NA
ATOM     53  C   UNL A   1      41.408  28.839  27.357  1.00  0.00     0.031 C 
ATOM     54  C   UNL A   1      38.841  27.245  31.192  1.00  0.00     0.029 A 
ATOM     55  N   UNL A   1      40.302  28.884  31.451  1.00  0.00    -0.354 N 
ATOM     56  C   UNL A   1      43.418  29.490  28.198  1.00  0.00     0.074 A 
ATOM     57  C   UNL A   1      42.595  29.346  27.029  1.00  0.00     0.031 C 
ATOM     58  C   UNL A   1      38.376  28.042  32.180  1.00  0.00     0.029 A 
ATOM     59  C   UNL A   1      39.289  29.158  32.352  1.00  0.00     0.049 A 
ATOM     60  H   UNL A   1      41.157  29.370  31.440  1.00  0.00     0.167 HD
ATOM     61  C   UNL A   1      44.428  30.357  28.462  1.00  0.00     0.037 A 
ATOM     62  C   UNL A   1      39.181  30.294  33.080  1.00  0.00     0.037 A 
ATOM     63  C   UNL A   1      45.111  30.008  29.678  1.00  0.00     0.049 A 
ATOM     64  C   UNL A   1      40.531  30.920  33.126  1.00  0.00     0.074 A 
ATOM     65  C   UNL A   1      45.864  28.926  30.089  1.00  0.00     0.029 A 
ATOM     66  N   UNL A   1      44.772  30.689  30.820  1.00  0.00    -0.354 N 
ATOM     67  N   UNL A   1      41.555  30.408  33.751  1.00  0.00    -0.248 NA
ATOM     68  C   UNL A   1      40.858  31.916  32.113  1.00  0.00     0.031 C 
ATOM     69  C   UNL A   1      45.570  28.768  31.474  1.00  0.00     0.029 A 
ATOM     70  C   UNL A   1      44.682  29.781  31.841  1.00  0.00     0.049 A 
ATOM     71  H   UNL A   1      44.621  31.659  30.893  1.00  0.00     0.167 HD
ATOM     72  C   UNL A   1      42.649  30.703  32.950  1.00  0.00     0.074 A 
ATOM     73  C   UNL A   1      42.176  31.719  32.017  1.00  0.00     0.031 C 
ATOM     74  C   UNL A   1      43.748  29.895  32.939  1.00  0.00     0.037 A 
BRANCH  61  75
ATOM     75  C   UNL A   1      44.476  31.737  27.851  1.00  0.00     0.064 A 
ATOM     76  C   UNL A   1      45.568  32.077  27.031  1.00  0.00     0.173 A 
ATOM     77  C   UNL A   1      43.678  32.822  28.282  1.00  0.00     0.173 A 
ATOM     78  F   UNL A   1      46.401  31.131  26.573  1.00  0.00    -0.203 F 
ATOM     79  C   UNL A   1      45.890  33.408  26.751  1.00  0.00     0.198 A 
ATOM     80  C   UNL A   1      43.972  34.142  27.957  1.00  0.00     0.198 A 
ATOM     81  F   UNL A   1      42.652  32.677  29.127  1.00  0.00    -0.203 F 
ATOM     82  F   UNL A   1      47.016  33.691  26.084  1.00  0.00    -0.200 F 
ATOM     83  C   UNL A   1      45.098  34.438  27.224  1.00  0.00     0.200 A 
ATOM     84  F   UNL A   1      43.201  35.125  28.443  1.00  0.00    -0.200 F 
ATOM     85  F   UNL A   1      45.444  35.716  27.018  1.00  0.00    -0.200 F 
ENDBRANCH  61  75
BRANCH  62  86
ATOM     86  C   UNL A   1      37.938  31.040  33.394  1.00  0.00     0.064 A 
ATOM     87  C   UNL A   1      37.903  31.948  34.464  1.00  0.00     0.173 A 
ATOM     88  C   UNL A   1      36.845  31.084  32.504  1.00  0.00     0.173 A 
ATOM     89  F   UNL A   1      38.924  32.006  35.332  1.00  0.00    -0.203 F 
ATOM     90  C   UNL A   1      36.855  32.861  34.617  1.00  0.00     0.198 A 
ATOM     91  C   UNL A   1      35.794  31.985  32.666  1.00  0.00     0.198 A 
ATOM     92  F   UNL A   1      36.815  30.320  31.402  1.00  0.00    -0.203 F 
ATOM     93  F   UNL A   1      36.893  33.759  35.611  1.00  0.00    -0.200 F 
ATOM     94  C   UNL A   1      35.806  32.885  33.713  1.00  0.00     0.200 A 
ATOM     95  F   UNL A   1      34.802  32.017  31.764  1.00  0.00    -0.200 F 
ATOM     96  F   UNL A   1      34.832  33.798  33.826  1.00  0.00    -0.200 F 
ENDBRANCH  62  86
BRANCH  74  97
ATOM     97  C   UNL A   1      43.873  28.861  34.020  1.00  0.00     0.064 A 
ATOM     98  C   UNL A   1      44.427  29.119  35.285  1.00  0.00     0.173 A 
ATOM     99  C   UNL A   1      43.234  27.628  33.829  1.00  0.00     0.173 A 
ATOM    100  F   UNL A   1      44.968  30.309  35.571  1.00  0.00    -0.203 F 
ATOM    101  C   UNL A   1      44.359  28.172  36.305  1.00  0.00     0.198 A 
ATOM    102  C   UNL A   1      43.135  26.701  34.862  1.00  0.00     0.198 A 
ATOM    103  F   UNL A   1      42.640  27.353  32.657  1.00  0.00    -0.203 F 
ATOM    104  F   UNL A   1      44.886  28.443  37.509  1.00  0.00    -0.200 F 
ATOM    105  C   UNL A   1      43.702  26.970  36.097  1.00  0.00     0.200 A 
ATOM    106  F   UNL A   1      42.453  25.563  34.672  1.00  0.00    -0.200 F 
ATOM    107  F   UNL A   1      43.582  26.087  37.098  1.00  0.00    -0.200 F 
ENDBRANCH  74  97
ENDBRANCH  48  49
ENDBRANCH  40  43
ENDBRANCH  38  39
ENDBRANCH  37  38
ENDBRANCH  36  37
ENDBRANCH  35  36
ENDBRANCH   1  35
TORSDOF 18
ENDMDL
MODEL 2
REMARK VINA RESULT:     -12.4      5.001     10.835
REMARK SMILES [NH3+][C@@H](Cc1cn(-c2nc(Cl)nc(N3CCOCC3)n2)c2ccccc12)C(=O)NCCCCCCNC(=O)c1ccc(-c2c3nc(c(-c4c(F)c(F)c(F)c(F)c4F)c4ccc([nH]4)c(-c4c(F)c(F)c(F)c(F)c4F)c4nc(c(-c5c(F)c(F)c(F)c(F)c5F)c5ccc2[nH]5)C=C4)C=C3)cc1
REMARK SMILES IDX 30 1 29 2 28 3 26 4 27 5 2 7 1 8 3 12 4 13 5 14 25 15 6 16
REMARK SMILES IDX 20 17 24 18 21 19 23 20 22 21 7 22 8 23 19 24 9 25 12 26
REMARK SMILES IDX 10 27 11 28 13 29 14 30 18 31 15 32 17 33 16 34 31 35 32 36
REMARK SMILES IDX 33 37 34 38 35 39 36 40 37 42 38 43 39 44 100 45 40 46 99 47
REMARK SMILES IDX 41 48 42 49 43 50 93 51 44 52 98 53 92 54 94 55 45 56 97 57
REMARK SMILES IDX 91 58 90 59 46 61 78 62 58 63 77 64 59 65 62 66 76 67 95 68
REMARK SMILES IDX 60 69 61 70 75 72 96 73 63 74 47 75 48 76 56 77 49 78 50 79
REMARK SMILES IDX 54 80 57 81 51 82 52 83 55 84 53 85 79 86 80 87 88 88 81 89
REMARK SMILES IDX 82 90 86 91 89 92 83 93 84 94 87 95 85 96 64 97 65 98 73 99
REMARK SMILES IDX 66 100 67 101 71 102 74 103 68 104 69 105 72 106 70 107
REMARK H PARENT 28 6 1 9 1 10 1 11 35 41 94 60 62 71
REMARK Flexibility Score: inf
ROOT
ATOM      1  C   UNL A   1      46.602  31.675  28.211  1.00  0.00     0.021 C 
ENDROOT
BRANCH   1   2
ATOM      2  C   UNL A   1      47.342  30.663  29.040  1.00  0.00     0.116 C 
BRANCH   2   3
ATOM      3  N   UNL A   1      46.879  30.444  30.372  1.00  0.00    -0.351 N 
ATOM      4  C   UNL A   1      46.393  29.257  30.848  1.00  0.00     0.278 C 
ATOM      5  O   UNL A   1      46.112  29.210  32.052  1.00  0.00    -0.268 OA
ATOM      6  H   UNL A   1      46.910  31.205  30.995  1.00  0.00     0.163 HD
BRANCH   4   7
ATOM      7  C   UNL A   1      46.154  28.016  29.918  1.00  0.00     0.275 C 
BRANCH   7   8
ATOM      8  N   UNL A   1      47.243  27.026  30.044  1.00  0.00    -0.347 N 
ATOM      9  H   UNL A   1      46.907  26.110  29.748  1.00  0.00     0.345 HD
ATOM     10  H   UNL A   1      47.548  26.978  31.016  1.00  0.00     0.345 HD
ATOM     11  H   UNL A   1      48.028  27.307  29.455  1.00  0.00     0.345 HD
ENDBRANCH   7   8
BRANCH   7  12
ATOM     12  C   UNL A   1      44.723  27.440  29.803  1.00  0.00     0.113 C 
BRANCH  12  13
ATOM     13  C   UNL A   1      44.210  26.699  28.574  1.00  0.00    -0.015 A 
ATOM     14  C   UNL A   1      44.334  25.386  28.148  1.00  0.00     0.099 A 
ATOM     15  C   UNL A   1      43.460  27.343  27.535  1.00  0.00     0.004 A 
ATOM     16  N   UNL A   1      43.363  25.126  27.184  1.00  0.00    -0.285 N 
ATOM     17  C   UNL A   1      42.979  26.359  26.649  1.00  0.00     0.056 A 
ATOM     18  C   UNL A   1      43.151  28.704  27.304  1.00  0.00     0.010 A 
ATOM     19  C   UNL A   1      42.220  26.729  25.521  1.00  0.00     0.027 A 
ATOM     20  C   UNL A   1      42.421  29.072  26.178  1.00  0.00     0.001 A 
ATOM     21  C   UNL A   1      41.971  28.096  25.297  1.00  0.00     0.002 A 
BRANCH  16  22
ATOM     22  C   UNL A   1      42.884  23.792  26.876  1.00  0.00     0.240 A 
ATOM     23  N   UNL A   1      41.582  23.589  26.914  1.00  0.00    -0.181 NA
ATOM     24  N   UNL A   1      43.769  22.870  26.398  1.00  0.00    -0.176 NA
ATOM     25  C   UNL A   1      41.248  22.425  26.364  1.00  0.00     0.228 A 
ATOM     26  C   UNL A   1      43.335  21.712  25.869  1.00  0.00     0.231 A 
ATOM     27  Cl  UNL A   1      39.575  22.068  26.385  1.00  0.00    -0.041 Cl
ATOM     28  N   UNL A   1      42.033  21.481  25.826  1.00  0.00    -0.182 NA
BRANCH  26  29
ATOM     29  N   UNL A   1      44.203  20.664  25.482  1.00  0.00    -0.336 N 
ATOM     30  C   UNL A   1      43.902  19.184  25.273  1.00  0.00     0.148 C 
ATOM     31  C   UNL A   1      45.233  21.029  24.488  1.00  0.00     0.148 C 
ATOM     32  C   UNL A   1      45.143  18.288  25.408  1.00  0.00     0.181 C 
ATOM     33  C   UNL A   1      46.454  20.104  24.698  1.00  0.00     0.181 C 
ATOM     34  O   UNL A   1      46.148  18.713  24.486  1.00  0.00    -0.378 OA
ENDBRANCH  26  29
ENDBRANCH  16  22
ENDBRANCH  12  13
ENDBRANCH   7  12
ENDBRANCH   4   7
ENDBRANCH   2   3
ENDBRANCH   1   2
BRANCH   1  35
ATOM     35  C   UNL A   1      45.107  31.378  27.981  1.00  0.00     0.002 C 
BRANCH  35  36
ATOM     36  C   UNL A   1      44.192  32.016  26.874  1.00  0.00     0.002 C 
BRANCH  36  37
ATOM     37  C   UNL A   1      44.234  33.307  25.905  1.00  0.00     0.021 C 
BRANCH  37  38
ATOM     38  C   UNL A   1      44.052  34.882  25.904  1.00  0.00     0.116 C 
BRANCH  38  39
ATOM     39  N   UNL A   1      44.993  35.847  26.510  1.00  0.00    -0.352 N 
ATOM     40  C   UNL A   1      45.253  36.391  27.741  1.00  0.00     0.251 C 
ATOM     41  H   UNL A   1      45.613  36.203  25.834  1.00  0.00     0.163 HD
ATOM     42  O   UNL A   1      46.162  37.198  27.916  1.00  0.00    -0.269 OA
BRANCH  40  43
ATOM     43  C   UNL A   1      44.421  36.015  28.851  1.00  0.00     0.039 A 
ATOM     44  C   UNL A   1      44.626  34.743  29.351  1.00  0.00     0.014 A 
ATOM     45  C   UNL A   1      43.355  36.840  29.217  1.00  0.00     0.014 A 
ATOM     46  C   UNL A   1      43.561  34.156  29.956  1.00  0.00     0.010 A 
ATOM     47  C   UNL A   1      42.339  36.282  29.960  1.00  0.00     0.010 A 
ATOM     48  C   UNL A   1      42.411  34.919  30.230  1.00  0.00    -0.014 A 
BRANCH  48  49
ATOM     49  C   UNL A   1      41.383  34.193  30.947  1.00  0.00     0.031 A 
ATOM     50  C   UNL A   1      41.898  33.641  32.229  1.00  0.00     0.074 A 
ATOM     51  C   UNL A   1      40.133  34.019  30.494  1.00  0.00     0.049 A 
ATOM     52  N   UNL A   1      42.024  32.398  32.561  1.00  0.00    -0.248 NA
ATOM     53  C   UNL A   1      42.591  34.586  33.127  1.00  0.00     0.031 C 
ATOM     54  C   UNL A   1      39.453  34.692  29.388  1.00  0.00     0.029 A 
ATOM     55  N   UNL A   1      39.161  33.238  31.027  1.00  0.00    -0.354 N 
ATOM     56  C   UNL A   1      42.675  32.412  33.789  1.00  0.00     0.074 A 
ATOM     57  C   UNL A   1      43.152  33.751  33.999  1.00  0.00     0.031 C 
ATOM     58  C   UNL A   1      38.123  34.486  29.505  1.00  0.00     0.029 A 
ATOM     59  C   UNL A   1      37.885  33.565  30.604  1.00  0.00     0.049 A 
ATOM     60  H   UNL A   1      39.347  32.505  31.657  1.00  0.00     0.167 HD
ATOM     61  C   UNL A   1      42.552  31.375  34.656  1.00  0.00     0.037 A 
ATOM     62  C   UNL A   1      36.741  33.186  31.218  1.00  0.00     0.037 A 
ATOM     63  C   UNL A   1      42.225  30.156  33.968  1.00  0.00     0.049 A 
ATOM     64  C   UNL A   1      37.062  32.002  32.061  1.00  0.00     0.074 A 
ATOM     65  C   UNL A   1      42.871  29.367  33.038  1.00  0.00     0.029 A 
ATOM     66  N   UNL A   1      40.909  29.765  33.947  1.00  0.00    -0.354 N 
ATOM     67  N   UNL A   1      37.401  30.835  31.586  1.00  0.00    -0.248 NA
ATOM     68  C   UNL A   1      37.420  32.232  33.455  1.00  0.00     0.031 C 
ATOM     69  C   UNL A   1      41.840  28.854  32.198  1.00  0.00     0.029 A 
ATOM     70  C   UNL A   1      40.620  29.329  32.682  1.00  0.00     0.049 A 
ATOM     71  H   UNL A   1      40.285  29.793  34.708  1.00  0.00     0.167 HD
ATOM     72  C   UNL A   1      38.356  30.351  32.471  1.00  0.00     0.074 A 
ATOM     73  C   UNL A   1      38.247  31.201  33.651  1.00  0.00     0.031 C 
ATOM     74  C   UNL A   1      39.329  29.492  32.051  1.00  0.00     0.037 A 
BRANCH  61  75
ATOM     75  C   UNL A   1      42.292  31.592  36.128  1.00  0.00     0.064 A 
ATOM     76  C   UNL A   1      41.188  32.376  36.513  1.00  0.00     0.173 A 
ATOM     77  C   UNL A   1      43.241  31.337  37.145  1.00  0.00     0.173 A 
ATOM     78  F   UNL A   1      40.232  32.693  35.627  1.00  0.00    -0.203 F 
ATOM     79  C   UNL A   1      41.097  32.939  37.788  1.00  0.00     0.198 A 
ATOM     80  C   UNL A   1      43.119  31.857  38.429  1.00  0.00     0.198 A 
ATOM     81  F   UNL A   1      44.381  30.676  36.924  1.00  0.00    -0.203 F 
ATOM     82  F   UNL A   1      40.102  33.791  38.067  1.00  0.00    -0.200 F 
ATOM     83  C   UNL A   1      42.067  32.688  38.741  1.00  0.00     0.200 A 
ATOM     84  F   UNL A   1      44.082  31.615  39.329  1.00  0.00    -0.200 F 
ATOM     85  F   UNL A   1      42.019  33.284  39.939  1.00  0.00    -0.200 F 
ENDBRANCH  61  75
BRANCH  62  86
ATOM     86  C   UNL A   1      35.516  34.001  31.411  1.00  0.00     0.064 A 
ATOM     87  C   UNL A   1      35.442  34.940  32.452  1.00  0.00     0.173 A 
ATOM     88  C   UNL A   1      34.503  34.075  30.433  1.00  0.00     0.173 A 
ATOM     89  F   UNL A   1      36.391  34.970  33.400  1.00  0.00    -0.203 F 
ATOM     90  C   UNL A   1      34.435  35.908  32.497  1.00  0.00     0.198 A 
ATOM     91  C   UNL A   1      33.491  35.032  30.487  1.00  0.00     0.198 A 
ATOM     92  F   UNL A   1      34.523  33.284  29.351  1.00  0.00    -0.203 F 
ATOM     93  F   UNL A   1      34.439  36.830  33.470  1.00  0.00    -0.200 F 
ATOM     94  C   UNL A   1      33.465  35.959  31.510  1.00  0.00     0.200 A 
ATOM     95  F   UNL A   1      32.578  35.089  29.506  1.00  0.00    -0.200 F 
ATOM     96  F   UNL A   1      32.534  36.922  31.521  1.00  0.00    -0.200 F 
ENDBRANCH  62  86
BRANCH  74  97
ATOM     97  C   UNL A   1      39.168  28.851  30.704  1.00  0.00     0.064 A 
ATOM     98  C   UNL A   1      39.452  29.502  29.492  1.00  0.00     0.173 A 
ATOM     99  C   UNL A   1      38.904  27.475  30.656  1.00  0.00     0.173 A 
ATOM    100  F   UNL A   1      39.806  30.793  29.469  1.00  0.00    -0.203 F 
ATOM    101  C   UNL A   1      39.450  28.805  28.285  1.00  0.00     0.198 A 
ATOM    102  C   UNL A   1      38.941  26.776  29.454  1.00  0.00     0.198 A 
ATOM    103  F   UNL A   1      38.682  26.793  31.791  1.00  0.00    -0.203 F 
ATOM    104  F   UNL A   1      39.733  29.445  27.139  1.00  0.00    -0.200 F 
ATOM    105  C   UNL A   1      39.208  27.441  28.268  1.00  0.00     0.200 A 
ATOM    106  F   UNL A   1      38.759  25.448  29.450  1.00  0.00    -0.200 F 
ATOM    107  F   UNL A   1      39.270  26.761  27.115  1.00  0.00    -0.200 F 
ENDBRANCH  74  97
ENDBRANCH  48  49
ENDBRANCH  40  43
ENDBRANCH  38  39
ENDBRANCH  37  38
ENDBRANCH  36  37
ENDBRANCH  35  36
ENDBRANCH   1  35
TORSDOF 18
ENDMDL
MODEL 3
REMARK VINA RESULT:     -12.1      4.645     10.249
REMARK SMILES [NH3+][C@@H](Cc1cn(-c2nc(Cl)nc(N3CCOCC3)n2)c2ccccc12)C(=O)NCCCCCCNC(=O)c1ccc(-c2c3nc(c(-c4c(F)c(F)c(F)c(F)c4F)c4ccc([nH]4)c(-c4c(F)c(F)c(F)c(F)c4F)c4nc(c(-c5c(F)c(F)c(F)c(F)c5F)c5ccc2[nH]5)C=C4)C=C3)cc1
REMARK SMILES IDX 30 1 29 2 28 3 26 4 27 5 2 7 1 8 3 12 4 13 5 14 25 15 6 16
REMARK SMILES IDX 20 17 24 18 21 19 23 20 22 21 7 22 8 23 19 24 9 25 12 26
REMARK SMILES IDX 10 27 11 28 13 29 14 30 18 31 15 32 17 33 16 34 31 35 32 36
REMARK SMILES IDX 33 37 34 38 35 39 36 40 37 42 38 43 39 44 100 45 40 46 99 47
REMARK SMILES IDX 41 48 42 49 43 50 93 51 44 52 98 53 92 54 94 55 45 56 97 57
REMARK SMILES IDX 91 58 90 59 46 61 78 62 58 63 77 64 59 65 62 66 76 67 95 68
REMARK SMILES IDX 60 69 61 70 75 72 96 73 63 74 47 75 48 76 56 77 49 78 50 79
REMARK SMILES IDX 54 80 57 81 51 82 52 83 55 84 53 85 79 86 80 87 88 88 81 89
REMARK SMILES IDX 82 90 86 91 89 92 83 93 84 94 87 95 85 96 64 97 65 98 73 99
REMARK SMILES IDX 66 100 67 101 71 102 74 103 68 104 69 105 72 106 70 107
REMARK H PARENT 28 6 1 9 1 10 1 11 35 41 94 60 62 71
REMARK Flexibility Score: inf
ROOT
ATOM      1  C   UNL A   1      45.011  26.359  27.249  1.00  0.00     0.021 C 
ENDROOT
BRANCH   1   2
ATOM      2  C   UNL A   1      45.884  25.288  27.842  1.00  0.00     0.116 C 
BRANCH   2   3
ATOM      3  N   UNL A   1      45.249  24.301  28.652  1.00  0.00    -0.351 N 
ATOM      4  C   UNL A   1      44.745  24.519  29.905  1.00  0.00     0.278 C 
ATOM      5  O   UNL A   1      44.148  23.578  30.440  1.00  0.00    -0.268 OA
ATOM      6  H   UNL A   1      45.167  23.393  28.282  1.00  0.00     0.163 HD
BRANCH   4   7
ATOM      7  C   UNL A   1      44.944  25.880  30.662  1.00  0.00     0.275 C 
BRANCH   7   8
ATOM      8  N   UNL A   1      43.654  26.555  30.911  1.00  0.00    -0.347 N 
ATOM      9  H   UNL A   1      43.125  26.610  30.042  1.00  0.00     0.345 HD
ATOM     10  H   UNL A   1      43.826  27.496  31.265  1.00  0.00     0.345 HD
ATOM     11  H   UNL A   1      43.121  26.025  31.601  1.00  0.00     0.345 HD
ENDBRANCH   7   8
BRANCH   7  12
ATOM     12  C   UNL A   1      45.978  25.944  31.812  1.00  0.00     0.113 C 
BRANCH  12  13
ATOM     13  C   UNL A   1      45.876  25.110  33.083  1.00  0.00    -0.015 A 
ATOM     14  C   UNL A   1      45.723  23.750  33.306  1.00  0.00     0.099 A 
ATOM     15  C   UNL A   1      45.890  25.689  34.396  1.00  0.00     0.004 A 
ATOM     16  N   UNL A   1      46.082  23.461  34.621  1.00  0.00    -0.285 N 
ATOM     17  C   UNL A   1      45.969  24.651  35.345  1.00  0.00     0.056 A 
ATOM     18  C   UNL A   1      45.854  27.034  34.830  1.00  0.00     0.010 A 
ATOM     19  C   UNL A   1      45.981  24.949  36.723  1.00  0.00     0.027 A 
ATOM     20  C   UNL A   1      45.842  27.328  36.190  1.00  0.00     0.001 A 
ATOM     21  C   UNL A   1      45.897  26.296  37.120  1.00  0.00     0.002 A 
BRANCH  16  22
ATOM     22  C   UNL A   1      46.504  22.144  35.059  1.00  0.00     0.240 A 
ATOM     23  N   UNL A   1      45.562  21.265  35.338  1.00  0.00    -0.181 NA
ATOM     24  N   UNL A   1      47.828  21.823  34.995  1.00  0.00    -0.176 NA
ATOM     25  C   UNL A   1      46.056  20.037  35.467  1.00  0.00     0.228 A 
ATOM     26  C   UNL A   1      48.234  20.550  35.151  1.00  0.00     0.231 A 
ATOM     27  Cl  UNL A   1      44.904  18.830  35.849  1.00  0.00    -0.041 Cl
ATOM     28  N   UNL A   1      47.324  19.616  35.373  1.00  0.00    -0.182 NA
BRANCH  26  29
ATOM     29  N   UNL A   1      49.595  20.176  35.229  1.00  0.00    -0.336 N 
ATOM     30  C   UNL A   1      50.769  20.602  34.353  1.00  0.00     0.148 C 
ATOM     31  C   UNL A   1      50.130  20.006  36.595  1.00  0.00     0.148 C 
ATOM     32  C   UNL A   1      51.934  19.600  34.371  1.00  0.00     0.181 C 
ATOM     33  C   UNL A   1      51.280  18.973  36.538  1.00  0.00     0.181 C 
ATOM     34  O   UNL A   1      52.379  19.402  35.714  1.00  0.00    -0.378 OA
ENDBRANCH  26  29
ENDBRANCH  16  22
ENDBRANCH  12  13
ENDBRANCH   7  12
ENDBRANCH   4   7
ENDBRANCH   2   3
ENDBRANCH   1   2
BRANCH   1  35
ATOM     35  C   UNL A   1      44.499  26.083  25.822  1.00  0.00     0.002 C 
BRANCH  35  36
ATOM     36  C   UNL A   1      44.682  24.750  25.010  1.00  0.00     0.002 C 
BRANCH  36  37
ATOM     37  C   UNL A   1      43.828  23.409  24.732  1.00  0.00     0.021 C 
BRANCH  37  38
ATOM     38  C   UNL A   1      43.106  22.204  25.470  1.00  0.00     0.116 C 
BRANCH  38  39
ATOM     39  N   UNL A   1      41.676  22.169  25.840  1.00  0.00    -0.352 N 
ATOM     40  C   UNL A   1      40.733  23.011  26.369  1.00  0.00     0.251 C 
ATOM     41  H   UNL A   1      41.288  21.284  25.654  1.00  0.00     0.163 HD
ATOM     42  O   UNL A   1      39.570  22.654  26.548  1.00  0.00    -0.269 OA
BRANCH  40  43
ATOM     43  C   UNL A   1      41.125  24.342  26.739  1.00  0.00     0.039 A 
ATOM     44  C   UNL A   1      41.645  24.482  28.013  1.00  0.00     0.014 A 
ATOM     45  C   UNL A   1      40.784  25.413  25.909  1.00  0.00     0.014 A 
ATOM     46  C   UNL A   1      41.493  25.699  28.595  1.00  0.00     0.010 A 
ATOM     47  C   UNL A   1      40.773  26.673  26.462  1.00  0.00     0.010 A 
ATOM     48  C   UNL A   1      41.028  26.783  27.826  1.00  0.00    -0.014 A 
BRANCH  48  49
ATOM     49  C   UNL A   1      40.988  28.039  28.546  1.00  0.00     0.031 A 
ATOM     50  C   UNL A   1      42.177  28.880  28.244  1.00  0.00     0.074 A 
ATOM     51  C   UNL A   1      40.012  28.383  29.399  1.00  0.00     0.049 A 
ATOM     52  N   UNL A   1      43.112  29.247  29.057  1.00  0.00    -0.248 NA
ATOM     53  C   UNL A   1      42.484  29.107  26.819  1.00  0.00     0.031 C 
ATOM     54  C   UNL A   1      38.704  27.761  29.599  1.00  0.00     0.029 A 
ATOM     55  N   UNL A   1      39.972  29.463  30.217  1.00  0.00    -0.354 N 
ATOM     56  C   UNL A   1      44.053  29.893  28.264  1.00  0.00     0.074 A 
ATOM     57  C   UNL A   1      43.709  29.623  26.896  1.00  0.00     0.031 C 
ATOM     58  C   UNL A   1      37.912  28.623  30.276  1.00  0.00     0.029 A 
ATOM     59  C   UNL A   1      38.702  29.780  30.664  1.00  0.00     0.049 A 
ATOM     60  H   UNL A   1      40.773  29.975  30.470  1.00  0.00     0.167 HD
ATOM     61  C   UNL A   1      44.900  30.812  28.794  1.00  0.00     0.037 A 
ATOM     62  C   UNL A   1      38.338  30.969  31.197  1.00  0.00     0.037 A 
ATOM     63  C   UNL A   1      45.097  30.591  30.201  1.00  0.00     0.049 A 
ATOM     64  C   UNL A   1      39.579  31.642  31.668  1.00  0.00     0.074 A 
ATOM     65  C   UNL A   1      45.650  29.574  30.952  1.00  0.00     0.029 A 
ATOM     66  N   UNL A   1      44.368  31.355  31.077  1.00  0.00    -0.354 N 
ATOM     67  N   UNL A   1      40.308  31.218  32.665  1.00  0.00    -0.248 NA
ATOM     68  C   UNL A   1      40.250  32.557  30.755  1.00  0.00     0.031 C 
ATOM     69  C   UNL A   1      44.875  29.524  32.147  1.00  0.00     0.029 A 
ATOM     70  C   UNL A   1      43.914  30.535  32.075  1.00  0.00     0.049 A 
ATOM     71  H   UNL A   1      44.201  32.322  31.002  1.00  0.00     0.167 HD
ATOM     72  C   UNL A   1      41.618  31.480  32.288  1.00  0.00     0.074 A 
ATOM     73  C   UNL A   1      41.514  32.397  31.158  1.00  0.00     0.031 C 
ATOM     74  C   UNL A   1      42.646  30.711  32.747  1.00  0.00     0.037 A 
BRANCH  61  75
ATOM     75  C   UNL A   1      45.166  32.136  28.118  1.00  0.00     0.064 A 
ATOM     76  C   UNL A   1      44.089  33.018  27.907  1.00  0.00     0.173 A 
ATOM     77  C   UNL A   1      46.346  32.435  27.397  1.00  0.00     0.173 A 
ATOM     78  F   UNL A   1      42.916  32.825  28.528  1.00  0.00    -0.203 F 
ATOM     79  C   UNL A   1      44.160  34.054  26.973  1.00  0.00     0.198 A 
ATOM     80  C   UNL A   1      46.429  33.500  26.507  1.00  0.00     0.198 A 
ATOM     81  F   UNL A   1      47.430  31.654  27.425  1.00  0.00    -0.203 F 
ATOM     82  F   UNL A   1      43.068  34.780  26.705  1.00  0.00    -0.200 F 
ATOM     83  C   UNL A   1      45.326  34.287  26.267  1.00  0.00     0.200 A 
ATOM     84  F   UNL A   1      47.563  33.694  25.820  1.00  0.00    -0.200 F 
ATOM     85  F   UNL A   1      45.374  35.233  25.320  1.00  0.00    -0.200 F 
ENDBRANCH  61  75
BRANCH  62  86
ATOM     86  C   UNL A   1      37.065  31.698  30.972  1.00  0.00     0.064 A 
ATOM     87  C   UNL A   1      36.169  31.911  32.032  1.00  0.00     0.173 A 
ATOM     88  C   UNL A   1      36.818  32.429  29.791  1.00  0.00     0.173 A 
ATOM     89  F   UNL A   1      36.356  31.291  33.206  1.00  0.00    -0.203 F 
ATOM     90  C   UNL A   1      35.110  32.818  31.926  1.00  0.00     0.198 A 
ATOM     91  C   UNL A   1      35.753  33.322  29.683  1.00  0.00     0.198 A 
ATOM     92  F   UNL A   1      37.657  32.367  28.748  1.00  0.00    -0.203 F 
ATOM     93  F   UNL A   1      34.319  33.045  32.984  1.00  0.00    -0.200 F 
ATOM     94  C   UNL A   1      34.908  33.529  30.756  1.00  0.00     0.200 A 
ATOM     95  F   UNL A   1      35.591  34.027  28.554  1.00  0.00    -0.200 F 
ATOM     96  F   UNL A   1      33.931  34.441  30.675  1.00  0.00    -0.200 F 
ENDBRANCH  62  86
BRANCH  74  97
ATOM     97  C   UNL A   1      42.371  29.778  33.890  1.00  0.00     0.064 A 
ATOM     98  C   UNL A   1      41.792  28.507  33.738  1.00  0.00     0.173 A 
ATOM     99  C   UNL A   1      42.890  30.109  35.151  1.00  0.00     0.173 A 
ATOM    100  F   UNL A   1      41.362  28.084  32.544  1.00  0.00    -0.203 F 
ATOM    101  C   UNL A   1      41.719  27.618  34.809  1.00  0.00     0.198 A 
ATOM    102  C   UNL A   1      42.849  29.205  36.206  1.00  0.00     0.198 A 
ATOM    103  F   UNL A   1      43.503  31.289  35.336  1.00  0.00    -0.203 F 
ATOM    104  F   UNL A   1      41.170  26.405  34.639  1.00  0.00    -0.200 F 
ATOM    105  C   UNL A   1      42.259  27.962  36.038  1.00  0.00     0.200 A 
ATOM    106  F   UNL A   1      43.420  29.521  37.377  1.00  0.00    -0.200 F 
ATOM    107  F   UNL A   1      42.246  27.082  37.049  1.00  0.00    -0.200 F 
ENDBRANCH  74  97
ENDBRANCH  48  49
ENDBRANCH  40  43
ENDBRANCH  38  39
ENDBRANCH  37  38
ENDBRANCH  36  37
ENDBRANCH  35  36
ENDBRANCH   1  35
TORSDOF 18
ENDMDL
