MODEL 1
REMARK VINA RESULT:     -12.7      0.000      0.000
REMARK SMILES C[C@@H](C(=O)NCCCCCCNC(=O)c1ccc(-c2c3nc(c(-c4c(F)c(F)c(F)c(F)c4F)c4ccc([nH]4)c(-c4c(F)c(F)c(F)c(F)c4F)c4nc(c(-c5c(F)c(F)c(F)c(F)c5F)c5ccc2[nH]5)C=C4)C=C3)cc1)c1ccc(-c2ccccc2)cc1
REMARK SMILES IDX 8 1 7 2 6 3 5 4 3 5 4 6 2 8 1 9 78 10 79 11 89 12 80 13
REMARK SMILES IDX 88 14 81 15 82 16 83 17 87 18 84 19 86 20 85 21 9 22 10 23
REMARK SMILES IDX 11 24 12 25 13 26 14 28 15 29 16 30 77 31 17 32 76 33 18 34
REMARK SMILES IDX 19 35 20 36 70 37 21 38 75 39 69 40 71 41 22 42 74 43 68 44
REMARK SMILES IDX 67 45 23 47 55 48 35 49 54 50 36 51 39 52 53 53 72 54 37 55
REMARK SMILES IDX 38 56 52 58 73 59 40 60 24 61 25 62 33 63 26 64 27 65 31 66
REMARK SMILES IDX 34 67 28 68 29 69 32 70 30 71 56 72 57 73 65 74 58 75 59 76
REMARK SMILES IDX 63 77 66 78 60 79 61 80 64 81 62 82 41 83 42 84 50 85 43 86
REMARK SMILES IDX 44 87 48 88 51 89 45 90 46 91 49 92 47 93
REMARK H PARENT 5 7 12 27 71 46 39 57
REMARK Flexibility Score: inf
ROOT
ATOM      1  C   UNL A   1      32.149  29.357  27.090  1.00  0.00     0.002 C 
ENDROOT
BRANCH   1   2
ATOM      2  C   UNL A   1      31.373  28.033  27.153  1.00  0.00     0.021 C 
BRANCH   2   3
ATOM      3  C   UNL A   1      32.108  26.841  26.529  1.00  0.00     0.116 C 
BRANCH   3   4
ATOM      4  N   UNL A   1      31.426  25.610  26.852  1.00  0.00    -0.356 N 
ATOM      5  C   UNL A   1      30.672  24.776  26.081  1.00  0.00     0.227 C 
ATOM      6  O   UNL A   1      30.034  23.934  26.714  1.00  0.00    -0.274 OA
ATOM      7  H   UNL A   1      31.523  25.322  27.788  1.00  0.00     0.163 HD
BRANCH   5   8
ATOM      8  C   UNL A   1      30.701  24.899  24.544  1.00  0.00     0.105 C 
ATOM      9  C   UNL A   1      32.099  24.651  23.963  1.00  0.00     0.023 C 
BRANCH   8  10
ATOM     10  C   UNL A   1      30.177  26.206  23.938  1.00  0.00    -0.036 A 
ATOM     11  C   UNL A   1      31.105  27.125  23.417  1.00  0.00     0.005 A 
ATOM     12  C   UNL A   1      28.834  26.597  23.972  1.00  0.00     0.005 A 
ATOM     13  C   UNL A   1      30.705  28.391  22.973  1.00  0.00     0.009 A 
ATOM     14  C   UNL A   1      28.431  27.850  23.501  1.00  0.00     0.009 A 
ATOM     15  C   UNL A   1      29.359  28.779  23.017  1.00  0.00    -0.018 A 
BRANCH  15  16
ATOM     16  C   UNL A   1      28.924  30.119  22.600  1.00  0.00    -0.018 A 
ATOM     17  C   UNL A   1      29.003  31.215  23.473  1.00  0.00     0.009 A 
ATOM     18  C   UNL A   1      28.426  30.340  21.304  1.00  0.00     0.009 A 
ATOM     19  C   UNL A   1      28.606  32.489  23.061  1.00  0.00     0.001 A 
ATOM     20  C   UNL A   1      28.030  31.613  20.889  1.00  0.00     0.001 A 
ATOM     21  C   UNL A   1      28.121  32.688  21.769  1.00  0.00     0.000 A 
ENDBRANCH  15  16
ENDBRANCH   8  10
ENDBRANCH   5   8
ENDBRANCH   3   4
ENDBRANCH   2   3
ENDBRANCH   1   2
BRANCH   1  22
ATOM     22  C   UNL A   1      31.669  30.338  26.019  1.00  0.00     0.002 C 
BRANCH  22  23
ATOM     23  C   UNL A   1      31.419  31.759  26.525  1.00  0.00     0.021 C 
BRANCH  23  24
ATOM     24  C   UNL A   1      32.646  32.432  27.128  1.00  0.00     0.116 C 
BRANCH  24  25
ATOM     25  N   UNL A   1      32.404  33.834  27.431  1.00  0.00    -0.352 N 
ATOM     26  C   UNL A   1      32.974  34.616  28.402  1.00  0.00     0.251 C 
ATOM     27  H   UNL A   1      31.740  34.283  26.860  1.00  0.00     0.163 HD
ATOM     28  O   UNL A   1      32.510  35.723  28.662  1.00  0.00    -0.269 OA
BRANCH  26  29
ATOM     29  C   UNL A   1      34.141  34.111  29.153  1.00  0.00     0.039 A 
ATOM     30  C   UNL A   1      33.929  33.261  30.241  1.00  0.00     0.014 A 
ATOM     31  C   UNL A   1      35.439  34.469  28.780  1.00  0.00     0.014 A 
ATOM     32  C   UNL A   1      35.024  32.724  30.920  1.00  0.00     0.010 A 
ATOM     33  C   UNL A   1      36.528  33.870  29.404  1.00  0.00     0.010 A 
ATOM     34  C   UNL A   1      36.332  32.997  30.485  1.00  0.00    -0.014 A 
BRANCH  34  35
ATOM     35  C   UNL A   1      37.507  32.379  31.150  1.00  0.00     0.031 A 
ATOM     36  C   UNL A   1      38.267  31.277  30.469  1.00  0.00     0.074 A 
ATOM     37  C   UNL A   1      37.852  32.772  32.391  1.00  0.00     0.049 A 
ATOM     38  N   UNL A   1      39.285  30.578  30.907  1.00  0.00    -0.248 NA
ATOM     39  C   UNL A   1      37.807  30.887  29.127  1.00  0.00     0.031 C 
ATOM     40  C   UNL A   1      37.164  33.800  33.173  1.00  0.00     0.029 A 
ATOM     41  N   UNL A   1      38.864  32.348  33.216  1.00  0.00    -0.354 N 
ATOM     42  C   UNL A   1      39.576  29.664  29.903  1.00  0.00     0.074 A 
ATOM     43  C   UNL A   1      38.591  29.854  28.861  1.00  0.00     0.031 C 
ATOM     44  C   UNL A   1      37.789  33.947  34.352  1.00  0.00     0.029 A 
ATOM     45  C   UNL A   1      38.893  32.995  34.428  1.00  0.00     0.049 A 
ATOM     46  H   UNL A   1      39.507  31.647  32.964  1.00  0.00     0.167 HD
ATOM     47  C   UNL A   1      40.589  28.766  29.845  1.00  0.00     0.037 A 
ATOM     48  C   UNL A   1      39.716  32.834  35.481  1.00  0.00     0.037 A 
ATOM     49  C   UNL A   1      41.574  28.591  30.880  1.00  0.00     0.049 A 
ATOM     50  C   UNL A   1      40.817  31.813  35.402  1.00  0.00     0.074 A 
ATOM     51  C   UNL A   1      42.673  27.752  30.893  1.00  0.00     0.029 A 
ATOM     52  N   UNL A   1      41.573  29.267  32.093  1.00  0.00    -0.354 N 
ATOM     53  N   UNL A   1      41.130  31.004  34.418  1.00  0.00    -0.248 NA
ATOM     54  C   UNL A   1      41.686  31.685  36.581  1.00  0.00     0.031 C 
ATOM     55  C   UNL A   1      43.300  27.872  32.137  1.00  0.00     0.029 A 
ATOM     56  C   UNL A   1      42.634  28.837  32.875  1.00  0.00     0.049 A 
ATOM     57  H   UNL A   1      40.916  29.951  32.358  1.00  0.00     0.167 HD
ATOM     58  C   UNL A   1      42.244  30.296  34.844  1.00  0.00     0.074 A 
ATOM     59  C   UNL A   1      42.564  30.781  36.170  1.00  0.00     0.031 C 
ATOM     60  C   UNL A   1      42.941  29.331  34.194  1.00  0.00     0.037 A 
BRANCH  47  61
ATOM     61  C   UNL A   1      40.675  27.896  28.621  1.00  0.00     0.064 A 
ATOM     62  C   UNL A   1      40.006  26.664  28.542  1.00  0.00     0.173 A 
ATOM     63  C   UNL A   1      41.416  28.310  27.504  1.00  0.00     0.173 A 
ATOM     64  F   UNL A   1      39.291  26.214  29.584  1.00  0.00    -0.203 F 
ATOM     65  C   UNL A   1      40.110  25.862  27.407  1.00  0.00     0.198 A 
ATOM     66  C   UNL A   1      41.487  27.523  26.358  1.00  0.00     0.198 A 
ATOM     67  F   UNL A   1      42.070  29.481  27.522  1.00  0.00    -0.203 F 
ATOM     68  F   UNL A   1      39.514  24.663  27.380  1.00  0.00    -0.200 F 
ATOM     69  C   UNL A   1      40.844  26.296  26.314  1.00  0.00     0.200 A 
ATOM     70  F   UNL A   1      42.185  27.951  25.296  1.00  0.00    -0.200 F 
ATOM     71  F   UNL A   1      40.939  25.526  25.221  1.00  0.00    -0.200 F 
ENDBRANCH  47  61
BRANCH  48  72
ATOM     72  C   UNL A   1      39.540  33.677  36.693  1.00  0.00     0.064 A 
ATOM     73  C   UNL A   1      38.799  33.216  37.791  1.00  0.00     0.173 A 
ATOM     74  C   UNL A   1      40.105  34.958  36.782  1.00  0.00     0.173 A 
ATOM     75  F   UNL A   1      38.222  32.006  37.747  1.00  0.00    -0.203 F 
ATOM     76  C   UNL A   1      38.616  34.009  38.922  1.00  0.00     0.198 A 
ATOM     77  C   UNL A   1      39.948  35.738  37.925  1.00  0.00     0.198 A 
ATOM     78  F   UNL A   1      40.828  35.445  35.762  1.00  0.00    -0.203 F 
ATOM     79  F   UNL A   1      37.865  33.561  39.936  1.00  0.00    -0.200 F 
ATOM     80  C   UNL A   1      39.196  35.267  38.990  1.00  0.00     0.200 A 
ATOM     81  F   UNL A   1      40.524  36.946  37.993  1.00  0.00    -0.200 F 
ATOM     82  F   UNL A   1      39.025  36.027  40.080  1.00  0.00    -0.200 F 
ENDBRANCH  48  72
BRANCH  60  83
ATOM     83  C   UNL A   1      44.141  28.758  34.894  1.00  0.00     0.064 A 
ATOM     84  C   UNL A   1      44.052  27.614  35.700  1.00  0.00     0.173 A 
ATOM     85  C   UNL A   1      45.408  29.341  34.723  1.00  0.00     0.173 A 
ATOM     86  F   UNL A   1      42.864  27.026  35.908  1.00  0.00    -0.203 F 
ATOM     87  C   UNL A   1      45.179  27.092  36.332  1.00  0.00     0.198 A 
ATOM     88  C   UNL A   1      46.537  28.796  35.327  1.00  0.00     0.198 A 
ATOM     89  F   UNL A   1      45.551  30.433  33.956  1.00  0.00    -0.203 F 
ATOM     90  F   UNL A   1      45.059  26.030  37.140  1.00  0.00    -0.200 F 
ATOM     91  C   UNL A   1      46.420  27.678  36.137  1.00  0.00     0.200 A 
ATOM     92  F   UNL A   1      47.738  29.354  35.124  1.00  0.00    -0.200 F 
ATOM     93  F   UNL A   1      47.504  27.170  36.739  1.00  0.00    -0.200 F 
ENDBRANCH  60  83
ENDBRANCH  34  35
ENDBRANCH  26  29
ENDBRANCH  24  25
ENDBRANCH  23  24
ENDBRANCH  22  23
ENDBRANCH   1  22
TORSDOF 15
ENDMDL
MODEL 2
REMARK VINA RESULT:     -12.6      0.465      7.344
REMARK SMILES C[C@@H](C(=O)NCCCCCCNC(=O)c1ccc(-c2c3nc(c(-c4c(F)c(F)c(F)c(F)c4F)c4ccc([nH]4)c(-c4c(F)c(F)c(F)c(F)c4F)c4nc(c(-c5c(F)c(F)c(F)c(F)c5F)c5ccc2[nH]5)C=C4)C=C3)cc1)c1ccc(-c2ccccc2)cc1
REMARK SMILES IDX 8 1 7 2 6 3 5 4 3 5 4 6 2 8 1 9 78 10 79 11 89 12 80 13
REMARK SMILES IDX 88 14 81 15 82 16 83 17 87 18 84 19 86 20 85 21 9 22 10 23
REMARK SMILES IDX 11 24 12 25 13 26 14 28 15 29 16 30 77 31 17 32 76 33 18 34
REMARK SMILES IDX 19 35 20 36 70 37 21 38 75 39 69 40 71 41 22 42 74 43 68 44
REMARK SMILES IDX 67 45 23 47 55 48 35 49 54 50 36 51 39 52 53 53 72 54 37 55
REMARK SMILES IDX 38 56 52 58 73 59 40 60 24 61 25 62 33 63 26 64 27 65 31 66
REMARK SMILES IDX 34 67 28 68 29 69 32 70 30 71 56 72 57 73 65 74 58 75 59 76
REMARK SMILES IDX 63 77 66 78 60 79 61 80 64 81 62 82 41 83 42 84 50 85 43 86
REMARK SMILES IDX 44 87 48 88 51 89 45 90 46 91 49 92 47 93
REMARK H PARENT 5 7 12 27 71 46 39 57
REMARK Flexibility Score: inf
ROOT
ATOM      1  C   UNL A   1      32.143  29.475  27.050  1.00  0.00     0.002 C 
ENDROOT
BRANCH   1   2
ATOM      2  C   UNL A   1      31.414  28.135  27.225  1.00  0.00     0.021 C 
BRANCH   2   3
ATOM      3  C   UNL A   1      32.086  26.955  26.513  1.00  0.00     0.116 C 
BRANCH   3   4
ATOM      4  N   UNL A   1      31.429  25.719  26.867  1.00  0.00    -0.356 N 
ATOM      5  C   UNL A   1      30.682  24.856  26.122  1.00  0.00     0.227 C 
ATOM      6  O   UNL A   1      30.064  24.017  26.778  1.00  0.00    -0.274 OA
ATOM      7  H   UNL A   1      31.539  25.453  27.809  1.00  0.00     0.163 HD
BRANCH   5   8
ATOM      8  C   UNL A   1      30.695  24.948  24.582  1.00  0.00     0.105 C 
ATOM      9  C   UNL A   1      32.083  24.671  23.990  1.00  0.00     0.023 C 
BRANCH   8  10
ATOM     10  C   UNL A   1      30.179  26.248  23.956  1.00  0.00    -0.036 A 
ATOM     11  C   UNL A   1      31.114  27.158  23.429  1.00  0.00     0.005 A 
ATOM     12  C   UNL A   1      28.837  26.644  23.975  1.00  0.00     0.005 A 
ATOM     13  C   UNL A   1      30.720  28.420  22.967  1.00  0.00     0.009 A 
ATOM     14  C   UNL A   1      28.441  27.892  23.484  1.00  0.00     0.009 A 
ATOM     15  C   UNL A   1      29.376  28.811  22.995  1.00  0.00    -0.018 A 
BRANCH  15  16
ATOM     16  C   UNL A   1      28.947  30.148  22.559  1.00  0.00    -0.018 A 
ATOM     17  C   UNL A   1      28.538  30.387  21.238  1.00  0.00     0.009 A 
ATOM     18  C   UNL A   1      28.922  31.223  23.464  1.00  0.00     0.009 A 
ATOM     19  C   UNL A   1      28.112  31.655  20.838  1.00  0.00     0.001 A 
ATOM     20  C   UNL A   1      28.495  32.492  23.067  1.00  0.00     0.001 A 
ATOM     21  C   UNL A   1      28.090  32.707  21.754  1.00  0.00     0.000 A 
ENDBRANCH  15  16
ENDBRANCH   8  10
ENDBRANCH   5   8
ENDBRANCH   3   4
ENDBRANCH   2   3
ENDBRANCH   1   2
BRANCH   1  22
ATOM     22  C   UNL A   1      31.516  30.422  26.024  1.00  0.00     0.002 C 
BRANCH  22  23
ATOM     23  C   UNL A   1      31.380  31.870  26.496  1.00  0.00     0.021 C 
BRANCH  23  24
ATOM     24  C   UNL A   1      32.618  32.419  27.195  1.00  0.00     0.116 C 
BRANCH  24  25
ATOM     25  N   UNL A   1      32.481  33.831  27.515  1.00  0.00    -0.352 N 
ATOM     26  C   UNL A   1      33.135  34.565  28.471  1.00  0.00     0.251 C 
ATOM     27  H   UNL A   1      31.830  34.329  26.969  1.00  0.00     0.163 HD
ATOM     28  O   UNL A   1      32.756  35.699  28.752  1.00  0.00    -0.269 OA
BRANCH  26  29
ATOM     29  C   UNL A   1      34.289  33.976  29.179  1.00  0.00     0.039 A 
ATOM     30  C   UNL A   1      34.056  33.078  30.223  1.00  0.00     0.014 A 
ATOM     31  C   UNL A   1      35.596  34.304  28.808  1.00  0.00     0.014 A 
ATOM     32  C   UNL A   1      35.137  32.465  30.858  1.00  0.00     0.010 A 
ATOM     33  C   UNL A   1      36.667  33.632  29.385  1.00  0.00     0.010 A 
ATOM     34  C   UNL A   1      36.450  32.710  30.421  1.00  0.00    -0.014 A 
BRANCH  34  35
ATOM     35  C   UNL A   1      37.607  32.014  31.038  1.00  0.00     0.031 A 
ATOM     36  C   UNL A   1      38.064  32.388  32.419  1.00  0.00     0.074 A 
ATOM     37  C   UNL A   1      38.279  31.086  30.332  1.00  0.00     0.049 A 
ATOM     38  N   UNL A   1      39.083  31.934  33.107  1.00  0.00    -0.248 NA
ATOM     39  C   UNL A   1      37.293  33.433  33.112  1.00  0.00     0.031 C 
ATOM     40  C   UNL A   1      37.959  30.669  28.966  1.00  0.00     0.029 A 
ATOM     41  N   UNL A   1      39.377  30.330  30.662  1.00  0.00    -0.354 N 
ATOM     42  C   UNL A   1      39.078  32.643  34.301  1.00  0.00     0.074 A 
ATOM     43  C   UNL A   1      37.997  33.600  34.220  1.00  0.00     0.031 C 
ATOM     44  C   UNL A   1      38.822  29.714  28.584  1.00  0.00     0.029 A 
ATOM     45  C   UNL A   1      39.781  29.481  29.660  1.00  0.00     0.049 A 
ATOM     46  H   UNL A   1      39.830  30.390  31.533  1.00  0.00     0.167 HD
ATOM     47  C   UNL A   1      39.887  32.491  35.377  1.00  0.00     0.037 A 
ATOM     48  C   UNL A   1      40.814  28.619  29.613  1.00  0.00     0.037 A 
ATOM     49  C   UNL A   1      40.954  31.527  35.457  1.00  0.00     0.049 A 
ATOM     50  C   UNL A   1      41.713  28.486  30.812  1.00  0.00     0.074 A 
ATOM     51  C   UNL A   1      41.793  31.254  36.522  1.00  0.00     0.029 A 
ATOM     52  N   UNL A   1      41.333  30.683  34.422  1.00  0.00    -0.354 N 
ATOM     53  N   UNL A   1      41.656  29.108  31.965  1.00  0.00    -0.248 NA
ATOM     54  C   UNL A   1      42.820  27.525  30.705  1.00  0.00     0.031 C 
ATOM     55  C   UNL A   1      42.719  30.290  36.113  1.00  0.00     0.029 A 
ATOM     56  C   UNL A   1      42.416  29.911  34.814  1.00  0.00     0.049 A 
ATOM     57  H   UNL A   1      40.897  30.638  33.540  1.00  0.00     0.167 HD
ATOM     58  C   UNL A   1      42.694  28.595  32.729  1.00  0.00     0.074 A 
ATOM     59  C   UNL A   1      43.358  27.599  31.914  1.00  0.00     0.031 C 
ATOM     60  C   UNL A   1      43.065  28.920  33.992  1.00  0.00     0.037 A 
BRANCH  47  61
ATOM     61  C   UNL A   1      39.653  33.397  36.554  1.00  0.00     0.064 A 
ATOM     62  C   UNL A   1      38.760  33.056  37.583  1.00  0.00     0.173 A 
ATOM     63  C   UNL A   1      40.346  34.612  36.667  1.00  0.00     0.173 A 
ATOM     64  F   UNL A   1      38.063  31.911  37.522  1.00  0.00    -0.203 F 
ATOM     65  C   UNL A   1      38.541  33.914  38.658  1.00  0.00     0.198 A 
ATOM     66  C   UNL A   1      40.151  35.450  37.762  1.00  0.00     0.198 A 
ATOM     67  F   UNL A   1      41.216  34.986  35.717  1.00  0.00    -0.203 F 
ATOM     68  F   UNL A   1      37.638  33.594  39.595  1.00  0.00    -0.200 F 
ATOM     69  C   UNL A   1      39.242  35.106  38.750  1.00  0.00     0.200 A 
ATOM     70  F   UNL A   1      40.841  36.595  37.857  1.00  0.00    -0.200 F 
ATOM     71  F   UNL A   1      39.035  35.929  39.788  1.00  0.00    -0.200 F 
ENDBRANCH  47  61
BRANCH  48  72
ATOM     72  C   UNL A   1      41.037  27.796  28.395  1.00  0.00     0.064 A 
ATOM     73  C   UNL A   1      41.893  28.237  27.375  1.00  0.00     0.173 A 
ATOM     74  C   UNL A   1      40.404  26.556  28.222  1.00  0.00     0.173 A 
ATOM     75  F   UNL A   1      42.506  29.425  27.484  1.00  0.00    -0.203 F 
ATOM     76  C   UNL A   1      42.092  27.480  26.223  1.00  0.00     0.198 A 
ATOM     77  C   UNL A   1      40.627  25.785  27.084  1.00  0.00     0.198 A 
ATOM     78  F   UNL A   1      39.580  26.085  29.170  1.00  0.00    -0.203 F 
ATOM     79  F   UNL A   1      42.878  27.947  25.245  1.00  0.00    -0.200 F 
ATOM     80  C   UNL A   1      41.463  26.251  26.081  1.00  0.00     0.200 A 
ATOM     81  F   UNL A   1      40.032  24.592  26.960  1.00  0.00    -0.200 F 
ATOM     82  F   UNL A   1      41.660  25.520  24.976  1.00  0.00    -0.200 F 
ENDBRANCH  48  72
BRANCH  60  83
ATOM     83  C   UNL A   1      44.221  28.167  34.587  1.00  0.00     0.064 A 
ATOM     84  C   UNL A   1      44.047  26.940  35.244  1.00  0.00     0.173 A 
ATOM     85  C   UNL A   1      45.530  28.662  34.461  1.00  0.00     0.173 A 
ATOM     86  F   UNL A   1      42.816  26.429  35.404  1.00  0.00    -0.203 F 
ATOM     87  C   UNL A   1      45.133  26.252  35.779  1.00  0.00     0.198 A 
ATOM     88  C   UNL A   1      46.617  27.954  34.966  1.00  0.00     0.198 A 
ATOM     89  F   UNL A   1      45.755  29.827  33.835  1.00  0.00    -0.203 F 
ATOM     90  F   UNL A   1      44.935  25.109  36.450  1.00  0.00    -0.200 F 
ATOM     91  C   UNL A   1      46.417  26.755  35.631  1.00  0.00     0.200 A 
ATOM     92  F   UNL A   1      47.858  28.433  34.807  1.00  0.00    -0.200 F 
ATOM     93  F   UNL A   1      47.462  26.087  36.138  1.00  0.00    -0.200 F 
ENDBRANCH  60  83
ENDBRANCH  34  35
ENDBRANCH  26  29
ENDBRANCH  24  25
ENDBRANCH  23  24
ENDBRANCH  22  23
ENDBRANCH   1  22
TORSDOF 15
ENDMDL
MODEL 3
REMARK VINA RESULT:     -12.5      5.850     11.522
REMARK SMILES C[C@@H](C(=O)NCCCCCCNC(=O)c1ccc(-c2c3nc(c(-c4c(F)c(F)c(F)c(F)c4F)c4ccc([nH]4)c(-c4c(F)c(F)c(F)c(F)c4F)c4nc(c(-c5c(F)c(F)c(F)c(F)c5F)c5ccc2[nH]5)C=C4)C=C3)cc1)c1ccc(-c2ccccc2)cc1
REMARK SMILES IDX 8 1 7 2 6 3 5 4 3 5 4 6 2 8 1 9 78 10 79 11 89 12 80 13
REMARK SMILES IDX 88 14 81 15 82 16 83 17 87 18 84 19 86 20 85 21 9 22 10 23
REMARK SMILES IDX 11 24 12 25 13 26 14 28 15 29 16 30 77 31 17 32 76 33 18 34
REMARK SMILES IDX 19 35 20 36 70 37 21 38 75 39 69 40 71 41 22 42 74 43 68 44
REMARK SMILES IDX 67 45 23 47 55 48 35 49 54 50 36 51 39 52 53 53 72 54 37 55
REMARK SMILES IDX 38 56 52 58 73 59 40 60 24 61 25 62 33 63 26 64 27 65 31 66
REMARK SMILES IDX 34 67 28 68 29 69 32 70 30 71 56 72 57 73 65 74 58 75 59 76
REMARK SMILES IDX 63 77 66 78 60 79 61 80 64 81 62 82 41 83 42 84 50 85 43 86
REMARK SMILES IDX 44 87 48 88 51 89 45 90 46 91 49 92 47 93
REMARK H PARENT 5 7 12 27 71 46 39 57
REMARK Flexibility Score: inf
ROOT
ATOM      1  C   UNL A   1      36.419  22.090  24.554  1.00  0.00     0.002 C 
ENDROOT
BRANCH   1   2
ATOM      2  C   UNL A   1      35.815  23.081  25.560  1.00  0.00     0.021 C 
BRANCH   2   3
ATOM      3  C   UNL A   1      35.233  24.349  24.924  1.00  0.00     0.116 C 
BRANCH   3   4
ATOM      4  N   UNL A   1      34.181  24.886  25.755  1.00  0.00    -0.356 N 
ATOM      5  C   UNL A   1      32.840  24.998  25.541  1.00  0.00     0.227 C 
ATOM      6  O   UNL A   1      32.253  25.721  26.347  1.00  0.00    -0.274 OA
ATOM      7  H   UNL A   1      34.485  25.231  26.626  1.00  0.00     0.163 HD
BRANCH   5   8
ATOM      8  C   UNL A   1      32.168  24.216  24.394  1.00  0.00     0.105 C 
ATOM      9  C   UNL A   1      30.674  24.535  24.264  1.00  0.00     0.023 C 
BRANCH   8  10
ATOM     10  C   UNL A   1      32.313  22.690  24.410  1.00  0.00    -0.036 A 
ATOM     11  C   UNL A   1      32.279  22.025  25.649  1.00  0.00     0.005 A 
ATOM     12  C   UNL A   1      32.592  21.922  23.275  1.00  0.00     0.005 A 
ATOM     13  C   UNL A   1      32.540  20.652  25.745  1.00  0.00     0.009 A 
ATOM     14  C   UNL A   1      32.822  20.546  23.368  1.00  0.00     0.009 A 
ATOM     15  C   UNL A   1      32.825  19.891  24.604  1.00  0.00    -0.018 A 
BRANCH  15  16
ATOM     16  C   UNL A   1      33.148  18.459  24.688  1.00  0.00    -0.018 A 
ATOM     17  C   UNL A   1      34.088  17.873  23.826  1.00  0.00     0.009 A 
ATOM     18  C   UNL A   1      32.528  17.640  25.648  1.00  0.00     0.009 A 
ATOM     19  C   UNL A   1      34.403  16.516  23.928  1.00  0.00     0.001 A 
ATOM     20  C   UNL A   1      32.843  16.284  25.751  1.00  0.00     0.001 A 
ATOM     21  C   UNL A   1      33.781  15.722  24.891  1.00  0.00     0.000 A 
ENDBRANCH  15  16
ENDBRANCH   8  10
ENDBRANCH   5   8
ENDBRANCH   3   4
ENDBRANCH   2   3
ENDBRANCH   1   2
BRANCH   1  22
ATOM     22  C   UNL A   1      36.450  20.633  25.021  1.00  0.00     0.002 C 
BRANCH  22  23
ATOM     23  C   UNL A   1      37.778  19.916  24.780  1.00  0.00     0.021 C 
BRANCH  23  24
ATOM     24  C   UNL A   1      38.888  20.316  25.744  1.00  0.00     0.116 C 
BRANCH  24  25
ATOM     25  N   UNL A   1      39.861  19.249  25.926  1.00  0.00    -0.352 N 
ATOM     26  C   UNL A   1      41.214  19.343  26.126  1.00  0.00     0.251 C 
ATOM     27  H   UNL A   1      39.497  18.335  25.904  1.00  0.00     0.163 HD
ATOM     28  O   UNL A   1      41.924  18.343  26.054  1.00  0.00    -0.269 OA
BRANCH  26  29
ATOM     29  C   UNL A   1      41.820  20.659  26.407  1.00  0.00     0.039 A 
ATOM     30  C   UNL A   1      42.208  21.468  25.337  1.00  0.00     0.014 A 
ATOM     31  C   UNL A   1      41.998  21.095  27.723  1.00  0.00     0.014 A 
ATOM     32  C   UNL A   1      42.723  22.741  25.587  1.00  0.00     0.010 A 
ATOM     33  C   UNL A   1      42.433  22.393  27.968  1.00  0.00     0.010 A 
ATOM     34  C   UNL A   1      42.807  23.228  26.903  1.00  0.00    -0.014 A 
BRANCH  34  35
ATOM     35  C   UNL A   1      43.286  24.605  27.183  1.00  0.00     0.031 A 
ATOM     36  C   UNL A   1      42.340  25.635  27.734  1.00  0.00     0.074 A 
ATOM     37  C   UNL A   1      44.555  24.942  26.888  1.00  0.00     0.049 A 
ATOM     38  N   UNL A   1      42.554  26.901  27.995  1.00  0.00    -0.248 NA
ATOM     39  C   UNL A   1      40.963  25.193  28.002  1.00  0.00     0.031 C 
ATOM     40  C   UNL A   1      45.553  24.043  26.307  1.00  0.00     0.029 A 
ATOM     41  N   UNL A   1      45.222  26.133  27.027  1.00  0.00    -0.354 N 
ATOM     42  C   UNL A   1      41.340  27.404  28.445  1.00  0.00     0.074 A 
ATOM     43  C   UNL A   1      40.380  26.325  28.362  1.00  0.00     0.031 C 
ATOM     44  C   UNL A   1      46.713  24.706  26.166  1.00  0.00     0.029 A 
ATOM     45  C   UNL A   1      46.528  26.086  26.604  1.00  0.00     0.049 A 
ATOM     46  H   UNL A   1      44.803  26.944  27.395  1.00  0.00     0.167 HD
ATOM     47  C   UNL A   1      41.059  28.645  28.908  1.00  0.00     0.037 A 
ATOM     48  C   UNL A   1      47.467  27.050  26.569  1.00  0.00     0.037 A 
ATOM     49  C   UNL A   1      42.024  29.710  29.001  1.00  0.00     0.049 A 
ATOM     50  C   UNL A   1      47.124  28.427  27.066  1.00  0.00     0.074 A 
ATOM     51  C   UNL A   1      41.856  30.985  29.510  1.00  0.00     0.029 A 
ATOM     52  N   UNL A   1      43.339  29.624  28.565  1.00  0.00    -0.354 N 
ATOM     53  N   UNL A   1      45.993  28.873  27.559  1.00  0.00    -0.248 NA
ATOM     54  C   UNL A   1      48.191  29.436  27.008  1.00  0.00     0.031 C 
ATOM     55  C   UNL A   1      43.049  31.691  29.325  1.00  0.00     0.029 A 
ATOM     56  C   UNL A   1      43.984  30.836  28.763  1.00  0.00     0.049 A 
ATOM     57  H   UNL A   1      43.753  28.821  28.172  1.00  0.00     0.167 HD
ATOM     58  C   UNL A   1      46.220  30.200  27.896  1.00  0.00     0.074 A 
ATOM     59  C   UNL A   1      47.601  30.484  27.567  1.00  0.00     0.031 C 
ATOM     60  C   UNL A   1      45.361  31.103  28.432  1.00  0.00     0.037 A 
BRANCH  47  61
ATOM     61  C   UNL A   1      39.647  28.919  29.344  1.00  0.00     0.064 A 
ATOM     62  C   UNL A   1      38.684  29.422  28.454  1.00  0.00     0.173 A 
ATOM     63  C   UNL A   1      39.244  28.655  30.662  1.00  0.00     0.173 A 
ATOM     64  F   UNL A   1      39.016  29.702  27.186  1.00  0.00    -0.203 F 
ATOM     65  C   UNL A   1      37.383  29.686  28.878  1.00  0.00     0.198 A 
ATOM     66  C   UNL A   1      37.934  28.887  31.072  1.00  0.00     0.198 A 
ATOM     67  F   UNL A   1      40.120  28.168  31.553  1.00  0.00    -0.203 F 
ATOM     68  F   UNL A   1      36.500  30.224  28.027  1.00  0.00    -0.200 F 
ATOM     69  C   UNL A   1      37.008  29.412  30.184  1.00  0.00     0.200 A 
ATOM     70  F   UNL A   1      37.569  28.605  32.331  1.00  0.00    -0.200 F 
ATOM     71  F   UNL A   1      35.755  29.662  30.590  1.00  0.00    -0.200 F 
ENDBRANCH  47  61
BRANCH  48  72
ATOM     72  C   UNL A   1      48.830  26.736  26.064  1.00  0.00     0.064 A 
ATOM     73  C   UNL A   1      49.187  27.011  24.735  1.00  0.00     0.173 A 
ATOM     74  C   UNL A   1      49.803  26.158  26.893  1.00  0.00     0.173 A 
ATOM     75  F   UNL A   1      48.286  27.545  23.898  1.00  0.00    -0.203 F 
ATOM     76  C   UNL A   1      50.457  26.703  24.252  1.00  0.00     0.198 A 
ATOM     77  C   UNL A   1      51.082  25.879  26.417  1.00  0.00     0.198 A 
ATOM     78  F   UNL A   1      49.516  25.881  28.173  1.00  0.00    -0.203 F 
ATOM     79  F   UNL A   1      50.754  26.933  22.967  1.00  0.00    -0.200 F 
ATOM     80  C   UNL A   1      51.405  26.143  25.095  1.00  0.00     0.200 A 
ATOM     81  F   UNL A   1      52.000  25.354  27.239  1.00  0.00    -0.200 F 
ATOM     82  F   UNL A   1      52.628  25.853  24.631  1.00  0.00    -0.200 F 
ENDBRANCH  48  72
BRANCH  60  83
ATOM     83  C   UNL A   1      45.899  32.474  28.728  1.00  0.00     0.064 A 
ATOM     84  C   UNL A   1      46.528  32.776  29.944  1.00  0.00     0.173 A 
ATOM     85  C   UNL A   1      45.818  33.491  27.762  1.00  0.00     0.173 A 
ATOM     86  F   UNL A   1      46.619  31.846  30.907  1.00  0.00    -0.203 F 
ATOM     87  C   UNL A   1      47.029  34.052  30.195  1.00  0.00     0.198 A 
ATOM     88  C   UNL A   1      46.351  34.754  28.003  1.00  0.00     0.198 A 
ATOM     89  F   UNL A   1      45.233  33.254  26.578  1.00  0.00    -0.203 F 
ATOM     90  F   UNL A   1      47.577  34.331  31.386  1.00  0.00    -0.200 F 
ATOM     91  C   UNL A   1      46.948  35.036  29.221  1.00  0.00     0.200 A 
ATOM     92  F   UNL A   1      46.288  35.698  27.054  1.00  0.00    -0.200 F 
ATOM     93  F   UNL A   1      47.439  36.259  29.461  1.00  0.00    -0.200 F 
ENDBRANCH  60  83
ENDBRANCH  34  35
ENDBRANCH  26  29
ENDBRANCH  24  25
ENDBRANCH  23  24
ENDBRANCH  22  23
ENDBRANCH   1  22
TORSDOF 15
ENDMDL
