MODEL 1
REMARK VINA RESULT:     -11.2      0.000      0.000
REMARK SMILES O=C(NCCCCCCNC(=O)c1cncc(OCCCc2ccccc2)n1)c1ccc(-c2c3nc(c(-c4c(F)c(F)c(F)c(F)c4F)c4ccc([nH]4)c(-c4c(F)c(F)c(F)c(F)c4F)c4nc(c(-c5c(F)c(F)c(F)c(F)c5F)c5ccc2[nH]5)C=C4)C=C3)cc1
REMARK SMILES IDX 8 1 7 2 6 3 5 4 4 5 3 6 1 7 2 8 29 10 30 11 91 12 31 13
REMARK SMILES IDX 90 14 32 15 33 16 34 17 84 18 35 19 89 20 83 21 85 22 36 23
REMARK SMILES IDX 88 24 82 25 81 26 37 28 69 29 49 30 68 31 50 32 53 33 67 34
REMARK SMILES IDX 86 35 51 36 52 37 66 39 87 40 54 41 38 42 39 43 47 44 40 45
REMARK SMILES IDX 41 46 45 47 48 48 42 49 43 50 46 51 44 52 70 53 71 54 79 55
REMARK SMILES IDX 72 56 73 57 77 58 80 59 74 60 75 61 78 62 76 63 55 64 56 65
REMARK SMILES IDX 64 66 57 67 58 68 62 69 65 70 59 71 60 72 63 73 61 74 9 75
REMARK SMILES IDX 10 76 11 77 12 79 13 80 14 81 28 82 15 83 17 84 16 85 18 86
REMARK SMILES IDX 19 87 20 88 21 89 22 90 23 91 27 92 24 93 26 94 25 95
REMARK H PARENT 3 9 85 27 53 38 10 78
REMARK Flexibility Score: inf
ROOT
ATOM      1  C   UNL A   1      31.953  28.976  27.260  1.00  0.00     0.021 C 
ENDROOT
BRANCH   1   2
ATOM      2  C   UNL A   1      32.441  30.306  26.676  1.00  0.00     0.002 C 
BRANCH   2   3
ATOM      3  C   UNL A   1      31.376  31.197  26.028  1.00  0.00     0.002 C 
BRANCH   3   4
ATOM      4  C   UNL A   1      31.340  32.651  26.502  1.00  0.00     0.021 C 
BRANCH   4   5
ATOM      5  C   UNL A   1      32.573  33.117  27.270  1.00  0.00     0.116 C 
BRANCH   5   6
ATOM      6  N   UNL A   1      32.438  34.478  27.757  1.00  0.00    -0.352 N 
ATOM      7  O   UNL A   1      32.705  36.211  29.172  1.00  0.00    -0.269 OA
ATOM      8  C   UNL A   1      33.082  35.105  28.795  1.00  0.00     0.251 C 
ATOM      9  H   UNL A   1      31.787  35.035  27.271  1.00  0.00     0.163 HD
BRANCH   8  10
ATOM     10  C   UNL A   1      34.218  34.449  29.481  1.00  0.00     0.039 A 
ATOM     11  C   UNL A   1      34.028  33.672  30.627  1.00  0.00     0.014 A 
ATOM     12  C   UNL A   1      35.496  34.581  28.930  1.00  0.00     0.014 A 
ATOM     13  C   UNL A   1      35.126  33.115  31.282  1.00  0.00     0.010 A 
ATOM     14  C   UNL A   1      36.588  33.972  29.552  1.00  0.00     0.010 A 
ATOM     15  C   UNL A   1      36.414  33.252  30.745  1.00  0.00    -0.014 A 
BRANCH  15  16
ATOM     16  C   UNL A   1      37.578  32.604  31.400  1.00  0.00     0.031 A 
ATOM     17  C   UNL A   1      38.270  31.441  30.752  1.00  0.00     0.074 A 
ATOM     18  C   UNL A   1      37.978  33.039  32.609  1.00  0.00     0.049 A 
ATOM     19  N   UNL A   1      39.233  30.685  31.218  1.00  0.00    -0.248 NA
ATOM     20  C   UNL A   1      37.813  31.070  29.405  1.00  0.00     0.031 C 
ATOM     21  C   UNL A   1      37.378  34.154  33.341  1.00  0.00     0.029 A 
ATOM     22  N   UNL A   1      38.968  32.583  33.443  1.00  0.00    -0.354 N 
ATOM     23  C   UNL A   1      39.480  29.737  30.235  1.00  0.00     0.074 A 
ATOM     24  C   UNL A   1      38.553  29.999  29.155  1.00  0.00     0.031 C 
ATOM     25  C   UNL A   1      38.008  34.296  34.517  1.00  0.00     0.029 A 
ATOM     26  C   UNL A   1      39.019  33.250  34.642  1.00  0.00     0.049 A 
ATOM     27  H   UNL A   1      39.582  31.852  33.204  1.00  0.00     0.167 HD
ATOM     28  C   UNL A   1      40.399  28.741  30.238  1.00  0.00     0.037 A 
ATOM     29  C   UNL A   1      39.769  33.022  35.736  1.00  0.00     0.037 A 
ATOM     30  C   UNL A   1      41.326  28.494  31.313  1.00  0.00     0.049 A 
ATOM     31  C   UNL A   1      40.761  31.896  35.730  1.00  0.00     0.074 A 
ATOM     32  C   UNL A   1      42.329  27.543  31.387  1.00  0.00     0.029 A 
ATOM     33  N   UNL A   1      41.352  29.197  32.509  1.00  0.00    -0.354 N 
ATOM     34  N   UNL A   1      41.018  31.031  34.778  1.00  0.00    -0.248 NA
ATOM     35  C   UNL A   1      41.568  31.712  36.943  1.00  0.00     0.031 C 
ATOM     36  C   UNL A   1      42.932  27.639  32.646  1.00  0.00     0.029 A 
ATOM     37  C   UNL A   1      42.337  28.683  33.339  1.00  0.00     0.049 A 
ATOM     38  H   UNL A   1      40.759  29.949  32.736  1.00  0.00     0.167 HD
ATOM     39  C   UNL A   1      42.029  30.216  35.267  1.00  0.00     0.074 A 
ATOM     40  C   UNL A   1      42.342  30.691  36.600  1.00  0.00     0.031 C 
ATOM     41  C   UNL A   1      42.643  29.171  34.661  1.00  0.00     0.037 A 
BRANCH  28  42
ATOM     42  C   UNL A   1      40.428  27.823  29.050  1.00  0.00     0.064 A 
ATOM     43  C   UNL A   1      41.217  28.095  27.924  1.00  0.00     0.173 A 
ATOM     44  C   UNL A   1      39.671  26.642  29.049  1.00  0.00     0.173 A 
ATOM     45  F   UNL A   1      41.952  29.217  27.869  1.00  0.00    -0.203 F 
ATOM     46  C   UNL A   1      41.220  27.238  26.825  1.00  0.00     0.198 A 
ATOM     47  C   UNL A   1      39.697  25.772  27.962  1.00  0.00     0.198 A 
ATOM     48  F   UNL A   1      38.904  26.328  30.105  1.00  0.00    -0.203 F 
ATOM     49  F   UNL A   1      41.941  27.546  25.738  1.00  0.00    -0.200 F 
ATOM     50  C   UNL A   1      40.464  26.075  26.848  1.00  0.00     0.200 A 
ATOM     51  F   UNL A   1      38.975  24.643  27.990  1.00  0.00    -0.200 F 
ATOM     52  F   UNL A   1      40.467  25.252  25.790  1.00  0.00    -0.200 F 
ENDBRANCH  28  42
BRANCH  29  53
ATOM     53  C   UNL A   1      39.587  33.889  36.927  1.00  0.00     0.064 A 
ATOM     54  C   UNL A   1      38.728  33.513  37.968  1.00  0.00     0.173 A 
ATOM     55  C   UNL A   1      40.315  35.079  37.075  1.00  0.00     0.173 A 
ATOM     56  F   UNL A   1      38.000  32.391  37.863  1.00  0.00    -0.203 F 
ATOM     57  C   UNL A   1      38.606  34.295  39.114  1.00  0.00     0.198 A 
ATOM     58  C   UNL A   1      40.211  35.847  38.231  1.00  0.00     0.198 A 
ATOM     59  F   UNL A   1      41.155  35.476  36.107  1.00  0.00    -0.203 F 
ATOM     60  F   UNL A   1      37.765  33.924  40.088  1.00  0.00    -0.200 F 
ATOM     61  C   UNL A   1      39.355  35.455  39.250  1.00  0.00     0.200 A 
ATOM     62  F   UNL A   1      40.949  36.957  38.365  1.00  0.00    -0.200 F 
ATOM     63  F   UNL A   1      39.253  36.195  40.362  1.00  0.00    -0.200 F 
ENDBRANCH  29  53
BRANCH  41  64
ATOM     64  C   UNL A   1      43.745  28.485  35.412  1.00  0.00     0.064 A 
ATOM     65  C   UNL A   1      43.484  27.438  36.306  1.00  0.00     0.173 A 
ATOM     66  C   UNL A   1      45.083  28.838  35.180  1.00  0.00     0.173 A 
ATOM     67  F   UNL A   1      42.220  27.077  36.573  1.00  0.00    -0.203 F 
ATOM     68  C   UNL A   1      44.526  26.772  36.948  1.00  0.00     0.198 A 
ATOM     69  C   UNL A   1      46.122  28.153  35.804  1.00  0.00     0.198 A 
ATOM     70  F   UNL A   1      45.383  29.831  34.330  1.00  0.00    -0.203 F 
ATOM     71  F   UNL A   1      44.254  25.790  37.820  1.00  0.00    -0.200 F 
ATOM     72  C   UNL A   1      45.842  27.122  36.689  1.00  0.00     0.200 A 
ATOM     73  F   UNL A   1      47.394  28.487  35.544  1.00  0.00    -0.200 F 
ATOM     74  F   UNL A   1      46.843  26.470  37.296  1.00  0.00    -0.200 F 
ENDBRANCH  41  64
ENDBRANCH  15  16
ENDBRANCH   8  10
ENDBRANCH   5   6
ENDBRANCH   4   5
ENDBRANCH   3   4
ENDBRANCH   2   3
ENDBRANCH   1   2
BRANCH   1  75
ATOM     75  C   UNL A   1      31.516  27.914  26.253  1.00  0.00     0.116 C 
BRANCH  75  76
ATOM     76  N   UNL A   1      32.566  27.536  25.327  1.00  0.00    -0.351 N 
ATOM     77  C   UNL A   1      32.885  26.286  24.854  1.00  0.00     0.271 C 
ATOM     78  H   UNL A   1      33.126  28.275  24.994  1.00  0.00     0.163 HD
ATOM     79  O   UNL A   1      33.781  26.155  24.023  1.00  0.00    -0.267 OA
BRANCH  77  80
ATOM     80  C   UNL A   1      32.170  25.099  25.364  1.00  0.00     0.150 A 
ATOM     81  C   UNL A   1      31.075  24.593  24.683  1.00  0.00     0.145 A 
ATOM     82  N   UNL A   1      32.665  24.534  26.494  1.00  0.00    -0.205 NA
ATOM     83  N   UNL A   1      30.413  23.491  25.112  1.00  0.00    -0.257 NA
ATOM     84  C   UNL A   1      32.035  23.418  26.902  1.00  0.00     0.233 A 
ATOM     85  C   UNL A   1      30.934  22.906  26.225  1.00  0.00     0.179 A 
BRANCH  84  86
ATOM     86  O   UNL A   1      32.528  22.708  27.970  1.00  0.00    -0.477 OA
BRANCH  86  87
ATOM     87  C   UNL A   1      33.866  22.218  27.801  1.00  0.00     0.232 C 
BRANCH  87  88
ATOM     88  C   UNL A   1      33.955  21.073  26.784  1.00  0.00     0.046 C 
BRANCH  88  89
ATOM     89  C   UNL A   1      34.803  21.358  25.535  1.00  0.00     0.039 C 
BRANCH  89  90
ATOM     90  C   UNL A   1      34.010  21.726  24.302  1.00  0.00    -0.048 A 
ATOM     91  C   UNL A   1      32.896  20.965  23.923  1.00  0.00     0.004 A 
ATOM     92  C   UNL A   1      34.373  22.821  23.509  1.00  0.00     0.004 A 
ATOM     93  C   UNL A   1      32.156  21.290  22.786  1.00  0.00     0.000 A 
ATOM     94  C   UNL A   1      33.636  23.143  22.367  1.00  0.00     0.000 A 
ATOM     95  C   UNL A   1      32.528  22.380  22.007  1.00  0.00     0.000 A 
ENDBRANCH  89  90
ENDBRANCH  88  89
ENDBRANCH  87  88
ENDBRANCH  86  87
ENDBRANCH  84  86
ENDBRANCH  77  80
ENDBRANCH  75  76
ENDBRANCH   1  75
TORSDOF 18
ENDMDL
MODEL 2
REMARK VINA RESULT:     -11.1      1.241      2.018
REMARK SMILES O=C(NCCCCCCNC(=O)c1cncc(OCCCc2ccccc2)n1)c1ccc(-c2c3nc(c(-c4c(F)c(F)c(F)c(F)c4F)c4ccc([nH]4)c(-c4c(F)c(F)c(F)c(F)c4F)c4nc(c(-c5c(F)c(F)c(F)c(F)c5F)c5ccc2[nH]5)C=C4)C=C3)cc1
REMARK SMILES IDX 8 1 7 2 6 3 5 4 4 5 3 6 1 7 2 8 29 10 30 11 91 12 31 13
REMARK SMILES IDX 90 14 32 15 33 16 34 17 84 18 35 19 89 20 83 21 85 22 36 23
REMARK SMILES IDX 88 24 82 25 81 26 37 28 69 29 49 30 68 31 50 32 53 33 67 34
REMARK SMILES IDX 86 35 51 36 52 37 66 39 87 40 54 41 38 42 39 43 47 44 40 45
REMARK SMILES IDX 41 46 45 47 48 48 42 49 43 50 46 51 44 52 70 53 71 54 79 55
REMARK SMILES IDX 72 56 73 57 77 58 80 59 74 60 75 61 78 62 76 63 55 64 56 65
REMARK SMILES IDX 64 66 57 67 58 68 62 69 65 70 59 71 60 72 63 73 61 74 9 75
REMARK SMILES IDX 10 76 11 77 12 79 13 80 14 81 28 82 15 83 17 84 16 85 18 86
REMARK SMILES IDX 19 87 20 88 21 89 22 90 23 91 27 92 24 93 26 94 25 95
REMARK H PARENT 3 9 85 27 53 38 10 78
REMARK Flexibility Score: inf
ROOT
ATOM      1  C   UNL A   1      31.992  28.573  27.268  1.00  0.00     0.021 C 
ENDROOT
BRANCH   1   2
ATOM      2  C   UNL A   1      32.450  29.995  26.924  1.00  0.00     0.002 C 
BRANCH   2   3
ATOM      3  C   UNL A   1      31.442  30.873  26.175  1.00  0.00     0.002 C 
BRANCH   3   4
ATOM      4  C   UNL A   1      31.325  32.319  26.659  1.00  0.00     0.021 C 
BRANCH   4   5
ATOM      5  C   UNL A   1      32.633  32.968  27.099  1.00  0.00     0.116 C 
BRANCH   5   6
ATOM      6  N   UNL A   1      32.436  34.305  27.627  1.00  0.00    -0.352 N 
ATOM      7  O   UNL A   1      32.608  35.999  29.103  1.00  0.00    -0.269 OA
ATOM      8  C   UNL A   1      33.034  34.922  28.697  1.00  0.00     0.251 C 
ATOM      9  H   UNL A   1      31.773  34.853  27.147  1.00  0.00     0.163 HD
BRANCH   8  10
ATOM     10  C   UNL A   1      34.183  34.288  29.385  1.00  0.00     0.039 A 
ATOM     11  C   UNL A   1      33.997  33.404  30.451  1.00  0.00     0.014 A 
ATOM     12  C   UNL A   1      35.472  34.553  28.913  1.00  0.00     0.014 A 
ATOM     13  C   UNL A   1      35.101  32.868  31.113  1.00  0.00     0.010 A 
ATOM     14  C   UNL A   1      36.575  33.968  29.538  1.00  0.00     0.010 A 
ATOM     15  C   UNL A   1      36.399  33.138  30.657  1.00  0.00    -0.014 A 
BRANCH  15  16
ATOM     16  C   UNL A   1      37.576  32.517  31.315  1.00  0.00     0.031 A 
ATOM     17  C   UNL A   1      38.293  31.366  30.671  1.00  0.00     0.074 A 
ATOM     18  C   UNL A   1      37.965  32.963  32.523  1.00  0.00     0.049 A 
ATOM     19  N   UNL A   1      39.271  30.632  31.140  1.00  0.00    -0.248 NA
ATOM     20  C   UNL A   1      37.846  30.983  29.324  1.00  0.00     0.031 C 
ATOM     21  C   UNL A   1      37.341  34.066  33.252  1.00  0.00     0.029 A 
ATOM     22  N   UNL A   1      38.963  32.530  33.360  1.00  0.00    -0.354 N 
ATOM     23  C   UNL A   1      39.539  29.687  30.160  1.00  0.00     0.074 A 
ATOM     24  C   UNL A   1      38.608  29.926  29.077  1.00  0.00     0.031 C 
ATOM     25  C   UNL A   1      37.966  34.225  34.428  1.00  0.00     0.029 A 
ATOM     26  C   UNL A   1      38.998  33.200  34.557  1.00  0.00     0.049 A 
ATOM     27  H   UNL A   1      39.592  31.811  33.123  1.00  0.00     0.167 HD
ATOM     28  C   UNL A   1      40.479  28.710  30.166  1.00  0.00     0.037 A 
ATOM     29  C   UNL A   1      39.752  32.991  35.653  1.00  0.00     0.037 A 
ATOM     30  C   UNL A   1      41.409  28.486  31.243  1.00  0.00     0.049 A 
ATOM     31  C   UNL A   1      40.767  31.887  35.650  1.00  0.00     0.074 A 
ATOM     32  C   UNL A   1      42.432  27.557  31.321  1.00  0.00     0.029 A 
ATOM     33  N   UNL A   1      41.419  29.192  32.438  1.00  0.00    -0.354 N 
ATOM     34  N   UNL A   1      41.044  31.025  34.702  1.00  0.00    -0.248 NA
ATOM     35  C   UNL A   1      41.576  31.723  36.865  1.00  0.00     0.031 C 
ATOM     36  C   UNL A   1      43.031  27.669  32.581  1.00  0.00     0.029 A 
ATOM     37  C   UNL A   1      42.413  28.701  33.269  1.00  0.00     0.049 A 
ATOM     38  H   UNL A   1      40.810  29.932  32.662  1.00  0.00     0.167 HD
ATOM     39  C   UNL A   1      42.071  30.232  35.194  1.00  0.00     0.074 A 
ATOM     40  C   UNL A   1      42.371  30.717  36.525  1.00  0.00     0.031 C 
ATOM     41  C   UNL A   1      42.707  29.199  34.591  1.00  0.00     0.037 A 
BRANCH  28  42
ATOM     42  C   UNL A   1      40.529  27.790  28.981  1.00  0.00     0.064 A 
ATOM     43  C   UNL A   1      39.737  26.636  28.906  1.00  0.00     0.173 A 
ATOM     44  C   UNL A   1      41.368  28.081  27.894  1.00  0.00     0.173 A 
ATOM     45  F   UNL A   1      38.926  26.306  29.923  1.00  0.00    -0.203 F 
ATOM     46  C   UNL A   1      39.808  25.787  27.804  1.00  0.00     0.198 A 
ATOM     47  C   UNL A   1      41.416  27.246  26.781  1.00  0.00     0.198 A 
ATOM     48  F   UNL A   1      42.141  29.177  27.910  1.00  0.00    -0.203 F 
ATOM     49  F   UNL A   1      39.081  24.661  27.778  1.00  0.00    -0.200 F 
ATOM     50  C   UNL A   1      40.644  26.096  26.740  1.00  0.00     0.200 A 
ATOM     51  F   UNL A   1      42.216  27.552  25.749  1.00  0.00    -0.200 F 
ATOM     52  F   UNL A   1      40.712  25.277  25.680  1.00  0.00    -0.200 F 
ENDBRANCH  28  42
BRANCH  29  53
ATOM     53  C   UNL A   1      39.549  33.857  36.841  1.00  0.00     0.064 A 
ATOM     54  C   UNL A   1      38.723  33.452  37.896  1.00  0.00     0.173 A 
ATOM     55  C   UNL A   1      40.229  35.078  36.971  1.00  0.00     0.173 A 
ATOM     56  F   UNL A   1      38.042  32.300  37.808  1.00  0.00    -0.203 F 
ATOM     57  C   UNL A   1      38.584  34.235  39.040  1.00  0.00     0.198 A 
ATOM     58  C   UNL A   1      40.108  35.848  38.125  1.00  0.00     0.198 A 
ATOM     59  F   UNL A   1      41.037  35.504  35.989  1.00  0.00    -0.203 F 
ATOM     60  F   UNL A   1      37.773  33.835  40.028  1.00  0.00    -0.200 F 
ATOM     61  C   UNL A   1      39.284  35.427  39.158  1.00  0.00     0.200 A 
ATOM     62  F   UNL A   1      40.800  36.989  38.241  1.00  0.00    -0.200 F 
ATOM     63  F   UNL A   1      39.166  36.169  40.267  1.00  0.00    -0.200 F 
ENDBRANCH  29  53
BRANCH  41  64
ATOM     64  C   UNL A   1      43.823  28.539  35.346  1.00  0.00     0.064 A 
ATOM     65  C   UNL A   1      43.596  27.429  36.170  1.00  0.00     0.173 A 
ATOM     66  C   UNL A   1      45.144  28.983  35.184  1.00  0.00     0.173 A 
ATOM     67  F   UNL A   1      42.348  26.978  36.368  1.00  0.00    -0.203 F 
ATOM     68  C   UNL A   1      44.653  26.790  36.814  1.00  0.00     0.198 A 
ATOM     69  C   UNL A   1      46.200  28.327  35.810  1.00  0.00     0.198 A 
ATOM     70  F   UNL A   1      45.411  30.039  34.402  1.00  0.00    -0.203 F 
ATOM     71  F   UNL A   1      44.412  25.746  37.620  1.00  0.00    -0.200 F 
ATOM     72  C   UNL A   1      45.954  27.233  36.626  1.00  0.00     0.200 A 
ATOM     73  F   UNL A   1      47.458  28.750  35.618  1.00  0.00    -0.200 F 
ATOM     74  F   UNL A   1      46.971  26.607  37.233  1.00  0.00    -0.200 F 
ENDBRANCH  41  64
ENDBRANCH  15  16
ENDBRANCH   8  10
ENDBRANCH   5   6
ENDBRANCH   4   5
ENDBRANCH   3   4
ENDBRANCH   2   3
ENDBRANCH   1   2
BRANCH   1  75
ATOM     75  C   UNL A   1      32.084  27.543  26.144  1.00  0.00     0.116 C 
BRANCH  75  76
ATOM     76  N   UNL A   1      30.878  27.458  25.345  1.00  0.00    -0.351 N 
ATOM     77  C   UNL A   1      30.646  26.708  24.216  1.00  0.00     0.271 C 
ATOM     78  H   UNL A   1      30.124  28.013  25.651  1.00  0.00     0.163 HD
ATOM     79  O   UNL A   1      29.535  26.716  23.693  1.00  0.00    -0.267 OA
BRANCH  77  80
ATOM     80  C   UNL A   1      31.740  25.916  23.619  1.00  0.00     0.150 A 
ATOM     81  C   UNL A   1      32.589  26.484  22.683  1.00  0.00     0.145 A 
ATOM     82  N   UNL A   1      31.874  24.641  24.062  1.00  0.00    -0.205 NA
ATOM     83  N   UNL A   1      33.616  25.790  22.136  1.00  0.00    -0.257 NA
ATOM     84  C   UNL A   1      32.915  23.960  23.551  1.00  0.00     0.233 A 
ATOM     85  C   UNL A   1      33.770  24.523  22.610  1.00  0.00     0.179 A 
BRANCH  84  86
ATOM     86  O   UNL A   1      33.203  22.701  24.018  1.00  0.00    -0.477 OA
BRANCH  86  87
ATOM     87  C   UNL A   1      34.557  22.516  24.457  1.00  0.00     0.232 C 
BRANCH  87  88
ATOM     88  C   UNL A   1      34.714  21.332  25.419  1.00  0.00     0.046 C 
BRANCH  88  89
ATOM     89  C   UNL A   1      33.504  20.390  25.517  1.00  0.00     0.039 C 
BRANCH  89  90
ATOM     90  C   UNL A   1      33.555  19.197  24.591  1.00  0.00    -0.048 A 
ATOM     91  C   UNL A   1      32.527  18.974  23.666  1.00  0.00     0.004 A 
ATOM     92  C   UNL A   1      34.617  18.287  24.643  1.00  0.00     0.004 A 
ATOM     93  C   UNL A   1      32.557  17.875  22.807  1.00  0.00     0.000 A 
ATOM     94  C   UNL A   1      34.646  17.182  23.788  1.00  0.00     0.000 A 
ATOM     95  C   UNL A   1      33.618  16.978  22.869  1.00  0.00     0.000 A 
ENDBRANCH  89  90
ENDBRANCH  88  89
ENDBRANCH  87  88
ENDBRANCH  86  87
ENDBRANCH  84  86
ENDBRANCH  77  80
ENDBRANCH  75  76
ENDBRANCH   1  75
TORSDOF 18
ENDMDL
MODEL 3
REMARK VINA RESULT:     -11.0      3.579      8.768
REMARK SMILES O=C(NCCCCCCNC(=O)c1cncc(OCCCc2ccccc2)n1)c1ccc(-c2c3nc(c(-c4c(F)c(F)c(F)c(F)c4F)c4ccc([nH]4)c(-c4c(F)c(F)c(F)c(F)c4F)c4nc(c(-c5c(F)c(F)c(F)c(F)c5F)c5ccc2[nH]5)C=C4)C=C3)cc1
REMARK SMILES IDX 8 1 7 2 6 3 5 4 4 5 3 6 1 7 2 8 29 10 30 11 91 12 31 13
REMARK SMILES IDX 90 14 32 15 33 16 34 17 84 18 35 19 89 20 83 21 85 22 36 23
REMARK SMILES IDX 88 24 82 25 81 26 37 28 69 29 49 30 68 31 50 32 53 33 67 34
REMARK SMILES IDX 86 35 51 36 52 37 66 39 87 40 54 41 38 42 39 43 47 44 40 45
REMARK SMILES IDX 41 46 45 47 48 48 42 49 43 50 46 51 44 52 70 53 71 54 79 55
REMARK SMILES IDX 72 56 73 57 77 58 80 59 74 60 75 61 78 62 76 63 55 64 56 65
REMARK SMILES IDX 64 66 57 67 58 68 62 69 65 70 59 71 60 72 63 73 61 74 9 75
REMARK SMILES IDX 10 76 11 77 12 79 13 80 14 81 28 82 15 83 17 84 16 85 18 86
REMARK SMILES IDX 19 87 20 88 21 89 22 90 23 91 27 92 24 93 26 94 25 95
REMARK H PARENT 3 9 85 27 53 38 10 78
REMARK Flexibility Score: inf
ROOT
ATOM      1  C   UNL A   1      32.078  28.430  22.759  1.00  0.00     0.021 C 
ENDROOT
BRANCH   1   2
ATOM      2  C   UNL A   1      33.558  28.489  23.154  1.00  0.00     0.002 C 
BRANCH   2   3
ATOM      3  C   UNL A   1      33.862  28.911  24.595  1.00  0.00     0.002 C 
BRANCH   3   4
ATOM      4  C   UNL A   1      34.035  27.774  25.603  1.00  0.00     0.021 C 
BRANCH   4   5
ATOM      5  C   UNL A   1      33.643  28.110  27.038  1.00  0.00     0.116 C 
BRANCH   5   6
ATOM      6  N   UNL A   1      33.470  29.536  27.244  1.00  0.00    -0.352 N 
ATOM      7  O   UNL A   1      33.913  31.580  28.083  1.00  0.00    -0.269 OA
ATOM      8  C   UNL A   1      34.309  30.443  27.842  1.00  0.00     0.251 C 
ATOM      9  H   UNL A   1      32.625  29.910  26.904  1.00  0.00     0.163 HD
BRANCH   8  10
ATOM     10  C   UNL A   1      35.688  30.057  28.220  1.00  0.00     0.039 A 
ATOM     11  C   UNL A   1      36.750  30.166  27.317  1.00  0.00     0.014 A 
ATOM     12  C   UNL A   1      35.925  29.623  29.527  1.00  0.00     0.014 A 
ATOM     13  C   UNL A   1      38.025  29.742  27.686  1.00  0.00     0.010 A 
ATOM     14  C   UNL A   1      37.215  29.256  29.916  1.00  0.00     0.010 A 
ATOM     15  C   UNL A   1      38.271  29.291  28.991  1.00  0.00    -0.014 A 
BRANCH  15  16
ATOM     16  C   UNL A   1      39.641  28.902  29.411  1.00  0.00     0.031 A 
ATOM     17  C   UNL A   1      40.473  29.824  30.254  1.00  0.00     0.074 A 
ATOM     18  C   UNL A   1      40.151  27.733  28.984  1.00  0.00     0.049 A 
ATOM     19  N   UNL A   1      41.721  29.701  30.631  1.00  0.00    -0.248 NA
ATOM     20  C   UNL A   1      39.818  31.051  30.731  1.00  0.00     0.031 C 
ATOM     21  C   UNL A   1      39.443  26.760  28.154  1.00  0.00     0.029 A 
ATOM     22  N   UNL A   1      41.391  27.173  29.173  1.00  0.00    -0.354 N 
ATOM     23  C   UNL A   1      42.009  30.843  31.365  1.00  0.00     0.074 A 
ATOM     24  C   UNL A   1      40.812  31.657  31.365  1.00  0.00     0.031 C 
ATOM     25  C   UNL A   1      40.257  25.725  27.900  1.00  0.00     0.029 A 
ATOM     26  C   UNL A   1      41.559  25.986  28.505  1.00  0.00     0.049 A 
ATOM     27  H   UNL A   1      42.089  27.583  29.733  1.00  0.00     0.167 HD
ATOM     28  C   UNL A   1      43.168  31.178  31.983  1.00  0.00     0.037 A 
ATOM     29  C   UNL A   1      42.651  25.212  28.364  1.00  0.00     0.037 A 
ATOM     30  C   UNL A   1      44.352  30.357  31.987  1.00  0.00     0.049 A 
ATOM     31  C   UNL A   1      43.933  25.614  29.032  1.00  0.00     0.074 A 
ATOM     32  C   UNL A   1      45.558  30.583  32.627  1.00  0.00     0.029 A 
ATOM     33  N   UNL A   1      44.481  29.155  31.305  1.00  0.00    -0.354 N 
ATOM     34  N   UNL A   1      44.184  26.675  29.761  1.00  0.00    -0.248 NA
ATOM     35  C   UNL A   1      45.083  24.716  28.861  1.00  0.00     0.031 C 
ATOM     36  C   UNL A   1      46.433  29.543  32.295  1.00  0.00     0.029 A 
ATOM     37  C   UNL A   1      45.756  28.642  31.488  1.00  0.00     0.049 A 
ATOM     38  H   UNL A   1      43.773  28.729  30.771  1.00  0.00     0.167 HD
ATOM     39  C   UNL A   1      45.509  26.562  30.154  1.00  0.00     0.074 A 
ATOM     40  C   UNL A   1      46.011  25.328  29.586  1.00  0.00     0.031 C 
ATOM     41  C   UNL A   1      46.240  27.407  30.921  1.00  0.00     0.037 A 
BRANCH  28  42
ATOM     42  C   UNL A   1      43.222  32.504  32.683  1.00  0.00     0.064 A 
ATOM     43  C   UNL A   1      42.898  32.638  34.041  1.00  0.00     0.173 A 
ATOM     44  C   UNL A   1      43.623  33.656  31.989  1.00  0.00     0.173 A 
ATOM     45  F   UNL A   1      42.498  31.570  34.748  1.00  0.00    -0.203 F 
ATOM     46  C   UNL A   1      42.941  33.880  34.669  1.00  0.00     0.198 A 
ATOM     47  C   UNL A   1      43.692  34.892  32.627  1.00  0.00     0.198 A 
ATOM     48  F   UNL A   1      43.952  33.583  30.690  1.00  0.00    -0.203 F 
ATOM     49  F   UNL A   1      42.576  33.993  35.954  1.00  0.00    -0.200 F 
ATOM     50  C   UNL A   1      43.342  35.005  33.963  1.00  0.00     0.200 A 
ATOM     51  F   UNL A   1      44.091  35.976  31.945  1.00  0.00    -0.200 F 
ATOM     52  F   UNL A   1      43.381  36.200  34.570  1.00  0.00    -0.200 F 
ENDBRANCH  28  42
BRANCH  29  53
ATOM     53  C   UNL A   1      42.558  23.981  27.539  1.00  0.00     0.064 A 
ATOM     54  C   UNL A   1      42.937  23.986  26.191  1.00  0.00     0.173 A 
ATOM     55  C   UNL A   1      42.148  22.762  28.101  1.00  0.00     0.173 A 
ATOM     56  F   UNL A   1      43.321  25.131  25.608  1.00  0.00    -0.203 F 
ATOM     57  C   UNL A   1      42.911  22.816  25.435  1.00  0.00     0.198 A 
ATOM     58  C   UNL A   1      42.145  21.589  27.351  1.00  0.00     0.198 A 
ATOM     59  F   UNL A   1      41.782  22.708  29.391  1.00  0.00    -0.203 F 
ATOM     60  F   UNL A   1      43.261  22.849  24.142  1.00  0.00    -0.200 F 
ATOM     61  C   UNL A   1      42.525  21.618  26.018  1.00  0.00     0.200 A 
ATOM     62  F   UNL A   1      41.789  20.432  27.923  1.00  0.00    -0.200 F 
ATOM     63  F   UNL A   1      42.521  20.489  25.295  1.00  0.00    -0.200 F 
ENDBRANCH  29  53
BRANCH  41  64
ATOM     64  C   UNL A   1      47.655  27.013  31.229  1.00  0.00     0.064 A 
ATOM     65  C   UNL A   1      48.734  27.509  30.484  1.00  0.00     0.173 A 
ATOM     66  C   UNL A   1      47.934  26.185  32.326  1.00  0.00     0.173 A 
ATOM     67  F   UNL A   1      48.515  28.291  29.417  1.00  0.00    -0.203 F 
ATOM     68  C   UNL A   1      50.044  27.182  30.824  1.00  0.00     0.198 A 
ATOM     69  C   UNL A   1      49.246  25.880  32.677  1.00  0.00     0.198 A 
ATOM     70  F   UNL A   1      46.935  25.689  33.071  1.00  0.00    -0.203 F 
ATOM     71  F   UNL A   1      51.061  27.644  30.083  1.00  0.00    -0.200 F 
ATOM     72  C   UNL A   1      50.300  26.377  31.924  1.00  0.00     0.200 A 
ATOM     73  F   UNL A   1      49.491  25.111  33.747  1.00  0.00    -0.200 F 
ATOM     74  F   UNL A   1      51.562  26.077  32.258  1.00  0.00    -0.200 F 
ENDBRANCH  41  64
ENDBRANCH  15  16
ENDBRANCH   8  10
ENDBRANCH   5   6
ENDBRANCH   4   5
ENDBRANCH   3   4
ENDBRANCH   2   3
ENDBRANCH   1   2
BRANCH   1  75
ATOM     75  C   UNL A   1      31.070  28.724  23.868  1.00  0.00     0.116 C 
BRANCH  75  76
ATOM     76  N   UNL A   1      29.750  28.190  23.598  1.00  0.00    -0.351 N 
ATOM     77  C   UNL A   1      29.239  26.956  23.922  1.00  0.00     0.271 C 
ATOM     78  H   UNL A   1      29.137  28.792  23.117  1.00  0.00     0.163 HD
ATOM     79  O   UNL A   1      28.068  26.689  23.662  1.00  0.00    -0.267 OA
BRANCH  77  80
ATOM     80  C   UNL A   1      30.104  25.943  24.559  1.00  0.00     0.150 A 
ATOM     81  C   UNL A   1      30.300  25.949  25.931  1.00  0.00     0.145 A 
ATOM     82  N   UNL A   1      30.651  25.012  23.739  1.00  0.00    -0.205 NA
ATOM     83  N   UNL A   1      31.068  25.019  26.548  1.00  0.00    -0.257 NA
ATOM     84  C   UNL A   1      31.383  24.064  24.351  1.00  0.00     0.233 A 
ATOM     85  C   UNL A   1      31.586  24.066  25.726  1.00  0.00     0.179 A 
BRANCH  84  86
ATOM     86  O   UNL A   1      31.887  23.014  23.621  1.00  0.00    -0.477 OA
BRANCH  86  87
ATOM     87  C   UNL A   1      33.083  22.428  24.156  1.00  0.00     0.232 C 
BRANCH  87  88
ATOM     88  C   UNL A   1      34.359  23.014  23.538  1.00  0.00     0.046 C 
BRANCH  88  89
ATOM     89  C   UNL A   1      35.242  23.835  24.491  1.00  0.00     0.039 C 
BRANCH  89  90
ATOM     90  C   UNL A   1      36.483  23.122  24.977  1.00  0.00    -0.048 A 
ATOM     91  C   UNL A   1      37.422  23.794  25.770  1.00  0.00     0.004 A 
ATOM     92  C   UNL A   1      36.725  21.785  24.640  1.00  0.00     0.004 A 
ATOM     93  C   UNL A   1      38.573  23.150  26.223  1.00  0.00     0.000 A 
ATOM     94  C   UNL A   1      37.881  21.140  25.088  1.00  0.00     0.000 A 
ATOM     95  C   UNL A   1      38.804  21.822  25.880  1.00  0.00     0.000 A 
ENDBRANCH  89  90
ENDBRANCH  88  89
ENDBRANCH  87  88
ENDBRANCH  86  87
ENDBRANCH  84  86
ENDBRANCH  77  80
ENDBRANCH  75  76
ENDBRANCH   1  75
TORSDOF 18
ENDMDL
