MODEL 1
REMARK VINA RESULT:     -11.6      0.000      0.000
REMARK SMILES CC(C)c1ccc(OCC[C@H]2CCC[C@@]2([NH3+])C(=O)NCCCCCCNC(=O)c2ccc(-c3c4nc(c(-c5c(F)c(F)c(F)c(F)c5F)c5ccc([nH]5)c(-c5c(F)c(F)c(F)c(F)c5F)c5nc(c(-c6c(F)c(F)c(F)c(F)c6F)c6ccc3[nH]6)C=C5)C=C4)cc2)cc1
REMARK SMILES IDX 21 1 20 2 19 3 17 4 18 5 15 7 11 8 12 9 13 10 14 11 10 12
REMARK SMILES IDX 9 13 8 14 7 15 4 16 5 17 93 18 6 19 92 20 2 21 1 22 3 23
REMARK SMILES IDX 16 24 22 28 23 29 24 30 25 31 26 32 27 33 28 35 29 36 30 37
REMARK SMILES IDX 91 38 31 39 90 40 32 41 33 42 34 43 84 44 35 45 89 46 83 47
REMARK SMILES IDX 85 48 36 49 88 50 82 51 81 52 37 54 69 55 49 56 68 57 50 58
REMARK SMILES IDX 53 59 67 60 86 61 51 62 52 63 66 65 87 66 54 67 38 68 39 69
REMARK SMILES IDX 47 70 40 71 41 72 45 73 48 74 42 75 43 76 46 77 44 78 70 79
REMARK SMILES IDX 71 80 79 81 72 82 73 83 77 84 80 85 74 86 75 87 78 88 76 89
REMARK SMILES IDX 55 90 56 91 64 92 57 93 58 94 62 95 65 96 59 97 60 98 63 99
REMARK SMILES IDX 61 100
REMARK H PARENT 19 6 16 25 16 26 16 27 26 34 85 53 53 64
REMARK Flexibility Score: inf
ROOT
ATOM      1  C   UNL A   1      36.302  23.204  25.100  1.00  0.00     0.021 C 
ENDROOT
BRANCH   1   2
ATOM      2  C   UNL A   1      35.034  22.890  25.905  1.00  0.00     0.116 C 
BRANCH   2   3
ATOM      3  N   UNL A   1      33.937  22.497  25.042  1.00  0.00    -0.351 N 
ATOM      4  C   UNL A   1      32.667  22.993  24.944  1.00  0.00     0.281 C 
ATOM      5  O   UNL A   1      31.899  22.379  24.194  1.00  0.00    -0.268 OA
ATOM      6  H   UNL A   1      34.140  21.755  24.428  1.00  0.00     0.163 HD
BRANCH   4   7
ATOM      7  C   UNL A   1      32.176  24.213  25.775  1.00  0.00     0.176 C 
ATOM      8  C   UNL A   1      33.091  25.484  25.783  1.00  0.00     0.064 C 
ATOM      9  C   UNL A   1      32.136  26.481  26.435  1.00  0.00     0.011 C 
ATOM     10  C   UNL A   1      30.726  26.111  25.923  1.00  0.00     0.008 C 
ATOM     11  C   UNL A   1      30.879  24.776  25.196  1.00  0.00     0.079 C 
BRANCH   8  12
ATOM     12  C   UNL A   1      33.750  26.029  24.467  1.00  0.00     0.052 C 
BRANCH  12  13
ATOM     13  C   UNL A   1      33.745  27.535  24.074  1.00  0.00     0.230 C 
BRANCH  13  14
ATOM     14  O   UNL A   1      32.832  27.903  23.011  1.00  0.00    -0.494 OA
BRANCH  14  15
ATOM     15  C   UNL A   1      31.594  28.379  23.344  1.00  0.00     0.119 A 
ATOM     16  C   UNL A   1      29.227  29.864  23.110  1.00  0.00    -0.045 A 
ATOM     17  C   UNL A   1      29.333  28.597  22.523  1.00  0.00     0.008 A 
ATOM     18  C   UNL A   1      30.183  30.187  24.085  1.00  0.00     0.008 A 
ATOM     19  C   UNL A   1      30.518  27.861  22.630  1.00  0.00     0.047 A 
ATOM     20  C   UNL A   1      31.351  29.420  24.228  1.00  0.00     0.047 A 
BRANCH  16  21
ATOM     21  C   UNL A   1      28.198  30.903  22.662  1.00  0.00     0.013 C 
ATOM     22  C   UNL A   1      27.313  31.368  23.841  1.00  0.00     0.012 C 
ATOM     23  C   UNL A   1      28.806  32.177  22.052  1.00  0.00     0.012 C 
ENDBRANCH  16  21
ENDBRANCH  14  15
ENDBRANCH  13  14
ENDBRANCH  12  13
ENDBRANCH   8  12
BRANCH   7  24
ATOM     24  N   UNL A   1      31.881  23.849  27.197  1.00  0.00    -0.345 N 
ATOM     25  H   UNL A   1      32.642  24.169  27.796  1.00  0.00     0.345 HD
ATOM     26  H   UNL A   1      31.789  22.836  27.277  1.00  0.00     0.345 HD
ATOM     27  H   UNL A   1      31.010  24.293  27.488  1.00  0.00     0.345 HD
ENDBRANCH   7  24
ENDBRANCH   4   7
ENDBRANCH   2   3
ENDBRANCH   1   2
BRANCH   1  28
ATOM     28  C   UNL A   1      37.412  22.172  25.319  1.00  0.00     0.002 C 
BRANCH  28  29
ATOM     29  C   UNL A   1      37.191  20.859  24.561  1.00  0.00     0.002 C 
BRANCH  29  30
ATOM     30  C   UNL A   1      38.155  19.739  24.965  1.00  0.00     0.021 C 
BRANCH  30  31
ATOM     31  C   UNL A   1      39.270  20.222  25.882  1.00  0.00     0.116 C 
BRANCH  31  32
ATOM     32  N   UNL A   1      40.274  19.181  26.047  1.00  0.00    -0.352 N 
ATOM     33  C   UNL A   1      41.639  19.311  26.063  1.00  0.00     0.251 C 
ATOM     34  H   UNL A   1      39.929  18.266  26.162  1.00  0.00     0.163 HD
ATOM     35  O   UNL A   1      42.367  18.359  25.829  1.00  0.00    -0.269 OA
BRANCH  33  36
ATOM     36  C   UNL A   1      42.211  20.632  26.384  1.00  0.00     0.039 A 
ATOM     37  C   UNL A   1      42.619  21.475  25.350  1.00  0.00     0.014 A 
ATOM     38  C   UNL A   1      42.333  21.024  27.720  1.00  0.00     0.014 A 
ATOM     39  C   UNL A   1      43.108  22.743  25.659  1.00  0.00     0.010 A 
ATOM     40  C   UNL A   1      42.745  22.313  28.022  1.00  0.00     0.010 A 
ATOM     41  C   UNL A   1      43.144  23.181  26.994  1.00  0.00    -0.014 A 
BRANCH  41  42
ATOM     42  C   UNL A   1      43.596  24.546  27.348  1.00  0.00     0.031 A 
ATOM     43  C   UNL A   1      42.599  25.562  27.824  1.00  0.00     0.074 A 
ATOM     44  C   UNL A   1      44.884  24.886  27.155  1.00  0.00     0.049 A 
ATOM     45  N   UNL A   1      42.771  26.833  28.082  1.00  0.00    -0.248 NA
ATOM     46  C   UNL A   1      41.216  25.095  28.007  1.00  0.00     0.031 C 
ATOM     47  C   UNL A   1      45.929  23.991  26.654  1.00  0.00     0.029 A 
ATOM     48  N   UNL A   1      45.531  26.080  27.342  1.00  0.00    -0.354 N 
ATOM     49  C   UNL A   1      41.522  27.317  28.443  1.00  0.00     0.074 A 
ATOM     50  C   UNL A   1      40.588  26.219  28.318  1.00  0.00     0.031 C 
ATOM     51  C   UNL A   1      47.088  24.663  26.590  1.00  0.00     0.029 A 
ATOM     52  C   UNL A   1      46.860  26.046  26.999  1.00  0.00     0.049 A 
ATOM     53  H   UNL A   1      45.085  26.887  27.690  1.00  0.00     0.167 HD
ATOM     54  C   UNL A   1      41.191  28.560  28.863  1.00  0.00     0.037 A 
ATOM     55  C   UNL A   1      47.782  27.025  26.996  1.00  0.00     0.037 A 
ATOM     56  C   UNL A   1      42.133  29.638  29.002  1.00  0.00     0.049 A 
ATOM     57  C   UNL A   1      47.381  28.405  27.442  1.00  0.00     0.074 A 
ATOM     58  C   UNL A   1      41.914  30.918  29.479  1.00  0.00     0.029 A 
ATOM     59  N   UNL A   1      43.475  29.565  28.654  1.00  0.00    -0.354 N 
ATOM     60  N   UNL A   1      46.212  28.836  27.852  1.00  0.00    -0.248 NA
ATOM     61  C   UNL A   1      48.427  29.436  27.426  1.00  0.00     0.031 C 
ATOM     62  C   UNL A   1      43.108  31.637  29.363  1.00  0.00     0.029 A 
ATOM     63  C   UNL A   1      44.088  30.788  28.874  1.00  0.00     0.049 A 
ATOM     64  H   UNL A   1      43.924  28.762  28.303  1.00  0.00     0.167 HD
ATOM     65  C   UNL A   1      46.387  30.176  28.169  1.00  0.00     0.074 A 
ATOM     66  C   UNL A   1      47.781  30.483  27.919  1.00  0.00     0.031 C 
ATOM     67  C   UNL A   1      45.478  31.072  28.623  1.00  0.00     0.037 A 
BRANCH  54  68
ATOM     68  C   UNL A   1      39.750  28.822  29.200  1.00  0.00     0.064 A 
ATOM     69  C   UNL A   1      39.243  28.608  30.490  1.00  0.00     0.173 A 
ATOM     70  C   UNL A   1      38.875  29.331  28.228  1.00  0.00     0.173 A 
ATOM     71  F   UNL A   1      40.033  28.112  31.453  1.00  0.00    -0.203 F 
ATOM     72  C   UNL A   1      37.907  28.865  30.787  1.00  0.00     0.198 A 
ATOM     73  C   UNL A   1      37.549  29.618  28.538  1.00  0.00     0.198 A 
ATOM     74  F   UNL A   1      39.309  29.558  26.979  1.00  0.00    -0.203 F 
ATOM     75  F   UNL A   1      37.432  28.603  32.013  1.00  0.00    -0.200 F 
ATOM     76  C   UNL A   1      37.063  29.377  29.814  1.00  0.00     0.200 A 
ATOM     77  F   UNL A   1      36.739  30.127  27.599  1.00  0.00    -0.200 F 
ATOM     78  F   UNL A   1      35.780  29.634  30.104  1.00  0.00    -0.200 F 
ENDBRANCH  54  68
BRANCH  55  79
ATOM     79  C   UNL A   1      49.175  26.734  26.565  1.00  0.00     0.064 A 
ATOM     80  C   UNL A   1      49.568  26.912  25.231  1.00  0.00     0.173 A 
ATOM     81  C   UNL A   1      50.139  26.270  27.472  1.00  0.00     0.173 A 
ATOM     82  F   UNL A   1      48.677  27.335  24.322  1.00  0.00    -0.203 F 
ATOM     83  C   UNL A   1      50.863  26.612  24.816  1.00  0.00     0.198 A 
ATOM     84  C   UNL A   1      51.443  26.001  27.062  1.00  0.00     0.198 A 
ATOM     85  F   UNL A   1      49.818  26.089  28.761  1.00  0.00    -0.203 F 
ATOM     86  F   UNL A   1      51.197  26.742  23.525  1.00  0.00    -0.200 F 
ATOM     87  C   UNL A   1      51.802  26.163  25.732  1.00  0.00     0.200 A 
ATOM     88  F   UNL A   1      52.351  25.584  27.955  1.00  0.00    -0.200 F 
ATOM     89  F   UNL A   1      53.049  25.879  25.334  1.00  0.00    -0.200 F 
ENDBRANCH  55  79
BRANCH  67  90
ATOM     90  C   UNL A   1      45.965  32.463  28.909  1.00  0.00     0.064 A 
ATOM     91  C   UNL A   1      45.920  33.474  27.938  1.00  0.00     0.173 A 
ATOM     92  C   UNL A   1      46.435  32.800  30.189  1.00  0.00     0.173 A 
ATOM     93  F   UNL A   1      45.495  33.199  26.696  1.00  0.00    -0.203 F 
ATOM     94  C   UNL A   1      46.351  34.766  28.230  1.00  0.00     0.198 A 
ATOM     95  C   UNL A   1      46.833  34.101  30.487  1.00  0.00     0.198 A 
ATOM     96  F   UNL A   1      46.492  31.872  31.155  1.00  0.00    -0.203 F 
ATOM     97  F   UNL A   1      46.344  35.703  27.274  1.00  0.00    -0.200 F 
ATOM     98  C   UNL A   1      46.797  35.080  29.506  1.00  0.00     0.200 A 
ATOM     99  F   UNL A   1      47.246  34.406  31.724  1.00  0.00    -0.200 F 
ATOM    100  F   UNL A   1      47.198  36.327  29.788  1.00  0.00    -0.200 F 
ENDBRANCH  67  90
ENDBRANCH  41  42
ENDBRANCH  33  36
ENDBRANCH  31  32
ENDBRANCH  30  31
ENDBRANCH  29  30
ENDBRANCH  28  29
ENDBRANCH   1  28
TORSDOF 19
ENDMDL
MODEL 2
REMARK VINA RESULT:     -11.5      1.535      2.225
REMARK SMILES CC(C)c1ccc(OCC[C@H]2CCC[C@@]2([NH3+])C(=O)NCCCCCCNC(=O)c2ccc(-c3c4nc(c(-c5c(F)c(F)c(F)c(F)c5F)c5ccc([nH]5)c(-c5c(F)c(F)c(F)c(F)c5F)c5nc(c(-c6c(F)c(F)c(F)c(F)c6F)c6ccc3[nH]6)C=C5)C=C4)cc2)cc1
REMARK SMILES IDX 21 1 20 2 19 3 17 4 18 5 15 7 11 8 12 9 13 10 14 11 10 12
REMARK SMILES IDX 9 13 8 14 7 15 4 16 5 17 93 18 6 19 92 20 2 21 1 22 3 23
REMARK SMILES IDX 16 24 22 28 23 29 24 30 25 31 26 32 27 33 28 35 29 36 30 37
REMARK SMILES IDX 91 38 31 39 90 40 32 41 33 42 34 43 84 44 35 45 89 46 83 47
REMARK SMILES IDX 85 48 36 49 88 50 82 51 81 52 37 54 69 55 49 56 68 57 50 58
REMARK SMILES IDX 53 59 67 60 86 61 51 62 52 63 66 65 87 66 54 67 38 68 39 69
REMARK SMILES IDX 47 70 40 71 41 72 45 73 48 74 42 75 43 76 46 77 44 78 70 79
REMARK SMILES IDX 71 80 79 81 72 82 73 83 77 84 80 85 74 86 75 87 78 88 76 89
REMARK SMILES IDX 55 90 56 91 64 92 57 93 58 94 62 95 65 96 59 97 60 98 63 99
REMARK SMILES IDX 61 100
REMARK H PARENT 19 6 16 25 16 26 16 27 26 34 85 53 53 64
REMARK Flexibility Score: inf
ROOT
ATOM      1  C   UNL A   1      37.084  23.620  25.259  1.00  0.00     0.021 C 
ENDROOT
BRANCH   1   2
ATOM      2  C   UNL A   1      35.713  23.427  24.596  1.00  0.00     0.116 C 
BRANCH   2   3
ATOM      3  N   UNL A   1      34.653  24.039  25.372  1.00  0.00    -0.351 N 
ATOM      4  C   UNL A   1      33.396  23.586  25.664  1.00  0.00     0.281 C 
ATOM      5  O   UNL A   1      32.655  24.381  26.255  1.00  0.00    -0.268 OA
ATOM      6  H   UNL A   1      34.873  24.920  25.750  1.00  0.00     0.163 HD
BRANCH   4   7
ATOM      7  C   UNL A   1      32.884  22.185  25.222  1.00  0.00     0.176 C 
ATOM      8  C   UNL A   1      32.399  22.039  23.740  1.00  0.00     0.064 C 
ATOM      9  C   UNL A   1      32.276  20.519  23.661  1.00  0.00     0.011 C 
ATOM     10  C   UNL A   1      33.422  19.958  24.531  1.00  0.00     0.008 C 
ATOM     11  C   UNL A   1      34.012  21.156  25.275  1.00  0.00     0.079 C 
BRANCH   8  12
ATOM     12  C   UNL A   1      33.209  22.657  22.546  1.00  0.00     0.052 C 
BRANCH  12  13
ATOM     13  C   UNL A   1      32.945  24.086  21.989  1.00  0.00     0.230 C 
BRANCH  13  14
ATOM     14  O   UNL A   1      31.755  24.744  22.489  1.00  0.00    -0.494 OA
BRANCH  14  15
ATOM     15  C   UNL A   1      31.894  25.923  23.168  1.00  0.00     0.119 A 
ATOM     16  C   UNL A   1      32.568  27.653  25.270  1.00  0.00    -0.045 A 
ATOM     17  C   UNL A   1      33.517  27.310  24.299  1.00  0.00     0.008 A 
ATOM     18  C   UNL A   1      31.225  27.395  24.956  1.00  0.00     0.008 A 
ATOM     19  C   UNL A   1      33.184  26.438  23.256  1.00  0.00     0.047 A 
ATOM     20  C   UNL A   1      30.887  26.559  23.878  1.00  0.00     0.047 A 
BRANCH  16  21
ATOM     21  C   UNL A   1      32.950  28.185  26.652  1.00  0.00     0.013 C 
ATOM     22  C   UNL A   1      33.599  29.585  26.559  1.00  0.00     0.012 C 
ATOM     23  C   UNL A   1      31.770  28.322  27.628  1.00  0.00     0.012 C 
ENDBRANCH  16  21
ENDBRANCH  14  15
ENDBRANCH  13  14
ENDBRANCH  12  13
ENDBRANCH   8  12
BRANCH   7  24
ATOM     24  N   UNL A   1      31.799  21.670  26.115  1.00  0.00    -0.345 N 
ATOM     25  H   UNL A   1      30.924  21.618  25.593  1.00  0.00     0.345 HD
ATOM     26  H   UNL A   1      31.684  22.300  26.909  1.00  0.00     0.345 HD
ATOM     27  H   UNL A   1      32.049  20.740  26.453  1.00  0.00     0.345 HD
ENDBRANCH   7  24
ENDBRANCH   4   7
ENDBRANCH   2   3
ENDBRANCH   1   2
BRANCH   1  28
ATOM     28  C   UNL A   1      37.705  22.302  25.727  1.00  0.00     0.002 C 
BRANCH  28  29
ATOM     29  C   UNL A   1      37.482  21.137  24.757  1.00  0.00     0.002 C 
BRANCH  29  30
ATOM     30  C   UNL A   1      38.399  19.935  25.008  1.00  0.00     0.021 C 
BRANCH  30  31
ATOM     31  C   UNL A   1      39.395  20.179  26.133  1.00  0.00     0.116 C 
BRANCH  31  32
ATOM     32  N   UNL A   1      40.458  19.185  26.089  1.00  0.00    -0.352 N 
ATOM     33  C   UNL A   1      41.809  19.389  25.978  1.00  0.00     0.251 C 
ATOM     34  H   UNL A   1      40.169  18.245  26.147  1.00  0.00     0.163 HD
ATOM     35  O   UNL A   1      42.551  18.504  25.577  1.00  0.00    -0.269 OA
BRANCH  33  36
ATOM     36  C   UNL A   1      42.351  20.702  26.370  1.00  0.00     0.039 A 
ATOM     37  C   UNL A   1      42.754  21.602  25.382  1.00  0.00     0.014 A 
ATOM     38  C   UNL A   1      42.452  21.031  27.724  1.00  0.00     0.014 A 
ATOM     39  C   UNL A   1      43.214  22.863  25.758  1.00  0.00     0.010 A 
ATOM     40  C   UNL A   1      42.835  22.312  28.093  1.00  0.00     0.010 A 
ATOM     41  C   UNL A   1      43.227  23.236  27.113  1.00  0.00    -0.014 A 
BRANCH  41  42
ATOM     42  C   UNL A   1      43.649  24.591  27.538  1.00  0.00     0.031 A 
ATOM     43  C   UNL A   1      42.613  25.618  27.891  1.00  0.00     0.074 A 
ATOM     44  C   UNL A   1      44.956  24.912  27.520  1.00  0.00     0.049 A 
ATOM     45  N   UNL A   1      42.768  26.884  28.183  1.00  0.00    -0.248 NA
ATOM     46  C   UNL A   1      41.211  25.171  27.886  1.00  0.00     0.031 C 
ATOM     47  C   UNL A   1      46.044  24.006  27.150  1.00  0.00     0.029 A 
ATOM     48  N   UNL A   1      45.590  26.095  27.803  1.00  0.00    -0.354 N 
ATOM     49  C   UNL A   1      41.489  27.384  28.382  1.00  0.00     0.074 A 
ATOM     50  C   UNL A   1      40.564  26.302  28.123  1.00  0.00     0.031 C 
ATOM     51  C   UNL A   1      47.212  24.660  27.246  1.00  0.00     0.029 A 
ATOM     52  C   UNL A   1      46.951  26.042  27.636  1.00  0.00     0.049 A 
ATOM     53  H   UNL A   1      45.113  26.905  28.098  1.00  0.00     0.167 HD
ATOM     54  C   UNL A   1      41.123  28.628  28.768  1.00  0.00     0.037 A 
ATOM     55  C   UNL A   1      47.880  27.007  27.765  1.00  0.00     0.037 A 
ATOM     56  C   UNL A   1      42.054  29.691  29.041  1.00  0.00     0.049 A 
ATOM     57  C   UNL A   1      47.444  28.389  28.170  1.00  0.00     0.074 A 
ATOM     58  C   UNL A   1      41.793  30.969  29.499  1.00  0.00     0.029 A 
ATOM     59  N   UNL A   1      43.429  29.599  28.871  1.00  0.00    -0.354 N 
ATOM     60  N   UNL A   1      46.237  28.834  28.427  1.00  0.00    -0.248 NA
ATOM     61  C   UNL A   1      48.498  29.404  28.302  1.00  0.00     0.031 C 
ATOM     62  C   UNL A   1      43.002  31.671  29.549  1.00  0.00     0.029 A 
ATOM     63  C   UNL A   1      44.026  30.810  29.184  1.00  0.00     0.049 A 
ATOM     64  H   UNL A   1      43.909  28.793  28.574  1.00  0.00     0.167 HD
ATOM     65  C   UNL A   1      46.389  30.169  28.779  1.00  0.00     0.074 A 
ATOM     66  C   UNL A   1      47.808  30.457  28.717  1.00  0.00     0.031 C 
ATOM     67  C   UNL A   1      45.441  31.075  29.120  1.00  0.00     0.037 A 
BRANCH  54  68
ATOM     68  C   UNL A   1      39.655  28.910  28.916  1.00  0.00     0.064 A 
ATOM     69  C   UNL A   1      39.000  28.785  30.151  1.00  0.00     0.173 A 
ATOM     70  C   UNL A   1      38.902  29.347  27.816  1.00  0.00     0.173 A 
ATOM     71  F   UNL A   1      39.670  28.360  31.232  1.00  0.00    -0.203 F 
ATOM     72  C   UNL A   1      37.640  29.060  30.272  1.00  0.00     0.198 A 
ATOM     73  C   UNL A   1      37.550  29.653  27.949  1.00  0.00     0.198 A 
ATOM     74  F   UNL A   1      39.479  29.487  26.613  1.00  0.00    -0.203 F 
ATOM     75  F   UNL A   1      37.025  28.884  31.450  1.00  0.00    -0.200 F 
ATOM     76  C   UNL A   1      36.918  29.500  29.174  1.00  0.00     0.200 A 
ATOM     77  F   UNL A   1      36.858  30.093  26.889  1.00  0.00    -0.200 F 
ATOM     78  F   UNL A   1      35.611  29.774  29.294  1.00  0.00    -0.200 F 
ENDBRANCH  54  68
BRANCH  55  79
ATOM     79  C   UNL A   1      49.313  26.698  27.517  1.00  0.00     0.064 A 
ATOM     80  C   UNL A   1      49.822  26.644  26.212  1.00  0.00     0.173 A 
ATOM     81  C   UNL A   1      50.201  26.448  28.574  1.00  0.00     0.173 A 
ATOM     82  F   UNL A   1      49.009  26.857  25.167  1.00  0.00    -0.203 F 
ATOM     83  C   UNL A   1      51.157  26.325  25.973  1.00  0.00     0.198 A 
ATOM     84  C   UNL A   1      51.543  26.161  28.335  1.00  0.00     0.198 A 
ATOM     85  F   UNL A   1      49.767  26.494  29.842  1.00  0.00    -0.203 F 
ATOM     86  F   UNL A   1      51.606  26.230  24.714  1.00  0.00    -0.200 F 
ATOM     87  C   UNL A   1      52.018  26.091  27.034  1.00  0.00     0.200 A 
ATOM     88  F   UNL A   1      52.374  25.952  29.364  1.00  0.00    -0.200 F 
ATOM     89  F   UNL A   1      53.303  25.789  26.804  1.00  0.00    -0.200 F 
ENDBRANCH  55  79
BRANCH  67  90
ATOM     90  C   UNL A   1      45.906  32.456  29.482  1.00  0.00     0.064 A 
ATOM     91  C   UNL A   1      45.988  33.481  28.528  1.00  0.00     0.173 A 
ATOM     92  C   UNL A   1      46.225  32.769  30.813  1.00  0.00     0.173 A 
ATOM     93  F   UNL A   1      45.709  33.227  27.241  1.00  0.00    -0.203 F 
ATOM     94  C   UNL A   1      46.395  34.762  28.888  1.00  0.00     0.198 A 
ATOM     95  C   UNL A   1      46.599  34.060  31.176  1.00  0.00     0.198 A 
ATOM     96  F   UNL A   1      46.157  31.827  31.765  1.00  0.00    -0.203 F 
ATOM     97  F   UNL A   1      46.512  35.713  27.952  1.00  0.00    -0.200 F 
ATOM     98  C   UNL A   1      46.690  35.053  30.212  1.00  0.00     0.200 A 
ATOM     99  F   UNL A   1      46.867  34.344  32.457  1.00  0.00    -0.200 F 
ATOM    100  F   UNL A   1      47.069  36.292  30.558  1.00  0.00    -0.200 F 
ENDBRANCH  67  90
ENDBRANCH  41  42
ENDBRANCH  33  36
ENDBRANCH  31  32
ENDBRANCH  30  31
ENDBRANCH  29  30
ENDBRANCH  28  29
ENDBRANCH   1  28
TORSDOF 19
ENDMDL
MODEL 3
REMARK VINA RESULT:     -11.3      6.094     10.832
REMARK SMILES CC(C)c1ccc(OCC[C@H]2CCC[C@@]2([NH3+])C(=O)NCCCCCCNC(=O)c2ccc(-c3c4nc(c(-c5c(F)c(F)c(F)c(F)c5F)c5ccc([nH]5)c(-c5c(F)c(F)c(F)c(F)c5F)c5nc(c(-c6c(F)c(F)c(F)c(F)c6F)c6ccc3[nH]6)C=C5)C=C4)cc2)cc1
REMARK SMILES IDX 21 1 20 2 19 3 17 4 18 5 15 7 11 8 12 9 13 10 14 11 10 12
REMARK SMILES IDX 9 13 8 14 7 15 4 16 5 17 93 18 6 19 92 20 2 21 1 22 3 23
REMARK SMILES IDX 16 24 22 28 23 29 24 30 25 31 26 32 27 33 28 35 29 36 30 37
REMARK SMILES IDX 91 38 31 39 90 40 32 41 33 42 34 43 84 44 35 45 89 46 83 47
REMARK SMILES IDX 85 48 36 49 88 50 82 51 81 52 37 54 69 55 49 56 68 57 50 58
REMARK SMILES IDX 53 59 67 60 86 61 51 62 52 63 66 65 87 66 54 67 38 68 39 69
REMARK SMILES IDX 47 70 40 71 41 72 45 73 48 74 42 75 43 76 46 77 44 78 70 79
REMARK SMILES IDX 71 80 79 81 72 82 73 83 77 84 80 85 74 86 75 87 78 88 76 89
REMARK SMILES IDX 55 90 56 91 64 92 57 93 58 94 62 95 65 96 59 97 60 98 63 99
REMARK SMILES IDX 61 100
REMARK H PARENT 19 6 16 25 16 26 16 27 26 34 85 53 53 64
REMARK Flexibility Score: inf
ROOT
ATOM      1  C   UNL A   1      35.155  30.795  28.116  1.00  0.00     0.021 C 
ENDROOT
BRANCH   1   2
ATOM      2  C   UNL A   1      34.821  29.517  27.334  1.00  0.00     0.116 C 
BRANCH   2   3
ATOM      3  N   UNL A   1      33.518  28.994  27.696  1.00  0.00    -0.351 N 
ATOM      4  C   UNL A   1      32.507  28.516  26.910  1.00  0.00     0.281 C 
ATOM      5  O   UNL A   1      31.450  28.242  27.490  1.00  0.00    -0.268 OA
ATOM      6  H   UNL A   1      33.333  28.980  28.662  1.00  0.00     0.163 HD
BRANCH   4   7
ATOM      7  C   UNL A   1      32.634  28.385  25.365  1.00  0.00     0.176 C 
ATOM      8  C   UNL A   1      33.586  27.266  24.821  1.00  0.00     0.064 C 
ATOM      9  C   UNL A   1      33.198  27.298  23.344  1.00  0.00     0.011 C 
ATOM     10  C   UNL A   1      31.684  27.603  23.313  1.00  0.00     0.008 C 
ATOM     11  C   UNL A   1      31.300  27.978  24.744  1.00  0.00     0.079 C 
BRANCH   8  12
ATOM     12  C   UNL A   1      33.584  25.820  25.429  1.00  0.00     0.052 C 
BRANCH  12  13
ATOM     13  C   UNL A   1      34.747  24.807  25.217  1.00  0.00     0.230 C 
BRANCH  13  14
ATOM     14  O   UNL A   1      34.517  23.792  24.209  1.00  0.00    -0.494 OA
BRANCH  14  15
ATOM     15  C   UNL A   1      34.020  22.580  24.602  1.00  0.00     0.119 A 
ATOM     16  C   UNL A   1      33.417  19.845  24.461  1.00  0.00    -0.045 A 
ATOM     17  C   UNL A   1      34.645  20.277  24.979  1.00  0.00     0.008 A 
ATOM     18  C   UNL A   1      32.403  20.809  24.359  1.00  0.00     0.008 A 
ATOM     19  C   UNL A   1      34.950  21.641  25.038  1.00  0.00     0.047 A 
ATOM     20  C   UNL A   1      32.699  22.178  24.469  1.00  0.00     0.047 A 
BRANCH  16  21
ATOM     21  C   UNL A   1      33.194  18.428  23.928  1.00  0.00     0.013 C 
ATOM     22  C   UNL A   1      32.497  17.533  24.978  1.00  0.00     0.012 C 
ATOM     23  C   UNL A   1      32.328  18.356  22.659  1.00  0.00     0.012 C 
ENDBRANCH  16  21
ENDBRANCH  14  15
ENDBRANCH  13  14
ENDBRANCH  12  13
ENDBRANCH   8  12
BRANCH   7  24
ATOM     24  N   UNL A   1      33.025  29.678  24.717  1.00  0.00    -0.345 N 
ATOM     25  H   UNL A   1      32.966  30.433  25.400  1.00  0.00     0.345 HD
ATOM     26  H   UNL A   1      32.394  29.873  23.940  1.00  0.00     0.345 HD
ATOM     27  H   UNL A   1      33.981  29.608  24.369  1.00  0.00     0.345 HD
ENDBRANCH   7  24
ENDBRANCH   4   7
ENDBRANCH   2   3
ENDBRANCH   1   2
BRANCH   1  28
ATOM     28  C   UNL A   1      34.043  31.843  28.038  1.00  0.00     0.002 C 
BRANCH  28  29
ATOM     29  C   UNL A   1      34.431  33.199  28.638  1.00  0.00     0.002 C 
BRANCH  29  30
ATOM     30  C   UNL A   1      33.280  34.209  28.685  1.00  0.00     0.021 C 
BRANCH  30  31
ATOM     31  C   UNL A   1      33.723  35.584  29.165  1.00  0.00     0.116 C 
BRANCH  31  32
ATOM     32  N   UNL A   1      32.891  36.023  30.276  1.00  0.00    -0.352 N 
ATOM     33  C   UNL A   1      32.844  35.524  31.552  1.00  0.00     0.251 C 
ATOM     34  H   UNL A   1      32.284  36.776  30.086  1.00  0.00     0.163 HD
ATOM     35  O   UNL A   1      31.870  35.708  32.266  1.00  0.00    -0.269 OA
BRANCH  33  36
ATOM     36  C   UNL A   1      34.008  34.769  32.050  1.00  0.00     0.039 A 
ATOM     37  C   UNL A   1      33.863  33.422  32.382  1.00  0.00     0.014 A 
ATOM     38  C   UNL A   1      35.242  35.411  32.180  1.00  0.00     0.014 A 
ATOM     39  C   UNL A   1      34.980  32.701  32.800  1.00  0.00     0.010 A 
ATOM     40  C   UNL A   1      36.367  34.674  32.520  1.00  0.00     0.010 A 
ATOM     41  C   UNL A   1      36.244  33.315  32.841  1.00  0.00    -0.014 A 
BRANCH  41  42
ATOM     42  C   UNL A   1      37.459  32.557  33.217  1.00  0.00     0.031 A 
ATOM     43  C   UNL A   1      38.170  32.878  34.500  1.00  0.00     0.074 A 
ATOM     44  C   UNL A   1      37.962  31.648  32.362  1.00  0.00     0.049 A 
ATOM     45  N   UNL A   1      39.302  32.408  34.959  1.00  0.00    -0.248 NA
ATOM     46  C   UNL A   1      37.542  33.884  35.371  1.00  0.00     0.031 C 
ATOM     47  C   UNL A   1      37.378  31.290  31.068  1.00  0.00     0.029 A 
ATOM     48  N   UNL A   1      39.090  30.871  32.444  1.00  0.00    -0.354 N 
ATOM     49  C   UNL A   1      39.525  33.068  36.158  1.00  0.00     0.074 A 
ATOM     50  C   UNL A   1      38.443  34.012  36.333  1.00  0.00     0.031 C 
ATOM     51  C   UNL A   1      38.141  30.351  30.487  1.00  0.00     0.029 A 
ATOM     52  C   UNL A   1      39.292  30.078  31.342  1.00  0.00     0.049 A 
ATOM     53  H   UNL A   1      39.696  30.881  33.220  1.00  0.00     0.167 HD
ATOM     54  C   UNL A   1      40.531  32.884  37.045  1.00  0.00     0.037 A 
ATOM     55  C   UNL A   1      40.302  29.239  31.049  1.00  0.00     0.037 A 
ATOM     56  C   UNL A   1      41.592  31.928  36.869  1.00  0.00     0.049 A 
ATOM     57  C   UNL A   1      41.422  29.074  32.040  1.00  0.00     0.074 A 
ATOM     58  C   UNL A   1      42.625  31.618  37.735  1.00  0.00     0.029 A 
ATOM     59  N   UNL A   1      41.760  31.133  35.744  1.00  0.00    -0.354 N 
ATOM     60  N   UNL A   1      41.587  29.649  33.208  1.00  0.00    -0.248 NA
ATOM     61  C   UNL A   1      42.498  28.142  31.674  1.00  0.00     0.031 C 
ATOM     62  C   UNL A   1      43.451  30.679  37.110  1.00  0.00     0.029 A 
ATOM     63  C   UNL A   1      42.900  30.356  35.880  1.00  0.00     0.049 A 
ATOM     64  H   UNL A   1      41.158  31.122  34.965  1.00  0.00     0.167 HD
ATOM     65  C   UNL A   1      42.765  29.130  33.727  1.00  0.00     0.074 A 
ATOM     66  C   UNL A   1      43.266  28.180  32.754  1.00  0.00     0.031 C 
ATOM     67  C   UNL A   1      43.378  29.414  34.901  1.00  0.00     0.037 A 
BRANCH  54  68
ATOM     68  C   UNL A   1      40.535  33.736  38.283  1.00  0.00     0.064 A 
ATOM     69  C   UNL A   1      41.330  34.888  38.384  1.00  0.00     0.173 A 
ATOM     70  C   UNL A   1      39.703  33.416  39.366  1.00  0.00     0.173 A 
ATOM     71  F   UNL A   1      42.152  35.232  37.382  1.00  0.00    -0.203 F 
ATOM     72  C   UNL A   1      41.313  35.671  39.536  1.00  0.00     0.198 A 
ATOM     73  C   UNL A   1      39.664  34.220  40.502  1.00  0.00     0.198 A 
ATOM     74  F   UNL A   1      38.919  32.328  39.321  1.00  0.00    -0.203 F 
ATOM     75  F   UNL A   1      42.120  36.737  39.631  1.00  0.00    -0.200 F 
ATOM     76  C   UNL A   1      40.476  35.341  40.590  1.00  0.00     0.200 A 
ATOM     77  F   UNL A   1      38.842  33.908  41.514  1.00  0.00    -0.200 F 
ATOM     78  F   UNL A   1      40.453  36.102  41.694  1.00  0.00    -0.200 F 
ENDBRANCH  54  68
BRANCH  55  79
ATOM     79  C   UNL A   1      40.297  28.488  29.766  1.00  0.00     0.064 A 
ATOM     80  C   UNL A   1      39.600  27.277  29.643  1.00  0.00     0.173 A 
ATOM     81  C   UNL A   1      40.988  28.959  28.640  1.00  0.00     0.173 A 
ATOM     82  F   UNL A   1      38.940  26.775  30.697  1.00  0.00    -0.203 F 
ATOM     83  C   UNL A   1      39.618  26.555  28.453  1.00  0.00     0.198 A 
ATOM     84  C   UNL A   1      40.977  28.252  27.440  1.00  0.00     0.198 A 
ATOM     85  F   UNL A   1      41.664  30.116  28.702  1.00  0.00    -0.203 F 
ATOM     86  F   UNL A   1      38.986  25.376  28.378  1.00  0.00    -0.200 F 
ATOM     87  C   UNL A   1      40.300  27.045  27.350  1.00  0.00     0.200 A 
ATOM     88  F   UNL A   1      41.624  28.739  26.373  1.00  0.00    -0.200 F 
ATOM     89  F   UNL A   1      40.312  26.353  26.203  1.00  0.00    -0.200 F 
ENDBRANCH  55  79
BRANCH  67  90
ATOM     90  C   UNL A   1      44.644  28.669  35.216  1.00  0.00     0.064 A 
ATOM     91  C   UNL A   1      45.905  29.182  34.877  1.00  0.00     0.173 A 
ATOM     92  C   UNL A   1      44.595  27.450  35.911  1.00  0.00     0.173 A 
ATOM     93  F   UNL A   1      46.004  30.334  34.198  1.00  0.00    -0.203 F 
ATOM     94  C   UNL A   1      47.069  28.490  35.201  1.00  0.00     0.198 A 
ATOM     95  C   UNL A   1      45.762  26.778  36.263  1.00  0.00     0.198 A 
ATOM     96  F   UNL A   1      43.415  26.920  36.264  1.00  0.00    -0.203 F 
ATOM     97  F   UNL A   1      48.260  28.975  34.825  1.00  0.00    -0.200 F 
ATOM     98  C   UNL A   1      46.997  27.295  35.902  1.00  0.00     0.200 A 
ATOM     99  F   UNL A   1      45.691  25.634  36.956  1.00  0.00    -0.200 F 
ATOM    100  F   UNL A   1      48.120  26.638  36.224  1.00  0.00    -0.200 F 
ENDBRANCH  67  90
ENDBRANCH  41  42
ENDBRANCH  33  36
ENDBRANCH  31  32
ENDBRANCH  30  31
ENDBRANCH  29  30
ENDBRANCH  28  29
ENDBRANCH   1  28
TORSDOF 19
ENDMDL
