MODEL 1
REMARK VINA RESULT:     -11.1      0.000      0.000
REMARK SMILES COc1cccc(-n2cc(C(=O)NCCCCCCNC(=O)c3ccc(-c4c5nc(c(-c6c(F)c(F)c(F)c(F)c6F)c6ccc([nH]6)c(-c6c(F)c(F)c(F)c(F)c6F)c6nc(c(-c7c(F)c(F)c(F)c(F)c7F)c7ccc4[nH]7)C=C6)C=C5)cc3)c3c2[C@H](c2cc(OC)c(OC)c(OC)c2)CC(=O)N3)c1
REMARK SMILES IDX 16 1 15 2 14 3 13 4 11 5 12 6 10 8 8 9 9 10 87 11 86 12
REMARK SMILES IDX 88 13 104 14 101 15 102 16 103 18 7 19 3 20 4 21 105 22 5 23
REMARK SMILES IDX 6 24 2 25 1 26 89 27 90 28 100 29 91 30 97 31 94 32 92 33
REMARK SMILES IDX 93 34 98 35 99 36 95 37 96 38 17 39 18 40 19 41 20 42 21 43
REMARK SMILES IDX 22 45 23 46 24 47 85 48 25 49 84 50 26 51 27 52 28 53 78 54
REMARK SMILES IDX 29 55 83 56 77 57 79 58 30 59 82 60 76 61 75 62 31 64 63 65
REMARK SMILES IDX 43 66 62 67 44 68 47 69 61 70 80 71 45 72 46 73 60 75 81 76
REMARK SMILES IDX 48 77 32 78 33 79 41 80 34 81 35 82 39 83 42 84 36 85 37 86
REMARK SMILES IDX 40 87 38 88 64 89 65 90 73 91 66 92 67 93 71 94 74 95 68 96
REMARK SMILES IDX 69 97 72 98 70 99 49 100 50 101 58 102 51 103 52 104 56 105
REMARK SMILES IDX 59 106 53 107 54 108 57 109 55 110
REMARK H PARENT 13 7 104 17 20 44 79 63 47 74
REMARK Flexibility Score: inf
ROOT
ATOM      1  C   UNL A   1      45.214  31.316  26.598  1.00  0.00     0.002 C 
ENDROOT
BRANCH   1   2
ATOM      2  C   UNL A   1      46.465  31.668  27.406  1.00  0.00     0.021 C 
BRANCH   2   3
ATOM      3  C   UNL A   1      46.960  30.512  28.283  1.00  0.00     0.116 C 
BRANCH   3   4
ATOM      4  N   UNL A   1      47.678  29.569  27.473  1.00  0.00    -0.352 N 
ATOM      5  C   UNL A   1      47.432  28.274  27.127  1.00  0.00     0.254 C 
ATOM      6  O   UNL A   1      48.302  27.753  26.422  1.00  0.00    -0.269 OA
ATOM      7  H   UNL A   1      48.512  29.928  27.094  1.00  0.00     0.163 HD
BRANCH   5   8
ATOM      8  C   UNL A   1      46.214  27.532  27.480  1.00  0.00     0.081 A 
ATOM      9  N   UNL A   1      45.028  26.184  28.876  1.00  0.00    -0.317 N 
ATOM     10  C   UNL A   1      46.205  26.856  28.695  1.00  0.00     0.107 A 
ATOM     11  C   UNL A   1      44.227  26.410  27.778  1.00  0.00     0.055 A 
ATOM     12  C   UNL A   1      44.894  27.317  26.967  1.00  0.00     0.076 A 
ATOM     13  C   UNL A   1      42.812  25.918  27.538  1.00  0.00     0.078 C 
ATOM     14  N   UNL A   1      44.215  27.837  25.889  1.00  0.00    -0.324 N 
ATOM     15  C   UNL A   1      42.061  27.028  26.782  1.00  0.00     0.115 C 
ATOM     16  C   UNL A   1      42.882  27.629  25.655  1.00  0.00     0.225 C 
ATOM     17  H   UNL A   1      44.716  28.392  25.249  1.00  0.00     0.170 HD
ATOM     18  O   UNL A   1      42.371  28.009  24.601  1.00  0.00    -0.275 OA
BRANCH   9  19
ATOM     19  C   UNL A   1      44.741  25.467  30.048  1.00  0.00     0.049 A 
ATOM     20  C   UNL A   1      44.512  25.396  32.443  1.00  0.00     0.120 A 
ATOM     21  C   UNL A   1      44.170  24.042  32.343  1.00  0.00     0.046 A 
ATOM     22  C   UNL A   1      44.800  26.119  31.285  1.00  0.00     0.073 A 
ATOM     23  C   UNL A   1      44.174  23.391  31.109  1.00  0.00     0.006 A 
ATOM     24  C   UNL A   1      44.510  24.097  29.961  1.00  0.00     0.027 A 
BRANCH  20  25
ATOM     25  O   UNL A   1      44.554  25.871  33.724  1.00  0.00    -0.497 OA
ATOM     26  C   UNL A   1      45.131  27.153  33.923  1.00  0.00     0.278 C 
ENDBRANCH  20  25
ENDBRANCH   9  19
BRANCH  13  27
ATOM     27  C   UNL A   1      42.741  24.553  26.839  1.00  0.00    -0.031 A 
ATOM     28  C   UNL A   1      41.582  23.791  26.975  1.00  0.00     0.055 A 
ATOM     29  C   UNL A   1      43.767  23.992  26.064  1.00  0.00     0.055 A 
ATOM     30  C   UNL A   1      41.510  22.456  26.565  1.00  0.00     0.164 A 
ATOM     31  C   UNL A   1      43.658  22.703  25.494  1.00  0.00     0.164 A 
ATOM     32  C   UNL A   1      42.534  21.903  25.783  1.00  0.00     0.203 A 
BRANCH  30  33
ATOM     33  O   UNL A   1      40.359  21.822  26.966  1.00  0.00    -0.493 OA
ATOM     34  C   UNL A   1      39.174  22.214  26.273  1.00  0.00     0.278 C 
ENDBRANCH  30  33
BRANCH  31  35
ATOM     35  O   UNL A   1      44.646  22.168  24.705  1.00  0.00    -0.493 OA
ATOM     36  C   UNL A   1      45.653  21.386  25.339  1.00  0.00     0.278 C 
ENDBRANCH  31  35
BRANCH  32  37
ATOM     37  O   UNL A   1      42.326  20.610  25.385  1.00  0.00    -0.490 OA
ATOM     38  C   UNL A   1      42.510  19.558  26.316  1.00  0.00     0.278 C 
ENDBRANCH  32  37
ENDBRANCH  13  27
ENDBRANCH   5   8
ENDBRANCH   3   4
ENDBRANCH   2   3
ENDBRANCH   1   2
BRANCH   1  39
ATOM     39  C   UNL A   1      44.267  32.502  26.350  1.00  0.00     0.002 C 
BRANCH  39  40
ATOM     40  C   UNL A   1      44.685  33.470  25.231  1.00  0.00     0.021 C 
BRANCH  40  41
ATOM     41  C   UNL A   1      44.156  34.876  25.454  1.00  0.00     0.116 C 
BRANCH  41  42
ATOM     42  N   UNL A   1      45.166  35.727  26.089  1.00  0.00    -0.352 N 
ATOM     43  C   UNL A   1      45.125  36.362  27.306  1.00  0.00     0.251 C 
ATOM     44  H   UNL A   1      45.991  35.865  25.569  1.00  0.00     0.163 HD
ATOM     45  O   UNL A   1      45.883  37.300  27.558  1.00  0.00    -0.269 OA
BRANCH  43  46
ATOM     46  C   UNL A   1      44.172  35.892  28.318  1.00  0.00     0.039 A 
ATOM     47  C   UNL A   1      42.961  36.552  28.551  1.00  0.00     0.014 A 
ATOM     48  C   UNL A   1      44.515  34.751  29.037  1.00  0.00     0.014 A 
ATOM     49  C   UNL A   1      42.078  36.015  29.480  1.00  0.00     0.010 A 
ATOM     50  C   UNL A   1      43.573  34.121  29.796  1.00  0.00     0.010 A 
ATOM     51  C   UNL A   1      42.395  34.792  30.091  1.00  0.00    -0.014 A 
BRANCH  51  52
ATOM     52  C   UNL A   1      41.466  34.109  30.976  1.00  0.00     0.031 A 
ATOM     53  C   UNL A   1      41.965  33.984  32.368  1.00  0.00     0.074 A 
ATOM     54  C   UNL A   1      40.188  33.870  30.607  1.00  0.00     0.049 A 
ATOM     55  N   UNL A   1      42.285  32.904  32.997  1.00  0.00    -0.248 NA
ATOM     56  C   UNL A   1      42.312  35.218  33.097  1.00  0.00     0.031 C 
ATOM     57  C   UNL A   1      39.517  34.259  29.357  1.00  0.00     0.029 A 
ATOM     58  N   UNL A   1      39.173  33.315  31.321  1.00  0.00    -0.354 N 
ATOM     59  C   UNL A   1      42.659  33.305  34.276  1.00  0.00     0.074 A 
ATOM     60  C   UNL A   1      42.867  34.726  34.206  1.00  0.00     0.031 C 
ATOM     61  C   UNL A   1      38.178  34.136  29.498  1.00  0.00     0.029 A 
ATOM     62  C   UNL A   1      37.905  33.503  30.773  1.00  0.00     0.049 A 
ATOM     63  H   UNL A   1      39.321  32.820  32.159  1.00  0.00     0.167 HD
ATOM     64  C   UNL A   1      42.474  32.474  35.339  1.00  0.00     0.037 A 
ATOM     65  C   UNL A   1      36.720  33.176  31.350  1.00  0.00     0.037 A 
ATOM     66  C   UNL A   1      42.241  31.123  34.887  1.00  0.00     0.049 A 
ATOM     67  C   UNL A   1      37.022  32.201  32.424  1.00  0.00     0.074 A 
ATOM     68  C   UNL A   1      42.968  30.184  34.184  1.00  0.00     0.029 A 
ATOM     69  N   UNL A   1      40.931  30.721  34.816  1.00  0.00    -0.354 N 
ATOM     70  N   UNL A   1      37.466  30.995  32.201  1.00  0.00    -0.248 NA
ATOM     71  C   UNL A   1      37.267  32.721  33.758  1.00  0.00     0.031 C 
ATOM     72  C   UNL A   1      42.012  29.510  33.362  1.00  0.00     0.029 A 
ATOM     73  C   UNL A   1      40.746  30.014  33.659  1.00  0.00     0.049 A 
ATOM     74  H   UNL A   1      40.238  30.910  35.489  1.00  0.00     0.167 HD
ATOM     75  C   UNL A   1      38.417  30.785  33.188  1.00  0.00     0.074 A 
ATOM     76  C   UNL A   1      38.174  31.834  34.176  1.00  0.00     0.031 C 
ATOM     77  C   UNL A   1      39.486  29.969  32.950  1.00  0.00     0.037 A 
BRANCH  64  78
ATOM     78  C   UNL A   1      42.050  32.927  36.722  1.00  0.00     0.064 A 
ATOM     79  C   UNL A   1      42.751  32.425  37.839  1.00  0.00     0.173 A 
ATOM     80  C   UNL A   1      40.819  33.555  37.020  1.00  0.00     0.173 A 
ATOM     81  F   UNL A   1      43.929  31.802  37.682  1.00  0.00    -0.203 F 
ATOM     82  C   UNL A   1      42.214  32.455  39.130  1.00  0.00     0.198 A 
ATOM     83  C   UNL A   1      40.312  33.630  38.316  1.00  0.00     0.198 A 
ATOM     84  F   UNL A   1      40.000  34.023  36.074  1.00  0.00    -0.203 F 
ATOM     85  F   UNL A   1      42.855  31.839  40.131  1.00  0.00    -0.200 F 
ATOM     86  C   UNL A   1      40.989  33.049  39.365  1.00  0.00     0.200 A 
ATOM     87  F   UNL A   1      39.113  34.196  38.521  1.00  0.00    -0.200 F 
ATOM     88  F   UNL A   1      40.439  33.019  40.585  1.00  0.00    -0.200 F 
ENDBRANCH  64  78
BRANCH  65  89
ATOM     89  C   UNL A   1      35.405  33.852  31.257  1.00  0.00     0.064 A 
ATOM     90  C   UNL A   1      35.066  34.901  32.131  1.00  0.00     0.173 A 
ATOM     91  C   UNL A   1      34.586  33.695  30.124  1.00  0.00     0.173 A 
ATOM     92  F   UNL A   1      35.821  35.146  33.212  1.00  0.00    -0.203 F 
ATOM     93  C   UNL A   1      33.995  35.761  31.867  1.00  0.00     0.198 A 
ATOM     94  C   UNL A   1      33.516  34.555  29.861  1.00  0.00     0.198 A 
ATOM     95  F   UNL A   1      34.871  32.771  29.195  1.00  0.00    -0.203 F 
ATOM     96  F   UNL A   1      33.747  36.792  32.687  1.00  0.00    -0.200 F 
ATOM     97  C   UNL A   1      33.230  35.597  30.725  1.00  0.00     0.200 A 
ATOM     98  F   UNL A   1      32.808  34.410  28.732  1.00  0.00    -0.200 F 
ATOM     99  F   UNL A   1      32.249  36.463  30.433  1.00  0.00    -0.200 F 
ENDBRANCH  65  89
BRANCH  77 100
ATOM    100  C   UNL A   1      39.423  29.087  31.733  1.00  0.00     0.064 A 
ATOM    101  C   UNL A   1      38.839  27.808  31.704  1.00  0.00     0.173 A 
ATOM    102  C   UNL A   1      39.873  29.614  30.518  1.00  0.00     0.173 A 
ATOM    103  F   UNL A   1      38.301  27.268  32.803  1.00  0.00    -0.203 F 
ATOM    104  C   UNL A   1      38.753  27.077  30.518  1.00  0.00     0.198 A 
ATOM    105  C   UNL A   1      39.753  28.901  29.330  1.00  0.00     0.198 A 
ATOM    106  F   UNL A   1      40.394  30.851  30.475  1.00  0.00    -0.203 F 
ATOM    107  F   UNL A   1      38.206  25.852  30.520  1.00  0.00    -0.200 F 
ATOM    108  C   UNL A   1      39.205  27.628  29.332  1.00  0.00     0.200 A 
ATOM    109  F   UNL A   1      40.147  29.457  28.177  1.00  0.00    -0.200 F 
ATOM    110  F   UNL A   1      39.090  26.944  28.184  1.00  0.00    -0.200 F 
ENDBRANCH  77 100
ENDBRANCH  51  52
ENDBRANCH  43  46
ENDBRANCH  41  42
ENDBRANCH  40  41
ENDBRANCH  39  40
ENDBRANCH   1  39
TORSDOF 19
ENDMDL
MODEL 2
REMARK VINA RESULT:     -10.9      0.737      2.020
REMARK SMILES COc1cccc(-n2cc(C(=O)NCCCCCCNC(=O)c3ccc(-c4c5nc(c(-c6c(F)c(F)c(F)c(F)c6F)c6ccc([nH]6)c(-c6c(F)c(F)c(F)c(F)c6F)c6nc(c(-c7c(F)c(F)c(F)c(F)c7F)c7ccc4[nH]7)C=C6)C=C5)cc3)c3c2[C@H](c2cc(OC)c(OC)c(OC)c2)CC(=O)N3)c1
REMARK SMILES IDX 16 1 15 2 14 3 13 4 11 5 12 6 10 8 8 9 9 10 87 11 86 12
REMARK SMILES IDX 88 13 104 14 101 15 102 16 103 18 7 19 3 20 4 21 105 22 5 23
REMARK SMILES IDX 6 24 2 25 1 26 89 27 90 28 100 29 91 30 97 31 94 32 92 33
REMARK SMILES IDX 93 34 98 35 99 36 95 37 96 38 17 39 18 40 19 41 20 42 21 43
REMARK SMILES IDX 22 45 23 46 24 47 85 48 25 49 84 50 26 51 27 52 28 53 78 54
REMARK SMILES IDX 29 55 83 56 77 57 79 58 30 59 82 60 76 61 75 62 31 64 63 65
REMARK SMILES IDX 43 66 62 67 44 68 47 69 61 70 80 71 45 72 46 73 60 75 81 76
REMARK SMILES IDX 48 77 32 78 33 79 41 80 34 81 35 82 39 83 42 84 36 85 37 86
REMARK SMILES IDX 40 87 38 88 64 89 65 90 73 91 66 92 67 93 71 94 74 95 68 96
REMARK SMILES IDX 69 97 72 98 70 99 49 100 50 101 58 102 51 103 52 104 56 105
REMARK SMILES IDX 59 106 53 107 54 108 57 109 55 110
REMARK H PARENT 13 7 104 17 20 44 79 63 47 74
REMARK Flexibility Score: inf
ROOT
ATOM      1  C   UNL A   1      45.591  31.645  27.059  1.00  0.00     0.002 C 
ENDROOT
BRANCH   1   2
ATOM      2  C   UNL A   1      46.275  31.881  28.407  1.00  0.00     0.021 C 
BRANCH   2   3
ATOM      3  C   UNL A   1      46.993  30.637  28.944  1.00  0.00     0.116 C 
BRANCH   3   4
ATOM      4  N   UNL A   1      47.635  29.948  27.861  1.00  0.00    -0.352 N 
ATOM      5  C   UNL A   1      47.379  28.763  27.239  1.00  0.00     0.254 C 
ATOM      6  O   UNL A   1      48.176  28.466  26.344  1.00  0.00    -0.269 OA
ATOM      7  H   UNL A   1      48.414  30.426  27.495  1.00  0.00     0.163 HD
BRANCH   5   8
ATOM      8  C   UNL A   1      46.223  27.903  27.525  1.00  0.00     0.081 A 
ATOM      9  N   UNL A   1      45.082  26.471  28.876  1.00  0.00    -0.317 N 
ATOM     10  C   UNL A   1      46.191  27.263  28.760  1.00  0.00     0.107 A 
ATOM     11  C   UNL A   1      44.350  26.579  27.713  1.00  0.00     0.055 A 
ATOM     12  C   UNL A   1      44.978  27.531  26.923  1.00  0.00     0.076 A 
ATOM     13  C   UNL A   1      43.018  25.928  27.385  1.00  0.00     0.078 C 
ATOM     14  N   UNL A   1      44.334  27.944  25.779  1.00  0.00    -0.324 N 
ATOM     15  C   UNL A   1      42.216  26.930  26.535  1.00  0.00     0.115 C 
ATOM     16  C   UNL A   1      43.053  27.585  25.453  1.00  0.00     0.225 C 
ATOM     17  H   UNL A   1      44.822  28.532  25.159  1.00  0.00     0.170 HD
ATOM     18  O   UNL A   1      42.589  27.878  24.350  1.00  0.00    -0.275 OA
BRANCH   9  19
ATOM     19  C   UNL A   1      44.781  25.760  30.047  1.00  0.00     0.049 A 
ATOM     20  C   UNL A   1      44.405  25.725  32.425  1.00  0.00     0.120 A 
ATOM     21  C   UNL A   1      44.186  24.344  32.342  1.00  0.00     0.046 A 
ATOM     22  C   UNL A   1      44.704  26.443  31.267  1.00  0.00     0.073 A 
ATOM     23  C   UNL A   1      44.326  23.667  31.130  1.00  0.00     0.006 A 
ATOM     24  C   UNL A   1      44.674  24.373  29.985  1.00  0.00     0.027 A 
BRANCH  20  25
ATOM     25  O   UNL A   1      44.323  26.231  33.691  1.00  0.00    -0.497 OA
ATOM     26  C   UNL A   1      43.513  25.528  34.622  1.00  0.00     0.278 C 
ENDBRANCH  20  25
ENDBRANCH   9  19
BRANCH  13  27
ATOM     27  C   UNL A   1      43.149  24.546  26.731  1.00  0.00    -0.031 A 
ATOM     28  C   UNL A   1      44.403  24.138  26.275  1.00  0.00     0.055 A 
ATOM     29  C   UNL A   1      42.094  23.641  26.543  1.00  0.00     0.055 A 
ATOM     30  C   UNL A   1      44.576  23.004  25.476  1.00  0.00     0.164 A 
ATOM     31  C   UNL A   1      42.274  22.405  25.881  1.00  0.00     0.164 A 
ATOM     32  C   UNL A   1      43.520  22.098  25.299  1.00  0.00     0.203 A 
BRANCH  30  33
ATOM     33  O   UNL A   1      45.846  22.885  24.964  1.00  0.00    -0.493 OA
ATOM     34  C   UNL A   1      46.565  24.111  24.825  1.00  0.00     0.278 C 
ENDBRANCH  30  33
BRANCH  31  35
ATOM     35  O   UNL A   1      41.250  21.503  25.729  1.00  0.00    -0.493 OA
ATOM     36  C   UNL A   1      40.526  21.116  26.892  1.00  0.00     0.278 C 
ENDBRANCH  31  35
BRANCH  32  37
ATOM     37  O   UNL A   1      43.824  20.992  24.552  1.00  0.00    -0.490 OA
ATOM     38  C   UNL A   1      44.166  19.783  25.207  1.00  0.00     0.278 C 
ENDBRANCH  32  37
ENDBRANCH  13  27
ENDBRANCH   5   8
ENDBRANCH   3   4
ENDBRANCH   2   3
ENDBRANCH   1   2
BRANCH   1  39
ATOM     39  C   UNL A   1      44.618  32.760  26.641  1.00  0.00     0.002 C 
BRANCH  39  40
ATOM     40  C   UNL A   1      45.145  33.749  25.589  1.00  0.00     0.021 C 
BRANCH  40  41
ATOM     41  C   UNL A   1      44.531  35.131  25.733  1.00  0.00     0.116 C 
BRANCH  41  42
ATOM     42  N   UNL A   1      45.415  36.027  26.482  1.00  0.00    -0.352 N 
ATOM     43  C   UNL A   1      45.218  36.617  27.707  1.00  0.00     0.251 C 
ATOM     44  H   UNL A   1      46.272  36.238  26.046  1.00  0.00     0.163 HD
ATOM     45  O   UNL A   1      45.881  37.596  28.054  1.00  0.00    -0.269 OA
BRANCH  43  46
ATOM     46  C   UNL A   1      44.212  36.050  28.612  1.00  0.00     0.039 A 
ATOM     47  C   UNL A   1      42.923  36.584  28.707  1.00  0.00     0.014 A 
ATOM     48  C   UNL A   1      44.587  34.946  29.372  1.00  0.00     0.014 A 
ATOM     49  C   UNL A   1      42.002  35.957  29.538  1.00  0.00     0.010 A 
ATOM     50  C   UNL A   1      43.635  34.221  30.028  1.00  0.00     0.010 A 
ATOM     51  C   UNL A   1      42.371  34.769  30.188  1.00  0.00    -0.014 A 
BRANCH  51  52
ATOM     52  C   UNL A   1      41.424  33.993  30.971  1.00  0.00     0.031 A 
ATOM     53  C   UNL A   1      41.919  33.662  32.331  1.00  0.00     0.074 A 
ATOM     54  C   UNL A   1      40.141  33.840  30.575  1.00  0.00     0.049 A 
ATOM     55  N   UNL A   1      42.210  32.496  32.801  1.00  0.00    -0.248 NA
ATOM     56  C   UNL A   1      42.296  34.773  33.225  1.00  0.00     0.031 C 
ATOM     57  C   UNL A   1      39.481  34.417  29.394  1.00  0.00     0.029 A 
ATOM     58  N   UNL A   1      39.111  33.217  31.207  1.00  0.00    -0.354 N 
ATOM     59  C   UNL A   1      42.593  32.706  34.123  1.00  0.00     0.074 A 
ATOM     60  C   UNL A   1      42.837  34.116  34.252  1.00  0.00     0.031 C 
ATOM     61  C   UNL A   1      38.139  34.310  29.519  1.00  0.00     0.029 A 
ATOM     62  C   UNL A   1      37.849  33.512  30.695  1.00  0.00     0.049 A 
ATOM     63  H   UNL A   1      39.246  32.606  31.968  1.00  0.00     0.167 HD
ATOM     64  C   UNL A   1      42.386  31.738  35.060  1.00  0.00     0.037 A 
ATOM     65  C   UNL A   1      36.656  33.137  31.223  1.00  0.00     0.037 A 
ATOM     66  C   UNL A   1      42.119  30.471  34.424  1.00  0.00     0.049 A 
ATOM     67  C   UNL A   1      36.932  32.014  32.149  1.00  0.00     0.074 A 
ATOM     68  C   UNL A   1      42.822  29.621  33.594  1.00  0.00     0.029 A 
ATOM     69  N   UNL A   1      40.800  30.116  34.301  1.00  0.00    -0.354 N 
ATOM     70  N   UNL A   1      37.345  30.840  31.759  1.00  0.00    -0.248 NA
ATOM     71  C   UNL A   1      37.189  32.336  33.543  1.00  0.00     0.031 C 
ATOM     72  C   UNL A   1      41.851  29.093  32.690  1.00  0.00     0.029 A 
ATOM     73  C   UNL A   1      40.597  29.583  33.057  1.00  0.00     0.049 A 
ATOM     74  H   UNL A   1      40.111  30.226  34.995  1.00  0.00     0.167 HD
ATOM     75  C   UNL A   1      38.289  30.470  32.705  1.00  0.00     0.074 A 
ATOM     76  C   UNL A   1      38.072  31.377  33.830  1.00  0.00     0.031 C 
ATOM     77  C   UNL A   1      39.338  29.669  32.352  1.00  0.00     0.037 A 
BRANCH  64  78
ATOM     78  C   UNL A   1      41.972  32.005  36.494  1.00  0.00     0.064 A 
ATOM     79  C   UNL A   1      40.835  32.807  36.728  1.00  0.00     0.173 A 
ATOM     80  C   UNL A   1      42.796  31.790  37.622  1.00  0.00     0.173 A 
ATOM     81  F   UNL A   1      39.980  33.087  35.732  1.00  0.00    -0.203 F 
ATOM     82  C   UNL A   1      40.604  33.429  37.959  1.00  0.00     0.198 A 
ATOM     83  C   UNL A   1      42.533  32.369  38.862  1.00  0.00     0.198 A 
ATOM     84  F   UNL A   1      43.945  31.112  37.557  1.00  0.00    -0.203 F 
ATOM     85  F   UNL A   1      39.589  34.294  38.087  1.00  0.00    -0.200 F 
ATOM     86  C   UNL A   1      41.459  33.217  39.022  1.00  0.00     0.200 A 
ATOM     87  F   UNL A   1      43.385  32.164  39.877  1.00  0.00    -0.200 F 
ATOM     88  F   UNL A   1      41.282  33.863  40.181  1.00  0.00    -0.200 F 
ENDBRANCH  64  78
BRANCH  65  89
ATOM     89  C   UNL A   1      35.358  33.853  31.229  1.00  0.00     0.064 A 
ATOM     90  C   UNL A   1      35.086  34.852  32.180  1.00  0.00     0.173 A 
ATOM     91  C   UNL A   1      34.488  33.790  30.124  1.00  0.00     0.173 A 
ATOM     92  F   UNL A   1      35.892  35.009  33.241  1.00  0.00    -0.203 F 
ATOM     93  C   UNL A   1      34.031  35.756  32.016  1.00  0.00     0.198 A 
ATOM     94  C   UNL A   1      33.434  34.692  29.962  1.00  0.00     0.198 A 
ATOM     95  F   UNL A   1      34.708  32.919  29.129  1.00  0.00    -0.203 F 
ATOM     96  F   UNL A   1      33.847  36.740  32.909  1.00  0.00    -0.200 F 
ATOM     97  C   UNL A   1      33.215  35.685  30.900  1.00  0.00     0.200 A 
ATOM     98  F   UNL A   1      32.677  34.638  28.857  1.00  0.00    -0.200 F 
ATOM     99  F   UNL A   1      32.249  36.593  30.705  1.00  0.00    -0.200 F 
ENDBRANCH  65  89
BRANCH  77 100
ATOM    100  C   UNL A   1      39.253  28.968  31.024  1.00  0.00     0.064 A 
ATOM    101  C   UNL A   1      39.662  29.526  29.799  1.00  0.00     0.173 A 
ATOM    102  C   UNL A   1      38.846  27.629  31.014  1.00  0.00     0.173 A 
ATOM    103  F   UNL A   1      40.151  30.770  29.734  1.00  0.00    -0.203 F 
ATOM    104  C   UNL A   1      39.619  28.787  28.616  1.00  0.00     0.198 A 
ATOM    105  C   UNL A   1      38.841  26.882  29.841  1.00  0.00     0.198 A 
ATOM    106  F   UNL A   1      38.494  27.028  32.162  1.00  0.00    -0.203 F 
ATOM    107  F   UNL A   1      39.999  29.348  27.457  1.00  0.00    -0.200 F 
ATOM    108  C   UNL A   1      39.215  27.464  28.640  1.00  0.00     0.200 A 
ATOM    109  F   UNL A   1      38.494  25.588  29.878  1.00  0.00    -0.200 F 
ATOM    110  F   UNL A   1      39.209  26.740  27.512  1.00  0.00    -0.200 F 
ENDBRANCH  77 100
ENDBRANCH  51  52
ENDBRANCH  43  46
ENDBRANCH  41  42
ENDBRANCH  40  41
ENDBRANCH  39  40
ENDBRANCH   1  39
TORSDOF 19
ENDMDL
MODEL 3
REMARK VINA RESULT:     -10.7      4.666     12.347
REMARK SMILES COc1cccc(-n2cc(C(=O)NCCCCCCNC(=O)c3ccc(-c4c5nc(c(-c6c(F)c(F)c(F)c(F)c6F)c6ccc([nH]6)c(-c6c(F)c(F)c(F)c(F)c6F)c6nc(c(-c7c(F)c(F)c(F)c(F)c7F)c7ccc4[nH]7)C=C6)C=C5)cc3)c3c2[C@H](c2cc(OC)c(OC)c(OC)c2)CC(=O)N3)c1
REMARK SMILES IDX 16 1 15 2 14 3 13 4 11 5 12 6 10 8 8 9 9 10 87 11 86 12
REMARK SMILES IDX 88 13 104 14 101 15 102 16 103 18 7 19 3 20 4 21 105 22 5 23
REMARK SMILES IDX 6 24 2 25 1 26 89 27 90 28 100 29 91 30 97 31 94 32 92 33
REMARK SMILES IDX 93 34 98 35 99 36 95 37 96 38 17 39 18 40 19 41 20 42 21 43
REMARK SMILES IDX 22 45 23 46 24 47 85 48 25 49 84 50 26 51 27 52 28 53 78 54
REMARK SMILES IDX 29 55 83 56 77 57 79 58 30 59 82 60 76 61 75 62 31 64 63 65
REMARK SMILES IDX 43 66 62 67 44 68 47 69 61 70 80 71 45 72 46 73 60 75 81 76
REMARK SMILES IDX 48 77 32 78 33 79 41 80 34 81 35 82 39 83 42 84 36 85 37 86
REMARK SMILES IDX 40 87 38 88 64 89 65 90 73 91 66 92 67 93 71 94 74 95 68 96
REMARK SMILES IDX 69 97 72 98 70 99 49 100 50 101 58 102 51 103 52 104 56 105
REMARK SMILES IDX 59 106 53 107 54 108 57 109 55 110
REMARK H PARENT 13 7 104 17 20 44 79 63 47 74
REMARK Flexibility Score: inf
ROOT
ATOM      1  C   UNL A   1      42.814  27.584  34.113  1.00  0.00     0.002 C 
ENDROOT
BRANCH   1   2
ATOM      2  C   UNL A   1      41.964  27.647  32.843  1.00  0.00     0.021 C 
BRANCH   2   3
ATOM      3  C   UNL A   1      40.969  28.813  32.841  1.00  0.00     0.116 C 
BRANCH   3   4
ATOM      4  N   UNL A   1      39.641  28.311  33.058  1.00  0.00    -0.352 N 
ATOM      5  C   UNL A   1      38.423  28.683  32.577  1.00  0.00     0.254 C 
ATOM      6  O   UNL A   1      37.471  28.028  33.014  1.00  0.00    -0.269 OA
ATOM      7  H   UNL A   1      39.605  27.546  33.679  1.00  0.00     0.163 HD
BRANCH   5   8
ATOM      8  C   UNL A   1      38.207  29.728  31.567  1.00  0.00     0.081 A 
ATOM      9  N   UNL A   1      38.782  31.686  30.562  1.00  0.00    -0.317 N 
ATOM     10  C   UNL A   1      39.124  30.773  31.521  1.00  0.00     0.107 A 
ATOM     11  C   UNL A   1      37.627  31.255  29.946  1.00  0.00     0.055 A 
ATOM     12  C   UNL A   1      37.324  30.009  30.475  1.00  0.00     0.076 A 
ATOM     13  C   UNL A   1      36.888  31.904  28.790  1.00  0.00     0.078 C 
ATOM     14  N   UNL A   1      36.306  29.292  29.889  1.00  0.00    -0.324 N 
ATOM     15  C   UNL A   1      36.320  30.772  27.916  1.00  0.00     0.115 C 
ATOM     16  C   UNL A   1      35.677  29.666  28.732  1.00  0.00     0.225 C 
ATOM     17  H   UNL A   1      36.012  28.460  30.328  1.00  0.00     0.170 HD
ATOM     18  O   UNL A   1      34.684  29.052  28.340  1.00  0.00    -0.275 OA
BRANCH   9  19
ATOM     19  C   UNL A   1      39.573  32.808  30.273  1.00  0.00     0.049 A 
ATOM     20  C   UNL A   1      41.743  33.830  30.066  1.00  0.00     0.120 A 
ATOM     21  C   UNL A   1      41.114  35.026  29.697  1.00  0.00     0.046 A 
ATOM     22  C   UNL A   1      40.967  32.708  30.357  1.00  0.00     0.073 A 
ATOM     23  C   UNL A   1      39.723  35.128  29.676  1.00  0.00     0.006 A 
ATOM     24  C   UNL A   1      38.948  34.025  30.014  1.00  0.00     0.027 A 
BRANCH  20  25
ATOM     25  O   UNL A   1      43.106  33.910  30.131  1.00  0.00    -0.497 OA
ATOM     26  C   UNL A   1      43.661  35.026  30.811  1.00  0.00     0.278 C 
ENDBRANCH  20  25
ENDBRANCH   9  19
BRANCH  13  27
ATOM     27  C   UNL A   1      35.828  32.924  29.228  1.00  0.00    -0.031 A 
ATOM     28  C   UNL A   1      35.934  33.497  30.495  1.00  0.00     0.055 A 
ATOM     29  C   UNL A   1      34.734  33.332  28.451  1.00  0.00     0.055 A 
ATOM     30  C   UNL A   1      34.908  34.257  31.062  1.00  0.00     0.164 A 
ATOM     31  C   UNL A   1      33.761  34.234  28.939  1.00  0.00     0.164 A 
ATOM     32  C   UNL A   1      33.821  34.671  30.277  1.00  0.00     0.203 A 
BRANCH  30  33
ATOM     33  O   UNL A   1      35.119  34.561  32.386  1.00  0.00    -0.493 OA
ATOM     34  C   UNL A   1      34.526  33.659  33.320  1.00  0.00     0.278 C 
ENDBRANCH  30  33
BRANCH  31  35
ATOM     35  O   UNL A   1      32.711  34.662  28.166  1.00  0.00    -0.493 OA
ATOM     36  C   UNL A   1      32.053  33.702  27.346  1.00  0.00     0.278 C 
ENDBRANCH  31  35
BRANCH  32  37
ATOM     37  O   UNL A   1      32.910  35.466  30.920  1.00  0.00    -0.490 OA
ATOM     38  C   UNL A   1      33.050  36.874  30.858  1.00  0.00     0.278 C 
ENDBRANCH  32  37
ENDBRANCH  13  27
ENDBRANCH   5   8
ENDBRANCH   3   4
ENDBRANCH   2   3
ENDBRANCH   1   2
BRANCH   1  39
ATOM     39  C   UNL A   1      42.004  27.422  35.410  1.00  0.00     0.002 C 
BRANCH  39  40
ATOM     40  C   UNL A   1      42.784  26.900  36.627  1.00  0.00     0.021 C 
BRANCH  40  41
ATOM     41  C   UNL A   1      42.600  25.407  36.837  1.00  0.00     0.116 C 
BRANCH  41  42
ATOM     42  N   UNL A   1      43.809  24.799  37.398  1.00  0.00    -0.352 N 
ATOM     43  C   UNL A   1      44.810  24.109  36.759  1.00  0.00     0.251 C 
ATOM     44  H   UNL A   1      43.919  24.896  38.372  1.00  0.00     0.163 HD
ATOM     45  O   UNL A   1      45.574  23.373  37.387  1.00  0.00    -0.269 OA
BRANCH  43  46
ATOM     46  C   UNL A   1      44.970  24.274  35.310  1.00  0.00     0.039 A 
ATOM     47  C   UNL A   1      44.407  23.374  34.400  1.00  0.00     0.014 A 
ATOM     48  C   UNL A   1      45.701  25.373  34.870  1.00  0.00     0.014 A 
ATOM     49  C   UNL A   1      44.545  23.628  33.040  1.00  0.00     0.010 A 
ATOM     50  C   UNL A   1      45.667  25.726  33.553  1.00  0.00     0.010 A 
ATOM     51  C   UNL A   1      45.173  24.814  32.631  1.00  0.00    -0.014 A 
BRANCH  51  52
ATOM     52  C   UNL A   1      45.243  25.206  31.233  1.00  0.00     0.031 A 
ATOM     53  C   UNL A   1      46.284  26.229  30.961  1.00  0.00     0.074 A 
ATOM     54  C   UNL A   1      44.605  24.502  30.271  1.00  0.00     0.049 A 
ATOM     55  N   UNL A   1      46.109  27.449  30.581  1.00  0.00    -0.248 NA
ATOM     56  C   UNL A   1      47.681  25.912  31.314  1.00  0.00     0.031 C 
ATOM     57  C   UNL A   1      43.813  23.272  30.421  1.00  0.00     0.029 A 
ATOM     58  N   UNL A   1      44.616  24.676  28.923  1.00  0.00    -0.354 N 
ATOM     59  C   UNL A   1      47.384  27.986  30.431  1.00  0.00     0.074 A 
ATOM     60  C   UNL A   1      48.282  27.084  31.099  1.00  0.00     0.031 C 
ATOM     61  C   UNL A   1      43.621  22.698  29.212  1.00  0.00     0.029 A 
ATOM     62  C   UNL A   1      44.122  23.598  28.191  1.00  0.00     0.049 A 
ATOM     63  H   UNL A   1      44.948  25.500  28.496  1.00  0.00     0.167 HD
ATOM     64  C   UNL A   1      47.613  28.969  29.515  1.00  0.00     0.037 A 
ATOM     65  C   UNL A   1      44.150  23.458  26.841  1.00  0.00     0.037 A 
ATOM     66  C   UNL A   1      46.367  29.560  29.090  1.00  0.00     0.049 A 
ATOM     67  C   UNL A   1      44.372  24.809  26.275  1.00  0.00     0.074 A 
ATOM     68  C   UNL A   1      45.354  30.267  29.706  1.00  0.00     0.029 A 
ATOM     69  N   UNL A   1      45.842  29.094  27.911  1.00  0.00    -0.354 N 
ATOM     70  N   UNL A   1      43.501  25.776  26.350  1.00  0.00    -0.248 NA
ATOM     71  C   UNL A   1      45.745  25.221  26.032  1.00  0.00     0.031 C 
ATOM     72  C   UNL A   1      44.151  29.822  29.077  1.00  0.00     0.029 A 
ATOM     73  C   UNL A   1      44.491  28.928  28.061  1.00  0.00     0.049 A 
ATOM     74  H   UNL A   1      46.353  28.910  27.091  1.00  0.00     0.167 HD
ATOM     75  C   UNL A   1      44.258  26.909  26.609  1.00  0.00     0.074 A 
ATOM     76  C   UNL A   1      45.633  26.525  26.297  1.00  0.00     0.031 C 
ATOM     77  C   UNL A   1      43.728  27.938  27.335  1.00  0.00     0.037 A 
BRANCH  64  78
ATOM     78  C   UNL A   1      48.870  29.087  28.675  1.00  0.00     0.064 A 
ATOM     79  C   UNL A   1      49.512  30.341  28.598  1.00  0.00     0.173 A 
ATOM     80  C   UNL A   1      49.282  28.143  27.708  1.00  0.00     0.173 A 
ATOM     81  F   UNL A   1      49.199  31.322  29.459  1.00  0.00    -0.203 F 
ATOM     82  C   UNL A   1      50.410  30.655  27.574  1.00  0.00     0.198 A 
ATOM     83  C   UNL A   1      50.218  28.443  26.720  1.00  0.00     0.198 A 
ATOM     84  F   UNL A   1      48.726  26.933  27.598  1.00  0.00    -0.203 F 
ATOM     85  F   UNL A   1      50.882  31.904  27.463  1.00  0.00    -0.200 F 
ATOM     86  C   UNL A   1      50.754  29.709  26.629  1.00  0.00     0.200 A 
ATOM     87  F   UNL A   1      50.526  27.515  25.802  1.00  0.00    -0.200 F 
ATOM     88  F   UNL A   1      51.559  30.024  25.607  1.00  0.00    -0.200 F 
ENDBRANCH  64  78
BRANCH  65  89
ATOM     89  C   UNL A   1      44.302  22.233  26.021  1.00  0.00     0.064 A 
ATOM     90  C   UNL A   1      45.571  21.798  25.598  1.00  0.00     0.173 A 
ATOM     91  C   UNL A   1      43.251  21.306  25.898  1.00  0.00     0.173 A 
ATOM     92  F   UNL A   1      46.635  22.605  25.722  1.00  0.00    -0.203 F 
ATOM     93  C   UNL A   1      45.781  20.501  25.116  1.00  0.00     0.198 A 
ATOM     94  C   UNL A   1      43.461  20.011  25.415  1.00  0.00     0.198 A 
ATOM     95  F   UNL A   1      42.021  21.602  26.341  1.00  0.00    -0.203 F 
ATOM     96  F   UNL A   1      47.018  20.101  24.789  1.00  0.00    -0.200 F 
ATOM     97  C   UNL A   1      44.729  19.605  25.039  1.00  0.00     0.200 A 
ATOM     98  F   UNL A   1      42.443  19.140  25.383  1.00  0.00    -0.200 F 
ATOM     99  F   UNL A   1      44.941  18.341  24.646  1.00  0.00    -0.200 F 
ENDBRANCH  65  89
BRANCH  77 100
ATOM    100  C   UNL A   1      42.240  27.931  27.556  1.00  0.00     0.064 A 
ATOM    101  C   UNL A   1      41.598  27.320  28.647  1.00  0.00     0.173 A 
ATOM    102  C   UNL A   1      41.444  28.677  26.679  1.00  0.00     0.173 A 
ATOM    103  F   UNL A   1      42.295  26.664  29.582  1.00  0.00    -0.203 F 
ATOM    104  C   UNL A   1      40.217  27.417  28.823  1.00  0.00     0.198 A 
ATOM    105  C   UNL A   1      40.073  28.805  26.877  1.00  0.00     0.198 A 
ATOM    106  F   UNL A   1      42.009  29.326  25.648  1.00  0.00    -0.203 F 
ATOM    107  F   UNL A   1      39.626  26.810  29.864  1.00  0.00    -0.200 F 
ATOM    108  C   UNL A   1      39.458  28.165  27.941  1.00  0.00     0.200 A 
ATOM    109  F   UNL A   1      39.350  29.570  26.048  1.00  0.00    -0.200 F 
ATOM    110  F   UNL A   1      38.136  28.292  28.128  1.00  0.00    -0.200 F 
ENDBRANCH  77 100
ENDBRANCH  51  52
ENDBRANCH  43  46
ENDBRANCH  41  42
ENDBRANCH  40  41
ENDBRANCH  39  40
ENDBRANCH   1  39
TORSDOF 19
ENDMDL
