MODEL 1
REMARK VINA RESULT:     -11.9      0.000      0.000
REMARK SMILES O=C(NCCCCCCNC(=O)[C@@H](CO)NC(=O)[C@H]1CCCc2ccccc21)c1ccc(-c2c3nc(c(-c4c(F)c(F)c(F)c(F)c4F)c4ccc([nH]4)c(-c4c(F)c(F)c(F)c(F)c4F)c4nc(c(-c5c(F)c(F)c(F)c(F)c5F)c5ccc2[nH]5)C=C4)C=C3)cc1
REMARK SMILES IDX 6 1 5 2 4 3 3 4 1 5 2 6 29 8 30 9 91 10 31 11 90 12 32 13
REMARK SMILES IDX 33 14 34 15 84 16 35 17 89 18 83 19 85 20 36 21 88 22 82 23
REMARK SMILES IDX 81 24 37 26 69 27 49 28 68 29 50 30 53 31 67 32 86 33 51 34
REMARK SMILES IDX 52 35 66 37 87 38 54 39 38 40 39 41 47 42 40 43 41 44 45 45
REMARK SMILES IDX 48 46 42 47 43 48 46 49 44 50 70 51 71 52 79 53 72 54 73 55
REMARK SMILES IDX 77 56 80 57 74 58 75 59 78 60 76 61 55 62 56 63 64 64 57 65
REMARK SMILES IDX 58 66 62 67 65 68 59 69 60 70 63 71 61 72 7 73 8 74 9 75
REMARK SMILES IDX 10 76 11 77 12 79 13 80 14 81 15 82 16 84 17 85 18 87 19 88
REMARK SMILES IDX 20 89 28 90 21 91 23 92 27 93 22 94 24 95 26 96 25 97
REMARK H PARENT 3 7 85 25 53 36 10 78 15 83 16 86
REMARK Flexibility Score: inf
ROOT
ATOM      1  C   UNL A   1      32.625  27.047  25.901  1.00  0.00     0.002 C 
ENDROOT
BRANCH   1   2
ATOM      2  C   UNL A   1      33.114  27.845  24.694  1.00  0.00     0.021 C 
BRANCH   2   3
ATOM      3  C   UNL A   1      34.018  29.010  25.060  1.00  0.00     0.116 C 
BRANCH   3   4
ATOM      4  N   UNL A   1      33.255  30.140  25.567  1.00  0.00    -0.352 N 
ATOM      5  O   UNL A   1      32.559  31.579  27.167  1.00  0.00    -0.269 OA
ATOM      6  C   UNL A   1      33.413  30.799  26.757  1.00  0.00     0.251 C 
ATOM      7  H   UNL A   1      32.536  30.472  24.982  1.00  0.00     0.163 HD
BRANCH   6   8
ATOM      8  C   UNL A   1      34.633  30.545  27.546  1.00  0.00     0.039 A 
ATOM      9  C   UNL A   1      34.781  29.328  28.218  1.00  0.00     0.014 A 
ATOM     10  C   UNL A   1      35.618  31.530  27.626  1.00  0.00     0.014 A 
ATOM     11  C   UNL A   1      35.860  29.142  29.069  1.00  0.00     0.010 A 
ATOM     12  C   UNL A   1      36.752  31.300  28.405  1.00  0.00     0.010 A 
ATOM     13  C   UNL A   1      36.875  30.110  29.140  1.00  0.00    -0.014 A 
BRANCH  13  14
ATOM     14  C   UNL A   1      38.109  29.803  29.901  1.00  0.00     0.031 A 
ATOM     15  C   UNL A   1      39.167  28.901  29.344  1.00  0.00     0.074 A 
ATOM     16  C   UNL A   1      38.251  30.362  31.119  1.00  0.00     0.049 A 
ATOM     17  N   UNL A   1      40.286  28.508  29.896  1.00  0.00    -0.248 NA
ATOM     18  C   UNL A   1      38.940  28.362  27.995  1.00  0.00     0.031 C 
ATOM     19  C   UNL A   1      37.274  31.247  31.758  1.00  0.00     0.029 A 
ATOM     20  N   UNL A   1      39.269  30.277  32.033  1.00  0.00    -0.354 N 
ATOM     21  C   UNL A   1      40.890  27.663  28.975  1.00  0.00     0.074 A 
ATOM     22  C   UNL A   1      40.000  27.578  27.836  1.00  0.00     0.031 C 
ATOM     23  C   UNL A   1      37.754  31.653  32.941  1.00  0.00     0.029 A 
ATOM     24  C   UNL A   1      39.032  30.997  33.178  1.00  0.00     0.049 A 
ATOM     25  H   UNL A   1      40.088  29.752  31.885  1.00  0.00     0.167 HD
ATOM     26  C   UNL A   1      42.080  27.024  29.077  1.00  0.00     0.037 A 
ATOM     27  C   UNL A   1      39.750  31.093  34.311  1.00  0.00     0.037 A 
ATOM     28  C   UNL A   1      42.954  27.125  30.218  1.00  0.00     0.049 A 
ATOM     29  C   UNL A   1      41.042  30.335  34.411  1.00  0.00     0.074 A 
ATOM     30  C   UNL A   1      44.199  26.550  30.405  1.00  0.00     0.029 A 
ATOM     31  N   UNL A   1      42.671  27.841  31.374  1.00  0.00    -0.354 N 
ATOM     32  N   UNL A   1      41.623  29.571  33.518  1.00  0.00    -0.248 NA
ATOM     33  C   UNL A   1      41.775  30.447  35.677  1.00  0.00     0.031 C 
ATOM     34  C   UNL A   1      44.641  26.866  31.694  1.00  0.00     0.029 A 
ATOM     35  C   UNL A   1      43.702  27.693  32.289  1.00  0.00     0.049 A 
ATOM     36  H   UNL A   1      41.856  28.374  31.522  1.00  0.00     0.167 HD
ATOM     37  C   UNL A   1      42.799  29.129  34.104  1.00  0.00     0.074 A 
ATOM     38  C   UNL A   1      42.858  29.727  35.423  1.00  0.00     0.031 C 
ATOM     39  C   UNL A   1      43.743  28.298  33.598  1.00  0.00     0.037 A 
BRANCH  26  40
ATOM     40  C   UNL A   1      42.500  26.137  27.939  1.00  0.00     0.064 A 
ATOM     41  C   UNL A   1      43.422  26.561  26.971  1.00  0.00     0.173 A 
ATOM     42  C   UNL A   1      42.014  24.823  27.848  1.00  0.00     0.173 A 
ATOM     43  F   UNL A   1      43.912  27.809  27.006  1.00  0.00    -0.203 F 
ATOM     44  C   UNL A   1      43.822  25.713  25.940  1.00  0.00     0.198 A 
ATOM     45  C   UNL A   1      42.438  23.968  26.834  1.00  0.00     0.198 A 
ATOM     46  F   UNL A   1      41.135  24.362  28.751  1.00  0.00    -0.203 F 
ATOM     47  F   UNL A   1      44.670  26.155  25.002  1.00  0.00    -0.200 F 
ATOM     48  C   UNL A   1      43.336  24.415  25.878  1.00  0.00     0.200 A 
ATOM     49  F   UNL A   1      41.980  22.710  26.785  1.00  0.00    -0.200 F 
ATOM     50  F   UNL A   1      43.730  23.597  24.891  1.00  0.00    -0.200 F 
ENDBRANCH  26  40
BRANCH  27  51
ATOM     51  C   UNL A   1      39.248  31.922  35.435  1.00  0.00     0.064 A 
ATOM     52  C   UNL A   1      39.565  33.284  35.527  1.00  0.00     0.173 A 
ATOM     53  C   UNL A   1      38.428  31.374  36.434  1.00  0.00     0.173 A 
ATOM     54  F   UNL A   1      40.357  33.851  34.604  1.00  0.00    -0.203 F 
ATOM     55  C   UNL A   1      39.099  34.061  36.586  1.00  0.00     0.198 A 
ATOM     56  C   UNL A   1      37.934  32.160  37.472  1.00  0.00     0.198 A 
ATOM     57  F   UNL A   1      38.087  30.077  36.387  1.00  0.00    -0.203 F 
ATOM     58  F   UNL A   1      39.455  35.349  36.675  1.00  0.00    -0.200 F 
ATOM     59  C   UNL A   1      38.278  33.500  37.553  1.00  0.00     0.200 A 
ATOM     60  F   UNL A   1      37.124  31.618  38.392  1.00  0.00    -0.200 F 
ATOM     61  F   UNL A   1      37.824  34.250  38.566  1.00  0.00    -0.200 F 
ENDBRANCH  27  51
BRANCH  39  62
ATOM     62  C   UNL A   1      44.937  28.016  34.462  1.00  0.00     0.064 A 
ATOM     63  C   UNL A   1      46.078  28.830  34.430  1.00  0.00     0.173 A 
ATOM     64  C   UNL A   1      44.926  26.934  35.356  1.00  0.00     0.173 A 
ATOM     65  F   UNL A   1      46.147  29.865  33.580  1.00  0.00    -0.203 F 
ATOM     66  C   UNL A   1      47.175  28.556  35.244  1.00  0.00     0.198 A 
ATOM     67  C   UNL A   1      46.009  26.684  36.192  1.00  0.00     0.198 A 
ATOM     68  F   UNL A   1      43.857  26.127  35.427  1.00  0.00    -0.203 F 
ATOM     69  F   UNL A   1      48.276  29.316  35.159  1.00  0.00    -0.200 F 
ATOM     70  C   UNL A   1      47.136  27.490  36.130  1.00  0.00     0.200 A 
ATOM     71  F   UNL A   1      45.964  25.662  37.057  1.00  0.00    -0.200 F 
ATOM     72  F   UNL A   1      48.189  27.233  36.919  1.00  0.00    -0.200 F 
ENDBRANCH  39  62
ENDBRANCH  13  14
ENDBRANCH   6   8
ENDBRANCH   3   4
ENDBRANCH   2   3
ENDBRANCH   1   2
BRANCH   1  73
ATOM     73  C   UNL A   1      31.103  27.009  26.056  1.00  0.00     0.002 C 
BRANCH  73  74
ATOM     74  C   UNL A   1      30.345  26.541  24.806  1.00  0.00     0.021 C 
BRANCH  74  75
ATOM     75  C   UNL A   1      30.008  25.046  24.807  1.00  0.00     0.116 C 
BRANCH  75  76
ATOM     76  N   UNL A   1      29.834  24.587  26.166  1.00  0.00    -0.354 N 
ATOM     77  C   UNL A   1      30.341  23.477  26.756  1.00  0.00     0.244 C 
ATOM     78  H   UNL A   1      29.271  25.157  26.739  1.00  0.00     0.163 HD
ATOM     79  O   UNL A   1      29.640  22.946  27.625  1.00  0.00    -0.273 OA
BRANCH  77  80
ATOM     80  C   UNL A   1      31.667  22.834  26.324  1.00  0.00     0.197 C 
BRANCH  80  81
ATOM     81  C   UNL A   1      32.779  22.948  27.381  1.00  0.00     0.191 C 
BRANCH  81  82
ATOM     82  O   UNL A   1      32.529  22.202  28.569  1.00  0.00    -0.394 OA
ATOM     83  H   UNL A   1      32.448  21.261  28.349  1.00  0.00     0.210 HD
ENDBRANCH  81  82
ENDBRANCH  80  81
BRANCH  80  84
ATOM     84  N   UNL A   1      31.567  21.490  25.752  1.00  0.00    -0.342 N 
ATOM     85  C   UNL A   1      32.178  20.868  24.714  1.00  0.00     0.228 C 
ATOM     86  H   UNL A   1      30.917  20.917  26.220  1.00  0.00     0.164 HD
ATOM     87  O   UNL A   1      31.833  19.682  24.573  1.00  0.00    -0.274 OA
BRANCH  85  88
ATOM     88  C   UNL A   1      33.238  21.444  23.732  1.00  0.00     0.109 C 
ATOM     89  C   UNL A   1      32.453  22.384  22.775  1.00  0.00     0.018 C 
ATOM     90  C   UNL A   1      34.502  22.092  24.282  1.00  0.00    -0.032 A 
ATOM     91  C   UNL A   1      33.302  23.496  22.179  1.00  0.00     0.006 C 
ATOM     92  C   UNL A   1      34.691  23.485  24.237  1.00  0.00    -0.044 A 
ATOM     93  C   UNL A   1      35.516  21.308  24.853  1.00  0.00     0.005 A 
ATOM     94  C   UNL A   1      33.873  24.346  23.310  1.00  0.00     0.036 C 
ATOM     95  C   UNL A   1      35.690  24.078  25.021  1.00  0.00     0.004 A 
ATOM     96  C   UNL A   1      36.529  21.902  25.612  1.00  0.00     0.000 A 
ATOM     97  C   UNL A   1      36.578  23.286  25.743  1.00  0.00     0.000 A 
ENDBRANCH  85  88
ENDBRANCH  80  84
ENDBRANCH  77  80
ENDBRANCH  75  76
ENDBRANCH  74  75
ENDBRANCH  73  74
ENDBRANCH   1  73
TORSDOF 17
ENDMDL
MODEL 2
REMARK VINA RESULT:     -11.9      2.449      7.489
REMARK SMILES O=C(NCCCCCCNC(=O)[C@@H](CO)NC(=O)[C@H]1CCCc2ccccc21)c1ccc(-c2c3nc(c(-c4c(F)c(F)c(F)c(F)c4F)c4ccc([nH]4)c(-c4c(F)c(F)c(F)c(F)c4F)c4nc(c(-c5c(F)c(F)c(F)c(F)c5F)c5ccc2[nH]5)C=C4)C=C3)cc1
REMARK SMILES IDX 6 1 5 2 4 3 3 4 1 5 2 6 29 8 30 9 91 10 31 11 90 12 32 13
REMARK SMILES IDX 33 14 34 15 84 16 35 17 89 18 83 19 85 20 36 21 88 22 82 23
REMARK SMILES IDX 81 24 37 26 69 27 49 28 68 29 50 30 53 31 67 32 86 33 51 34
REMARK SMILES IDX 52 35 66 37 87 38 54 39 38 40 39 41 47 42 40 43 41 44 45 45
REMARK SMILES IDX 48 46 42 47 43 48 46 49 44 50 70 51 71 52 79 53 72 54 73 55
REMARK SMILES IDX 77 56 80 57 74 58 75 59 78 60 76 61 55 62 56 63 64 64 57 65
REMARK SMILES IDX 58 66 62 67 65 68 59 69 60 70 63 71 61 72 7 73 8 74 9 75
REMARK SMILES IDX 10 76 11 77 12 79 13 80 14 81 15 82 16 84 17 85 18 87 19 88
REMARK SMILES IDX 20 89 28 90 21 91 23 92 27 93 22 94 24 95 26 96 25 97
REMARK H PARENT 3 7 85 25 53 36 10 78 15 83 16 86
REMARK Flexibility Score: inf
ROOT
ATOM      1  C   UNL A   1      32.777  26.812  25.107  1.00  0.00     0.002 C 
ENDROOT
BRANCH   1   2
ATOM      2  C   UNL A   1      33.899  27.794  25.437  1.00  0.00     0.021 C 
BRANCH   2   3
ATOM      3  C   UNL A   1      33.955  28.185  26.905  1.00  0.00     0.116 C 
BRANCH   3   4
ATOM      4  N   UNL A   1      33.702  29.604  27.089  1.00  0.00    -0.352 N 
ATOM      5  O   UNL A   1      34.003  31.620  28.070  1.00  0.00    -0.269 OA
ATOM      6  C   UNL A   1      34.448  30.510  27.797  1.00  0.00     0.251 C 
ATOM      7  H   UNL A   1      32.894  29.959  26.652  1.00  0.00     0.163 HD
BRANCH   6   8
ATOM      8  C   UNL A   1      35.800  30.119  28.234  1.00  0.00     0.039 A 
ATOM      9  C   UNL A   1      36.873  30.225  27.344  1.00  0.00     0.014 A 
ATOM     10  C   UNL A   1      35.991  29.632  29.528  1.00  0.00     0.014 A 
ATOM     11  C   UNL A   1      38.116  29.731  27.707  1.00  0.00     0.010 A 
ATOM     12  C   UNL A   1      37.266  29.227  29.924  1.00  0.00     0.010 A 
ATOM     13  C   UNL A   1      38.334  29.264  29.013  1.00  0.00    -0.014 A 
BRANCH  13  14
ATOM     14  C   UNL A   1      39.714  28.926  29.436  1.00  0.00     0.031 A 
ATOM     15  C   UNL A   1      40.496  29.829  30.341  1.00  0.00     0.074 A 
ATOM     16  C   UNL A   1      40.248  27.778  28.979  1.00  0.00     0.049 A 
ATOM     17  N   UNL A   1      41.722  29.694  30.776  1.00  0.00    -0.248 NA
ATOM     18  C   UNL A   1      39.820  31.046  30.816  1.00  0.00     0.031 C 
ATOM     19  C   UNL A   1      39.574  26.833  28.084  1.00  0.00     0.029 A 
ATOM     20  N   UNL A   1      41.472  27.204  29.204  1.00  0.00    -0.354 N 
ATOM     21  C   UNL A   1      41.975  30.811  31.559  1.00  0.00     0.074 A 
ATOM     22  C   UNL A   1      40.782  31.631  31.520  1.00  0.00     0.031 C 
ATOM     23  C   UNL A   1      40.376  25.783  27.867  1.00  0.00     0.029 A 
ATOM     24  C   UNL A   1      41.645  26.015  28.540  1.00  0.00     0.049 A 
ATOM     25  H   UNL A   1      42.160  27.604  29.784  1.00  0.00     0.167 HD
ATOM     26  C   UNL A   1      43.102  31.116  32.247  1.00  0.00     0.037 A 
ATOM     27  C   UNL A   1      42.722  25.214  28.453  1.00  0.00     0.037 A 
ATOM     28  C   UNL A   1      44.278  30.285  32.278  1.00  0.00     0.049 A 
ATOM     29  C   UNL A   1      43.971  25.604  29.190  1.00  0.00     0.074 A 
ATOM     30  C   UNL A   1      45.457  30.483  32.976  1.00  0.00     0.029 A 
ATOM     31  N   UNL A   1      44.431  29.100  31.570  1.00  0.00    -0.354 N 
ATOM     32  N   UNL A   1      44.185  26.643  29.961  1.00  0.00    -0.248 NA
ATOM     33  C   UNL A   1      45.128  24.714  29.041  1.00  0.00     0.031 C 
ATOM     34  C   UNL A   1      46.343  29.452  32.643  1.00  0.00     0.029 A 
ATOM     35  C   UNL A   1      45.695  28.575  31.788  1.00  0.00     0.049 A 
ATOM     36  H   UNL A   1      43.742  28.693  30.996  1.00  0.00     0.167 HD
ATOM     37  C   UNL A   1      45.492  26.522  30.406  1.00  0.00     0.074 A 
ATOM     38  C   UNL A   1      46.015  25.296  29.835  1.00  0.00     0.031 C 
ATOM     39  C   UNL A   1      46.198  27.353  31.212  1.00  0.00     0.037 A 
BRANCH  26  40
ATOM     40  C   UNL A   1      43.131  32.413  33.005  1.00  0.00     0.064 A 
ATOM     41  C   UNL A   1      42.754  32.492  34.354  1.00  0.00     0.173 A 
ATOM     42  C   UNL A   1      43.596  33.585  32.387  1.00  0.00     0.173 A 
ATOM     43  F   UNL A   1      42.296  31.405  34.992  1.00  0.00    -0.203 F 
ATOM     44  C   UNL A   1      42.818  33.699  35.048  1.00  0.00     0.198 A 
ATOM     45  C   UNL A   1      43.686  34.783  33.092  1.00  0.00     0.198 A 
ATOM     46  F   UNL A   1      43.976  33.566  31.100  1.00  0.00    -0.203 F 
ATOM     47  F   UNL A   1      42.411  33.758  36.323  1.00  0.00    -0.200 F 
ATOM     48  C   UNL A   1      43.291  34.841  34.419  1.00  0.00     0.200 A 
ATOM     49  F   UNL A   1      44.158  35.881  32.486  1.00  0.00    -0.200 F 
ATOM     50  F   UNL A   1      43.361  35.998  35.091  1.00  0.00    -0.200 F 
ENDBRANCH  26  40
BRANCH  27  51
ATOM     51  C   UNL A   1      42.662  23.984  27.625  1.00  0.00     0.064 A 
ATOM     52  C   UNL A   1      42.996  24.012  26.264  1.00  0.00     0.173 A 
ATOM     53  C   UNL A   1      42.284  22.750  28.178  1.00  0.00     0.173 A 
ATOM     54  F   UNL A   1      43.350  25.170  25.686  1.00  0.00    -0.203 F 
ATOM     55  C   UNL A   1      42.933  22.859  25.484  1.00  0.00     0.198 A 
ATOM     56  C   UNL A   1      42.255  21.593  27.406  1.00  0.00     0.198 A 
ATOM     57  F   UNL A   1      41.963  22.667  29.478  1.00  0.00    -0.203 F 
ATOM     58  F   UNL A   1      43.212  22.923  24.176  1.00  0.00    -0.200 F 
ATOM     59  C   UNL A   1      42.570  21.649  26.057  1.00  0.00     0.200 A 
ATOM     60  F   UNL A   1      41.925  20.422  27.969  1.00  0.00    -0.200 F 
ATOM     61  F   UNL A   1      42.518  20.540  25.308  1.00  0.00    -0.200 F 
ENDBRANCH  27  51
BRANCH  39  62
ATOM     62  C   UNL A   1      47.602  26.944  31.550  1.00  0.00     0.064 A 
ATOM     63  C   UNL A   1      48.704  27.431  30.831  1.00  0.00     0.173 A 
ATOM     64  C   UNL A   1      47.849  26.079  32.627  1.00  0.00     0.173 A 
ATOM     65  F   UNL A   1      48.520  28.245  29.780  1.00  0.00    -0.203 F 
ATOM     66  C   UNL A   1      50.000  27.046  31.163  1.00  0.00     0.198 A 
ATOM     67  C   UNL A   1      49.148  25.724  32.977  1.00  0.00     0.198 A 
ATOM     68  F   UNL A   1      46.831  25.589  33.348  1.00  0.00    -0.203 F 
ATOM     69  F   UNL A   1      51.034  27.480  30.429  1.00  0.00    -0.200 F 
ATOM     70  C   UNL A   1      50.222  26.201  32.240  1.00  0.00     0.200 A 
ATOM     71  F   UNL A   1      49.361  24.920  34.027  1.00  0.00    -0.200 F 
ATOM     72  F   UNL A   1      51.471  25.839  32.563  1.00  0.00    -0.200 F 
ENDBRANCH  39  62
ENDBRANCH  13  14
ENDBRANCH   6   8
ENDBRANCH   3   4
ENDBRANCH   2   3
ENDBRANCH   1   2
BRANCH   1  73
ATOM     73  C   UNL A   1      31.381  27.295  25.508  1.00  0.00     0.002 C 
BRANCH  73  74
ATOM     74  C   UNL A   1      30.230  26.639  24.730  1.00  0.00     0.021 C 
BRANCH  74  75
ATOM     75  C   UNL A   1      30.248  25.107  24.769  1.00  0.00     0.116 C 
BRANCH  75  76
ATOM     76  N   UNL A   1      30.010  24.651  26.119  1.00  0.00    -0.354 N 
ATOM     77  C   UNL A   1      30.457  23.523  26.722  1.00  0.00     0.244 C 
ATOM     78  H   UNL A   1      29.449  25.239  26.674  1.00  0.00     0.163 HD
ATOM     79  O   UNL A   1      29.709  23.015  27.564  1.00  0.00    -0.273 OA
BRANCH  77  80
ATOM     80  C   UNL A   1      31.774  22.835  26.334  1.00  0.00     0.197 C 
BRANCH  80  81
ATOM     81  C   UNL A   1      32.885  22.995  27.386  1.00  0.00     0.191 C 
BRANCH  81  82
ATOM     82  O   UNL A   1      32.683  22.224  28.567  1.00  0.00    -0.394 OA
ATOM     83  H   UNL A   1      32.782  21.282  28.358  1.00  0.00     0.210 HD
ENDBRANCH  81  82
ENDBRANCH  80  81
BRANCH  80  84
ATOM     84  N   UNL A   1      31.655  21.460  25.845  1.00  0.00    -0.342 N 
ATOM     85  C   UNL A   1      32.242  20.773  24.835  1.00  0.00     0.228 C 
ATOM     86  H   UNL A   1      31.010  20.921  26.357  1.00  0.00     0.164 HD
ATOM     87  O   UNL A   1      31.887  19.583  24.770  1.00  0.00    -0.274 OA
BRANCH  85  88
ATOM     88  C   UNL A   1      33.287  21.282  23.801  1.00  0.00     0.109 C 
ATOM     89  C   UNL A   1      32.476  22.093  22.751  1.00  0.00     0.018 C 
ATOM     90  C   UNL A   1      34.526  22.025  24.284  1.00  0.00    -0.032 A 
ATOM     91  C   UNL A   1      33.291  23.166  22.048  1.00  0.00     0.006 C 
ATOM     92  C   UNL A   1      34.669  23.412  24.098  1.00  0.00    -0.044 A 
ATOM     93  C   UNL A   1      35.563  21.337  24.934  1.00  0.00     0.005 A 
ATOM     94  C   UNL A   1      33.827  24.145  23.087  1.00  0.00     0.036 C 
ATOM     95  C   UNL A   1      35.643  24.114  24.820  1.00  0.00     0.004 A 
ATOM     96  C   UNL A   1      36.552  22.039  25.631  1.00  0.00     0.000 A 
ATOM     97  C   UNL A   1      36.553  23.431  25.621  1.00  0.00     0.000 A 
ENDBRANCH  85  88
ENDBRANCH  80  84
ENDBRANCH  77  80
ENDBRANCH  75  76
ENDBRANCH  74  75
ENDBRANCH  73  74
ENDBRANCH   1  73
TORSDOF 17
ENDMDL
MODEL 3
REMARK VINA RESULT:     -11.8      2.671      7.642
REMARK SMILES O=C(NCCCCCCNC(=O)[C@@H](CO)NC(=O)[C@H]1CCCc2ccccc21)c1ccc(-c2c3nc(c(-c4c(F)c(F)c(F)c(F)c4F)c4ccc([nH]4)c(-c4c(F)c(F)c(F)c(F)c4F)c4nc(c(-c5c(F)c(F)c(F)c(F)c5F)c5ccc2[nH]5)C=C4)C=C3)cc1
REMARK SMILES IDX 6 1 5 2 4 3 3 4 1 5 2 6 29 8 30 9 91 10 31 11 90 12 32 13
REMARK SMILES IDX 33 14 34 15 84 16 35 17 89 18 83 19 85 20 36 21 88 22 82 23
REMARK SMILES IDX 81 24 37 26 69 27 49 28 68 29 50 30 53 31 67 32 86 33 51 34
REMARK SMILES IDX 52 35 66 37 87 38 54 39 38 40 39 41 47 42 40 43 41 44 45 45
REMARK SMILES IDX 48 46 42 47 43 48 46 49 44 50 70 51 71 52 79 53 72 54 73 55
REMARK SMILES IDX 77 56 80 57 74 58 75 59 78 60 76 61 55 62 56 63 64 64 57 65
REMARK SMILES IDX 58 66 62 67 65 68 59 69 60 70 63 71 61 72 7 73 8 74 9 75
REMARK SMILES IDX 10 76 11 77 12 79 13 80 14 81 15 82 16 84 17 85 18 87 19 88
REMARK SMILES IDX 20 89 28 90 21 91 23 92 27 93 22 94 24 95 26 96 25 97
REMARK H PARENT 3 7 85 25 53 36 10 78 15 83 16 86
REMARK Flexibility Score: inf
ROOT
ATOM      1  C   UNL A   1      32.761  26.682  25.407  1.00  0.00     0.002 C 
ENDROOT
BRANCH   1   2
ATOM      2  C   UNL A   1      33.724  27.866  25.450  1.00  0.00     0.021 C 
BRANCH   2   3
ATOM      3  C   UNL A   1      34.165  28.241  26.855  1.00  0.00     0.116 C 
BRANCH   3   4
ATOM      4  N   UNL A   1      33.879  29.635  27.151  1.00  0.00    -0.352 N 
ATOM      5  O   UNL A   1      34.147  31.579  28.276  1.00  0.00    -0.269 OA
ATOM      6  C   UNL A   1      34.615  30.504  27.912  1.00  0.00     0.251 C 
ATOM      7  H   UNL A   1      33.055  30.000  26.755  1.00  0.00     0.163 HD
BRANCH   6   8
ATOM      8  C   UNL A   1      35.984  30.118  28.297  1.00  0.00     0.039 A 
ATOM      9  C   UNL A   1      37.029  30.268  27.380  1.00  0.00     0.014 A 
ATOM     10  C   UNL A   1      36.221  29.593  29.568  1.00  0.00     0.014 A 
ATOM     11  C   UNL A   1      38.289  29.779  27.690  1.00  0.00     0.010 A 
ATOM     12  C   UNL A   1      37.512  29.193  29.913  1.00  0.00     0.010 A 
ATOM     13  C   UNL A   1      38.552  29.274  28.973  1.00  0.00    -0.014 A 
BRANCH  13  14
ATOM     14  C   UNL A   1      39.947  28.942  29.344  1.00  0.00     0.031 A 
ATOM     15  C   UNL A   1      40.771  29.864  30.190  1.00  0.00     0.074 A 
ATOM     16  C   UNL A   1      40.458  27.780  28.894  1.00  0.00     0.049 A 
ATOM     17  N   UNL A   1      42.015  29.736  30.574  1.00  0.00    -0.248 NA
ATOM     18  C   UNL A   1      40.121  31.096  30.661  1.00  0.00     0.031 C 
ATOM     19  C   UNL A   1      39.742  26.815  28.055  1.00  0.00     0.029 A 
ATOM     20  N   UNL A   1      41.689  27.207  29.080  1.00  0.00    -0.354 N 
ATOM     21  C   UNL A   1      42.305  30.872  31.315  1.00  0.00     0.074 A 
ATOM     22  C   UNL A   1      41.114  31.696  31.306  1.00  0.00     0.031 C 
ATOM     23  C   UNL A   1      40.531  25.756  27.830  1.00  0.00     0.029 A 
ATOM     24  C   UNL A   1      41.829  26.000  28.440  1.00  0.00     0.049 A 
ATOM     25  H   UNL A   1      42.403  27.619  29.618  1.00  0.00     0.167 HD
ATOM     26  C   UNL A   1      43.462  31.190  31.945  1.00  0.00     0.037 A 
ATOM     27  C   UNL A   1      42.899  25.192  28.328  1.00  0.00     0.037 A 
ATOM     28  C   UNL A   1      44.636  30.356  31.946  1.00  0.00     0.049 A 
ATOM     29  C   UNL A   1      44.180  25.596  28.999  1.00  0.00     0.074 A 
ATOM     30  C   UNL A   1      45.845  30.567  32.586  1.00  0.00     0.029 A 
ATOM     31  N   UNL A   1      44.754  29.152  31.263  1.00  0.00    -0.354 N 
ATOM     32  N   UNL A   1      44.430  26.654  29.732  1.00  0.00    -0.248 NA
ATOM     33  C   UNL A   1      45.326  24.698  28.823  1.00  0.00     0.031 C 
ATOM     34  C   UNL A   1      46.712  29.524  32.242  1.00  0.00     0.029 A 
ATOM     35  C   UNL A   1      46.025  28.628  31.440  1.00  0.00     0.049 A 
ATOM     36  H   UNL A   1      44.039  28.733  30.731  1.00  0.00     0.167 HD
ATOM     37  C   UNL A   1      45.756  26.540  30.123  1.00  0.00     0.074 A 
ATOM     38  C   UNL A   1      46.249  25.297  29.562  1.00  0.00     0.031 C 
ATOM     39  C   UNL A   1      46.498  27.389  30.874  1.00  0.00     0.037 A 
BRANCH  26  40
ATOM     40  C   UNL A   1      43.528  32.507  32.667  1.00  0.00     0.064 A 
ATOM     41  C   UNL A   1      43.912  33.690  32.016  1.00  0.00     0.173 A 
ATOM     42  C   UNL A   1      43.151  32.595  34.015  1.00  0.00     0.173 A 
ATOM     43  F   UNL A   1      44.290  33.661  30.730  1.00  0.00    -0.203 F 
ATOM     44  C   UNL A   1      43.938  34.906  32.696  1.00  0.00     0.198 A 
ATOM     45  C   UNL A   1      43.149  33.818  34.684  1.00  0.00     0.198 A 
ATOM     46  F   UNL A   1      42.768  31.498  34.685  1.00  0.00    -0.203 F 
ATOM     47  F   UNL A   1      44.350  36.014  32.066  1.00  0.00    -0.200 F 
ATOM     48  C   UNL A   1      43.549  34.970  34.026  1.00  0.00     0.200 A 
ATOM     49  F   UNL A   1      42.758  33.880  35.963  1.00  0.00    -0.200 F 
ATOM     50  F   UNL A   1      43.566  36.143  34.675  1.00  0.00    -0.200 F 
ENDBRANCH  26  40
BRANCH  27  51
ATOM     51  C   UNL A   1      42.799  23.941  27.536  1.00  0.00     0.064 A 
ATOM     52  C   UNL A   1      42.349  22.750  28.120  1.00  0.00     0.173 A 
ATOM     53  C   UNL A   1      43.137  23.912  26.174  1.00  0.00     0.173 A 
ATOM     54  F   UNL A   1      42.026  22.723  29.422  1.00  0.00    -0.203 F 
ATOM     55  C   UNL A   1      42.261  21.574  27.378  1.00  0.00     0.198 A 
ATOM     56  C   UNL A   1      43.016  22.745  25.425  1.00  0.00     0.198 A 
ATOM     57  F   UNL A   1      43.565  25.029  25.564  1.00  0.00    -0.203 F 
ATOM     58  F   UNL A   1      41.872  20.438  27.973  1.00  0.00    -0.200 F 
ATOM     59  C   UNL A   1      42.588  21.574  26.030  1.00  0.00     0.200 A 
ATOM     60  F   UNL A   1      43.312  22.756  24.119  1.00  0.00    -0.200 F 
ATOM     61  F   UNL A   1      42.495  20.444  25.316  1.00  0.00    -0.200 F 
ENDBRANCH  27  51
BRANCH  39  62
ATOM     62  C   UNL A   1      47.915  26.984  31.161  1.00  0.00     0.064 A 
ATOM     63  C   UNL A   1      48.234  26.122  32.222  1.00  0.00     0.173 A 
ATOM     64  C   UNL A   1      48.962  27.439  30.346  1.00  0.00     0.173 A 
ATOM     65  F   UNL A   1      47.272  25.675  33.042  1.00  0.00    -0.203 F 
ATOM     66  C   UNL A   1      49.554  25.753  32.469  1.00  0.00     0.198 A 
ATOM     67  C   UNL A   1      50.275  27.040  30.575  1.00  0.00     0.198 A 
ATOM     68  F   UNL A   1      48.709  28.261  29.317  1.00  0.00    -0.203 F 
ATOM     69  F   UNL A   1      49.842  24.972  33.520  1.00  0.00    -0.200 F 
ATOM     70  C   UNL A   1      50.570  26.203  31.642  1.00  0.00     0.200 A 
ATOM     71  F   UNL A   1      51.254  27.465  29.766  1.00  0.00    -0.200 F 
ATOM     72  F   UNL A   1      51.839  25.839  31.877  1.00  0.00    -0.200 F 
ENDBRANCH  39  62
ENDBRANCH  13  14
ENDBRANCH   6   8
ENDBRANCH   3   4
ENDBRANCH   2   3
ENDBRANCH   1   2
BRANCH   1  73
ATOM     73  C   UNL A   1      31.282  27.072  25.465  1.00  0.00     0.002 C 
BRANCH  73  74
ATOM     74  C   UNL A   1      30.404  26.413  24.391  1.00  0.00     0.021 C 
BRANCH  74  75
ATOM     75  C   UNL A   1      30.282  24.892  24.536  1.00  0.00     0.116 C 
BRANCH  75  76
ATOM     76  N   UNL A   1      30.026  24.553  25.917  1.00  0.00    -0.354 N 
ATOM     77  C   UNL A   1      30.466  23.482  26.621  1.00  0.00     0.244 C 
ATOM     78  H   UNL A   1      29.455  25.185  26.412  1.00  0.00     0.163 HD
ATOM     79  O   UNL A   1      29.706  23.046  27.493  1.00  0.00    -0.273 OA
BRANCH  77  80
ATOM     80  C   UNL A   1      31.789  22.767  26.313  1.00  0.00     0.197 C 
BRANCH  80  81
ATOM     81  C   UNL A   1      32.819  22.861  27.451  1.00  0.00     0.191 C 
BRANCH  81  82
ATOM     82  O   UNL A   1      32.418  22.209  28.653  1.00  0.00    -0.394 OA
ATOM     83  H   UNL A   1      32.942  22.548  29.395  1.00  0.00     0.210 HD
ENDBRANCH  81  82
ENDBRANCH  80  81
BRANCH  80  84
ATOM     84  N   UNL A   1      31.670  21.412  25.770  1.00  0.00    -0.342 N 
ATOM     85  C   UNL A   1      32.265  20.763  24.740  1.00  0.00     0.228 C 
ATOM     86  H   UNL A   1      31.018  20.856  26.255  1.00  0.00     0.164 HD
ATOM     87  O   UNL A   1      31.907  19.578  24.626  1.00  0.00    -0.274 OA
BRANCH  85  88
ATOM     88  C   UNL A   1      33.323  21.307  23.737  1.00  0.00     0.109 C 
ATOM     89  C   UNL A   1      32.523  22.151  22.704  1.00  0.00     0.018 C 
ATOM     90  C   UNL A   1      34.553  22.036  24.259  1.00  0.00    -0.032 A 
ATOM     91  C   UNL A   1      33.344  23.249  22.047  1.00  0.00     0.006 C 
ATOM     92  C   UNL A   1      34.696  23.428  24.121  1.00  0.00    -0.044 A 
ATOM     93  C   UNL A   1      35.583  21.329  24.900  1.00  0.00     0.005 A 
ATOM     94  C   UNL A   1      33.865  24.194  23.125  1.00  0.00     0.036 C 
ATOM     95  C   UNL A   1      35.659  24.108  24.878  1.00  0.00     0.004 A 
ATOM     96  C   UNL A   1      36.562  22.009  25.631  1.00  0.00     0.000 A 
ATOM     97  C   UNL A   1      36.560  23.401  25.667  1.00  0.00     0.000 A 
ENDBRANCH  85  88
ENDBRANCH  80  84
ENDBRANCH  77  80
ENDBRANCH  75  76
ENDBRANCH  74  75
ENDBRANCH  73  74
ENDBRANCH   1  73
TORSDOF 17
ENDMDL
