MODEL 1
REMARK VINA RESULT:     -12.9      0.000      0.000
REMARK SMILES Cc1cccc([C@@H](CCC[C@@H]2CCCO2)C(=O)NCCCCCCNC(=O)c2ccc(-c3c4nc(c(-c5c(F)c(F)c(F)c(F)c5F)c5ccc([nH]5)c(-c5c(F)c(F)c(F)c(F)c5F)c5nc(c(-c6c(F)c(F)c(F)c(F)c6F)c6ccc3[nH]6)C=C5)C=C4)cc2)c1
REMARK SMILES IDX 20 1 19 2 18 3 16 4 17 5 7 7 6 8 1 9 2 10 3 11 91 12 4 13
REMARK SMILES IDX 5 14 8 15 9 16 10 17 11 18 12 19 15 20 13 21 14 22 21 23
REMARK SMILES IDX 22 24 23 25 24 26 25 27 26 28 27 30 28 31 29 32 90 33 30 34
REMARK SMILES IDX 89 35 31 36 32 37 33 38 83 39 34 40 88 41 82 42 84 43 35 44
REMARK SMILES IDX 87 45 81 46 80 47 36 49 68 50 48 51 67 52 49 53 52 54 66 55
REMARK SMILES IDX 85 56 50 57 51 58 65 60 86 61 53 62 37 63 38 64 46 65 39 66
REMARK SMILES IDX 40 67 44 68 47 69 41 70 42 71 45 72 43 73 69 74 70 75 78 76
REMARK SMILES IDX 71 77 72 78 76 79 79 80 73 81 74 82 77 83 75 84 54 85 55 86
REMARK SMILES IDX 63 87 56 88 57 89 61 90 64 91 58 92 59 93 62 94 60 95
REMARK H PARENT 18 6 25 29 84 48 52 59
REMARK Flexibility Score: inf
ROOT
ATOM      1  C   UNL A   1      32.524  26.989  26.301  1.00  0.00     0.021 C 
ENDROOT
BRANCH   1   2
ATOM      2  C   UNL A   1      31.538  25.895  25.911  1.00  0.00     0.116 C 
BRANCH   2   3
ATOM      3  N   UNL A   1      31.437  24.771  26.804  1.00  0.00    -0.356 N 
ATOM      4  C   UNL A   1      32.138  23.599  26.794  1.00  0.00     0.227 C 
ATOM      5  O   UNL A   1      32.201  22.994  27.872  1.00  0.00    -0.274 OA
ATOM      6  H   UNL A   1      30.771  24.859  27.523  1.00  0.00     0.163 HD
BRANCH   4   7
ATOM      7  C   UNL A   1      32.765  22.975  25.527  1.00  0.00     0.108 C 
BRANCH   7   8
ATOM      8  C   UNL A   1      34.296  22.940  25.565  1.00  0.00    -0.035 A 
ATOM      9  C   UNL A   1      36.990  20.271  24.987  1.00  0.00     0.044 C 
ATOM     10  C   UNL A   1      36.335  21.596  25.245  1.00  0.00    -0.051 A 
ATOM     11  C   UNL A   1      37.110  22.744  25.404  1.00  0.00     0.003 A 
ATOM     12  C   UNL A   1      34.939  21.709  25.300  1.00  0.00     0.008 A 
ATOM     13  C   UNL A   1      36.499  23.965  25.680  1.00  0.00     0.001 A 
ATOM     14  C   UNL A   1      35.107  24.056  25.786  1.00  0.00     0.004 A 
ENDBRANCH   7   8
BRANCH   7  15
ATOM     15  C   UNL A   1      31.983  21.897  24.727  1.00  0.00     0.018 C 
BRANCH  15  16
ATOM     16  C   UNL A   1      32.380  21.451  23.317  1.00  0.00     0.004 C 
BRANCH  16  17
ATOM     17  C   UNL A   1      32.172  19.975  22.974  1.00  0.00     0.032 C 
BRANCH  17  18
ATOM     18  C   UNL A   1      32.908  18.893  23.747  1.00  0.00     0.118 C 
ATOM     19  C   UNL A   1      33.022  17.524  23.112  1.00  0.00     0.034 C 
ATOM     20  O   UNL A   1      32.317  18.683  25.034  1.00  0.00    -0.378 OA
ATOM     21  C   UNL A   1      33.411  16.702  24.319  1.00  0.00     0.031 C 
ATOM     22  C   UNL A   1      32.569  17.323  25.418  1.00  0.00     0.160 C 
ENDBRANCH  17  18
ENDBRANCH  16  17
ENDBRANCH  15  16
ENDBRANCH   7  15
ENDBRANCH   4   7
ENDBRANCH   2   3
ENDBRANCH   1   2
BRANCH   1  23
ATOM     23  C   UNL A   1      31.915  28.130  27.140  1.00  0.00     0.002 C 
BRANCH  23  24
ATOM     24  C   UNL A   1      31.872  29.551  26.533  1.00  0.00     0.002 C 
BRANCH  24  25
ATOM     25  C   UNL A   1      32.639  30.656  27.266  1.00  0.00     0.021 C 
BRANCH  25  26
ATOM     26  C   UNL A   1      34.110  30.349  27.492  1.00  0.00     0.116 C 
BRANCH  26  27
ATOM     27  N   UNL A   1      34.801  31.304  28.353  1.00  0.00    -0.352 N 
ATOM     28  C   UNL A   1      35.949  31.104  29.106  1.00  0.00     0.251 C 
ATOM     29  H   UNL A   1      34.401  32.203  28.408  1.00  0.00     0.163 HD
ATOM     30  O   UNL A   1      36.411  31.984  29.811  1.00  0.00    -0.269 OA
BRANCH  28  31
ATOM     31  C   UNL A   1      36.673  29.825  28.929  1.00  0.00     0.039 A 
ATOM     32  C   UNL A   1      37.036  29.123  30.081  1.00  0.00     0.014 A 
ATOM     33  C   UNL A   1      37.230  29.510  27.691  1.00  0.00     0.014 A 
ATOM     34  C   UNL A   1      38.149  28.290  30.038  1.00  0.00     0.010 A 
ATOM     35  C   UNL A   1      38.390  28.762  27.668  1.00  0.00     0.010 A 
ATOM     36  C   UNL A   1      38.893  28.223  28.860  1.00  0.00    -0.014 A 
BRANCH  36  37
ATOM     37  C   UNL A   1      40.265  27.730  28.820  1.00  0.00     0.031 A 
ATOM     38  C   UNL A   1      40.546  26.317  28.507  1.00  0.00     0.074 A 
ATOM     39  C   UNL A   1      41.289  28.594  29.004  1.00  0.00     0.049 A 
ATOM     40  N   UNL A   1      41.651  25.713  28.789  1.00  0.00    -0.248 NA
ATOM     41  C   UNL A   1      39.559  25.452  27.880  1.00  0.00     0.031 C 
ATOM     42  C   UNL A   1      42.711  28.356  28.767  1.00  0.00     0.029 A 
ATOM     43  N   UNL A   1      41.253  29.822  29.687  1.00  0.00    -0.354 N 
ATOM     44  C   UNL A   1      41.635  24.487  28.164  1.00  0.00     0.074 A 
ATOM     45  C   UNL A   1      40.285  24.350  27.668  1.00  0.00     0.031 C 
ATOM     46  C   UNL A   1      43.420  29.186  29.547  1.00  0.00     0.029 A 
ATOM     47  C   UNL A   1      42.474  29.881  30.402  1.00  0.00     0.049 A 
ATOM     48  H   UNL A   1      40.535  30.495  29.670  1.00  0.00     0.167 HD
ATOM     49  C   UNL A   1      42.806  23.794  28.045  1.00  0.00     0.037 A 
ATOM     50  C   UNL A   1      42.480  29.862  31.765  1.00  0.00     0.037 A 
ATOM     51  C   UNL A   1      43.887  24.430  28.806  1.00  0.00     0.049 A 
ATOM     52  C   UNL A   1      43.204  28.682  32.384  1.00  0.00     0.074 A 
ATOM     53  C   UNL A   1      44.979  25.221  28.485  1.00  0.00     0.029 A 
ATOM     54  N   UNL A   1      43.761  24.508  30.182  1.00  0.00    -0.354 N 
ATOM     55  N   UNL A   1      43.732  27.697  31.712  1.00  0.00    -0.248 NA
ATOM     56  C   UNL A   1      43.284  28.474  33.831  1.00  0.00     0.031 C 
ATOM     57  C   UNL A   1      45.507  25.769  29.691  1.00  0.00     0.029 A 
ATOM     58  C   UNL A   1      44.734  25.314  30.742  1.00  0.00     0.049 A 
ATOM     59  H   UNL A   1      43.063  24.046  30.699  1.00  0.00     0.167 HD
ATOM     60  C   UNL A   1      44.162  26.732  32.586  1.00  0.00     0.074 A 
ATOM     61  C   UNL A   1      43.853  27.260  33.900  1.00  0.00     0.031 C 
ATOM     62  C   UNL A   1      44.703  25.547  32.176  1.00  0.00     0.037 A 
BRANCH  49  63
ATOM     63  C   UNL A   1      43.031  22.671  27.050  1.00  0.00     0.064 A 
ATOM     64  C   UNL A   1      42.369  21.431  27.198  1.00  0.00     0.173 A 
ATOM     65  C   UNL A   1      43.934  22.716  25.971  1.00  0.00     0.173 A 
ATOM     66  F   UNL A   1      41.386  21.264  28.091  1.00  0.00    -0.203 F 
ATOM     67  C   UNL A   1      42.692  20.307  26.431  1.00  0.00     0.198 A 
ATOM     68  C   UNL A   1      44.303  21.579  25.245  1.00  0.00     0.198 A 
ATOM     69  F   UNL A   1      44.440  23.872  25.530  1.00  0.00    -0.203 F 
ATOM     70  F   UNL A   1      42.033  19.156  26.631  1.00  0.00    -0.200 F 
ATOM     71  C   UNL A   1      43.692  20.369  25.485  1.00  0.00     0.200 A 
ATOM     72  F   UNL A   1      45.255  21.672  24.303  1.00  0.00    -0.200 F 
ATOM     73  F   UNL A   1      44.040  19.280  24.787  1.00  0.00    -0.200 F 
ENDBRANCH  49  63
BRANCH  50  74
ATOM     74  C   UNL A   1      41.294  30.538  32.359  1.00  0.00     0.064 A 
ATOM     75  C   UNL A   1      41.202  31.942  32.268  1.00  0.00     0.173 A 
ATOM     76  C   UNL A   1      40.130  29.834  32.684  1.00  0.00     0.173 A 
ATOM     77  F   UNL A   1      42.287  32.667  31.956  1.00  0.00    -0.203 F 
ATOM     78  C   UNL A   1      39.977  32.596  32.381  1.00  0.00     0.198 A 
ATOM     79  C   UNL A   1      38.909  30.497  32.820  1.00  0.00     0.198 A 
ATOM     80  F   UNL A   1      40.142  28.496  32.759  1.00  0.00    -0.203 F 
ATOM     81  F   UNL A   1      39.904  33.918  32.170  1.00  0.00    -0.200 F 
ATOM     82  C   UNL A   1      38.827  31.868  32.634  1.00  0.00     0.200 A 
ATOM     83  F   UNL A   1      37.792  29.788  33.037  1.00  0.00    -0.200 F 
ATOM     84  F   UNL A   1      37.636  32.481  32.657  1.00  0.00    -0.200 F 
ENDBRANCH  50  74
BRANCH  62  85
ATOM     85  C   UNL A   1      45.220  24.498  33.122  1.00  0.00     0.064 A 
ATOM     86  C   UNL A   1      46.528  24.522  33.636  1.00  0.00     0.173 A 
ATOM     87  C   UNL A   1      44.446  23.368  33.464  1.00  0.00     0.173 A 
ATOM     88  F   UNL A   1      47.380  25.502  33.300  1.00  0.00    -0.203 F 
ATOM     89  C   UNL A   1      47.001  23.527  34.494  1.00  0.00     0.198 A 
ATOM     90  C   UNL A   1      44.939  22.349  34.277  1.00  0.00     0.198 A 
ATOM     91  F   UNL A   1      43.181  23.229  33.042  1.00  0.00    -0.203 F 
ATOM     92  F   UNL A   1      48.231  23.628  35.014  1.00  0.00    -0.200 F 
ATOM     93  C   UNL A   1      46.208  22.438  34.809  1.00  0.00     0.200 A 
ATOM     94  F   UNL A   1      44.169  21.284  34.548  1.00  0.00    -0.200 F 
ATOM     95  F   UNL A   1      46.669  21.476  35.621  1.00  0.00    -0.200 F 
ENDBRANCH  62  85
ENDBRANCH  36  37
ENDBRANCH  28  31
ENDBRANCH  26  27
ENDBRANCH  25  26
ENDBRANCH  24  25
ENDBRANCH  23  24
ENDBRANCH   1  23
TORSDOF 18
ENDMDL
MODEL 2
REMARK VINA RESULT:     -12.8      3.804     10.117
REMARK SMILES Cc1cccc([C@@H](CCC[C@@H]2CCCO2)C(=O)NCCCCCCNC(=O)c2ccc(-c3c4nc(c(-c5c(F)c(F)c(F)c(F)c5F)c5ccc([nH]5)c(-c5c(F)c(F)c(F)c(F)c5F)c5nc(c(-c6c(F)c(F)c(F)c(F)c6F)c6ccc3[nH]6)C=C5)C=C4)cc2)c1
REMARK SMILES IDX 20 1 19 2 18 3 16 4 17 5 7 7 6 8 1 9 2 10 3 11 91 12 4 13
REMARK SMILES IDX 5 14 8 15 9 16 10 17 11 18 12 19 15 20 13 21 14 22 21 23
REMARK SMILES IDX 22 24 23 25 24 26 25 27 26 28 27 30 28 31 29 32 90 33 30 34
REMARK SMILES IDX 89 35 31 36 32 37 33 38 83 39 34 40 88 41 82 42 84 43 35 44
REMARK SMILES IDX 87 45 81 46 80 47 36 49 68 50 48 51 67 52 49 53 52 54 66 55
REMARK SMILES IDX 85 56 50 57 51 58 65 60 86 61 53 62 37 63 38 64 46 65 39 66
REMARK SMILES IDX 40 67 44 68 47 69 41 70 42 71 45 72 43 73 69 74 70 75 78 76
REMARK SMILES IDX 71 77 72 78 76 79 79 80 73 81 74 82 77 83 75 84 54 85 55 86
REMARK SMILES IDX 63 87 56 88 57 89 61 90 64 91 58 92 59 93 62 94 60 95
REMARK H PARENT 18 6 25 29 84 48 52 59
REMARK Flexibility Score: inf
ROOT
ATOM      1  C   UNL A   1      34.931  21.909  25.898  1.00  0.00     0.021 C 
ENDROOT
BRANCH   1   2
ATOM      2  C   UNL A   1      33.467  21.486  25.891  1.00  0.00     0.116 C 
BRANCH   2   3
ATOM      3  N   UNL A   1      32.614  22.108  26.869  1.00  0.00    -0.356 N 
ATOM      4  C   UNL A   1      31.621  23.027  26.684  1.00  0.00     0.227 C 
ATOM      5  O   UNL A   1      30.758  23.082  27.571  1.00  0.00    -0.274 OA
ATOM      6  H   UNL A   1      32.765  21.831  27.801  1.00  0.00     0.163 HD
BRANCH   4   7
ATOM      7  C   UNL A   1      31.571  24.023  25.504  1.00  0.00     0.108 C 
BRANCH   7   8
ATOM      8  C   UNL A   1      32.370  25.305  25.760  1.00  0.00    -0.035 A 
ATOM      9  C   UNL A   1      31.653  28.698  27.398  1.00  0.00     0.044 C 
ATOM     10  C   UNL A   1      32.382  27.565  26.739  1.00  0.00    -0.051 A 
ATOM     11  C   UNL A   1      33.748  27.663  26.482  1.00  0.00     0.003 A 
ATOM     12  C   UNL A   1      31.713  26.379  26.402  1.00  0.00     0.008 A 
ATOM     13  C   UNL A   1      34.413  26.622  25.837  1.00  0.00     0.001 A 
ATOM     14  C   UNL A   1      33.724  25.466  25.456  1.00  0.00     0.004 A 
ENDBRANCH   7   8
BRANCH   7  15
ATOM     15  C   UNL A   1      31.393  23.495  24.053  1.00  0.00     0.018 C 
BRANCH  15  16
ATOM     16  C   UNL A   1      31.733  24.327  22.813  1.00  0.00     0.004 C 
BRANCH  16  17
ATOM     17  C   UNL A   1      31.097  25.714  22.715  1.00  0.00     0.032 C 
BRANCH  17  18
ATOM     18  C   UNL A   1      31.930  26.918  22.309  1.00  0.00     0.118 C 
ATOM     19  C   UNL A   1      33.430  26.744  22.224  1.00  0.00     0.034 C 
ATOM     20  O   UNL A   1      31.710  28.023  23.192  1.00  0.00    -0.378 OA
ATOM     21  C   UNL A   1      33.867  28.191  22.217  1.00  0.00     0.031 C 
ATOM     22  C   UNL A   1      32.901  28.824  23.201  1.00  0.00     0.160 C 
ENDBRANCH  17  18
ENDBRANCH  16  17
ENDBRANCH  15  16
ENDBRANCH   7  15
ENDBRANCH   4   7
ENDBRANCH   2   3
ENDBRANCH   1   2
BRANCH   1  23
ATOM     23  C   UNL A   1      35.876  20.955  25.141  1.00  0.00     0.002 C 
BRANCH  23  24
ATOM     24  C   UNL A   1      37.188  21.525  24.555  1.00  0.00     0.002 C 
BRANCH  24  25
ATOM     25  C   UNL A   1      38.457  21.395  25.404  1.00  0.00     0.021 C 
BRANCH  25  26
ATOM     26  C   UNL A   1      38.832  22.658  26.161  1.00  0.00     0.116 C 
BRANCH  26  27
ATOM     27  N   UNL A   1      40.255  22.779  26.464  1.00  0.00    -0.352 N 
ATOM     28  C   UNL A   1      40.964  23.924  26.799  1.00  0.00     0.251 C 
ATOM     29  H   UNL A   1      40.777  21.945  26.424  1.00  0.00     0.163 HD
ATOM     30  O   UNL A   1      42.165  23.893  27.002  1.00  0.00    -0.269 OA
BRANCH  28  31
ATOM     31  C   UNL A   1      40.195  25.167  27.029  1.00  0.00     0.039 A 
ATOM     32  C   UNL A   1      40.643  26.331  26.398  1.00  0.00     0.014 A 
ATOM     33  C   UNL A   1      39.266  25.225  28.065  1.00  0.00     0.014 A 
ATOM     34  C   UNL A   1      40.366  27.562  26.983  1.00  0.00     0.010 A 
ATOM     35  C   UNL A   1      39.070  26.435  28.700  1.00  0.00     0.010 A 
ATOM     36  C   UNL A   1      39.692  27.588  28.204  1.00  0.00    -0.014 A 
BRANCH  36  37
ATOM     37  C   UNL A   1      39.710  28.748  29.090  1.00  0.00     0.031 A 
ATOM     38  C   UNL A   1      38.728  29.835  28.923  1.00  0.00     0.074 A 
ATOM     39  C   UNL A   1      40.591  28.790  30.115  1.00  0.00     0.049 A 
ATOM     40  N   UNL A   1      38.872  31.026  29.396  1.00  0.00    -0.248 NA
ATOM     41  C   UNL A   1      37.506  29.663  28.152  1.00  0.00     0.031 C 
ATOM     42  C   UNL A   1      40.609  29.724  31.238  1.00  0.00     0.029 A 
ATOM     43  N   UNL A   1      41.817  28.109  30.210  1.00  0.00    -0.354 N 
ATOM     44  C   UNL A   1      37.680  31.694  29.232  1.00  0.00     0.074 A 
ATOM     45  C   UNL A   1      36.887  30.822  28.395  1.00  0.00     0.031 C 
ATOM     46  C   UNL A   1      41.865  29.809  31.703  1.00  0.00     0.029 A 
ATOM     47  C   UNL A   1      42.707  29.037  30.806  1.00  0.00     0.049 A 
ATOM     48  H   UNL A   1      42.014  27.188  29.926  1.00  0.00     0.167 HD
ATOM     49  C   UNL A   1      37.473  32.853  29.926  1.00  0.00     0.037 A 
ATOM     50  C   UNL A   1      43.771  29.525  30.106  1.00  0.00     0.037 A 
ATOM     51  C   UNL A   1      38.692  33.293  30.613  1.00  0.00     0.049 A 
ATOM     52  C   UNL A   1      43.761  31.026  29.893  1.00  0.00     0.074 A 
ATOM     53  C   UNL A   1      39.151  33.254  31.920  1.00  0.00     0.029 A 
ATOM     54  N   UNL A   1      39.790  33.635  29.842  1.00  0.00    -0.354 N 
ATOM     55  N   UNL A   1      42.799  31.824  30.263  1.00  0.00    -0.248 NA
ATOM     56  C   UNL A   1      44.801  31.723  29.135  1.00  0.00     0.031 C 
ATOM     57  C   UNL A   1      40.538  33.583  31.920  1.00  0.00     0.029 A 
ATOM     58  C   UNL A   1      40.921  33.819  30.613  1.00  0.00     0.049 A 
ATOM     59  H   UNL A   1      39.768  33.736  28.863  1.00  0.00     0.167 HD
ATOM     60  C   UNL A   1      43.042  33.083  29.776  1.00  0.00     0.074 A 
ATOM     61  C   UNL A   1      44.303  32.967  29.069  1.00  0.00     0.031 C 
ATOM     62  C   UNL A   1      42.176  34.124  29.946  1.00  0.00     0.037 A 
BRANCH  49  63
ATOM     63  C   UNL A   1      36.105  33.460  30.176  1.00  0.00     0.064 A 
ATOM     64  C   UNL A   1      35.381  34.065  29.125  1.00  0.00     0.173 A 
ATOM     65  C   UNL A   1      35.478  33.550  31.433  1.00  0.00     0.173 A 
ATOM     66  F   UNL A   1      35.774  33.956  27.850  1.00  0.00    -0.203 F 
ATOM     67  C   UNL A   1      34.217  34.811  29.341  1.00  0.00     0.198 A 
ATOM     68  C   UNL A   1      34.351  34.345  31.662  1.00  0.00     0.198 A 
ATOM     69  F   UNL A   1      35.887  32.815  32.472  1.00  0.00    -0.203 F 
ATOM     70  F   UNL A   1      33.584  35.370  28.300  1.00  0.00    -0.200 F 
ATOM     71  C   UNL A   1      33.727  34.989  30.617  1.00  0.00     0.200 A 
ATOM     72  F   UNL A   1      33.871  34.474  32.908  1.00  0.00    -0.200 F 
ATOM     73  F   UNL A   1      32.644  35.747  30.833  1.00  0.00    -0.200 F 
ENDBRANCH  49  63
BRANCH  50  74
ATOM     74  C   UNL A   1      44.338  28.533  29.151  1.00  0.00     0.064 A 
ATOM     75  C   UNL A   1      43.957  28.609  27.795  1.00  0.00     0.173 A 
ATOM     76  C   UNL A   1      45.469  27.773  29.462  1.00  0.00     0.173 A 
ATOM     77  F   UNL A   1      42.881  29.328  27.439  1.00  0.00    -0.203 F 
ATOM     78  C   UNL A   1      44.741  28.047  26.790  1.00  0.00     0.198 A 
ATOM     79  C   UNL A   1      46.238  27.191  28.454  1.00  0.00     0.198 A 
ATOM     80  F   UNL A   1      45.902  27.683  30.728  1.00  0.00    -0.203 F 
ATOM     81  F   UNL A   1      44.416  28.238  25.504  1.00  0.00    -0.200 F 
ATOM     82  C   UNL A   1      45.895  27.357  27.120  1.00  0.00     0.200 A 
ATOM     83  F   UNL A   1      47.371  26.548  28.772  1.00  0.00    -0.200 F 
ATOM     84  F   UNL A   1      46.698  26.890  26.154  1.00  0.00    -0.200 F 
ENDBRANCH  50  74
BRANCH  62  85
ATOM     85  C   UNL A   1      42.448  35.520  29.456  1.00  0.00     0.064 A 
ATOM     86  C   UNL A   1      41.944  36.004  28.237  1.00  0.00     0.173 A 
ATOM     87  C   UNL A   1      43.317  36.390  30.151  1.00  0.00     0.173 A 
ATOM     88  F   UNL A   1      41.183  35.228  27.451  1.00  0.00    -0.203 F 
ATOM     89  C   UNL A   1      42.225  37.295  27.784  1.00  0.00     0.198 A 
ATOM     90  C   UNL A   1      43.640  37.657  29.669  1.00  0.00     0.198 A 
ATOM     91  F   UNL A   1      43.858  36.048  31.329  1.00  0.00    -0.203 F 
ATOM     92  F   UNL A   1      41.667  37.738  26.650  1.00  0.00    -0.200 F 
ATOM     93  C   UNL A   1      43.078  38.118  28.497  1.00  0.00     0.200 A 
ATOM     94  F   UNL A   1      44.492  38.432  30.358  1.00  0.00    -0.200 F 
ATOM     95  F   UNL A   1      43.359  39.352  28.054  1.00  0.00    -0.200 F 
ENDBRANCH  62  85
ENDBRANCH  36  37
ENDBRANCH  28  31
ENDBRANCH  26  27
ENDBRANCH  25  26
ENDBRANCH  24  25
ENDBRANCH  23  24
ENDBRANCH   1  23
TORSDOF 18
ENDMDL
MODEL 3
REMARK VINA RESULT:     -12.6      3.421      9.939
REMARK SMILES Cc1cccc([C@@H](CCC[C@@H]2CCCO2)C(=O)NCCCCCCNC(=O)c2ccc(-c3c4nc(c(-c5c(F)c(F)c(F)c(F)c5F)c5ccc([nH]5)c(-c5c(F)c(F)c(F)c(F)c5F)c5nc(c(-c6c(F)c(F)c(F)c(F)c6F)c6ccc3[nH]6)C=C5)C=C4)cc2)c1
REMARK SMILES IDX 20 1 19 2 18 3 16 4 17 5 7 7 6 8 1 9 2 10 3 11 91 12 4 13
REMARK SMILES IDX 5 14 8 15 9 16 10 17 11 18 12 19 15 20 13 21 14 22 21 23
REMARK SMILES IDX 22 24 23 25 24 26 25 27 26 28 27 30 28 31 29 32 90 33 30 34
REMARK SMILES IDX 89 35 31 36 32 37 33 38 83 39 34 40 88 41 82 42 84 43 35 44
REMARK SMILES IDX 87 45 81 46 80 47 36 49 68 50 48 51 67 52 49 53 52 54 66 55
REMARK SMILES IDX 85 56 50 57 51 58 65 60 86 61 53 62 37 63 38 64 46 65 39 66
REMARK SMILES IDX 40 67 44 68 47 69 41 70 42 71 45 72 43 73 69 74 70 75 78 76
REMARK SMILES IDX 71 77 72 78 76 79 79 80 73 81 74 82 77 83 75 84 54 85 55 86
REMARK SMILES IDX 63 87 56 88 57 89 61 90 64 91 58 92 59 93 62 94 60 95
REMARK H PARENT 18 6 25 29 84 48 52 59
REMARK Flexibility Score: inf
ROOT
ATOM      1  C   UNL A   1      35.204  22.646  26.689  1.00  0.00     0.021 C 
ENDROOT
BRANCH   1   2
ATOM      2  C   UNL A   1      34.218  21.525  26.993  1.00  0.00     0.116 C 
BRANCH   2   3
ATOM      3  N   UNL A   1      32.832  21.794  26.712  1.00  0.00    -0.356 N 
ATOM      4  C   UNL A   1      32.118  21.534  25.577  1.00  0.00     0.227 C 
ATOM      5  O   UNL A   1      30.891  21.443  25.715  1.00  0.00    -0.274 OA
ATOM      6  H   UNL A   1      32.327  22.223  27.440  1.00  0.00     0.163 HD
BRANCH   4   7
ATOM      7  C   UNL A   1      32.740  21.433  24.166  1.00  0.00     0.108 C 
BRANCH   7   8
ATOM      8  C   UNL A   1      32.944  19.988  23.698  1.00  0.00    -0.035 A 
ATOM      9  C   UNL A   1      35.008  16.985  24.897  1.00  0.00     0.044 C 
ATOM     10  C   UNL A   1      34.035  17.820  24.118  1.00  0.00    -0.051 A 
ATOM     11  C   UNL A   1      33.286  17.251  23.089  1.00  0.00     0.003 A 
ATOM     12  C   UNL A   1      33.837  19.173  24.430  1.00  0.00     0.008 A 
ATOM     13  C   UNL A   1      32.410  18.039  22.345  1.00  0.00     0.001 A 
ATOM     14  C   UNL A   1      32.262  19.400  22.630  1.00  0.00     0.004 A 
ENDBRANCH   7   8
BRANCH   7  15
ATOM     15  C   UNL A   1      32.487  22.558  23.126  1.00  0.00     0.018 C 
BRANCH  15  16
ATOM     16  C   UNL A   1      33.595  23.473  22.597  1.00  0.00     0.004 C 
BRANCH  16  17
ATOM     17  C   UNL A   1      33.752  24.834  23.276  1.00  0.00     0.032 C 
BRANCH  17  18
ATOM     18  C   UNL A   1      32.545  25.547  23.863  1.00  0.00     0.118 C 
ATOM     19  C   UNL A   1      32.099  25.155  25.255  1.00  0.00     0.034 C 
ATOM     20  O   UNL A   1      31.395  25.396  23.023  1.00  0.00    -0.378 OA
ATOM     21  C   UNL A   1      30.710  25.750  25.268  1.00  0.00     0.031 C 
ATOM     22  C   UNL A   1      30.228  25.476  23.855  1.00  0.00     0.160 C 
ENDBRANCH  17  18
ENDBRANCH  16  17
ENDBRANCH  15  16
ENDBRANCH   7  15
ENDBRANCH   4   7
ENDBRANCH   2   3
ENDBRANCH   1   2
BRANCH   1  23
ATOM     23  C   UNL A   1      35.929  22.511  25.335  1.00  0.00     0.002 C 
BRANCH  23  24
ATOM     24  C   UNL A   1      36.785  21.250  25.076  1.00  0.00     0.002 C 
BRANCH  24  25
ATOM     25  C   UNL A   1      38.275  21.324  25.422  1.00  0.00     0.021 C 
BRANCH  25  26
ATOM     26  C   UNL A   1      38.741  22.695  25.882  1.00  0.00     0.116 C 
BRANCH  26  27
ATOM     27  N   UNL A   1      40.137  22.748  26.303  1.00  0.00    -0.352 N 
ATOM     28  C   UNL A   1      40.857  23.849  26.744  1.00  0.00     0.251 C 
ATOM     29  H   UNL A   1      40.631  21.897  26.268  1.00  0.00     0.163 HD
ATOM     30  O   UNL A   1      42.036  23.763  27.041  1.00  0.00    -0.269 OA
BRANCH  28  31
ATOM     31  C   UNL A   1      40.116  25.110  26.969  1.00  0.00     0.039 A 
ATOM     32  C   UNL A   1      40.609  26.267  26.358  1.00  0.00     0.014 A 
ATOM     33  C   UNL A   1      39.166  25.185  27.985  1.00  0.00     0.014 A 
ATOM     34  C   UNL A   1      40.352  27.500  26.948  1.00  0.00     0.010 A 
ATOM     35  C   UNL A   1      38.989  26.395  28.626  1.00  0.00     0.010 A 
ATOM     36  C   UNL A   1      39.652  27.535  28.154  1.00  0.00    -0.014 A 
BRANCH  36  37
ATOM     37  C   UNL A   1      39.680  28.686  29.050  1.00  0.00     0.031 A 
ATOM     38  C   UNL A   1      38.702  29.779  28.899  1.00  0.00     0.074 A 
ATOM     39  C   UNL A   1      40.568  28.715  30.069  1.00  0.00     0.049 A 
ATOM     40  N   UNL A   1      38.855  30.966  29.381  1.00  0.00    -0.248 NA
ATOM     41  C   UNL A   1      37.475  29.620  28.134  1.00  0.00     0.031 C 
ATOM     42  C   UNL A   1      40.598  29.639  31.200  1.00  0.00     0.029 A 
ATOM     43  N   UNL A   1      41.792  28.028  30.150  1.00  0.00    -0.354 N 
ATOM     44  C   UNL A   1      37.665  31.640  29.231  1.00  0.00     0.074 A 
ATOM     45  C   UNL A   1      36.863  30.780  28.391  1.00  0.00     0.031 C 
ATOM     46  C   UNL A   1      41.858  29.714  31.657  1.00  0.00     0.029 A 
ATOM     47  C   UNL A   1      42.689  28.946  30.749  1.00  0.00     0.049 A 
ATOM     48  H   UNL A   1      41.983  27.108  29.856  1.00  0.00     0.167 HD
ATOM     49  C   UNL A   1      37.468  32.793  29.937  1.00  0.00     0.037 A 
ATOM     50  C   UNL A   1      43.751  29.435  30.046  1.00  0.00     0.037 A 
ATOM     51  C   UNL A   1      38.693  33.221  30.619  1.00  0.00     0.049 A 
ATOM     52  C   UNL A   1      43.747  30.938  29.846  1.00  0.00     0.074 A 
ATOM     53  C   UNL A   1      39.161  33.170  31.923  1.00  0.00     0.029 A 
ATOM     54  N   UNL A   1      39.788  33.566  29.845  1.00  0.00    -0.354 N 
ATOM     55  N   UNL A   1      42.791  31.738  30.230  1.00  0.00    -0.248 NA
ATOM     56  C   UNL A   1      44.786  31.637  29.088  1.00  0.00     0.031 C 
ATOM     57  C   UNL A   1      40.549  33.492  31.917  1.00  0.00     0.029 A 
ATOM     58  C   UNL A   1      40.925  33.737  30.610  1.00  0.00     0.049 A 
ATOM     59  H   UNL A   1      39.760  33.675  28.867  1.00  0.00     0.167 HD
ATOM     60  C   UNL A   1      43.037  32.999  29.753  1.00  0.00     0.074 A 
ATOM     61  C   UNL A   1      44.292  32.885  29.037  1.00  0.00     0.031 C 
ATOM     62  C   UNL A   1      42.177  34.043  29.938  1.00  0.00     0.037 A 
BRANCH  49  63
ATOM     63  C   UNL A   1      36.105  33.405  30.201  1.00  0.00     0.064 A 
ATOM     64  C   UNL A   1      35.379  34.028  29.161  1.00  0.00     0.173 A 
ATOM     65  C   UNL A   1      35.484  33.481  31.462  1.00  0.00     0.173 A 
ATOM     66  F   UNL A   1      35.765  33.934  27.883  1.00  0.00    -0.203 F 
ATOM     67  C   UNL A   1      34.220  34.777  29.393  1.00  0.00     0.198 A 
ATOM     68  C   UNL A   1      34.362  34.279  31.707  1.00  0.00     0.198 A 
ATOM     69  F   UNL A   1      35.893  32.730  32.489  1.00  0.00    -0.203 F 
ATOM     70  F   UNL A   1      33.585  35.352  28.362  1.00  0.00    -0.200 F 
ATOM     71  C   UNL A   1      33.737  34.940  30.673  1.00  0.00     0.200 A 
ATOM     72  F   UNL A   1      33.888  34.394  32.957  1.00  0.00    -0.200 F 
ATOM     73  F   UNL A   1      32.659  35.701  30.904  1.00  0.00    -0.200 F 
ENDBRANCH  49  63
BRANCH  50  74
ATOM     74  C   UNL A   1      44.308  28.450  29.078  1.00  0.00     0.064 A 
ATOM     75  C   UNL A   1      45.022  27.343  29.578  1.00  0.00     0.173 A 
ATOM     76  C   UNL A   1      43.866  28.388  27.753  1.00  0.00     0.173 A 
ATOM     77  F   UNL A   1      45.467  27.346  30.845  1.00  0.00    -0.203 F 
ATOM     78  C   UNL A   1      45.182  26.183  28.824  1.00  0.00     0.198 A 
ATOM     79  C   UNL A   1      44.049  27.233  26.992  1.00  0.00     0.198 A 
ATOM     80  F   UNL A   1      43.156  29.395  27.224  1.00  0.00    -0.203 F 
ATOM     81  F   UNL A   1      45.761  25.104  29.370  1.00  0.00    -0.200 F 
ATOM     82  C   UNL A   1      44.674  26.122  27.537  1.00  0.00     0.200 A 
ATOM     83  F   UNL A   1      43.531  27.164  25.757  1.00  0.00    -0.200 F 
ATOM     84  F   UNL A   1      44.748  24.980  26.840  1.00  0.00    -0.200 F 
ENDBRANCH  50  74
BRANCH  62  85
ATOM     85  C   UNL A   1      42.452  35.442  29.459  1.00  0.00     0.064 A 
ATOM     86  C   UNL A   1      41.873  35.968  28.291  1.00  0.00     0.173 A 
ATOM     87  C   UNL A   1      43.395  36.272  30.105  1.00  0.00     0.173 A 
ATOM     88  F   UNL A   1      41.034  35.232  27.548  1.00  0.00    -0.203 F 
ATOM     89  C   UNL A   1      42.157  37.261  27.846  1.00  0.00     0.198 A 
ATOM     90  C   UNL A   1      43.717  37.540  29.627  1.00  0.00     0.198 A 
ATOM     91  F   UNL A   1      44.012  35.887  31.231  1.00  0.00    -0.203 F 
ATOM     92  F   UNL A   1      41.530  37.745  26.766  1.00  0.00    -0.200 F 
ATOM     93  C   UNL A   1      43.084  38.044  28.511  1.00  0.00     0.200 A 
ATOM     94  F   UNL A   1      44.641  38.275  30.266  1.00  0.00    -0.200 F 
ATOM     95  F   UNL A   1      43.367  39.279  28.074  1.00  0.00    -0.200 F 
ENDBRANCH  62  85
ENDBRANCH  36  37
ENDBRANCH  28  31
ENDBRANCH  26  27
ENDBRANCH  25  26
ENDBRANCH  24  25
ENDBRANCH  23  24
ENDBRANCH   1  23
TORSDOF 18
ENDMDL
