MODEL 1
REMARK VINA RESULT:      -9.9      0.000      0.000
REMARK SMILES Cc1ccc2oc(CCCC(=O)NCCCCCCNC(=O)c3ccc(-c4c5nc(c(-c6c(F)c(F)c(F)c(F)c6F)c6ccc([nH]6)c(-c6c(F)c(F)c(F)c(F)c6F)c6nc(c(-c7c(F)c(F)c(F)c(F)c7F)c7ccc4[nH]7)C=C6)C=C5)cc3)cc(=O)c2c1
REMARK SMILES IDX 16 1 15 2 14 3 13 4 11 5 12 6 10 8 9 9 8 10 7 11 1 12 2 13
REMARK SMILES IDX 3 14 90 15 4 16 89 17 5 18 87 19 6 20 86 21 88 22 17 23
REMARK SMILES IDX 18 24 19 25 20 26 21 27 22 29 23 30 24 31 85 32 25 33 84 34
REMARK SMILES IDX 26 35 27 36 28 37 78 38 29 39 83 40 77 41 79 42 30 43 82 44
REMARK SMILES IDX 76 45 75 46 31 48 63 49 43 50 62 51 44 52 47 53 61 54 80 55
REMARK SMILES IDX 45 56 46 57 60 59 81 60 48 61 32 62 33 63 41 64 34 65 35 66
REMARK SMILES IDX 39 67 42 68 36 69 37 70 40 71 38 72 64 73 65 74 73 75 66 76
REMARK SMILES IDX 67 77 71 78 74 79 68 80 69 81 72 82 70 83 49 84 50 85 58 86
REMARK SMILES IDX 51 87 52 88 56 89 59 90 53 91 54 92 57 93 55 94
REMARK H PARENT 13 7 20 28 79 47 47 58
REMARK Flexibility Score: inf
ROOT
ATOM      1  C   UNL A   1      36.452  32.661  31.203  1.00  0.00     0.002 C 
ENDROOT
BRANCH   1   2
ATOM      2  C   UNL A   1      36.680  33.064  32.660  1.00  0.00     0.021 C 
BRANCH   2   3
ATOM      3  C   UNL A   1      37.700  32.174  33.371  1.00  0.00     0.116 C 
BRANCH   3   4
ATOM      4  N   UNL A   1      37.262  30.798  33.359  1.00  0.00    -0.356 N 
ATOM      5  C   UNL A   1      37.994  29.653  33.400  1.00  0.00     0.220 C 
ATOM      6  O   UNL A   1      37.403  28.581  33.255  1.00  0.00    -0.275 OA
ATOM      7  H   UNL A   1      36.287  30.670  33.312  1.00  0.00     0.163 HD
BRANCH   5   8
ATOM      8  C   UNL A   1      39.481  29.690  33.693  1.00  0.00     0.100 C 
BRANCH   8   9
ATOM      9  C   UNL A   1      40.328  28.527  33.157  1.00  0.00     0.018 C 
BRANCH   9  10
ATOM     10  C   UNL A   1      41.797  28.369  33.603  1.00  0.00     0.076 C 
BRANCH  10  11
ATOM     11  C   UNL A   1      42.259  27.047  34.182  1.00  0.00     0.108 A 
ATOM     12  C   UNL A   1      45.128  21.245  34.757  1.00  0.00     0.044 C 
ATOM     13  C   UNL A   1      44.579  22.594  34.395  1.00  0.00    -0.050 A 
ATOM     14  C   UNL A   1      45.077  23.288  33.284  1.00  0.00     0.007 A 
ATOM     15  C   UNL A   1      43.588  23.189  35.193  1.00  0.00     0.019 A 
ATOM     16  C   UNL A   1      44.626  24.576  32.999  1.00  0.00     0.048 A 
ATOM     17  C   UNL A   1      43.133  24.477  34.894  1.00  0.00     0.065 A 
ATOM     18  C   UNL A   1      43.671  25.173  33.820  1.00  0.00     0.138 A 
ATOM     19  C   UNL A   1      42.072  25.129  35.679  1.00  0.00     0.192 A 
ATOM     20  O   UNL A   1      43.317  26.458  33.518  1.00  0.00    -0.461 OA
ATOM     21  C   UNL A   1      41.644  26.469  35.227  1.00  0.00     0.095 A 
ATOM     22  O   UNL A   1      41.528  24.580  36.629  1.00  0.00    -0.289 OA
ENDBRANCH  10  11
ENDBRANCH   9  10
ENDBRANCH   8   9
ENDBRANCH   5   8
ENDBRANCH   3   4
ENDBRANCH   2   3
ENDBRANCH   1   2
BRANCH   1  23
ATOM     23  C   UNL A   1      34.992  32.337  30.863  1.00  0.00     0.002 C 
BRANCH  23  24
ATOM     24  C   UNL A   1      34.402  33.145  29.704  1.00  0.00     0.021 C 
BRANCH  24  25
ATOM     25  C   UNL A   1      34.741  32.604  28.319  1.00  0.00     0.116 C 
BRANCH  25  26
ATOM     26  N   UNL A   1      34.071  31.339  28.055  1.00  0.00    -0.352 N 
ATOM     27  C   UNL A   1      34.601  30.090  27.873  1.00  0.00     0.251 C 
ATOM     28  H   UNL A   1      33.088  31.389  28.000  1.00  0.00     0.163 HD
ATOM     29  O   UNL A   1      33.909  29.185  27.412  1.00  0.00    -0.269 OA
BRANCH  27  30
ATOM     30  C   UNL A   1      36.011  29.832  28.223  1.00  0.00     0.039 A 
ATOM     31  C   UNL A   1      36.317  29.357  29.500  1.00  0.00     0.014 A 
ATOM     32  C   UNL A   1      37.032  30.076  27.299  1.00  0.00     0.014 A 
ATOM     33  C   UNL A   1      37.642  29.074  29.831  1.00  0.00     0.010 A 
ATOM     34  C   UNL A   1      38.341  29.719  27.602  1.00  0.00     0.010 A 
ATOM     35  C   UNL A   1      38.661  29.219  28.873  1.00  0.00    -0.014 A 
BRANCH  35  36
ATOM     36  C   UNL A   1      40.062  28.847  29.187  1.00  0.00     0.031 A 
ATOM     37  C   UNL A   1      40.944  29.789  29.959  1.00  0.00     0.074 A 
ATOM     38  C   UNL A   1      40.555  27.681  28.728  1.00  0.00     0.049 A 
ATOM     39  N   UNL A   1      42.202  29.655  30.297  1.00  0.00    -0.248 NA
ATOM     40  C   UNL A   1      40.342  31.062  30.385  1.00  0.00     0.031 C 
ATOM     41  C   UNL A   1      39.812  26.710  27.923  1.00  0.00     0.029 A 
ATOM     42  N   UNL A   1      41.797  27.115  28.866  1.00  0.00    -0.354 N 
ATOM     43  C   UNL A   1      42.540  30.824  30.965  1.00  0.00     0.074 A 
ATOM     44  C   UNL A   1      41.377  31.682  30.933  1.00  0.00     0.031 C 
ATOM     45  C   UNL A   1      40.603  25.658  27.662  1.00  0.00     0.029 A 
ATOM     46  C   UNL A   1      41.919  25.897  28.244  1.00  0.00     0.049 A 
ATOM     47  H   UNL A   1      42.532  27.543  29.363  1.00  0.00     0.167 HD
ATOM     48  C   UNL A   1      43.709  31.141  31.572  1.00  0.00     0.037 A 
ATOM     49  C   UNL A   1      42.977  25.068  28.149  1.00  0.00     0.037 A 
ATOM     50  C   UNL A   1      44.859  30.275  31.612  1.00  0.00     0.049 A 
ATOM     51  C   UNL A   1      44.268  25.452  28.819  1.00  0.00     0.074 A 
ATOM     52  C   UNL A   1      46.069  30.477  32.252  1.00  0.00     0.029 A 
ATOM     53  N   UNL A   1      44.942  29.043  30.979  1.00  0.00    -0.354 N 
ATOM     54  N   UNL A   1      44.552  26.524  29.520  1.00  0.00    -0.248 NA
ATOM     55  C   UNL A   1      45.386  24.507  28.691  1.00  0.00     0.031 C 
ATOM     56  C   UNL A   1      46.905  29.396  31.958  1.00  0.00     0.029 A 
ATOM     57  C   UNL A   1      46.195  28.488  31.188  1.00  0.00     0.049 A 
ATOM     58  H   UNL A   1      44.220  28.626  30.458  1.00  0.00     0.167 HD
ATOM     59  C   UNL A   1      45.865  26.369  29.940  1.00  0.00     0.074 A 
ATOM     60  C   UNL A   1      46.319  25.091  29.430  1.00  0.00     0.031 C 
ATOM     61  C   UNL A   1      46.628  27.210  30.682  1.00  0.00     0.037 A 
BRANCH  48  62
ATOM     62  C   UNL A   1      43.805  32.482  32.243  1.00  0.00     0.064 A 
ATOM     63  C   UNL A   1      44.226  33.627  31.547  1.00  0.00     0.173 A 
ATOM     64  C   UNL A   1      43.433  32.634  33.587  1.00  0.00     0.173 A 
ATOM     65  F   UNL A   1      44.602  33.536  30.262  1.00  0.00    -0.203 F 
ATOM     66  C   UNL A   1      44.300  34.865  32.180  1.00  0.00     0.198 A 
ATOM     67  C   UNL A   1      43.476  33.881  34.207  1.00  0.00     0.198 A 
ATOM     68  F   UNL A   1      43.017  31.576  34.299  1.00  0.00    -0.203 F 
ATOM     69  F   UNL A   1      44.755  35.932  31.509  1.00  0.00    -0.200 F 
ATOM     70  C   UNL A   1      43.918  34.992  33.506  1.00  0.00     0.200 A 
ATOM     71  F   UNL A   1      43.091  34.005  35.485  1.00  0.00    -0.200 F 
ATOM     72  F   UNL A   1      43.980  36.187  34.112  1.00  0.00    -0.200 F 
ENDBRANCH  48  62
BRANCH  49  73
ATOM     73  C   UNL A   1      42.851  23.784  27.410  1.00  0.00     0.064 A 
ATOM     74  C   UNL A   1      42.359  22.633  28.043  1.00  0.00     0.173 A 
ATOM     75  C   UNL A   1      43.223  23.677  26.062  1.00  0.00     0.173 A 
ATOM     76  F   UNL A   1      42.008  22.679  29.336  1.00  0.00    -0.203 F 
ATOM     77  C   UNL A   1      42.267  21.420  27.363  1.00  0.00     0.198 A 
ATOM     78  C   UNL A   1      43.099  22.472  25.374  1.00  0.00     0.198 A 
ATOM     79  F   UNL A   1      43.693  24.748  25.407  1.00  0.00    -0.203 F 
ATOM     80  F   UNL A   1      41.842  20.325  28.007  1.00  0.00    -0.200 F 
ATOM     81  C   UNL A   1      42.632  21.342  26.027  1.00  0.00     0.200 A 
ATOM     82  F   UNL A   1      43.436  22.404  24.079  1.00  0.00    -0.200 F 
ATOM     83  F   UNL A   1      42.539  20.177  25.373  1.00  0.00    -0.200 F 
ENDBRANCH  49  73
BRANCH  61  84
ATOM     84  C   UNL A   1      48.020  26.760  31.023  1.00  0.00     0.064 A 
ATOM     85  C   UNL A   1      49.091  26.935  30.136  1.00  0.00     0.173 A 
ATOM     86  C   UNL A   1      48.290  26.186  32.274  1.00  0.00     0.173 A 
ATOM     87  F   UNL A   1      48.884  27.466  28.922  1.00  0.00    -0.203 F 
ATOM     88  C   UNL A   1      50.379  26.529  30.480  1.00  0.00     0.198 A 
ATOM     89  C   UNL A   1      49.584  25.812  32.629  1.00  0.00     0.198 A 
ATOM     90  F   UNL A   1      47.303  26.001  33.164  1.00  0.00    -0.203 F 
ATOM     91  F   UNL A   1      51.379  26.661  29.597  1.00  0.00    -0.200 F 
ATOM     92  C   UNL A   1      50.625  25.977  31.728  1.00  0.00     0.200 A 
ATOM     93  F   UNL A   1      49.823  25.294  33.841  1.00  0.00    -0.200 F 
ATOM     94  F   UNL A   1      51.866  25.597  32.061  1.00  0.00    -0.200 F 
ENDBRANCH  61  84
ENDBRANCH  35  36
ENDBRANCH  27  30
ENDBRANCH  25  26
ENDBRANCH  24  25
ENDBRANCH  23  24
ENDBRANCH   1  23
TORSDOF 16
ENDMDL
MODEL 2
REMARK VINA RESULT:      -9.9      4.324     10.249
REMARK SMILES Cc1ccc2oc(CCCC(=O)NCCCCCCNC(=O)c3ccc(-c4c5nc(c(-c6c(F)c(F)c(F)c(F)c6F)c6ccc([nH]6)c(-c6c(F)c(F)c(F)c(F)c6F)c6nc(c(-c7c(F)c(F)c(F)c(F)c7F)c7ccc4[nH]7)C=C6)C=C5)cc3)cc(=O)c2c1
REMARK SMILES IDX 16 1 15 2 14 3 13 4 11 5 12 6 10 8 9 9 8 10 7 11 1 12 2 13
REMARK SMILES IDX 3 14 90 15 4 16 89 17 5 18 87 19 6 20 86 21 88 22 17 23
REMARK SMILES IDX 18 24 19 25 20 26 21 27 22 29 23 30 24 31 85 32 25 33 84 34
REMARK SMILES IDX 26 35 27 36 28 37 78 38 29 39 83 40 77 41 79 42 30 43 82 44
REMARK SMILES IDX 76 45 75 46 31 48 63 49 43 50 62 51 44 52 47 53 61 54 80 55
REMARK SMILES IDX 45 56 46 57 60 59 81 60 48 61 32 62 33 63 41 64 34 65 35 66
REMARK SMILES IDX 39 67 42 68 36 69 37 70 40 71 38 72 64 73 65 74 73 75 66 76
REMARK SMILES IDX 67 77 71 78 74 79 68 80 69 81 72 82 70 83 49 84 50 85 58 86
REMARK SMILES IDX 51 87 52 88 56 89 59 90 53 91 54 92 57 93 55 94
REMARK H PARENT 13 7 20 28 79 47 47 58
REMARK Flexibility Score: inf
ROOT
ATOM      1  C   UNL A   1      36.865  22.012  24.424  1.00  0.00     0.002 C 
ENDROOT
BRANCH   1   2
ATOM      2  C   UNL A   1      36.489  23.145  25.379  1.00  0.00     0.021 C 
BRANCH   2   3
ATOM      3  C   UNL A   1      35.064  23.656  25.166  1.00  0.00     0.116 C 
BRANCH   3   4
ATOM      4  N   UNL A   1      34.796  23.826  23.756  1.00  0.00    -0.356 N 
ATOM      5  C   UNL A   1      33.850  23.241  22.975  1.00  0.00     0.220 C 
ATOM      6  O   UNL A   1      33.889  23.451  21.761  1.00  0.00    -0.275 OA
ATOM      7  H   UNL A   1      35.389  24.460  23.292  1.00  0.00     0.163 HD
BRANCH   5   8
ATOM      8  C   UNL A   1      32.735  22.416  23.588  1.00  0.00     0.100 C 
BRANCH   8   9
ATOM      9  C   UNL A   1      31.483  23.171  24.057  1.00  0.00     0.018 C 
BRANCH   9  10
ATOM     10  C   UNL A   1      30.937  24.354  23.231  1.00  0.00     0.076 C 
BRANCH  10  11
ATOM     11  C   UNL A   1      31.190  25.771  23.704  1.00  0.00     0.108 A 
ATOM     12  C   UNL A   1      33.438  30.802  27.150  1.00  0.00     0.044 C 
ATOM     13  C   UNL A   1      33.067  29.497  26.506  1.00  0.00    -0.050 A 
ATOM     14  C   UNL A   1      33.790  28.332  26.795  1.00  0.00     0.007 A 
ATOM     15  C   UNL A   1      32.016  29.443  25.576  1.00  0.00     0.019 A 
ATOM     16  C   UNL A   1      33.499  27.141  26.133  1.00  0.00     0.048 A 
ATOM     17  C   UNL A   1      31.723  28.242  24.924  1.00  0.00     0.065 A 
ATOM     18  C   UNL A   1      32.480  27.107  25.183  1.00  0.00     0.138 A 
ATOM     19  C   UNL A   1      30.609  28.127  23.969  1.00  0.00     0.192 A 
ATOM     20  O   UNL A   1      32.287  25.922  24.530  1.00  0.00    -0.461 OA
ATOM     21  C   UNL A   1      30.372  26.788  23.388  1.00  0.00     0.095 A 
ATOM     22  O   UNL A   1      29.878  29.070  23.696  1.00  0.00    -0.289 OA
ENDBRANCH  10  11
ENDBRANCH   9  10
ENDBRANCH   8   9
ENDBRANCH   5   8
ENDBRANCH   3   4
ENDBRANCH   2   3
ENDBRANCH   1   2
BRANCH   1  23
ATOM     23  C   UNL A   1      36.700  20.609  25.021  1.00  0.00     0.002 C 
BRANCH  23  24
ATOM     24  C   UNL A   1      37.945  19.722  24.945  1.00  0.00     0.021 C 
BRANCH  24  25
ATOM     25  C   UNL A   1      39.135  20.232  25.751  1.00  0.00     0.116 C 
BRANCH  25  26
ATOM     26  N   UNL A   1      40.164  19.213  25.896  1.00  0.00    -0.352 N 
ATOM     27  C   UNL A   1      41.510  19.354  26.107  1.00  0.00     0.251 C 
ATOM     28  H   UNL A   1      39.845  18.283  25.835  1.00  0.00     0.163 HD
ATOM     29  O   UNL A   1      42.265  18.396  25.954  1.00  0.00    -0.269 OA
BRANCH  27  30
ATOM     30  C   UNL A   1      42.058  20.663  26.511  1.00  0.00     0.039 A 
ATOM     31  C   UNL A   1      42.526  21.535  25.525  1.00  0.00     0.014 A 
ATOM     32  C   UNL A   1      42.126  21.022  27.860  1.00  0.00     0.014 A 
ATOM     33  C   UNL A   1      43.011  22.791  25.892  1.00  0.00     0.010 A 
ATOM     34  C   UNL A   1      42.535  22.302  28.217  1.00  0.00     0.010 A 
ATOM     35  C   UNL A   1      42.988  23.198  27.237  1.00  0.00    -0.014 A 
BRANCH  35  36
ATOM     36  C   UNL A   1      43.428  24.560  27.630  1.00  0.00     0.031 A 
ATOM     37  C   UNL A   1      42.415  25.612  27.985  1.00  0.00     0.074 A 
ATOM     38  C   UNL A   1      44.740  24.862  27.612  1.00  0.00     0.049 A 
ATOM     39  N   UNL A   1      42.604  26.864  28.318  1.00  0.00    -0.248 NA
ATOM     40  C   UNL A   1      40.999  25.214  27.937  1.00  0.00     0.031 C 
ATOM     41  C   UNL A   1      45.812  23.940  27.231  1.00  0.00     0.029 A 
ATOM     42  N   UNL A   1      45.397  26.027  27.913  1.00  0.00    -0.354 N 
ATOM     43  C   UNL A   1      41.339  27.401  28.509  1.00  0.00     0.074 A 
ATOM     44  C   UNL A   1      40.386  26.359  28.198  1.00  0.00     0.031 C 
ATOM     45  C   UNL A   1      46.993  24.566  27.348  1.00  0.00     0.029 A 
ATOM     46  C   UNL A   1      46.760  25.943  27.772  1.00  0.00     0.049 A 
ATOM     47  H   UNL A   1      44.935  26.847  28.203  1.00  0.00     0.167 HD
ATOM     48  C   UNL A   1      41.003  28.644  28.930  1.00  0.00     0.037 A 
ATOM     49  C   UNL A   1      47.716  26.874  27.957  1.00  0.00     0.037 A 
ATOM     50  C   UNL A   1      41.958  29.672  29.252  1.00  0.00     0.049 A 
ATOM     51  C   UNL A   1      47.314  28.253  28.409  1.00  0.00     0.074 A 
ATOM     52  C   UNL A   1      41.724  30.943  29.746  1.00  0.00     0.029 A 
ATOM     53  N   UNL A   1      43.333  29.547  29.106  1.00  0.00    -0.354 N 
ATOM     54  N   UNL A   1      46.118  28.725  28.667  1.00  0.00    -0.248 NA
ATOM     55  C   UNL A   1      48.397  29.226  28.605  1.00  0.00     0.031 C 
ATOM     56  C   UNL A   1      42.950  31.609  29.842  1.00  0.00     0.029 A 
ATOM     57  C   UNL A   1      43.957  30.730  29.470  1.00  0.00     0.049 A 
ATOM     58  H   UNL A   1      43.796  28.739  28.789  1.00  0.00     0.167 HD
ATOM     59  C   UNL A   1      46.307  30.035  29.082  1.00  0.00     0.074 A 
ATOM     60  C   UNL A   1      47.734  30.280  29.059  1.00  0.00     0.031 C 
ATOM     61  C   UNL A   1      45.380  30.955  29.451  1.00  0.00     0.037 A 
BRANCH  48  62
ATOM     62  C   UNL A   1      39.541  28.963  29.068  1.00  0.00     0.064 A 
ATOM     63  C   UNL A   1      38.880  28.873  30.303  1.00  0.00     0.173 A 
ATOM     64  C   UNL A   1      38.801  29.404  27.960  1.00  0.00     0.173 A 
ATOM     65  F   UNL A   1      39.537  28.448  31.392  1.00  0.00    -0.203 F 
ATOM     66  C   UNL A   1      37.526  29.182  30.416  1.00  0.00     0.198 A 
ATOM     67  C   UNL A   1      37.457  29.745  28.085  1.00  0.00     0.198 A 
ATOM     68  F   UNL A   1      39.383  29.516  26.756  1.00  0.00    -0.203 F 
ATOM     69  F   UNL A   1      36.906  29.037  31.595  1.00  0.00    -0.200 F 
ATOM     70  C   UNL A   1      36.819  29.625  29.310  1.00  0.00     0.200 A 
ATOM     71  F   UNL A   1      36.777  30.189  27.018  1.00  0.00    -0.200 F 
ATOM     72  F   UNL A   1      35.518  29.931  29.423  1.00  0.00    -0.200 F 
ENDBRANCH  48  62
BRANCH  49  73
ATOM     73  C   UNL A   1      49.145  26.529  27.736  1.00  0.00     0.064 A 
ATOM     74  C   UNL A   1      50.004  26.292  28.818  1.00  0.00     0.173 A 
ATOM     75  C   UNL A   1      49.682  26.430  26.444  1.00  0.00     0.173 A 
ATOM     76  F   UNL A   1      49.543  26.392  30.074  1.00  0.00    -0.203 F 
ATOM     77  C   UNL A   1      51.352  25.996  28.617  1.00  0.00     0.198 A 
ATOM     78  C   UNL A   1      51.021  26.102  26.244  1.00  0.00     0.198 A 
ATOM     79  F   UNL A   1      48.902  26.639  25.374  1.00  0.00    -0.203 F 
ATOM     80  F   UNL A   1      52.162  25.826  29.671  1.00  0.00    -0.200 F 
ATOM     81  C   UNL A   1      51.858  25.896  27.330  1.00  0.00     0.200 A 
ATOM     82  F   UNL A   1      51.502  25.988  24.998  1.00  0.00    -0.200 F 
ATOM     83  F   UNL A   1      53.151  25.607  27.137  1.00  0.00    -0.200 F 
ENDBRANCH  49  73
BRANCH  61  84
ATOM     84  C   UNL A   1      45.880  32.299  29.896  1.00  0.00     0.064 A 
ATOM     85  C   UNL A   1      46.231  32.553  31.230  1.00  0.00     0.173 A 
ATOM     86  C   UNL A   1      46.053  33.334  28.964  1.00  0.00     0.173 A 
ATOM     87  F   UNL A   1      46.072  31.602  32.163  1.00  0.00    -0.203 F 
ATOM     88  C   UNL A   1      46.712  33.801  31.618  1.00  0.00     0.198 A 
ATOM     89  C   UNL A   1      46.566  34.569  29.349  1.00  0.00     0.198 A 
ATOM     90  F   UNL A   1      45.739  33.143  27.673  1.00  0.00    -0.203 F 
ATOM     91  F   UNL A   1      46.994  34.036  32.908  1.00  0.00    -0.200 F 
ATOM     92  C   UNL A   1      46.887  34.804  30.677  1.00  0.00     0.200 A 
ATOM     93  F   UNL A   1      46.750  35.532  28.435  1.00  0.00    -0.200 F 
ATOM     94  F   UNL A   1      47.360  36.000  31.052  1.00  0.00    -0.200 F 
ENDBRANCH  61  84
ENDBRANCH  35  36
ENDBRANCH  27  30
ENDBRANCH  25  26
ENDBRANCH  24  25
ENDBRANCH  23  24
ENDBRANCH   1  23
TORSDOF 16
ENDMDL
MODEL 3
REMARK VINA RESULT:      -9.9      4.435      8.547
REMARK SMILES Cc1ccc2oc(CCCC(=O)NCCCCCCNC(=O)c3ccc(-c4c5nc(c(-c6c(F)c(F)c(F)c(F)c6F)c6ccc([nH]6)c(-c6c(F)c(F)c(F)c(F)c6F)c6nc(c(-c7c(F)c(F)c(F)c(F)c7F)c7ccc4[nH]7)C=C6)C=C5)cc3)cc(=O)c2c1
REMARK SMILES IDX 16 1 15 2 14 3 13 4 11 5 12 6 10 8 9 9 8 10 7 11 1 12 2 13
REMARK SMILES IDX 3 14 90 15 4 16 89 17 5 18 87 19 6 20 86 21 88 22 17 23
REMARK SMILES IDX 18 24 19 25 20 26 21 27 22 29 23 30 24 31 85 32 25 33 84 34
REMARK SMILES IDX 26 35 27 36 28 37 78 38 29 39 83 40 77 41 79 42 30 43 82 44
REMARK SMILES IDX 76 45 75 46 31 48 63 49 43 50 62 51 44 52 47 53 61 54 80 55
REMARK SMILES IDX 45 56 46 57 60 59 81 60 48 61 32 62 33 63 41 64 34 65 35 66
REMARK SMILES IDX 39 67 42 68 36 69 37 70 40 71 38 72 64 73 65 74 73 75 66 76
REMARK SMILES IDX 67 77 71 78 74 79 68 80 69 81 72 82 70 83 49 84 50 85 58 86
REMARK SMILES IDX 51 87 52 88 56 89 59 90 53 91 54 92 57 93 55 94
REMARK H PARENT 13 7 20 28 79 47 47 58
REMARK Flexibility Score: inf
ROOT
ATOM      1  C   UNL A   1      33.180  26.753  25.224  1.00  0.00     0.002 C 
ENDROOT
BRANCH   1   2
ATOM      2  C   UNL A   1      34.337  25.933  25.794  1.00  0.00     0.021 C 
BRANCH   2   3
ATOM      3  C   UNL A   1      34.102  24.425  25.701  1.00  0.00     0.116 C 
BRANCH   3   4
ATOM      4  N   UNL A   1      33.048  24.023  26.605  1.00  0.00    -0.356 N 
ATOM      5  C   UNL A   1      32.401  22.833  26.710  1.00  0.00     0.220 C 
ATOM      6  O   UNL A   1      31.444  22.759  27.483  1.00  0.00    -0.275 OA
ATOM      7  H   UNL A   1      32.756  24.717  27.240  1.00  0.00     0.163 HD
BRANCH   5   8
ATOM      8  C   UNL A   1      32.889  21.612  25.956  1.00  0.00     0.100 C 
BRANCH   8   9
ATOM      9  C   UNL A   1      32.071  21.172  24.733  1.00  0.00     0.018 C 
BRANCH   9  10
ATOM     10  C   UNL A   1      32.439  21.691  23.327  1.00  0.00     0.076 C 
BRANCH  10  11
ATOM     11  C   UNL A   1      32.262  23.161  23.008  1.00  0.00     0.108 A 
ATOM     12  C   UNL A   1      29.660  29.101  22.592  1.00  0.00     0.044 C 
ATOM     13  C   UNL A   1      30.051  27.671  22.821  1.00  0.00    -0.050 A 
ATOM     14  C   UNL A   1      29.345  26.880  23.738  1.00  0.00     0.007 A 
ATOM     15  C   UNL A   1      31.155  27.124  22.146  1.00  0.00     0.019 A 
ATOM     16  C   UNL A   1      29.761  25.578  24.012  1.00  0.00     0.048 A 
ATOM     17  C   UNL A   1      31.560  25.814  22.419  1.00  0.00     0.065 A 
ATOM     18  C   UNL A   1      30.881  25.058  23.366  1.00  0.00     0.138 A 
ATOM     19  C   UNL A   1      32.688  25.185  21.713  1.00  0.00     0.192 A 
ATOM     20  O   UNL A   1      31.269  23.798  23.725  1.00  0.00    -0.461 OA
ATOM     21  C   UNL A   1      32.981  23.778  22.055  1.00  0.00     0.095 A 
ATOM     22  O   UNL A   1      33.329  25.770  20.848  1.00  0.00    -0.289 OA
ENDBRANCH  10  11
ENDBRANCH   9  10
ENDBRANCH   8   9
ENDBRANCH   5   8
ENDBRANCH   3   4
ENDBRANCH   2   3
ENDBRANCH   1   2
BRANCH   1  23
ATOM     23  C   UNL A   1      32.249  27.348  26.287  1.00  0.00     0.002 C 
BRANCH  23  24
ATOM     24  C   UNL A   1      31.845  28.806  26.052  1.00  0.00     0.021 C 
BRANCH  24  25
ATOM     25  C   UNL A   1      33.005  29.737  25.716  1.00  0.00     0.116 C 
BRANCH  25  26
ATOM     26  N   UNL A   1      32.733  31.106  26.130  1.00  0.00    -0.352 N 
ATOM     27  C   UNL A   1      33.302  31.845  27.134  1.00  0.00     0.251 C 
ATOM     28  H   UNL A   1      32.038  31.571  25.610  1.00  0.00     0.163 HD
ATOM     29  O   UNL A   1      32.778  32.894  27.503  1.00  0.00    -0.269 OA
BRANCH  27  30
ATOM     30  C   UNL A   1      34.542  31.375  27.780  1.00  0.00     0.039 A 
ATOM     31  C   UNL A   1      35.547  32.301  28.073  1.00  0.00     0.014 A 
ATOM     32  C   UNL A   1      34.722  30.022  28.079  1.00  0.00     0.014 A 
ATOM     33  C   UNL A   1      36.708  31.876  28.717  1.00  0.00     0.010 A 
ATOM     34  C   UNL A   1      35.845  29.613  28.792  1.00  0.00     0.010 A 
ATOM     35  C   UNL A   1      36.852  30.535  29.113  1.00  0.00    -0.014 A 
BRANCH  35  36
ATOM     36  C   UNL A   1      38.048  30.086  29.869  1.00  0.00     0.031 A 
ATOM     37  C   UNL A   1      38.289  30.577  31.269  1.00  0.00     0.074 A 
ATOM     38  C   UNL A   1      38.944  29.279  29.270  1.00  0.00     0.049 A 
ATOM     39  N   UNL A   1      39.292  30.325  32.072  1.00  0.00    -0.248 NA
ATOM     40  C   UNL A   1      37.285  31.492  31.834  1.00  0.00     0.031 C 
ATOM     41  C   UNL A   1      38.844  28.782  27.896  1.00  0.00     0.029 A 
ATOM     42  N   UNL A   1      40.116  28.739  29.734  1.00  0.00    -0.354 N 
ATOM     43  C   UNL A   1      39.045  31.054  33.227  1.00  0.00     0.074 A 
ATOM     44  C   UNL A   1      37.829  31.805  33.001  1.00  0.00     0.031 C 
ATOM     45  C   UNL A   1      39.896  27.988  27.639  1.00  0.00     0.029 A 
ATOM     46  C   UNL A   1      40.763  27.954  28.812  1.00  0.00     0.049 A 
ATOM     47  H   UNL A   1      40.461  28.900  30.642  1.00  0.00     0.167 HD
ATOM     48  C   UNL A   1      39.754  31.075  34.381  1.00  0.00     0.037 A 
ATOM     49  C   UNL A   1      41.930  27.286  28.900  1.00  0.00     0.037 A 
ATOM     50  C   UNL A   1      40.955  30.313  34.605  1.00  0.00     0.049 A 
ATOM     51  C   UNL A   1      42.706  27.339  30.188  1.00  0.00     0.074 A 
ATOM     52  C   UNL A   1      41.713  30.217  35.757  1.00  0.00     0.029 A 
ATOM     53  N   UNL A   1      41.576  29.520  33.649  1.00  0.00    -0.354 N 
ATOM     54  N   UNL A   1      42.419  27.965  31.304  1.00  0.00    -0.248 NA
ATOM     55  C   UNL A   1      43.966  26.585  30.233  1.00  0.00     0.031 C 
ATOM     56  C   UNL A   1      42.826  29.414  35.484  1.00  0.00     0.029 A 
ATOM     57  C   UNL A   1      42.726  28.956  34.179  1.00  0.00     0.049 A 
ATOM     58  H   UNL A   1      41.249  29.380  32.732  1.00  0.00     0.167 HD
ATOM     59  C   UNL A   1      43.442  27.658  32.189  1.00  0.00     0.074 A 
ATOM     60  C   UNL A   1      44.350  26.775  31.487  1.00  0.00     0.031 C 
ATOM     61  C   UNL A   1      43.615  28.070  33.470  1.00  0.00     0.037 A 
BRANCH  48  62
ATOM     62  C   UNL A   1      39.249  31.950  35.494  1.00  0.00     0.064 A 
ATOM     63  C   UNL A   1      38.409  31.450  36.501  1.00  0.00     0.173 A 
ATOM     64  C   UNL A   1      39.644  33.293  35.578  1.00  0.00     0.173 A 
ATOM     65  F   UNL A   1      37.993  30.175  36.465  1.00  0.00    -0.203 F 
ATOM     66  C   UNL A   1      37.958  32.272  37.532  1.00  0.00     0.198 A 
ATOM     67  C   UNL A   1      39.219  34.102  36.629  1.00  0.00     0.198 A 
ATOM     68  F   UNL A   1      40.452  33.823  34.647  1.00  0.00    -0.203 F 
ATOM     69  F   UNL A   1      37.114  31.785  38.452  1.00  0.00    -0.200 F 
ATOM     70  C   UNL A   1      38.369  33.593  37.599  1.00  0.00     0.200 A 
ATOM     71  F   UNL A   1      39.630  35.376  36.701  1.00  0.00    -0.200 F 
ATOM     72  F   UNL A   1      37.942  34.380  38.598  1.00  0.00    -0.200 F 
ENDBRANCH  48  62
BRANCH  49  73
ATOM     73  C   UNL A   1      42.422  26.493  27.743  1.00  0.00     0.064 A 
ATOM     74  C   UNL A   1      43.272  27.066  26.786  1.00  0.00     0.173 A 
ATOM     75  C   UNL A   1      42.054  25.151  27.567  1.00  0.00     0.173 A 
ATOM     76  F   UNL A   1      43.639  28.351  26.900  1.00  0.00    -0.203 F 
ATOM     77  C   UNL A   1      43.713  26.335  25.684  1.00  0.00     0.198 A 
ATOM     78  C   UNL A   1      42.522  24.412  26.483  1.00  0.00     0.198 A 
ATOM     79  F   UNL A   1      41.249  24.552  28.456  1.00  0.00    -0.203 F 
ATOM     80  F   UNL A   1      44.483  26.923  24.758  1.00  0.00    -0.200 F 
ATOM     81  C   UNL A   1      43.343  25.007  25.536  1.00  0.00     0.200 A 
ATOM     82  F   UNL A   1      42.176  23.123  26.352  1.00  0.00    -0.200 F 
ATOM     83  F   UNL A   1      43.770  24.303  24.480  1.00  0.00    -0.200 F 
ENDBRANCH  49  73
BRANCH  61  84
ATOM     84  C   UNL A   1      44.809  27.541  34.210  1.00  0.00     0.064 A 
ATOM     85  C   UNL A   1      46.024  28.240  34.251  1.00  0.00     0.173 A 
ATOM     86  C   UNL A   1      44.720  26.338  34.927  1.00  0.00     0.173 A 
ATOM     87  F   UNL A   1      46.166  29.388  33.571  1.00  0.00    -0.203 F 
ATOM     88  C   UNL A   1      47.114  27.741  34.960  1.00  0.00     0.198 A 
ATOM     89  C   UNL A   1      45.800  25.859  35.663  1.00  0.00     0.198 A 
ATOM     90  F   UNL A   1      43.579  25.632  34.928  1.00  0.00    -0.203 F 
ATOM     91  F   UNL A   1      48.281  28.402  34.944  1.00  0.00    -0.200 F 
ATOM     92  C   UNL A   1      46.998  26.557  35.672  1.00  0.00     0.200 A 
ATOM     93  F   UNL A   1      45.682  24.723  36.365  1.00  0.00    -0.200 F 
ATOM     94  F   UNL A   1      48.045  26.085  36.363  1.00  0.00    -0.200 F 
ENDBRANCH  61  84
ENDBRANCH  35  36
ENDBRANCH  27  30
ENDBRANCH  25  26
ENDBRANCH  24  25
ENDBRANCH  23  24
ENDBRANCH   1  23
TORSDOF 16
ENDMDL
