MODEL 1
REMARK VINA RESULT:      -9.1      0.000      0.000
REMARK SMILES CC(C)[C@@H](CO)Nc1ccc(C(=O)NCCCCCCNC(=O)c2ccc(-c3c4nc(c(-c5c(F)c(F)c(F)c(F)c5F)c5ccc([nH]5)c(-c5c(F)c(F)c(F)c(F)c5F)c5nc(c(-c6c(F)c(F)c(F)c(F)c6F)c6ccc3[nH]6)C=C5)C=C4)cc2)nn1
REMARK SMILES IDX 16 1 15 2 14 3 12 4 13 5 11 7 8 8 9 9 88 10 10 11 87 12 7 13
REMARK SMILES IDX 4 15 2 16 1 17 3 18 5 19 6 20 17 22 18 23 19 24 20 25 21 26
REMARK SMILES IDX 22 27 23 29 24 30 25 31 86 32 26 33 85 34 27 35 28 36 29 37
REMARK SMILES IDX 79 38 30 39 84 40 78 41 80 42 31 43 83 44 77 45 76 46 32 48
REMARK SMILES IDX 64 49 44 50 63 51 45 52 48 53 62 54 81 55 46 56 47 57 61 59
REMARK SMILES IDX 82 60 49 61 33 62 34 63 42 64 35 65 36 66 40 67 43 68 37 69
REMARK SMILES IDX 38 70 41 71 39 72 65 73 66 74 74 75 67 76 68 77 72 78 75 79
REMARK SMILES IDX 69 80 70 81 73 82 71 83 50 84 51 85 59 86 52 87 53 88 57 89
REMARK SMILES IDX 60 90 54 91 55 92 58 93 56 94
REMARK H PARENT 14 6 7 14 6 21 21 28 80 47 48 58
REMARK Flexibility Score: inf
ROOT
ATOM      1  C   UNL A   1      45.180  24.215  27.256  1.00  0.00     0.021 C 
ENDROOT
BRANCH   1   2
ATOM      2  C   UNL A   1      45.697  25.654  27.203  1.00  0.00     0.116 C 
BRANCH   2   3
ATOM      3  N   UNL A   1      46.193  25.956  25.876  1.00  0.00    -0.351 N 
ATOM      4  C   UNL A   1      46.279  27.118  25.143  1.00  0.00     0.271 C 
ATOM      5  O   UNL A   1      46.763  27.011  24.014  1.00  0.00    -0.267 OA
ATOM      6  H   UNL A   1      46.542  25.167  25.400  1.00  0.00     0.163 HD
BRANCH   4   7
ATOM      7  C   UNL A   1      45.868  28.464  25.651  1.00  0.00     0.150 A 
ATOM      8  C   UNL A   1      45.439  31.047  26.526  1.00  0.00     0.148 A 
ATOM      9  C   UNL A   1      44.623  30.023  26.978  1.00  0.00     0.051 A 
ATOM     10  N   UNL A   1      46.391  30.780  25.617  1.00  0.00    -0.132 NA
ATOM     11  C   UNL A   1      44.812  28.721  26.506  1.00  0.00     0.040 A 
ATOM     12  N   UNL A   1      46.628  29.484  25.196  1.00  0.00    -0.143 NA
BRANCH   8  13
ATOM     13  N   UNL A   1      45.328  32.346  26.977  1.00  0.00    -0.363 N 
ATOM     14  H   UNL A   1      45.947  32.682  27.666  1.00  0.00     0.162 HD
BRANCH  13  15
ATOM     15  C   UNL A   1      44.289  33.225  26.433  1.00  0.00     0.108 C 
BRANCH  15  16
ATOM     16  C   UNL A   1      43.898  34.283  27.510  1.00  0.00     0.007 C 
ATOM     17  C   UNL A   1      42.925  35.331  26.958  1.00  0.00     0.009 C 
ATOM     18  C   UNL A   1      43.256  33.627  28.743  1.00  0.00     0.009 C 
ENDBRANCH  15  16
BRANCH  15  19
ATOM     19  C   UNL A   1      44.797  33.841  25.104  1.00  0.00     0.181 C 
BRANCH  19  20
ATOM     20  O   UNL A   1      43.942  33.593  23.991  1.00  0.00    -0.394 OA
ATOM     21  H   UNL A   1      44.456  33.647  23.170  1.00  0.00     0.210 HD
ENDBRANCH  19  20
ENDBRANCH  15  19
ENDBRANCH  13  15
ENDBRANCH   8  13
ENDBRANCH   4   7
ENDBRANCH   2   3
ENDBRANCH   1   2
BRANCH   1  22
ATOM     22  C   UNL A   1      43.665  24.105  27.022  1.00  0.00     0.002 C 
BRANCH  22  23
ATOM     23  C   UNL A   1      43.263  23.527  25.659  1.00  0.00     0.002 C 
BRANCH  23  24
ATOM     24  C   UNL A   1      42.600  22.148  25.709  1.00  0.00     0.021 C 
BRANCH  24  25
ATOM     25  C   UNL A   1      41.456  22.037  26.713  1.00  0.00     0.116 C 
BRANCH  25  26
ATOM     26  N   UNL A   1      40.159  22.130  26.061  1.00  0.00    -0.352 N 
ATOM     27  C   UNL A   1      39.188  23.094  26.181  1.00  0.00     0.251 C 
ATOM     28  H   UNL A   1      39.945  21.394  25.443  1.00  0.00     0.163 HD
ATOM     29  O   UNL A   1      38.060  22.894  25.746  1.00  0.00    -0.269 OA
BRANCH  27  30
ATOM     30  C   UNL A   1      39.502  24.374  26.849  1.00  0.00     0.039 A 
ATOM     31  C   UNL A   1      39.124  24.552  28.182  1.00  0.00     0.014 A 
ATOM     32  C   UNL A   1      40.145  25.402  26.155  1.00  0.00     0.014 A 
ATOM     33  C   UNL A   1      39.445  25.743  28.838  1.00  0.00     0.010 A 
ATOM     34  C   UNL A   1      40.524  26.561  26.828  1.00  0.00     0.010 A 
ATOM     35  C   UNL A   1      40.175  26.742  28.175  1.00  0.00    -0.014 A 
BRANCH  35  36
ATOM     36  C   UNL A   1      40.594  27.982  28.875  1.00  0.00     0.031 A 
ATOM     37  C   UNL A   1      41.985  28.105  29.428  1.00  0.00     0.074 A 
ATOM     38  C   UNL A   1      39.695  28.966  29.076  1.00  0.00     0.049 A 
ATOM     39  N   UNL A   1      42.511  29.068  30.142  1.00  0.00    -0.248 NA
ATOM     40  C   UNL A   1      42.901  26.984  29.166  1.00  0.00     0.031 C 
ATOM     41  C   UNL A   1      38.303  28.942  28.627  1.00  0.00     0.029 A 
ATOM     42  N   UNL A   1      39.816  30.170  29.724  1.00  0.00    -0.354 N 
ATOM     43  C   UNL A   1      43.808  28.664  30.427  1.00  0.00     0.074 A 
ATOM     44  C   UNL A   1      43.977  27.348  29.849  1.00  0.00     0.031 C 
ATOM     45  C   UNL A   1      37.701  30.083  29.000  1.00  0.00     0.029 A 
ATOM     46  C   UNL A   1      38.652  30.900  29.748  1.00  0.00     0.049 A 
ATOM     47  H   UNL A   1      40.655  30.480  30.133  1.00  0.00     0.167 HD
ATOM     48  C   UNL A   1      44.776  29.340  31.090  1.00  0.00     0.037 A 
ATOM     49  C   UNL A   1      38.381  32.089  30.319  1.00  0.00     0.037 A 
ATOM     50  C   UNL A   1      44.611  30.660  31.640  1.00  0.00     0.049 A 
ATOM     51  C   UNL A   1      39.474  32.815  31.055  1.00  0.00     0.074 A 
ATOM     52  C   UNL A   1      45.551  31.456  32.271  1.00  0.00     0.029 A 
ATOM     53  N   UNL A   1      43.424  31.377  31.626  1.00  0.00    -0.354 N 
ATOM     54  N   UNL A   1      40.717  32.454  31.256  1.00  0.00    -0.248 NA
ATOM     55  C   UNL A   1      39.126  34.118  31.639  1.00  0.00     0.031 C 
ATOM     56  C   UNL A   1      44.920  32.635  32.683  1.00  0.00     0.029 A 
ATOM     57  C   UNL A   1      43.601  32.596  32.262  1.00  0.00     0.049 A 
ATOM     58  H   UNL A   1      42.580  31.067  31.224  1.00  0.00     0.167 HD
ATOM     59  C   UNL A   1      41.307  33.492  31.966  1.00  0.00     0.074 A 
ATOM     60  C   UNL A   1      40.288  34.506  32.144  1.00  0.00     0.031 C 
ATOM     61  C   UNL A   1      42.577  33.596  32.428  1.00  0.00     0.037 A 
BRANCH  48  62
ATOM     62  C   UNL A   1      46.106  28.664  31.262  1.00  0.00     0.064 A 
ATOM     63  C   UNL A   1      47.132  28.809  30.316  1.00  0.00     0.173 A 
ATOM     64  C   UNL A   1      46.374  27.901  32.407  1.00  0.00     0.173 A 
ATOM     65  F   UNL A   1      46.925  29.519  29.197  1.00  0.00    -0.203 F 
ATOM     66  C   UNL A   1      48.368  28.192  30.498  1.00  0.00     0.198 A 
ATOM     67  C   UNL A   1      47.621  27.312  32.602  1.00  0.00     0.198 A 
ATOM     68  F   UNL A   1      45.430  27.734  33.346  1.00  0.00    -0.203 F 
ATOM     69  F   UNL A   1      49.318  28.307  29.560  1.00  0.00    -0.200 F 
ATOM     70  C   UNL A   1      48.615  27.452  31.645  1.00  0.00     0.200 A 
ATOM     71  F   UNL A   1      47.861  26.607  33.717  1.00  0.00    -0.200 F 
ATOM     72  F   UNL A   1      49.807  26.868  31.824  1.00  0.00    -0.200 F 
ENDBRANCH  48  62
BRANCH  49  73
ATOM     73  C   UNL A   1      37.019  32.673  30.207  1.00  0.00     0.064 A 
ATOM     74  C   UNL A   1      36.062  32.470  31.211  1.00  0.00     0.173 A 
ATOM     75  C   UNL A   1      36.645  33.439  29.094  1.00  0.00     0.173 A 
ATOM     76  F   UNL A   1      36.366  31.727  32.285  1.00  0.00    -0.203 F 
ATOM     77  C   UNL A   1      34.774  32.990  31.094  1.00  0.00     0.198 A 
ATOM     78  C   UNL A   1      35.365  33.985  28.992  1.00  0.00     0.198 A 
ATOM     79  F   UNL A   1      37.525  33.670  28.108  1.00  0.00    -0.203 F 
ATOM     80  F   UNL A   1      33.865  32.740  32.045  1.00  0.00    -0.200 F 
ATOM     81  C   UNL A   1      34.429  33.751  29.988  1.00  0.00     0.200 A 
ATOM     82  F   UNL A   1      35.041  34.733  27.928  1.00  0.00    -0.200 F 
ATOM     83  F   UNL A   1      33.192  34.255  29.877  1.00  0.00    -0.200 F 
ENDBRANCH  49  73
BRANCH  61  84
ATOM     84  C   UNL A   1      42.945  34.862  33.146  1.00  0.00     0.064 A 
ATOM     85  C   UNL A   1      42.891  34.955  34.545  1.00  0.00     0.173 A 
ATOM     86  C   UNL A   1      43.392  35.981  32.428  1.00  0.00     0.173 A 
ATOM     87  F   UNL A   1      42.455  33.918  35.275  1.00  0.00    -0.203 F 
ATOM     88  C   UNL A   1      43.248  36.133  35.196  1.00  0.00     0.198 A 
ATOM     89  C   UNL A   1      43.778  37.146  33.086  1.00  0.00     0.198 A 
ATOM     90  F   UNL A   1      43.468  35.941  31.090  1.00  0.00    -0.203 F 
ATOM     91  F   UNL A   1      43.143  36.216  36.530  1.00  0.00    -0.200 F 
ATOM     92  C   UNL A   1      43.698  37.224  34.468  1.00  0.00     0.200 A 
ATOM     93  F   UNL A   1      44.225  38.194  32.381  1.00  0.00    -0.200 F 
ATOM     94  F   UNL A   1      44.048  38.354  35.098  1.00  0.00    -0.200 F 
ENDBRANCH  61  84
ENDBRANCH  35  36
ENDBRANCH  27  30
ENDBRANCH  25  26
ENDBRANCH  24  25
ENDBRANCH  23  24
ENDBRANCH  22  23
ENDBRANCH   1  22
TORSDOF 18
ENDMDL
MODEL 2
REMARK VINA RESULT:      -9.1      4.983     10.260
REMARK SMILES CC(C)[C@@H](CO)Nc1ccc(C(=O)NCCCCCCNC(=O)c2ccc(-c3c4nc(c(-c5c(F)c(F)c(F)c(F)c5F)c5ccc([nH]5)c(-c5c(F)c(F)c(F)c(F)c5F)c5nc(c(-c6c(F)c(F)c(F)c(F)c6F)c6ccc3[nH]6)C=C5)C=C4)cc2)nn1
REMARK SMILES IDX 16 1 15 2 14 3 12 4 13 5 11 7 8 8 9 9 88 10 10 11 87 12 7 13
REMARK SMILES IDX 4 15 2 16 1 17 3 18 5 19 6 20 17 22 18 23 19 24 20 25 21 26
REMARK SMILES IDX 22 27 23 29 24 30 25 31 86 32 26 33 85 34 27 35 28 36 29 37
REMARK SMILES IDX 79 38 30 39 84 40 78 41 80 42 31 43 83 44 77 45 76 46 32 48
REMARK SMILES IDX 64 49 44 50 63 51 45 52 48 53 62 54 81 55 46 56 47 57 61 59
REMARK SMILES IDX 82 60 49 61 33 62 34 63 42 64 35 65 36 66 40 67 43 68 37 69
REMARK SMILES IDX 38 70 41 71 39 72 65 73 66 74 74 75 67 76 68 77 72 78 75 79
REMARK SMILES IDX 69 80 70 81 73 82 71 83 50 84 51 85 59 86 52 87 53 88 57 89
REMARK SMILES IDX 60 90 54 91 55 92 58 93 56 94
REMARK H PARENT 14 6 7 14 6 21 21 28 80 47 48 58
REMARK Flexibility Score: inf
ROOT
ATOM      1  C   UNL A   1      33.350  25.507  25.890  1.00  0.00     0.021 C 
ENDROOT
BRANCH   1   2
ATOM      2  C   UNL A   1      32.842  25.143  24.494  1.00  0.00     0.116 C 
BRANCH   2   3
ATOM      3  N   UNL A   1      33.921  24.592  23.700  1.00  0.00    -0.351 N 
ATOM      4  C   UNL A   1      34.415  23.317  23.534  1.00  0.00     0.271 C 
ATOM      5  O   UNL A   1      35.372  23.204  22.765  1.00  0.00    -0.267 OA
ATOM      6  H   UNL A   1      34.400  25.269  23.168  1.00  0.00     0.163 HD
BRANCH   4   7
ATOM      7  C   UNL A   1      33.836  22.101  24.185  1.00  0.00     0.150 A 
ATOM      8  C   UNL A   1      33.097  19.736  25.400  1.00  0.00     0.148 A 
ATOM      9  C   UNL A   1      32.170  20.445  24.656  1.00  0.00     0.051 A 
ATOM     10  N   UNL A   1      34.329  20.239  25.575  1.00  0.00    -0.132 NA
ATOM     11  C   UNL A   1      32.529  21.664  24.073  1.00  0.00     0.040 A 
ATOM     12  N   UNL A   1      34.713  21.410  24.946  1.00  0.00    -0.143 NA
BRANCH   8  13
ATOM     13  N   UNL A   1      32.816  18.512  25.972  1.00  0.00    -0.363 N 
ATOM     14  H   UNL A   1      32.583  18.456  26.927  1.00  0.00     0.162 HD
BRANCH  13  15
ATOM     15  C   UNL A   1      32.867  17.293  25.158  1.00  0.00     0.108 C 
BRANCH  15  16
ATOM     16  C   UNL A   1      34.284  17.163  24.520  1.00  0.00     0.007 C 
ATOM     17  C   UNL A   1      35.136  16.103  25.226  1.00  0.00     0.009 C 
ATOM     18  C   UNL A   1      34.203  16.804  23.027  1.00  0.00     0.009 C 
ENDBRANCH  15  16
BRANCH  15  19
ATOM     19  C   UNL A   1      32.463  16.083  26.039  1.00  0.00     0.181 C 
BRANCH  19  20
ATOM     20  O   UNL A   1      31.773  15.059  25.328  1.00  0.00    -0.394 OA
ATOM     21  H   UNL A   1      31.289  14.499  25.955  1.00  0.00     0.210 HD
ENDBRANCH  19  20
ENDBRANCH  15  19
ENDBRANCH  13  15
ENDBRANCH   8  13
ENDBRANCH   4   7
ENDBRANCH   2   3
ENDBRANCH   1   2
BRANCH   1  22
ATOM     22  C   UNL A   1      33.505  27.020  26.105  1.00  0.00     0.002 C 
BRANCH  22  23
ATOM     23  C   UNL A   1      32.405  27.668  26.957  1.00  0.00     0.002 C 
BRANCH  23  24
ATOM     24  C   UNL A   1      31.840  28.977  26.400  1.00  0.00     0.021 C 
BRANCH  24  25
ATOM     25  C   UNL A   1      32.894  29.933  25.851  1.00  0.00     0.116 C 
BRANCH  25  26
ATOM     26  N   UNL A   1      32.604  31.313  26.206  1.00  0.00    -0.352 N 
ATOM     27  C   UNL A   1      33.171  32.102  27.177  1.00  0.00     0.251 C 
ATOM     28  H   UNL A   1      31.898  31.746  25.673  1.00  0.00     0.163 HD
ATOM     29  O   UNL A   1      32.645  33.161  27.500  1.00  0.00    -0.269 OA
BRANCH  27  30
ATOM     30  C   UNL A   1      34.417  31.668  27.843  1.00  0.00     0.039 A 
ATOM     31  C   UNL A   1      35.485  32.563  27.932  1.00  0.00     0.014 A 
ATOM     32  C   UNL A   1      34.537  30.373  28.356  1.00  0.00     0.014 A 
ATOM     33  C   UNL A   1      36.655  32.179  28.591  1.00  0.00     0.010 A 
ATOM     34  C   UNL A   1      35.678  30.014  29.069  1.00  0.00     0.010 A 
ATOM     35  C   UNL A   1      36.748  30.914  29.192  1.00  0.00    -0.014 A 
BRANCH  35  36
ATOM     36  C   UNL A   1      37.952  30.514  29.962  1.00  0.00     0.031 A 
ATOM     37  C   UNL A   1      38.942  29.551  29.370  1.00  0.00     0.074 A 
ATOM     38  C   UNL A   1      38.112  30.962  31.222  1.00  0.00     0.049 A 
ATOM     39  N   UNL A   1      40.005  29.016  29.915  1.00  0.00    -0.248 NA
ATOM     40  C   UNL A   1      38.690  29.110  27.990  1.00  0.00     0.031 C 
ATOM     41  C   UNL A   1      37.196  31.863  31.921  1.00  0.00     0.029 A 
ATOM     42  N   UNL A   1      39.096  30.707  32.144  1.00  0.00    -0.354 N 
ATOM     43  C   UNL A   1      40.537  28.167  28.955  1.00  0.00     0.074 A 
ATOM     44  C   UNL A   1      39.656  28.220  27.809  1.00  0.00     0.031 C 
ATOM     45  C   UNL A   1      37.666  32.097  33.156  1.00  0.00     0.029 A 
ATOM     46  C   UNL A   1      38.894  31.333  33.350  1.00  0.00     0.049 A 
ATOM     47  H   UNL A   1      39.872  30.130  31.960  1.00  0.00     0.167 HD
ATOM     48  C   UNL A   1      41.670  27.428  29.017  1.00  0.00     0.037 A 
ATOM     49  C   UNL A   1      39.612  31.285  34.488  1.00  0.00     0.037 A 
ATOM     50  C   UNL A   1      42.558  27.400  30.150  1.00  0.00     0.049 A 
ATOM     51  C   UNL A   1      40.864  30.451  34.531  1.00  0.00     0.074 A 
ATOM     52  C   UNL A   1      43.764  26.735  30.284  1.00  0.00     0.029 A 
ATOM     53  N   UNL A   1      42.332  28.063  31.346  1.00  0.00    -0.354 N 
ATOM     54  N   UNL A   1      41.395  29.708  33.591  1.00  0.00    -0.248 NA
ATOM     55  C   UNL A   1      41.619  30.455  35.791  1.00  0.00     0.031 C 
ATOM     56  C   UNL A   1      44.245  26.957  31.580  1.00  0.00     0.029 A 
ATOM     57  C   UNL A   1      43.363  27.802  32.234  1.00  0.00     0.049 A 
ATOM     58  H   UNL A   1      41.553  28.635  31.537  1.00  0.00     0.167 HD
ATOM     59  C   UNL A   1      42.557  29.176  34.135  1.00  0.00     0.074 A 
ATOM     60  C   UNL A   1      42.663  29.697  35.483  1.00  0.00     0.031 C 
ATOM     61  C   UNL A   1      43.455  28.332  33.571  1.00  0.00     0.037 A 
BRANCH  48  62
ATOM     62  C   UNL A   1      42.019  26.585  27.824  1.00  0.00     0.064 A 
ATOM     63  C   UNL A   1      42.885  27.049  26.822  1.00  0.00     0.173 A 
ATOM     64  C   UNL A   1      41.518  25.281  27.703  1.00  0.00     0.173 A 
ATOM     65  F   UNL A   1      43.384  28.293  26.883  1.00  0.00    -0.203 F 
ATOM     66  C   UNL A   1      43.216  26.248  25.732  1.00  0.00     0.198 A 
ATOM     67  C   UNL A   1      41.875  24.470  26.628  1.00  0.00     0.198 A 
ATOM     68  F   UNL A   1      40.690  24.784  28.635  1.00  0.00    -0.203 F 
ATOM     69  F   UNL A   1      44.009  26.730  24.765  1.00  0.00    -0.200 F 
ATOM     70  C   UNL A   1      42.718  24.957  25.640  1.00  0.00     0.200 A 
ATOM     71  F   UNL A   1      41.403  23.219  26.548  1.00  0.00    -0.200 F 
ATOM     72  F   UNL A   1      43.045  24.184  24.595  1.00  0.00    -0.200 F 
ENDBRANCH  48  62
BRANCH  49  73
ATOM     73  C   UNL A   1      39.173  32.060  35.678  1.00  0.00     0.064 A 
ATOM     74  C   UNL A   1      38.346  31.481  36.650  1.00  0.00     0.173 A 
ATOM     75  C   UNL A   1      39.563  33.394  35.862  1.00  0.00     0.173 A 
ATOM     76  F   UNL A   1      37.930  30.215  36.508  1.00  0.00    -0.203 F 
ATOM     77  C   UNL A   1      37.906  32.215  37.751  1.00  0.00     0.198 A 
ATOM     78  C   UNL A   1      39.147  34.118  36.979  1.00  0.00     0.198 A 
ATOM     79  F   UNL A   1      40.359  33.993  34.964  1.00  0.00    -0.203 F 
ATOM     80  F   UNL A   1      37.078  31.652  38.640  1.00  0.00    -0.200 F 
ATOM     81  C   UNL A   1      38.312  33.530  37.917  1.00  0.00     0.200 A 
ATOM     82  F   UNL A   1      39.554  35.385  37.143  1.00  0.00    -0.200 F 
ATOM     83  F   UNL A   1      37.892  34.235  38.977  1.00  0.00    -0.200 F 
ENDBRANCH  49  73
BRANCH  61  84
ATOM     84  C   UNL A   1      44.645  27.942  34.398  1.00  0.00     0.064 A 
ATOM     85  C   UNL A   1      45.817  28.713  34.408  1.00  0.00     0.173 A 
ATOM     86  C   UNL A   1      44.599  26.805  35.218  1.00  0.00     0.173 A 
ATOM     87  F   UNL A   1      45.916  29.801  33.628  1.00  0.00    -0.203 F 
ATOM     88  C   UNL A   1      46.908  28.345  35.190  1.00  0.00     0.198 A 
ATOM     89  C   UNL A   1      45.681  26.458  36.022  1.00  0.00     0.198 A 
ATOM     90  F   UNL A   1      43.500  26.037  35.249  1.00  0.00    -0.203 F 
ATOM     91  F   UNL A   1      48.036  29.069  35.147  1.00  0.00    -0.200 F 
ATOM     92  C   UNL A   1      46.838  27.223  36.001  1.00  0.00     0.200 A 
ATOM     93  F   UNL A   1      45.605  25.380  36.816  1.00  0.00    -0.200 F 
ATOM     94  F   UNL A   1      47.887  26.875  36.759  1.00  0.00    -0.200 F 
ENDBRANCH  61  84
ENDBRANCH  35  36
ENDBRANCH  27  30
ENDBRANCH  25  26
ENDBRANCH  24  25
ENDBRANCH  23  24
ENDBRANCH  22  23
ENDBRANCH   1  22
TORSDOF 18
ENDMDL
MODEL 3
REMARK VINA RESULT:      -9.0      5.998     12.911
REMARK SMILES CC(C)[C@@H](CO)Nc1ccc(C(=O)NCCCCCCNC(=O)c2ccc(-c3c4nc(c(-c5c(F)c(F)c(F)c(F)c5F)c5ccc([nH]5)c(-c5c(F)c(F)c(F)c(F)c5F)c5nc(c(-c6c(F)c(F)c(F)c(F)c6F)c6ccc3[nH]6)C=C5)C=C4)cc2)nn1
REMARK SMILES IDX 16 1 15 2 14 3 12 4 13 5 11 7 8 8 9 9 88 10 10 11 87 12 7 13
REMARK SMILES IDX 4 15 2 16 1 17 3 18 5 19 6 20 17 22 18 23 19 24 20 25 21 26
REMARK SMILES IDX 22 27 23 29 24 30 25 31 86 32 26 33 85 34 27 35 28 36 29 37
REMARK SMILES IDX 79 38 30 39 84 40 78 41 80 42 31 43 83 44 77 45 76 46 32 48
REMARK SMILES IDX 64 49 44 50 63 51 45 52 48 53 62 54 81 55 46 56 47 57 61 59
REMARK SMILES IDX 82 60 49 61 33 62 34 63 42 64 35 65 36 66 40 67 43 68 37 69
REMARK SMILES IDX 38 70 41 71 39 72 65 73 66 74 74 75 67 76 68 77 72 78 75 79
REMARK SMILES IDX 69 80 70 81 73 82 71 83 50 84 51 85 59 86 52 87 53 88 57 89
REMARK SMILES IDX 60 90 54 91 55 92 58 93 56 94
REMARK H PARENT 14 6 7 14 6 21 21 28 80 47 48 58
REMARK Flexibility Score: inf
ROOT
ATOM      1  C   UNL A   1      42.137  40.504  26.784  1.00  0.00     0.021 C 
ENDROOT
BRANCH   1   2
ATOM      2  C   UNL A   1      43.243  40.651  25.737  1.00  0.00     0.116 C 
BRANCH   2   3
ATOM      3  N   UNL A   1      43.794  41.990  25.778  1.00  0.00    -0.351 N 
ATOM      4  C   UNL A   1      43.863  43.010  24.856  1.00  0.00     0.271 C 
ATOM      5  O   UNL A   1      44.422  44.042  25.232  1.00  0.00    -0.267 OA
ATOM      6  H   UNL A   1      44.203  42.217  26.644  1.00  0.00     0.163 HD
BRANCH   4   7
ATOM      7  C   UNL A   1      43.273  42.942  23.482  1.00  0.00     0.150 A 
ATOM      8  C   UNL A   1      42.470  42.991  20.842  1.00  0.00     0.148 A 
ATOM      9  C   UNL A   1      41.526  42.852  21.846  1.00  0.00     0.051 A 
ATOM     10  N   UNL A   1      43.773  43.037  21.163  1.00  0.00    -0.132 NA
ATOM     11  C   UNL A   1      41.933  42.786  23.181  1.00  0.00     0.040 A 
ATOM     12  N   UNL A   1      44.179  43.041  22.485  1.00  0.00    -0.143 NA
BRANCH   8  13
ATOM     13  N   UNL A   1      42.133  43.097  19.508  1.00  0.00    -0.363 N 
ATOM     14  H   UNL A   1      42.219  42.315  18.915  1.00  0.00     0.162 HD
BRANCH  13  15
ATOM     15  C   UNL A   1      41.647  44.373  18.974  1.00  0.00     0.108 C 
BRANCH  15  16
ATOM     16  C   UNL A   1      42.825  45.117  18.274  1.00  0.00     0.007 C 
ATOM     17  C   UNL A   1      43.496  44.249  17.204  1.00  0.00     0.009 C 
ATOM     18  C   UNL A   1      42.360  46.426  17.616  1.00  0.00     0.009 C 
ENDBRANCH  15  16
BRANCH  15  19
ATOM     19  C   UNL A   1      40.437  44.101  18.044  1.00  0.00     0.181 C 
BRANCH  19  20
ATOM     20  O   UNL A   1      39.185  44.067  18.724  1.00  0.00    -0.394 OA
ATOM     21  H   UNL A   1      39.162  43.305  19.323  1.00  0.00     0.210 HD
ENDBRANCH  19  20
ENDBRANCH  15  19
ENDBRANCH  13  15
ENDBRANCH   8  13
ENDBRANCH   4   7
ENDBRANCH   2   3
ENDBRANCH   1   2
BRANCH   1  22
ATOM     22  C   UNL A   1      41.653  39.057  26.958  1.00  0.00     0.002 C 
BRANCH  22  23
ATOM     23  C   UNL A   1      42.477  38.214  27.941  1.00  0.00     0.002 C 
BRANCH  23  24
ATOM     24  C   UNL A   1      42.984  38.967  29.174  1.00  0.00     0.021 C 
BRANCH  24  25
ATOM     25  C   UNL A   1      43.915  38.153  30.068  1.00  0.00     0.116 C 
BRANCH  25  26
ATOM     26  N   UNL A   1      45.307  38.313  29.679  1.00  0.00    -0.352 N 
ATOM     27  C   UNL A   1      46.236  37.356  29.347  1.00  0.00     0.251 C 
ATOM     28  H   UNL A   1      45.633  39.241  29.650  1.00  0.00     0.163 HD
ATOM     29  O   UNL A   1      47.425  37.646  29.278  1.00  0.00    -0.269 OA
BRANCH  27  30
ATOM     30  C   UNL A   1      45.800  35.969  29.083  1.00  0.00     0.039 A 
ATOM     31  C   UNL A   1      46.040  34.989  30.048  1.00  0.00     0.014 A 
ATOM     32  C   UNL A   1      45.180  35.634  27.876  1.00  0.00     0.014 A 
ATOM     33  C   UNL A   1      45.603  33.681  29.829  1.00  0.00     0.010 A 
ATOM     34  C   UNL A   1      44.686  34.346  27.686  1.00  0.00     0.010 A 
ATOM     35  C   UNL A   1      44.894  33.357  28.661  1.00  0.00    -0.014 A 
BRANCH  35  36
ATOM     36  C   UNL A   1      44.354  31.993  28.441  1.00  0.00     0.031 A 
ATOM     37  C   UNL A   1      43.040  31.593  29.051  1.00  0.00     0.074 A 
ATOM     38  C   UNL A   1      45.083  31.093  27.754  1.00  0.00     0.049 A 
ATOM     39  N   UNL A   1      42.445  30.427  29.046  1.00  0.00    -0.248 NA
ATOM     40  C   UNL A   1      42.310  32.636  29.788  1.00  0.00     0.031 C 
ATOM     41  C   UNL A   1      46.393  31.349  27.154  1.00  0.00     0.029 A 
ATOM     42  N   UNL A   1      44.834  29.776  27.458  1.00  0.00    -0.354 N 
ATOM     43  C   UNL A   1      41.283  30.592  29.788  1.00  0.00     0.074 A 
ATOM     44  C   UNL A   1      41.278  31.956  30.268  1.00  0.00     0.031 C 
ATOM     45  C   UNL A   1      46.827  30.231  26.550  1.00  0.00     0.029 A 
ATOM     46  C   UNL A   1      45.845  29.170  26.753  1.00  0.00     0.049 A 
ATOM     47  H   UNL A   1      44.009  29.310  27.725  1.00  0.00     0.167 HD
ATOM     48  C   UNL A   1      40.300  29.691  30.027  1.00  0.00     0.037 A 
ATOM     49  C   UNL A   1      45.972  27.898  26.331  1.00  0.00     0.037 A 
ATOM     50  C   UNL A   1      40.297  28.342  29.523  1.00  0.00     0.049 A 
ATOM     51  C   UNL A   1      44.867  26.917  26.615  1.00  0.00     0.074 A 
ATOM     52  C   UNL A   1      39.316  27.375  29.654  1.00  0.00     0.029 A 
ATOM     53  N   UNL A   1      41.329  27.770  28.795  1.00  0.00    -0.354 N 
ATOM     54  N   UNL A   1      43.740  27.104  27.256  1.00  0.00    -0.248 NA
ATOM     55  C   UNL A   1      45.050  25.550  26.110  1.00  0.00     0.031 C 
ATOM     56  C   UNL A   1      39.776  26.201  29.047  1.00  0.00     0.029 A 
ATOM     57  C   UNL A   1      41.021  26.453  28.493  1.00  0.00     0.049 A 
ATOM     58  H   UNL A   1      42.159  28.230  28.532  1.00  0.00     0.167 HD
ATOM     59  C   UNL A   1      43.069  25.889  27.212  1.00  0.00     0.074 A 
ATOM     60  C   UNL A   1      43.908  24.976  26.463  1.00  0.00     0.031 C 
ATOM     61  C   UNL A   1      41.866  25.559  27.743  1.00  0.00     0.037 A 
BRANCH  48  62
ATOM     62  C   UNL A   1      39.140  30.133  30.871  1.00  0.00     0.064 A 
ATOM     63  C   UNL A   1      39.100  29.889  32.253  1.00  0.00     0.173 A 
ATOM     64  C   UNL A   1      38.077  30.850  30.302  1.00  0.00     0.173 A 
ATOM     65  F   UNL A   1      40.086  29.199  32.846  1.00  0.00    -0.203 F 
ATOM     66  C   UNL A   1      38.027  30.323  33.027  1.00  0.00     0.198 A 
ATOM     67  C   UNL A   1      37.021  31.310  31.084  1.00  0.00     0.198 A 
ATOM     68  F   UNL A   1      38.067  31.115  28.987  1.00  0.00    -0.203 F 
ATOM     69  F   UNL A   1      37.989  30.040  34.336  1.00  0.00    -0.200 F 
ATOM     70  C   UNL A   1      36.992  31.041  32.444  1.00  0.00     0.200 A 
ATOM     71  F   UNL A   1      36.028  32.013  30.521  1.00  0.00    -0.200 F 
ATOM     72  F   UNL A   1      35.966  31.466  33.193  1.00  0.00    -0.200 F 
ENDBRANCH  48  62
BRANCH  49  73
ATOM     73  C   UNL A   1      47.187  27.481  25.582  1.00  0.00     0.064 A 
ATOM     74  C   UNL A   1      48.280  26.905  26.243  1.00  0.00     0.173 A 
ATOM     75  C   UNL A   1      47.282  27.656  24.193  1.00  0.00     0.173 A 
ATOM     76  F   UNL A   1      48.243  26.736  27.573  1.00  0.00    -0.203 F 
ATOM     77  C   UNL A   1      49.432  26.543  25.549  1.00  0.00     0.198 A 
ATOM     78  C   UNL A   1      48.424  27.265  23.495  1.00  0.00     0.198 A 
ATOM     79  F   UNL A   1      46.262  28.197  23.511  1.00  0.00    -0.203 F 
ATOM     80  F   UNL A   1      50.481  26.039  26.213  1.00  0.00    -0.200 F 
ATOM     81  C   UNL A   1      49.501  26.717  24.176  1.00  0.00     0.200 A 
ATOM     82  F   UNL A   1      48.480  27.423  22.166  1.00  0.00    -0.200 F 
ATOM     83  F   UNL A   1      50.608  26.365  23.507  1.00  0.00    -0.200 F 
ENDBRANCH  49  73
BRANCH  61  84
ATOM     84  C   UNL A   1      41.373  24.161  27.509  1.00  0.00     0.064 A 
ATOM     85  C   UNL A   1      40.306  23.895  26.638  1.00  0.00     0.173 A 
ATOM     86  C   UNL A   1      41.998  23.072  28.136  1.00  0.00     0.173 A 
ATOM     87  F   UNL A   1      39.665  24.903  26.027  1.00  0.00    -0.203 F 
ATOM     88  C   UNL A   1      39.868  22.591  26.422  1.00  0.00     0.198 A 
ATOM     89  C   UNL A   1      41.576  21.768  27.893  1.00  0.00     0.198 A 
ATOM     90  F   UNL A   1      43.026  23.273  28.974  1.00  0.00    -0.203 F 
ATOM     91  F   UNL A   1      38.816  22.364  25.623  1.00  0.00    -0.200 F 
ATOM     92  C   UNL A   1      40.507  21.529  27.043  1.00  0.00     0.200 A 
ATOM     93  F   UNL A   1      42.205  20.742  28.484  1.00  0.00    -0.200 F 
ATOM     94  F   UNL A   1      40.089  20.274  26.828  1.00  0.00    -0.200 F 
ENDBRANCH  61  84
ENDBRANCH  35  36
ENDBRANCH  27  30
ENDBRANCH  25  26
ENDBRANCH  24  25
ENDBRANCH  23  24
ENDBRANCH  22  23
ENDBRANCH   1  22
TORSDOF 18
ENDMDL
