MODEL 1
REMARK VINA RESULT:     -14.0      0.000      0.000
REMARK SMILES Cc1ccc(-c2nn(-c3ccccc3)cc2[C@@H]2[NH2+][C@H](C(=O)NCCCCCCNC(=O)c3ccc(-c4c5nc(c(-c6c(F)c(F)c(F)c(F)c6F)c6ccc([nH]6)c(-c6c(F)c(F)c(F)c(F)c6F)c6nc(c(-c7c(F)c(F)c(F)c(F)c7F)c7ccc4[nH]7)C=C6)C=C5)cc3)CS2)cc1
REMARK SMILES IDX 25 1 24 2 23 3 22 4 20 5 21 6 19 8 17 9 18 10 96 11 95 14
REMARK SMILES IDX 16 15 6 16 7 17 8 18 15 19 5 20 1 21 2 22 3 23 98 24 4 25
REMARK SMILES IDX 97 26 9 27 10 28 14 29 11 30 13 31 12 32 26 33 27 34 28 35
REMARK SMILES IDX 29 36 30 37 31 39 32 40 33 41 94 42 34 43 93 44 35 45 36 46
REMARK SMILES IDX 37 47 87 48 38 49 92 50 86 51 88 52 39 53 91 54 85 55 84 56
REMARK SMILES IDX 40 58 72 59 52 60 71 61 53 62 56 63 70 64 89 65 54 66 55 67
REMARK SMILES IDX 69 69 90 70 57 71 41 72 42 73 50 74 43 75 44 76 48 77 51 78
REMARK SMILES IDX 45 79 46 80 49 81 47 82 73 83 74 84 82 85 75 86 76 87 80 88
REMARK SMILES IDX 83 89 77 90 78 91 81 92 79 93 58 94 59 95 67 96 60 97 61 98
REMARK SMILES IDX 65 99 68 100 62 101 63 102 66 103 64 104
REMARK H PARENT 22 7 18 12 18 13 29 38 88 57 56 68
REMARK Flexibility Score: inf
ROOT
ATOM      1  C   UNL A   1      32.857  28.839  24.489  1.00  0.00     0.002 C 
ENDROOT
BRANCH   1   2
ATOM      2  C   UNL A   1      32.658  27.493  23.739  1.00  0.00     0.021 C 
BRANCH   2   3
ATOM      3  C   UNL A   1      33.413  27.112  22.463  1.00  0.00     0.116 C 
BRANCH   3   4
ATOM      4  N   UNL A   1      33.650  25.695  22.232  1.00  0.00    -0.351 N 
ATOM      5  C   UNL A   1      34.010  24.675  23.069  1.00  0.00     0.279 C 
ATOM      6  O   UNL A   1      33.840  23.535  22.603  1.00  0.00    -0.268 OA
ATOM      7  H   UNL A   1      33.527  25.418  21.295  1.00  0.00     0.163 HD
BRANCH   5   8
ATOM      8  C   UNL A   1      34.642  24.771  24.487  1.00  0.00     0.283 C 
ATOM      9  C   UNL A   1      34.008  23.579  26.502  1.00  0.00     0.278 C 
ATOM     10  N   UNL A   1      33.723  24.740  25.651  1.00  0.00    -0.320 N 
ATOM     11  S   UNL A   1      35.784  23.304  26.387  1.00  0.00    -0.087 SA
ATOM     12  H   UNL A   1      33.843  25.593  26.196  1.00  0.00     0.348 HD
ATOM     13  H   UNL A   1      32.763  24.671  25.310  1.00  0.00     0.348 HD
ATOM     14  C   UNL A   1      35.822  23.802  24.648  1.00  0.00     0.151 C 
BRANCH   9  15
ATOM     15  C   UNL A   1      33.173  22.433  26.032  1.00  0.00     0.067 A 
ATOM     16  C   UNL A   1      31.874  22.462  25.402  1.00  0.00     0.103 A 
ATOM     17  N   UNL A   1      31.454  21.204  25.127  1.00  0.00    -0.167 NA
ATOM     18  N   UNL A   1      32.531  20.416  25.385  1.00  0.00    -0.240 N 
ATOM     19  C   UNL A   1      33.509  21.094  26.045  1.00  0.00     0.126 A 
BRANCH  16  20
ATOM     20  C   UNL A   1      31.068  23.652  25.028  1.00  0.00     0.003 A 
ATOM     21  C   UNL A   1      28.878  27.230  23.875  1.00  0.00     0.044 C 
ATOM     22  C   UNL A   1      29.603  25.985  24.294  1.00  0.00    -0.051 A 
ATOM     23  C   UNL A   1      29.991  25.061  23.328  1.00  0.00     0.004 A 
ATOM     24  C   UNL A   1      29.908  25.713  25.634  1.00  0.00     0.004 A 
ATOM     25  C   UNL A   1      30.712  23.920  23.695  1.00  0.00     0.011 A 
ATOM     26  C   UNL A   1      30.625  24.557  25.996  1.00  0.00     0.011 A 
ENDBRANCH  16  20
BRANCH  18  27
ATOM     27  C   UNL A   1      32.721  19.139  24.804  1.00  0.00     0.065 A 
ATOM     28  C   UNL A   1      32.908  18.025  25.646  1.00  0.00     0.028 A 
ATOM     29  C   UNL A   1      32.717  18.981  23.422  1.00  0.00     0.028 A 
ATOM     30  C   UNL A   1      33.180  16.772  25.099  1.00  0.00     0.002 A 
ATOM     31  C   UNL A   1      32.901  17.703  22.885  1.00  0.00     0.002 A 
ATOM     32  C   UNL A   1      33.163  16.608  23.717  1.00  0.00     0.000 A 
ENDBRANCH  18  27
ENDBRANCH   9  15
ENDBRANCH   5   8
ENDBRANCH   3   4
ENDBRANCH   2   3
ENDBRANCH   1   2
BRANCH   1  33
ATOM     33  C   UNL A   1      31.792  29.541  25.347  1.00  0.00     0.002 C 
BRANCH  33  34
ATOM     34  C   UNL A   1      32.225  30.728  26.210  1.00  0.00     0.021 C 
BRANCH  34  35
ATOM     35  C   UNL A   1      33.100  30.455  27.435  1.00  0.00     0.116 C 
BRANCH  35  36
ATOM     36  N   UNL A   1      33.926  31.587  27.889  1.00  0.00    -0.352 N 
ATOM     37  C   UNL A   1      35.218  31.551  28.417  1.00  0.00     0.251 C 
ATOM     38  H   UNL A   1      33.517  32.478  27.810  1.00  0.00     0.163 HD
ATOM     39  O   UNL A   1      35.808  32.551  28.773  1.00  0.00    -0.269 OA
BRANCH  37  40
ATOM     40  C   UNL A   1      35.899  30.236  28.427  1.00  0.00     0.039 A 
ATOM     41  C   UNL A   1      36.199  29.700  29.682  1.00  0.00     0.014 A 
ATOM     42  C   UNL A   1      36.590  29.850  27.283  1.00  0.00     0.014 A 
ATOM     43  C   UNL A   1      37.403  29.027  29.842  1.00  0.00     0.010 A 
ATOM     44  C   UNL A   1      37.827  29.263  27.458  1.00  0.00     0.010 A 
ATOM     45  C   UNL A   1      38.270  28.949  28.752  1.00  0.00    -0.014 A 
BRANCH  45  46
ATOM     46  C   UNL A   1      39.696  28.679  28.895  1.00  0.00     0.031 A 
ATOM     47  C   UNL A   1      40.215  27.330  28.613  1.00  0.00     0.074 A 
ATOM     48  C   UNL A   1      40.554  29.664  29.248  1.00  0.00     0.049 A 
ATOM     49  N   UNL A   1      41.365  26.902  29.009  1.00  0.00    -0.248 NA
ATOM     50  C   UNL A   1      39.416  26.306  27.952  1.00  0.00     0.031 C 
ATOM     51  C   UNL A   1      42.012  29.641  29.153  1.00  0.00     0.029 A 
ATOM     52  N   UNL A   1      40.273  30.832  29.976  1.00  0.00    -0.354 N 
ATOM     53  C   UNL A   1      41.574  25.670  28.441  1.00  0.00     0.074 A 
ATOM     54  C   UNL A   1      40.284  25.292  27.921  1.00  0.00     0.031 C 
ATOM     55  C   UNL A   1      42.519  30.529  30.020  1.00  0.00     0.029 A 
ATOM     56  C   UNL A   1      41.412  31.062  30.790  1.00  0.00     0.049 A 
ATOM     57  H   UNL A   1      39.455  31.377  29.933  1.00  0.00     0.167 HD
ATOM     58  C   UNL A   1      42.849  25.188  28.387  1.00  0.00     0.037 A 
ATOM     59  C   UNL A   1      41.323  31.060  32.151  1.00  0.00     0.037 A 
ATOM     60  C   UNL A   1      43.735  25.955  29.272  1.00  0.00     0.049 A 
ATOM     61  C   UNL A   1      42.147  29.994  32.842  1.00  0.00     0.074 A 
ATOM     62  C   UNL A   1      44.725  26.907  29.094  1.00  0.00     0.029 A 
ATOM     63  N   UNL A   1      43.464  25.942  30.630  1.00  0.00    -0.354 N 
ATOM     64  N   UNL A   1      42.861  29.101  32.217  1.00  0.00    -0.248 NA
ATOM     65  C   UNL A   1      42.140  29.785  34.292  1.00  0.00     0.031 C 
ATOM     66  C   UNL A   1      45.019  27.483  30.366  1.00  0.00     0.029 A 
ATOM     67  C   UNL A   1      44.219  26.872  31.315  1.00  0.00     0.049 A 
ATOM     68  H   UNL A   1      42.811  25.340  31.056  1.00  0.00     0.167 HD
ATOM     69  C   UNL A   1      43.318  28.179  33.118  1.00  0.00     0.074 A 
ATOM     70  C   UNL A   1      42.859  28.656  34.408  1.00  0.00     0.031 C 
ATOM     71  C   UNL A   1      43.990  27.055  32.739  1.00  0.00     0.037 A 
BRANCH  58  72
ATOM     72  C   UNL A   1      43.358  24.134  27.417  1.00  0.00     0.064 A 
ATOM     73  C   UNL A   1      44.158  24.519  26.316  1.00  0.00     0.173 A 
ATOM     74  C   UNL A   1      43.019  22.763  27.424  1.00  0.00     0.173 A 
ATOM     75  F   UNL A   1      44.597  25.778  26.177  1.00  0.00    -0.203 F 
ATOM     76  C   UNL A   1      44.525  23.632  25.296  1.00  0.00     0.198 A 
ATOM     77  C   UNL A   1      43.405  21.873  26.418  1.00  0.00     0.198 A 
ATOM     78  F   UNL A   1      42.281  22.204  28.381  1.00  0.00    -0.203 F 
ATOM     79  F   UNL A   1      45.240  24.077  24.254  1.00  0.00    -0.200 F 
ATOM     80  C   UNL A   1      44.143  22.309  25.343  1.00  0.00     0.200 A 
ATOM     81  F   UNL A   1      43.027  20.588  26.497  1.00  0.00    -0.200 F 
ATOM     82  F   UNL A   1      44.475  21.462  24.362  1.00  0.00    -0.200 F 
ENDBRANCH  58  72
BRANCH  59  83
ATOM     83  C   UNL A   1      40.014  31.574  32.630  1.00  0.00     0.064 A 
ATOM     84  C   UNL A   1      39.752  32.951  32.489  1.00  0.00     0.173 A 
ATOM     85  C   UNL A   1      38.924  30.718  32.820  1.00  0.00     0.173 A 
ATOM     86  F   UNL A   1      40.766  33.811  32.303  1.00  0.00    -0.203 F 
ATOM     87  C   UNL A   1      38.447  33.429  32.407  1.00  0.00     0.198 A 
ATOM     88  C   UNL A   1      37.619  31.204  32.752  1.00  0.00     0.198 A 
ATOM     89  F   UNL A   1      39.114  29.396  32.943  1.00  0.00    -0.203 F 
ATOM     90  F   UNL A   1      38.228  34.726  32.148  1.00  0.00    -0.200 F 
ATOM     91  C   UNL A   1      37.383  32.550  32.508  1.00  0.00     0.200 A 
ATOM     92  F   UNL A   1      36.588  30.352  32.827  1.00  0.00    -0.200 F 
ATOM     93  F   UNL A   1      36.130  32.991  32.329  1.00  0.00    -0.200 F 
ENDBRANCH  59  83
BRANCH  71  94
ATOM     94  C   UNL A   1      44.477  26.027  33.712  1.00  0.00     0.064 A 
ATOM     95  C   UNL A   1      45.841  25.744  33.877  1.00  0.00     0.173 A 
ATOM     96  C   UNL A   1      43.575  25.204  34.415  1.00  0.00     0.173 A 
ATOM     97  F   UNL A   1      46.770  26.463  33.228  1.00  0.00    -0.203 F 
ATOM     98  C   UNL A   1      46.275  24.703  34.700  1.00  0.00     0.198 A 
ATOM     99  C   UNL A   1      44.009  24.136  35.197  1.00  0.00     0.198 A 
ATOM    100  F   UNL A   1      42.253  25.431  34.376  1.00  0.00    -0.203 F 
ATOM    101  F   UNL A   1      47.588  24.485  34.861  1.00  0.00    -0.200 F 
ATOM    102  C   UNL A   1      45.359  23.888  35.344  1.00  0.00     0.200 A 
ATOM    103  F   UNL A   1      43.110  23.351  35.808  1.00  0.00    -0.200 F 
ATOM    104  F   UNL A   1      45.778  22.871  36.109  1.00  0.00    -0.200 F 
ENDBRANCH  71  94
ENDBRANCH  45  46
ENDBRANCH  37  40
ENDBRANCH  35  36
ENDBRANCH  34  35
ENDBRANCH  33  34
ENDBRANCH   1  33
TORSDOF 16
ENDMDL
MODEL 2
REMARK VINA RESULT:     -12.9      2.821      5.436
REMARK SMILES Cc1ccc(-c2nn(-c3ccccc3)cc2[C@@H]2[NH2+][C@H](C(=O)NCCCCCCNC(=O)c3ccc(-c4c5nc(c(-c6c(F)c(F)c(F)c(F)c6F)c6ccc([nH]6)c(-c6c(F)c(F)c(F)c(F)c6F)c6nc(c(-c7c(F)c(F)c(F)c(F)c7F)c7ccc4[nH]7)C=C6)C=C5)cc3)CS2)cc1
REMARK SMILES IDX 25 1 24 2 23 3 22 4 20 5 21 6 19 8 17 9 18 10 96 11 95 14
REMARK SMILES IDX 16 15 6 16 7 17 8 18 15 19 5 20 1 21 2 22 3 23 98 24 4 25
REMARK SMILES IDX 97 26 9 27 10 28 14 29 11 30 13 31 12 32 26 33 27 34 28 35
REMARK SMILES IDX 29 36 30 37 31 39 32 40 33 41 94 42 34 43 93 44 35 45 36 46
REMARK SMILES IDX 37 47 87 48 38 49 92 50 86 51 88 52 39 53 91 54 85 55 84 56
REMARK SMILES IDX 40 58 72 59 52 60 71 61 53 62 56 63 70 64 89 65 54 66 55 67
REMARK SMILES IDX 69 69 90 70 57 71 41 72 42 73 50 74 43 75 44 76 48 77 51 78
REMARK SMILES IDX 45 79 46 80 49 81 47 82 73 83 74 84 82 85 75 86 76 87 80 88
REMARK SMILES IDX 83 89 77 90 78 91 81 92 79 93 58 94 59 95 67 96 60 97 61 98
REMARK SMILES IDX 65 99 68 100 62 101 63 102 66 103 64 104
REMARK H PARENT 22 7 18 12 18 13 29 38 88 57 56 68
REMARK Flexibility Score: inf
ROOT
ATOM      1  C   UNL A   1      33.763  32.850  28.306  1.00  0.00     0.002 C 
ENDROOT
BRANCH   1   2
ATOM      2  C   UNL A   1      34.943  31.917  27.918  1.00  0.00     0.021 C 
BRANCH   2   3
ATOM      3  C   UNL A   1      34.775  30.437  27.562  1.00  0.00     0.116 C 
BRANCH   3   4
ATOM      4  N   UNL A   1      33.454  30.005  27.133  1.00  0.00    -0.351 N 
ATOM      5  C   UNL A   1      33.044  29.038  26.257  1.00  0.00     0.279 C 
ATOM      6  O   UNL A   1      31.841  28.733  26.343  1.00  0.00    -0.268 OA
ATOM      7  H   UNL A   1      32.715  30.503  27.552  1.00  0.00     0.163 HD
BRANCH   5   8
ATOM      8  C   UNL A   1      33.875  28.323  25.153  1.00  0.00     0.283 C 
ATOM      9  C   UNL A   1      33.075  27.174  23.172  1.00  0.00     0.278 C 
ATOM     10  N   UNL A   1      33.342  27.049  24.610  1.00  0.00    -0.320 N 
ATOM     11  S   UNL A   1      34.321  28.306  22.533  1.00  0.00    -0.087 SA
ATOM     12  H   UNL A   1      34.025  26.308  24.761  1.00  0.00     0.348 HD
ATOM     13  H   UNL A   1      32.469  26.827  25.089  1.00  0.00     0.348 HD
ATOM     14  C   UNL A   1      34.302  29.298  24.046  1.00  0.00     0.151 C 
BRANCH   9  15
ATOM     15  C   UNL A   1      31.667  27.639  22.992  1.00  0.00     0.067 A 
ATOM     16  C   UNL A   1      30.453  27.066  23.525  1.00  0.00     0.103 A 
ATOM     17  N   UNL A   1      29.377  27.788  23.130  1.00  0.00    -0.167 NA
ATOM     18  N   UNL A   1      29.901  28.894  22.538  1.00  0.00    -0.240 N 
ATOM     19  C   UNL A   1      31.238  28.768  22.324  1.00  0.00     0.126 A 
BRANCH  16  20
ATOM     20  C   UNL A   1      30.315  25.891  24.422  1.00  0.00     0.003 A 
ATOM     21  C   UNL A   1      30.081  22.510  27.151  1.00  0.00     0.044 C 
ATOM     22  C   UNL A   1      30.139  23.658  26.186  1.00  0.00    -0.051 A 
ATOM     23  C   UNL A   1      29.668  24.906  26.578  1.00  0.00     0.004 A 
ATOM     24  C   UNL A   1      30.654  23.518  24.891  1.00  0.00     0.004 A 
ATOM     25  C   UNL A   1      29.759  25.999  25.710  1.00  0.00     0.011 A 
ATOM     26  C   UNL A   1      30.734  24.620  24.018  1.00  0.00     0.011 A 
ENDBRANCH  16  20
BRANCH  18  27
ATOM     27  C   UNL A   1      29.200  30.117  22.411  1.00  0.00     0.065 A 
ATOM     28  C   UNL A   1      28.652  30.467  21.162  1.00  0.00     0.028 A 
ATOM     29  C   UNL A   1      29.048  30.962  23.506  1.00  0.00     0.028 A 
ATOM     30  C   UNL A   1      28.031  31.703  20.991  1.00  0.00     0.002 A 
ATOM     31  C   UNL A   1      28.343  32.160  23.345  1.00  0.00     0.002 A 
ATOM     32  C   UNL A   1      27.865  32.545  22.086  1.00  0.00     0.000 A 
ENDBRANCH  18  27
ENDBRANCH   9  15
ENDBRANCH   5   8
ENDBRANCH   3   4
ENDBRANCH   2   3
ENDBRANCH   1   2
BRANCH   1  33
ATOM     33  C   UNL A   1      33.681  34.352  27.990  1.00  0.00     0.002 C 
BRANCH  33  34
ATOM     34  C   UNL A   1      33.741  35.341  29.156  1.00  0.00     0.021 C 
BRANCH  34  35
ATOM     35  C   UNL A   1      33.444  34.823  30.564  1.00  0.00     0.116 C 
BRANCH  35  36
ATOM     36  N   UNL A   1      34.381  35.261  31.612  1.00  0.00    -0.352 N 
ATOM     37  C   UNL A   1      35.617  34.705  31.948  1.00  0.00     0.251 C 
ATOM     38  H   UNL A   1      34.103  36.043  32.141  1.00  0.00     0.163 HD
ATOM     39  O   UNL A   1      36.311  35.142  32.845  1.00  0.00    -0.269 OA
BRANCH  37  40
ATOM     40  C   UNL A   1      36.112  33.609  31.084  1.00  0.00     0.039 A 
ATOM     41  C   UNL A   1      36.082  32.323  31.631  1.00  0.00     0.014 A 
ATOM     42  C   UNL A   1      36.968  33.939  30.038  1.00  0.00     0.014 A 
ATOM     43  C   UNL A   1      37.135  31.462  31.352  1.00  0.00     0.010 A 
ATOM     44  C   UNL A   1      38.060  33.120  29.832  1.00  0.00     0.010 A 
ATOM     45  C   UNL A   1      38.189  31.933  30.569  1.00  0.00    -0.014 A 
BRANCH  45  46
ATOM     46  C   UNL A   1      39.511  31.318  30.572  1.00  0.00     0.031 A 
ATOM     47  C   UNL A   1      39.701  29.995  29.954  1.00  0.00     0.074 A 
ATOM     48  C   UNL A   1      40.574  31.966  31.104  1.00  0.00     0.049 A 
ATOM     49  N   UNL A   1      40.717  29.233  30.178  1.00  0.00    -0.248 NA
ATOM     50  C   UNL A   1      38.689  29.372  29.111  1.00  0.00     0.031 C 
ATOM     51  C   UNL A   1      41.986  31.633  30.933  1.00  0.00     0.029 A 
ATOM     52  N   UNL A   1      40.569  32.955  32.101  1.00  0.00    -0.354 N 
ATOM     53  C   UNL A   1      40.635  28.160  29.326  1.00  0.00     0.074 A 
ATOM     54  C   UNL A   1      39.296  28.225  28.797  1.00  0.00     0.031 C 
ATOM     55  C   UNL A   1      42.681  32.145  31.959  1.00  0.00     0.029 A 
ATOM     56  C   UNL A   1      41.725  32.715  32.888  1.00  0.00     0.049 A 
ATOM     57  H   UNL A   1      39.902  33.667  32.229  1.00  0.00     0.167 HD
ATOM     58  C   UNL A   1      41.761  27.427  29.095  1.00  0.00     0.037 A 
ATOM     59  C   UNL A   1      41.629  32.405  34.212  1.00  0.00     0.037 A 
ATOM     60  C   UNL A   1      42.797  27.734  30.090  1.00  0.00     0.049 A 
ATOM     61  C   UNL A   1      42.176  31.044  34.589  1.00  0.00     0.074 A 
ATOM     62  C   UNL A   1      43.983  28.448  30.092  1.00  0.00     0.029 A 
ATOM     63  N   UNL A   1      42.522  27.455  31.419  1.00  0.00    -0.354 N 
ATOM     64  N   UNL A   1      42.666  30.189  33.735  1.00  0.00    -0.248 NA
ATOM     65  C   UNL A   1      42.111  30.498  35.947  1.00  0.00     0.031 C 
ATOM     66  C   UNL A   1      44.396  28.617  31.448  1.00  0.00     0.029 A 
ATOM     67  C   UNL A   1      43.469  27.995  32.265  1.00  0.00     0.049 A 
ATOM     68  H   UNL A   1      41.743  26.934  31.723  1.00  0.00     0.167 HD
ATOM     69  C   UNL A   1      42.888  28.997  34.368  1.00  0.00     0.074 A 
ATOM     70  C   UNL A   1      42.545  29.240  35.756  1.00  0.00     0.031 C 
ATOM     71  C   UNL A   1      43.280  27.875  33.702  1.00  0.00     0.037 A 
BRANCH  58  72
ATOM     72  C   UNL A   1      42.015  26.551  27.879  1.00  0.00     0.064 A 
ATOM     73  C   UNL A   1      41.314  25.331  27.732  1.00  0.00     0.173 A 
ATOM     74  C   UNL A   1      42.995  26.769  26.886  1.00  0.00     0.173 A 
ATOM     75  F   UNL A   1      40.326  24.988  28.570  1.00  0.00    -0.203 F 
ATOM     76  C   UNL A   1      41.611  24.400  26.729  1.00  0.00     0.198 A 
ATOM     77  C   UNL A   1      43.277  25.850  25.871  1.00  0.00     0.198 A 
ATOM     78  F   UNL A   1      43.755  27.862  26.844  1.00  0.00    -0.203 F 
ATOM     79  F   UNL A   1      40.943  23.240  26.681  1.00  0.00    -0.200 F 
ATOM     80  C   UNL A   1      42.598  24.656  25.802  1.00  0.00     0.200 A 
ATOM     81  F   UNL A   1      44.235  26.131  24.977  1.00  0.00    -0.200 F 
ATOM     82  F   UNL A   1      42.899  23.761  24.853  1.00  0.00    -0.200 F 
ENDBRANCH  58  72
BRANCH  59  83
ATOM     83  C   UNL A   1      40.475  33.072  34.865  1.00  0.00     0.064 A 
ATOM     84  C   UNL A   1      39.312  32.310  35.094  1.00  0.00     0.173 A 
ATOM     85  C   UNL A   1      40.640  34.248  35.604  1.00  0.00     0.173 A 
ATOM     86  F   UNL A   1      39.112  31.171  34.411  1.00  0.00    -0.203 F 
ATOM     87  C   UNL A   1      38.424  32.642  36.112  1.00  0.00     0.198 A 
ATOM     88  C   UNL A   1      39.738  34.585  36.613  1.00  0.00     0.198 A 
ATOM     89  F   UNL A   1      41.734  35.004  35.439  1.00  0.00    -0.203 F 
ATOM     90  F   UNL A   1      37.393  31.830  36.389  1.00  0.00    -0.200 F 
ATOM     91  C   UNL A   1      38.655  33.763  36.891  1.00  0.00     0.200 A 
ATOM     92  F   UNL A   1      39.972  35.658  37.381  1.00  0.00    -0.200 F 
ATOM     93  F   UNL A   1      37.859  34.030  37.935  1.00  0.00    -0.200 F 
ENDBRANCH  59  83
BRANCH  71  94
ATOM     94  C   UNL A   1      43.506  26.559  34.378  1.00  0.00     0.064 A 
ATOM     95  C   UNL A   1      44.788  26.007  34.524  1.00  0.00     0.173 A 
ATOM     96  C   UNL A   1      42.424  25.753  34.785  1.00  0.00     0.173 A 
ATOM     97  F   UNL A   1      45.874  26.695  34.143  1.00  0.00    -0.203 F 
ATOM     98  C   UNL A   1      44.973  24.727  35.051  1.00  0.00     0.198 A 
ATOM     99  C   UNL A   1      42.610  24.459  35.265  1.00  0.00     0.198 A 
ATOM    100  F   UNL A   1      41.164  26.213  34.746  1.00  0.00    -0.203 F 
ATOM    101  F   UNL A   1      46.215  24.246  35.208  1.00  0.00    -0.200 F 
ATOM    102  C   UNL A   1      43.885  23.947  35.403  1.00  0.00     0.200 A 
ATOM    103  F   UNL A   1      41.546  23.712  35.593  1.00  0.00    -0.200 F 
ATOM    104  F   UNL A   1      44.065  22.708  35.879  1.00  0.00    -0.200 F 
ENDBRANCH  71  94
ENDBRANCH  45  46
ENDBRANCH  37  40
ENDBRANCH  35  36
ENDBRANCH  34  35
ENDBRANCH  33  34
ENDBRANCH   1  33
TORSDOF 16
ENDMDL
MODEL 3
REMARK VINA RESULT:     -12.8      2.172      3.714
REMARK SMILES Cc1ccc(-c2nn(-c3ccccc3)cc2[C@@H]2[NH2+][C@H](C(=O)NCCCCCCNC(=O)c3ccc(-c4c5nc(c(-c6c(F)c(F)c(F)c(F)c6F)c6ccc([nH]6)c(-c6c(F)c(F)c(F)c(F)c6F)c6nc(c(-c7c(F)c(F)c(F)c(F)c7F)c7ccc4[nH]7)C=C6)C=C5)cc3)CS2)cc1
REMARK SMILES IDX 25 1 24 2 23 3 22 4 20 5 21 6 19 8 17 9 18 10 96 11 95 14
REMARK SMILES IDX 16 15 6 16 7 17 8 18 15 19 5 20 1 21 2 22 3 23 98 24 4 25
REMARK SMILES IDX 97 26 9 27 10 28 14 29 11 30 13 31 12 32 26 33 27 34 28 35
REMARK SMILES IDX 29 36 30 37 31 39 32 40 33 41 94 42 34 43 93 44 35 45 36 46
REMARK SMILES IDX 37 47 87 48 38 49 92 50 86 51 88 52 39 53 91 54 85 55 84 56
REMARK SMILES IDX 40 58 72 59 52 60 71 61 53 62 56 63 70 64 89 65 54 66 55 67
REMARK SMILES IDX 69 69 90 70 57 71 41 72 42 73 50 74 43 75 44 76 48 77 51 78
REMARK SMILES IDX 45 79 46 80 49 81 47 82 73 83 74 84 82 85 75 86 76 87 80 88
REMARK SMILES IDX 83 89 77 90 78 91 81 92 79 93 58 94 59 95 67 96 60 97 61 98
REMARK SMILES IDX 65 99 68 100 62 101 63 102 66 103 64 104
REMARK H PARENT 22 7 18 12 18 13 29 38 88 57 56 68
REMARK Flexibility Score: inf
ROOT
ATOM      1  C   UNL A   1      32.191  27.883  27.329  1.00  0.00     0.002 C 
ENDROOT
BRANCH   1   2
ATOM      2  C   UNL A   1      31.059  27.446  26.358  1.00  0.00     0.021 C 
BRANCH   2   3
ATOM      3  C   UNL A   1      30.830  25.997  25.919  1.00  0.00     0.116 C 
BRANCH   3   4
ATOM      4  N   UNL A   1      31.339  24.951  26.794  1.00  0.00    -0.351 N 
ATOM      5  C   UNL A   1      31.636  23.634  26.574  1.00  0.00     0.279 C 
ATOM      6  O   UNL A   1      32.327  23.102  27.460  1.00  0.00    -0.268 OA
ATOM      7  H   UNL A   1      31.499  25.248  27.719  1.00  0.00     0.163 HD
BRANCH   5   8
ATOM      8  C   UNL A   1      31.180  22.728  25.394  1.00  0.00     0.283 C 
ATOM      9  C   UNL A   1      32.236  22.426  23.231  1.00  0.00     0.278 C 
ATOM     10  N   UNL A   1      31.326  23.266  24.019  1.00  0.00    -0.320 N 
ATOM     11  S   UNL A   1      31.997  20.743  23.826  1.00  0.00    -0.087 SA
ATOM     12  H   UNL A   1      30.412  23.287  23.568  1.00  0.00     0.348 HD
ATOM     13  H   UNL A   1      31.713  24.209  24.075  1.00  0.00     0.348 HD
ATOM     14  C   UNL A   1      31.737  21.303  25.527  1.00  0.00     0.151 C 
BRANCH   9  15
ATOM     15  C   UNL A   1      33.625  22.950  23.398  1.00  0.00     0.067 A 
ATOM     16  C   UNL A   1      34.097  24.309  23.278  1.00  0.00     0.103 A 
ATOM     17  N   UNL A   1      35.431  24.367  23.505  1.00  0.00    -0.167 NA
ATOM     18  N   UNL A   1      35.760  23.127  23.952  1.00  0.00    -0.240 N 
ATOM     19  C   UNL A   1      34.746  22.238  23.771  1.00  0.00     0.126 A 
BRANCH  16  20
ATOM     20  C   UNL A   1      33.300  25.531  23.000  1.00  0.00     0.003 A 
ATOM     21  C   UNL A   1      30.867  29.081  22.363  1.00  0.00     0.044 C 
ATOM     22  C   UNL A   1      31.714  27.856  22.545  1.00  0.00    -0.051 A 
ATOM     23  C   UNL A   1      32.827  27.912  23.377  1.00  0.00     0.004 A 
ATOM     24  C   UNL A   1      31.424  26.645  21.903  1.00  0.00     0.004 A 
ATOM     25  C   UNL A   1      33.600  26.767  23.598  1.00  0.00     0.011 A 
ATOM     26  C   UNL A   1      32.212  25.499  22.122  1.00  0.00     0.011 A 
ENDBRANCH  16  20
BRANCH  18  27
ATOM     27  C   UNL A   1      36.901  22.861  24.747  1.00  0.00     0.065 A 
ATOM     28  C   UNL A   1      37.515  21.596  24.662  1.00  0.00     0.028 A 
ATOM     29  C   UNL A   1      37.415  23.835  25.596  1.00  0.00     0.028 A 
ATOM     30  C   UNL A   1      38.588  21.281  25.495  1.00  0.00     0.002 A 
ATOM     31  C   UNL A   1      38.549  23.538  26.361  1.00  0.00     0.002 A 
ATOM     32  C   UNL A   1      39.114  22.257  26.335  1.00  0.00     0.000 A 
ENDBRANCH  18  27
ENDBRANCH   9  15
ENDBRANCH   5   8
ENDBRANCH   3   4
ENDBRANCH   2   3
ENDBRANCH   1   2
BRANCH   1  33
ATOM     33  C   UNL A   1      33.610  28.297  26.906  1.00  0.00     0.002 C 
BRANCH  33  34
ATOM     34  C   UNL A   1      33.932  29.790  26.818  1.00  0.00     0.021 C 
BRANCH  34  35
ATOM     35  C   UNL A   1      35.143  30.320  27.587  1.00  0.00     0.116 C 
BRANCH  35  36
ATOM     36  N   UNL A   1      35.234  29.901  28.996  1.00  0.00    -0.352 N 
ATOM     37  C   UNL A   1      36.382  29.737  29.772  1.00  0.00     0.251 C 
ATOM     38  H   UNL A   1      34.379  29.714  29.446  1.00  0.00     0.163 HD
ATOM     39  O   UNL A   1      36.344  29.374  30.931  1.00  0.00    -0.269 OA
BRANCH  37  40
ATOM     40  C   UNL A   1      37.668  30.134  29.154  1.00  0.00     0.039 A 
ATOM     41  C   UNL A   1      37.942  29.603  27.890  1.00  0.00     0.014 A 
ATOM     42  C   UNL A   1      38.682  30.587  29.992  1.00  0.00     0.014 A 
ATOM     43  C   UNL A   1      39.246  29.225  27.601  1.00  0.00     0.010 A 
ATOM     44  C   UNL A   1      39.961  30.130  29.743  1.00  0.00     0.010 A 
ATOM     45  C   UNL A   1      40.213  29.361  28.597  1.00  0.00    -0.014 A 
BRANCH  45  46
ATOM     46  C   UNL A   1      41.468  28.618  28.585  1.00  0.00     0.031 A 
ATOM     47  C   UNL A   1      41.446  27.152  28.445  1.00  0.00     0.074 A 
ATOM     48  C   UNL A   1      42.654  29.264  28.664  1.00  0.00     0.049 A 
ATOM     49  N   UNL A   1      42.438  26.383  28.741  1.00  0.00    -0.248 NA
ATOM     50  C   UNL A   1      40.245  26.420  28.061  1.00  0.00     0.031 C 
ATOM     51  C   UNL A   1      43.978  28.715  28.378  1.00  0.00     0.029 A 
ATOM     52  N   UNL A   1      42.916  30.519  29.238  1.00  0.00    -0.354 N 
ATOM     53  C   UNL A   1      42.117  25.109  28.345  1.00  0.00     0.074 A 
ATOM     54  C   UNL A   1      40.704  25.166  28.068  1.00  0.00     0.031 C 
ATOM     55  C   UNL A   1      44.900  29.445  29.023  1.00  0.00     0.029 A 
ATOM     56  C   UNL A   1      44.193  30.407  29.845  1.00  0.00     0.049 A 
ATOM     57  H   UNL A   1      42.334  31.312  29.223  1.00  0.00     0.167 HD
ATOM     58  C   UNL A   1      43.126  24.204  28.192  1.00  0.00     0.037 A 
ATOM     59  C   UNL A   1      44.355  30.566  31.190  1.00  0.00     0.037 A 
ATOM     60  C   UNL A   1      44.361  24.687  28.821  1.00  0.00     0.049 A 
ATOM     61  C   UNL A   1      44.885  29.348  31.917  1.00  0.00     0.074 A 
ATOM     62  C   UNL A   1      45.563  25.204  28.368  1.00  0.00     0.029 A 
ATOM     63  N   UNL A   1      44.351  24.901  30.190  1.00  0.00    -0.354 N 
ATOM     64  N   UNL A   1      45.135  28.204  31.344  1.00  0.00    -0.248 NA
ATOM     65  C   UNL A   1      45.070  29.295  33.369  1.00  0.00     0.031 C 
ATOM     66  C   UNL A   1      46.257  25.757  29.487  1.00  0.00     0.029 A 
ATOM     67  C   UNL A   1      45.483  25.564  30.617  1.00  0.00     0.049 A 
ATOM     68  H   UNL A   1      43.622  24.613  30.787  1.00  0.00     0.167 HD
ATOM     69  C   UNL A   1      45.411  27.270  32.305  1.00  0.00     0.074 A 
ATOM     70  C   UNL A   1      45.378  28.000  33.557  1.00  0.00     0.031 C 
ATOM     71  C   UNL A   1      45.589  25.951  32.014  1.00  0.00     0.037 A 
BRANCH  58  72
ATOM     72  C   UNL A   1      43.069  22.950  27.334  1.00  0.00     0.064 A 
ATOM     73  C   UNL A   1      42.287  21.848  27.749  1.00  0.00     0.173 A 
ATOM     74  C   UNL A   1      43.830  22.704  26.170  1.00  0.00     0.173 A 
ATOM     75  F   UNL A   1      41.480  21.926  28.816  1.00  0.00    -0.203 F 
ATOM     76  C   UNL A   1      42.314  20.608  27.099  1.00  0.00     0.198 A 
ATOM     77  C   UNL A   1      43.840  21.473  25.507  1.00  0.00     0.198 A 
ATOM     78  F   UNL A   1      44.623  23.618  25.614  1.00  0.00    -0.203 F 
ATOM     79  F   UNL A   1      41.588  19.589  27.579  1.00  0.00    -0.200 F 
ATOM     80  C   UNL A   1      43.097  20.418  25.981  1.00  0.00     0.200 A 
ATOM     81  F   UNL A   1      44.603  21.321  24.415  1.00  0.00    -0.200 F 
ATOM     82  F   UNL A   1      43.141  19.229  25.367  1.00  0.00    -0.200 F 
ENDBRANCH  58  72
BRANCH  59  83
ATOM     83  C   UNL A   1      43.403  31.553  31.759  1.00  0.00     0.064 A 
ATOM     84  C   UNL A   1      43.540  32.902  31.376  1.00  0.00     0.173 A 
ATOM     85  C   UNL A   1      42.178  31.151  32.301  1.00  0.00     0.173 A 
ATOM     86  F   UNL A   1      44.697  33.335  30.848  1.00  0.00    -0.203 F 
ATOM     87  C   UNL A   1      42.455  33.773  31.409  1.00  0.00     0.198 A 
ATOM     88  C   UNL A   1      41.098  32.032  32.347  1.00  0.00     0.198 A 
ATOM     89  F   UNL A   1      41.985  29.876  32.667  1.00  0.00    -0.203 F 
ATOM     90  F   UNL A   1      42.583  35.016  30.922  1.00  0.00    -0.200 F 
ATOM     91  C   UNL A   1      41.227  33.328  31.867  1.00  0.00     0.200 A 
ATOM     92  F   UNL A   1      39.903  31.596  32.769  1.00  0.00    -0.200 F 
ATOM     93  F   UNL A   1      40.157  34.133  31.807  1.00  0.00    -0.200 F 
ENDBRANCH  59  83
BRANCH  71  94
ATOM     94  C   UNL A   1      45.871  24.914  33.057  1.00  0.00     0.064 A 
ATOM     95  C   UNL A   1      44.845  24.282  33.776  1.00  0.00     0.173 A 
ATOM     96  C   UNL A   1      47.191  24.620  33.453  1.00  0.00     0.173 A 
ATOM     97  F   UNL A   1      43.558  24.521  33.480  1.00  0.00    -0.203 F 
ATOM     98  C   UNL A   1      45.126  23.405  34.825  1.00  0.00     0.198 A 
ATOM     99  C   UNL A   1      47.466  23.782  34.531  1.00  0.00     0.198 A 
ATOM    100  F   UNL A   1      48.243  25.122  32.789  1.00  0.00    -0.203 F 
ATOM    101  F   UNL A   1      44.121  22.792  35.467  1.00  0.00    -0.200 F 
ATOM    102  C   UNL A   1      46.433  23.170  35.215  1.00  0.00     0.200 A 
ATOM    103  F   UNL A   1      48.737  23.570  34.902  1.00  0.00    -0.200 F 
ATOM    104  F   UNL A   1      46.698  22.351  36.242  1.00  0.00    -0.200 F 
ENDBRANCH  71  94
ENDBRANCH  45  46
ENDBRANCH  37  40
ENDBRANCH  35  36
ENDBRANCH  34  35
ENDBRANCH  33  34
ENDBRANCH   1  33
TORSDOF 16
ENDMDL
