MODEL 1
REMARK VINA RESULT:     -12.6      0.000      0.000
REMARK SMILES Cc1nsc(NC(=O)[C@@H]2C[NH2+]C[C@H]2C)c1C(=O)NCCCCCCNC(=O)c1ccc(-c2c3nc(c(-c4c(F)c(F)c(F)c(F)c4F)c4ccc([nH]4)c(-c4c(F)c(F)c(F)c(F)c4F)c4nc(c(-c5c(F)c(F)c(F)c(F)c5F)c5ccc2[nH]5)C=C4)C=C3)cc1
REMARK SMILES IDX 21 1 20 2 19 3 18 4 16 5 17 6 15 8 1 9 2 10 3 11 4 12 5 13
REMARK SMILES IDX 6 14 7 15 8 17 9 18 10 19 13 20 11 21 12 22 14 23 22 26
REMARK SMILES IDX 23 27 24 28 25 29 26 30 27 32 28 33 29 34 90 35 30 36 89 37
REMARK SMILES IDX 31 38 32 39 33 40 83 41 34 42 88 43 82 44 84 45 35 46 87 47
REMARK SMILES IDX 81 48 80 49 36 51 68 52 48 53 67 54 49 55 52 56 66 57 85 58
REMARK SMILES IDX 50 59 51 60 65 62 86 63 53 64 37 65 38 66 46 67 39 68 40 69
REMARK SMILES IDX 44 70 47 71 41 72 42 73 45 74 43 75 69 76 70 77 78 78 71 79
REMARK SMILES IDX 72 80 76 81 79 82 73 83 74 84 77 85 75 86 54 87 55 88 63 89
REMARK SMILES IDX 56 90 57 91 61 92 64 93 58 94 59 95 62 96 60 97
REMARK H PARENT 18 7 6 16 11 24 11 25 25 31 84 50 52 61
REMARK Flexibility Score: inf
ROOT
ATOM      1  C   UNL A   1      40.163  22.106  26.639  1.00  0.00     0.002 C 
ENDROOT
BRANCH   1   2
ATOM      2  C   UNL A   1      38.746  22.003  26.075  1.00  0.00     0.021 C 
BRANCH   2   3
ATOM      3  C   UNL A   1      37.997  23.299  25.797  1.00  0.00     0.116 C 
BRANCH   3   4
ATOM      4  N   UNL A   1      37.334  23.412  24.521  1.00  0.00    -0.352 N 
ATOM      5  C   UNL A   1      35.995  23.284  24.211  1.00  0.00     0.256 C 
ATOM      6  O   UNL A   1      35.684  23.421  23.027  1.00  0.00    -0.269 OA
ATOM      7  H   UNL A   1      37.924  23.608  23.757  1.00  0.00     0.163 HD
BRANCH   5   8
ATOM      8  C   UNL A   1      34.997  22.880  25.209  1.00  0.00     0.097 A 
ATOM      9  C   UNL A   1      33.555  25.062  25.775  1.00  0.00     0.069 C 
ATOM     10  C   UNL A   1      34.009  23.655  25.953  1.00  0.00     0.066 A 
ATOM     11  N   UNL A   1      33.408  23.016  26.954  1.00  0.00    -0.195 NA
ATOM     12  S   UNL A   1      33.908  21.465  26.961  1.00  0.00    -0.017 S 
ATOM     13  C   UNL A   1      34.792  21.527  25.522  1.00  0.00     0.129 A 
BRANCH  13  14
ATOM     14  N   UNL A   1      35.387  20.403  24.980  1.00  0.00    -0.315 N 
ATOM     15  C   UNL A   1      35.006  19.094  24.835  1.00  0.00     0.234 C 
ATOM     16  H   UNL A   1      36.285  20.581  24.617  1.00  0.00     0.170 HD
ATOM     17  O   UNL A   1      35.937  18.286  24.713  1.00  0.00    -0.274 OA
BRANCH  15  18
ATOM     18  C   UNL A   1      33.553  18.640  24.549  1.00  0.00     0.142 C 
ATOM     19  C   UNL A   1      32.799  17.961  25.687  1.00  0.00     0.274 C 
ATOM     20  C   UNL A   1      33.477  17.568  23.415  1.00  0.00     0.059 C 
ATOM     21  N   UNL A   1      32.070  16.816  25.133  1.00  0.00    -0.345 N 
ATOM     22  C   UNL A   1      32.998  16.305  24.128  1.00  0.00     0.264 C 
ATOM     23  C   UNL A   1      32.497  17.970  22.306  1.00  0.00     0.015 C 
ATOM     24  H   UNL A   1      31.190  17.111  24.707  1.00  0.00     0.346 HD
ATOM     25  H   UNL A   1      31.808  16.123  25.834  1.00  0.00     0.346 HD
ENDBRANCH  15  18
ENDBRANCH  13  14
ENDBRANCH   5   8
ENDBRANCH   3   4
ENDBRANCH   2   3
ENDBRANCH   1   2
BRANCH   1  26
ATOM     26  C   UNL A   1      40.831  20.836  27.187  1.00  0.00     0.002 C 
BRANCH  26  27
ATOM     27  C   UNL A   1      41.540  19.888  26.212  1.00  0.00     0.021 C 
BRANCH  27  28
ATOM     28  C   UNL A   1      42.896  19.367  26.659  1.00  0.00     0.116 C 
BRANCH  28  29
ATOM     29  N   UNL A   1      43.879  19.260  25.583  1.00  0.00    -0.352 N 
ATOM     30  C   UNL A   1      44.362  20.269  24.763  1.00  0.00     0.251 C 
ATOM     31  H   UNL A   1      44.243  18.360  25.420  1.00  0.00     0.163 HD
ATOM     32  O   UNL A   1      44.881  20.019  23.690  1.00  0.00    -0.269 OA
BRANCH  30  33
ATOM     33  C   UNL A   1      44.229  21.667  25.220  1.00  0.00     0.039 A 
ATOM     34  C   UNL A   1      43.316  22.550  24.637  1.00  0.00     0.014 A 
ATOM     35  C   UNL A   1      45.021  22.074  26.288  1.00  0.00     0.014 A 
ATOM     36  C   UNL A   1      43.154  23.813  25.204  1.00  0.00     0.010 A 
ATOM     37  C   UNL A   1      44.718  23.228  26.959  1.00  0.00     0.010 A 
ATOM     38  C   UNL A   1      43.843  24.136  26.385  1.00  0.00    -0.014 A 
BRANCH  38  39
ATOM     39  C   UNL A   1      43.615  25.400  27.073  1.00  0.00     0.031 A 
ATOM     40  C   UNL A   1      44.583  26.479  26.746  1.00  0.00     0.074 A 
ATOM     41  C   UNL A   1      42.519  25.652  27.822  1.00  0.00     0.049 A 
ATOM     42  N   UNL A   1      45.485  26.975  27.525  1.00  0.00    -0.248 NA
ATOM     43  C   UNL A   1      44.640  26.985  25.367  1.00  0.00     0.031 C 
ATOM     44  C   UNL A   1      41.318  24.829  28.016  1.00  0.00     0.029 A 
ATOM     45  N   UNL A   1      42.220  26.778  28.524  1.00  0.00    -0.354 N 
ATOM     46  C   UNL A   1      46.118  27.979  26.800  1.00  0.00     0.074 A 
ATOM     47  C   UNL A   1      45.664  27.839  25.438  1.00  0.00     0.031 C 
ATOM     48  C   UNL A   1      40.344  25.570  28.588  1.00  0.00     0.029 A 
ATOM     49  C   UNL A   1      40.908  26.849  28.973  1.00  0.00     0.049 A 
ATOM     50  H   UNL A   1      42.881  27.486  28.700  1.00  0.00     0.167 HD
ATOM     51  C   UNL A   1      46.801  28.973  27.432  1.00  0.00     0.037 A 
ATOM     52  C   UNL A   1      40.327  27.891  29.614  1.00  0.00     0.037 A 
ATOM     53  C   UNL A   1      47.052  28.634  28.810  1.00  0.00     0.049 A 
ATOM     54  C   UNL A   1      41.420  28.702  30.205  1.00  0.00     0.074 A 
ATOM     55  C   UNL A   1      47.753  27.632  29.451  1.00  0.00     0.029 A 
ATOM     56  N   UNL A   1      46.214  29.166  29.760  1.00  0.00    -0.354 N 
ATOM     57  N   UNL A   1      42.182  28.287  31.178  1.00  0.00    -0.248 NA
ATOM     58  C   UNL A   1      41.961  29.791  29.407  1.00  0.00     0.031 C 
ATOM     59  C   UNL A   1      46.958  27.293  30.587  1.00  0.00     0.029 A 
ATOM     60  C   UNL A   1      45.857  28.151  30.611  1.00  0.00     0.049 A 
ATOM     61  H   UNL A   1      45.925  30.105  29.820  1.00  0.00     0.167 HD
ATOM     62  C   UNL A   1      43.450  28.740  30.847  1.00  0.00     0.074 A 
ATOM     63  C   UNL A   1      43.236  29.739  29.802  1.00  0.00     0.031 C 
ATOM     64  C   UNL A   1      44.564  28.059  31.248  1.00  0.00     0.037 A 
BRANCH  51  65
ATOM     65  C   UNL A   1      46.927  30.390  26.933  1.00  0.00     0.064 A 
ATOM     66  C   UNL A   1      48.185  31.025  26.979  1.00  0.00     0.173 A 
ATOM     67  C   UNL A   1      45.824  31.240  26.710  1.00  0.00     0.173 A 
ATOM     68  F   UNL A   1      49.301  30.314  27.200  1.00  0.00    -0.203 F 
ATOM     69  C   UNL A   1      48.315  32.414  26.897  1.00  0.00     0.198 A 
ATOM     70  C   UNL A   1      45.962  32.620  26.574  1.00  0.00     0.198 A 
ATOM     71  F   UNL A   1      44.564  30.790  26.731  1.00  0.00    -0.203 F 
ATOM     72  F   UNL A   1      49.515  32.982  27.079  1.00  0.00    -0.200 F 
ATOM     73  C   UNL A   1      47.202  33.210  26.703  1.00  0.00     0.200 A 
ATOM     74  F   UNL A   1      44.869  33.378  26.405  1.00  0.00    -0.200 F 
ATOM     75  F   UNL A   1      47.314  34.545  26.690  1.00  0.00    -0.200 F 
ENDBRANCH  51  65
BRANCH  52  76
ATOM     76  C   UNL A   1      38.939  28.390  29.494  1.00  0.00     0.064 A 
ATOM     77  C   UNL A   1      38.143  28.591  30.633  1.00  0.00     0.173 A 
ATOM     78  C   UNL A   1      38.473  28.960  28.293  1.00  0.00     0.173 A 
ATOM     79  F   UNL A   1      38.536  28.114  31.823  1.00  0.00    -0.203 F 
ATOM     80  C   UNL A   1      36.971  29.351  30.582  1.00  0.00     0.198 A 
ATOM     81  C   UNL A   1      37.300  29.715  28.243  1.00  0.00     0.198 A 
ATOM     82  F   UNL A   1      39.198  28.879  27.168  1.00  0.00    -0.203 F 
ATOM     83  F   UNL A   1      36.275  29.582  31.704  1.00  0.00    -0.200 F 
ATOM     84  C   UNL A   1      36.558  29.924  29.391  1.00  0.00     0.200 A 
ATOM     85  F   UNL A   1      36.932  30.294  27.092  1.00  0.00    -0.200 F 
ATOM     86  F   UNL A   1      35.475  30.712  29.357  1.00  0.00    -0.200 F 
ENDBRANCH  52  76
BRANCH  64  87
ATOM     87  C   UNL A   1      44.389  26.976  32.277  1.00  0.00     0.064 A 
ATOM     88  C   UNL A   1      44.221  25.613  31.972  1.00  0.00     0.173 A 
ATOM     89  C   UNL A   1      44.529  27.318  33.628  1.00  0.00     0.173 A 
ATOM     90  F   UNL A   1      44.177  25.187  30.705  1.00  0.00    -0.203 F 
ATOM     91  C   UNL A   1      44.150  24.649  32.978  1.00  0.00     0.198 A 
ATOM     92  C   UNL A   1      44.495  26.350  34.627  1.00  0.00     0.198 A 
ATOM     93  F   UNL A   1      44.744  28.596  33.977  1.00  0.00    -0.203 F 
ATOM     94  F   UNL A   1      43.974  23.357  32.660  1.00  0.00    -0.200 F 
ATOM     95  C   UNL A   1      44.294  25.017  34.304  1.00  0.00     0.200 A 
ATOM     96  F   UNL A   1      44.683  26.707  35.905  1.00  0.00    -0.200 F 
ATOM     97  F   UNL A   1      44.265  24.087  35.269  1.00  0.00    -0.200 F 
ENDBRANCH  64  87
ENDBRANCH  38  39
ENDBRANCH  30  33
ENDBRANCH  28  29
ENDBRANCH  27  28
ENDBRANCH  26  27
ENDBRANCH   1  26
TORSDOF 15
ENDMDL
MODEL 2
REMARK VINA RESULT:     -11.9      3.095      5.025
REMARK SMILES Cc1nsc(NC(=O)[C@@H]2C[NH2+]C[C@H]2C)c1C(=O)NCCCCCCNC(=O)c1ccc(-c2c3nc(c(-c4c(F)c(F)c(F)c(F)c4F)c4ccc([nH]4)c(-c4c(F)c(F)c(F)c(F)c4F)c4nc(c(-c5c(F)c(F)c(F)c(F)c5F)c5ccc2[nH]5)C=C4)C=C3)cc1
REMARK SMILES IDX 21 1 20 2 19 3 18 4 16 5 17 6 15 8 1 9 2 10 3 11 4 12 5 13
REMARK SMILES IDX 6 14 7 15 8 17 9 18 10 19 13 20 11 21 12 22 14 23 22 26
REMARK SMILES IDX 23 27 24 28 25 29 26 30 27 32 28 33 29 34 90 35 30 36 89 37
REMARK SMILES IDX 31 38 32 39 33 40 83 41 34 42 88 43 82 44 84 45 35 46 87 47
REMARK SMILES IDX 81 48 80 49 36 51 68 52 48 53 67 54 49 55 52 56 66 57 85 58
REMARK SMILES IDX 50 59 51 60 65 62 86 63 53 64 37 65 38 66 46 67 39 68 40 69
REMARK SMILES IDX 44 70 47 71 41 72 42 73 45 74 43 75 69 76 70 77 78 78 71 79
REMARK SMILES IDX 72 80 76 81 79 82 73 83 74 84 77 85 75 86 54 87 55 88 63 89
REMARK SMILES IDX 56 90 57 91 61 92 64 93 58 94 59 95 62 96 60 97
REMARK H PARENT 18 7 6 16 11 24 11 25 25 31 84 50 52 61
REMARK Flexibility Score: inf
ROOT
ATOM      1  C   UNL A   1      36.251  21.545  25.340  1.00  0.00     0.002 C 
ENDROOT
BRANCH   1   2
ATOM      2  C   UNL A   1      35.724  22.783  24.616  1.00  0.00     0.021 C 
BRANCH   2   3
ATOM      3  C   UNL A   1      35.184  23.926  25.465  1.00  0.00     0.116 C 
BRANCH   3   4
ATOM      4  N   UNL A   1      34.312  23.573  26.560  1.00  0.00    -0.352 N 
ATOM      5  C   UNL A   1      32.976  23.230  26.544  1.00  0.00     0.256 C 
ATOM      6  O   UNL A   1      32.455  22.976  27.631  1.00  0.00    -0.269 OA
ATOM      7  H   UNL A   1      34.734  23.577  27.450  1.00  0.00     0.163 HD
BRANCH   5   8
ATOM      8  C   UNL A   1      32.169  23.285  25.319  1.00  0.00     0.097 A 
ATOM      9  C   UNL A   1      32.579  20.975  24.031  1.00  0.00     0.069 C 
ATOM     10  C   UNL A   1      32.064  22.364  24.192  1.00  0.00     0.066 A 
ATOM     11  N   UNL A   1      31.408  22.823  23.128  1.00  0.00    -0.195 NA
ATOM     12  S   UNL A   1      30.803  24.295  23.482  1.00  0.00    -0.017 S 
ATOM     13  C   UNL A   1      31.222  24.302  25.120  1.00  0.00     0.129 A 
BRANCH  13  14
ATOM     14  N   UNL A   1      30.851  25.331  25.965  1.00  0.00    -0.315 N 
ATOM     15  C   UNL A   1      31.276  26.622  26.145  1.00  0.00     0.234 C 
ATOM     16  H   UNL A   1      30.118  25.082  26.574  1.00  0.00     0.170 HD
ATOM     17  O   UNL A   1      31.034  27.104  27.260  1.00  0.00    -0.274 OA
BRANCH  15  18
ATOM     18  C   UNL A   1      31.759  27.544  24.998  1.00  0.00     0.142 C 
ATOM     19  C   UNL A   1      33.254  27.563  24.702  1.00  0.00     0.274 C 
ATOM     20  C   UNL A   1      31.458  29.051  25.281  1.00  0.00     0.059 C 
ATOM     21  N   UNL A   1      33.658  28.954  24.476  1.00  0.00    -0.345 N 
ATOM     22  C   UNL A   1      32.839  29.683  25.440  1.00  0.00     0.264 C 
ATOM     23  C   UNL A   1      30.690  29.712  24.129  1.00  0.00     0.015 C 
ATOM     24  H   UNL A   1      33.451  29.246  23.520  1.00  0.00     0.346 HD
ATOM     25  H   UNL A   1      34.660  29.110  24.592  1.00  0.00     0.346 HD
ENDBRANCH  15  18
ENDBRANCH  13  14
ENDBRANCH   5   8
ENDBRANCH   3   4
ENDBRANCH   2   3
ENDBRANCH   1   2
BRANCH   1  26
ATOM     26  C   UNL A   1      37.768  21.317  25.401  1.00  0.00     0.002 C 
BRANCH  26  27
ATOM     27  C   UNL A   1      38.664  22.421  25.979  1.00  0.00     0.021 C 
BRANCH  27  28
ATOM     28  C   UNL A   1      39.810  21.953  26.861  1.00  0.00     0.116 C 
BRANCH  28  29
ATOM     29  N   UNL A   1      41.121  22.012  26.220  1.00  0.00    -0.352 N 
ATOM     30  C   UNL A   1      41.900  23.132  25.968  1.00  0.00     0.251 C 
ATOM     31  H   UNL A   1      41.498  21.150  25.931  1.00  0.00     0.163 HD
ATOM     32  O   UNL A   1      42.776  23.117  25.123  1.00  0.00    -0.269 OA
BRANCH  30  33
ATOM     33  C   UNL A   1      41.638  24.358  26.749  1.00  0.00     0.039 A 
ATOM     34  C   UNL A   1      42.163  24.541  28.031  1.00  0.00     0.014 A 
ATOM     35  C   UNL A   1      40.876  25.354  26.150  1.00  0.00     0.014 A 
ATOM     36  C   UNL A   1      41.983  25.774  28.656  1.00  0.00     0.010 A 
ATOM     37  C   UNL A   1      40.874  26.618  26.674  1.00  0.00     0.010 A 
ATOM     38  C   UNL A   1      41.357  26.820  27.957  1.00  0.00    -0.014 A 
BRANCH  38  39
ATOM     39  C   UNL A   1      41.251  28.156  28.529  1.00  0.00     0.031 A 
ATOM     40  C   UNL A   1      42.328  29.099  28.130  1.00  0.00     0.074 A 
ATOM     41  C   UNL A   1      40.179  28.582  29.233  1.00  0.00     0.049 A 
ATOM     42  N   UNL A   1      43.267  29.568  28.881  1.00  0.00    -0.248 NA
ATOM     43  C   UNL A   1      42.450  29.474  26.714  1.00  0.00     0.031 C 
ATOM     44  C   UNL A   1      38.899  27.903  29.473  1.00  0.00     0.029 A 
ATOM     45  N   UNL A   1      39.989  29.789  29.830  1.00  0.00    -0.354 N 
ATOM     46  C   UNL A   1      44.007  30.436  28.085  1.00  0.00     0.074 A 
ATOM     47  C   UNL A   1      43.556  30.224  26.732  1.00  0.00     0.031 C 
ATOM     48  C   UNL A   1      37.999  28.785  29.961  1.00  0.00     0.029 A 
ATOM     49  C   UNL A   1      38.686  30.030  30.245  1.00  0.00     0.049 A 
ATOM     50  H   UNL A   1      40.716  30.440  29.956  1.00  0.00     0.167 HD
ATOM     51  C   UNL A   1      44.781  31.408  28.642  1.00  0.00     0.037 A 
ATOM     52  C   UNL A   1      38.208  31.177  30.783  1.00  0.00     0.037 A 
ATOM     53  C   UNL A   1      44.981  31.167  30.049  1.00  0.00     0.049 A 
ATOM     54  C   UNL A   1      39.371  31.922  31.323  1.00  0.00     0.074 A 
ATOM     55  C   UNL A   1      45.570  30.159  30.788  1.00  0.00     0.029 A 
ATOM     56  N   UNL A   1      44.192  31.861  30.934  1.00  0.00    -0.354 N 
ATOM     57  N   UNL A   1      40.077  31.520  32.343  1.00  0.00    -0.248 NA
ATOM     58  C   UNL A   1      40.028  32.878  30.446  1.00  0.00     0.031 C 
ATOM     59  C   UNL A   1      44.732  30.002  31.933  1.00  0.00     0.029 A 
ATOM     60  C   UNL A   1      43.725  30.965  31.861  1.00  0.00     0.049 A 
ATOM     61  H   UNL A   1      43.999  32.826  30.907  1.00  0.00     0.167 HD
ATOM     62  C   UNL A   1      41.387  31.812  31.999  1.00  0.00     0.074 A 
ATOM     63  C   UNL A   1      41.287  32.733  30.869  1.00  0.00     0.031 C 
ATOM     64  C   UNL A   1      42.422  31.060  32.478  1.00  0.00     0.037 A 
BRANCH  51  65
ATOM     65  C   UNL A   1      45.056  32.756  28.026  1.00  0.00     0.064 A 
ATOM     66  C   UNL A   1      46.370  33.072  27.626  1.00  0.00     0.173 A 
ATOM     67  C   UNL A   1      44.163  33.845  28.100  1.00  0.00     0.173 A 
ATOM     68  F   UNL A   1      47.306  32.115  27.536  1.00  0.00    -0.203 F 
ATOM     69  C   UNL A   1      46.778  34.391  27.405  1.00  0.00     0.198 A 
ATOM     70  C   UNL A   1      44.559  35.152  27.826  1.00  0.00     0.198 A 
ATOM     71  F   UNL A   1      42.911  33.708  28.551  1.00  0.00    -0.203 F 
ATOM     72  F   UNL A   1      48.068  34.656  27.157  1.00  0.00    -0.200 F 
ATOM     73  C   UNL A   1      45.873  35.430  27.514  1.00  0.00     0.200 A 
ATOM     74  F   UNL A   1      43.672  36.150  27.956  1.00  0.00    -0.200 F 
ATOM     75  F   UNL A   1      46.275  36.700  27.368  1.00  0.00    -0.200 F 
ENDBRANCH  51  65
BRANCH  52  76
ATOM     76  C   UNL A   1      36.879  31.801  30.593  1.00  0.00     0.064 A 
ATOM     77  C   UNL A   1      35.953  31.863  31.648  1.00  0.00     0.173 A 
ATOM     78  C   UNL A   1      36.609  32.609  29.471  1.00  0.00     0.173 A 
ATOM     79  F   UNL A   1      36.159  31.154  32.766  1.00  0.00    -0.203 F 
ATOM     80  C   UNL A   1      34.844  32.713  31.600  1.00  0.00     0.198 A 
ATOM     81  C   UNL A   1      35.499  33.454  29.424  1.00  0.00     0.198 A 
ATOM     82  F   UNL A   1      37.469  32.669  28.445  1.00  0.00    -0.203 F 
ATOM     83  F   UNL A   1      34.022  32.799  32.654  1.00  0.00    -0.200 F 
ATOM     84  C   UNL A   1      34.626  33.519  30.494  1.00  0.00     0.200 A 
ATOM     85  F   UNL A   1      35.320  34.255  28.364  1.00  0.00    -0.200 F 
ATOM     86  F   UNL A   1      33.605  34.386  30.478  1.00  0.00    -0.200 F 
ENDBRANCH  52  76
BRANCH  64  87
ATOM     87  C   UNL A   1      42.126  30.094  33.593  1.00  0.00     0.064 A 
ATOM     88  C   UNL A   1      41.692  28.770  33.399  1.00  0.00     0.173 A 
ATOM     89  C   UNL A   1      42.421  30.487  34.905  1.00  0.00     0.173 A 
ATOM     90  F   UNL A   1      41.482  28.283  32.172  1.00  0.00    -0.203 F 
ATOM     91  C   UNL A   1      41.518  27.900  34.476  1.00  0.00     0.198 A 
ATOM     92  C   UNL A   1      42.283  29.606  35.973  1.00  0.00     0.198 A 
ATOM     93  F   UNL A   1      42.890  31.721  35.146  1.00  0.00    -0.203 F 
ATOM     94  F   UNL A   1      41.089  26.646  34.265  1.00  0.00    -0.200 F 
ATOM     95  C   UNL A   1      41.821  28.316  35.761  1.00  0.00     0.200 A 
ATOM     96  F   UNL A   1      42.624  29.999  37.208  1.00  0.00    -0.200 F 
ATOM     97  F   UNL A   1      41.692  27.469  36.792  1.00  0.00    -0.200 F 
ENDBRANCH  64  87
ENDBRANCH  38  39
ENDBRANCH  30  33
ENDBRANCH  28  29
ENDBRANCH  27  28
ENDBRANCH  26  27
ENDBRANCH   1  26
TORSDOF 15
ENDMDL
MODEL 3
REMARK VINA RESULT:     -11.8      1.320      3.067
REMARK SMILES Cc1nsc(NC(=O)[C@@H]2C[NH2+]C[C@H]2C)c1C(=O)NCCCCCCNC(=O)c1ccc(-c2c3nc(c(-c4c(F)c(F)c(F)c(F)c4F)c4ccc([nH]4)c(-c4c(F)c(F)c(F)c(F)c4F)c4nc(c(-c5c(F)c(F)c(F)c(F)c5F)c5ccc2[nH]5)C=C4)C=C3)cc1
REMARK SMILES IDX 21 1 20 2 19 3 18 4 16 5 17 6 15 8 1 9 2 10 3 11 4 12 5 13
REMARK SMILES IDX 6 14 7 15 8 17 9 18 10 19 13 20 11 21 12 22 14 23 22 26
REMARK SMILES IDX 23 27 24 28 25 29 26 30 27 32 28 33 29 34 90 35 30 36 89 37
REMARK SMILES IDX 31 38 32 39 33 40 83 41 34 42 88 43 82 44 84 45 35 46 87 47
REMARK SMILES IDX 81 48 80 49 36 51 68 52 48 53 67 54 49 55 52 56 66 57 85 58
REMARK SMILES IDX 50 59 51 60 65 62 86 63 53 64 37 65 38 66 46 67 39 68 40 69
REMARK SMILES IDX 44 70 47 71 41 72 42 73 45 74 43 75 69 76 70 77 78 78 71 79
REMARK SMILES IDX 72 80 76 81 79 82 73 83 74 84 77 85 75 86 54 87 55 88 63 89
REMARK SMILES IDX 56 90 57 91 61 92 64 93 58 94 59 95 62 96 60 97
REMARK H PARENT 18 7 6 16 11 24 11 25 25 31 84 50 52 61
REMARK Flexibility Score: inf
ROOT
ATOM      1  C   UNL A   1      39.457  21.681  25.990  1.00  0.00     0.002 C 
ENDROOT
BRANCH   1   2
ATOM      2  C   UNL A   1      38.375  20.770  25.410  1.00  0.00     0.021 C 
BRANCH   2   3
ATOM      3  C   UNL A   1      37.017  21.385  25.108  1.00  0.00     0.116 C 
BRANCH   3   4
ATOM      4  N   UNL A   1      36.226  21.814  26.236  1.00  0.00    -0.352 N 
ATOM      5  C   UNL A   1      34.857  21.949  26.351  1.00  0.00     0.256 C 
ATOM      6  O   UNL A   1      34.428  22.344  27.436  1.00  0.00    -0.269 OA
ATOM      7  H   UNL A   1      36.739  22.045  27.044  1.00  0.00     0.163 HD
BRANCH   5   8
ATOM      8  C   UNL A   1      33.955  21.756  25.210  1.00  0.00     0.097 A 
ATOM      9  C   UNL A   1      32.870  19.326  25.495  1.00  0.00     0.069 C 
ATOM     10  C   UNL A   1      33.171  20.600  24.785  1.00  0.00     0.066 A 
ATOM     11  N   UNL A   1      32.631  20.682  23.571  1.00  0.00    -0.195 NA
ATOM     12  S   UNL A   1      32.937  22.162  22.961  1.00  0.00    -0.017 S 
ATOM     13  C   UNL A   1      33.631  22.820  24.355  1.00  0.00     0.129 A 
BRANCH  13  14
ATOM     14  N   UNL A   1      34.012  24.148  24.425  1.00  0.00    -0.315 N 
ATOM     15  C   UNL A   1      33.387  25.303  24.817  1.00  0.00     0.234 C 
ATOM     16  H   UNL A   1      34.938  24.296  24.127  1.00  0.00     0.170 HD
ATOM     17  O   UNL A   1      33.861  26.344  24.341  1.00  0.00    -0.274 OA
BRANCH  15  18
ATOM     18  C   UNL A   1      32.364  25.386  25.977  1.00  0.00     0.142 C 
ATOM     19  C   UNL A   1      31.360  24.245  26.101  1.00  0.00     0.274 C 
ATOM     20  C   UNL A   1      31.433  26.635  25.860  1.00  0.00     0.059 C 
ATOM     21  N   UNL A   1      30.046  24.822  26.399  1.00  0.00    -0.345 N 
ATOM     22  C   UNL A   1      30.049  26.044  25.599  1.00  0.00     0.264 C 
ATOM     23  C   UNL A   1      31.431  27.475  27.143  1.00  0.00     0.015 C 
ATOM     24  H   UNL A   1      29.952  25.033  27.393  1.00  0.00     0.346 HD
ATOM     25  H   UNL A   1      29.269  24.197  26.184  1.00  0.00     0.346 HD
ENDBRANCH  15  18
ENDBRANCH  13  14
ENDBRANCH   5   8
ENDBRANCH   3   4
ENDBRANCH   2   3
ENDBRANCH   1   2
BRANCH   1  26
ATOM     26  C   UNL A   1      40.660  21.040  26.696  1.00  0.00     0.002 C 
BRANCH  26  27
ATOM     27  C   UNL A   1      41.274  19.761  26.110  1.00  0.00     0.021 C 
BRANCH  27  28
ATOM     28  C   UNL A   1      42.638  19.369  26.653  1.00  0.00     0.116 C 
BRANCH  28  29
ATOM     29  N   UNL A   1      43.670  19.230  25.629  1.00  0.00    -0.352 N 
ATOM     30  C   UNL A   1      44.226  20.223  24.835  1.00  0.00     0.251 C 
ATOM     31  H   UNL A   1      44.015  18.320  25.485  1.00  0.00     0.163 HD
ATOM     32  O   UNL A   1      44.791  19.957  23.791  1.00  0.00    -0.269 OA
BRANCH  30  33
ATOM     33  C   UNL A   1      44.113  21.625  25.285  1.00  0.00     0.039 A 
ATOM     34  C   UNL A   1      43.223  22.522  24.688  1.00  0.00     0.014 A 
ATOM     35  C   UNL A   1      44.899  22.023  26.361  1.00  0.00     0.014 A 
ATOM     36  C   UNL A   1      43.077  23.790  25.248  1.00  0.00     0.010 A 
ATOM     37  C   UNL A   1      44.609  23.184  27.024  1.00  0.00     0.010 A 
ATOM     38  C   UNL A   1      43.757  24.106  26.436  1.00  0.00    -0.014 A 
BRANCH  38  39
ATOM     39  C   UNL A   1      43.543  25.376  27.116  1.00  0.00     0.031 A 
ATOM     40  C   UNL A   1      44.515  26.447  26.772  1.00  0.00     0.074 A 
ATOM     41  C   UNL A   1      42.457  25.641  27.874  1.00  0.00     0.049 A 
ATOM     42  N   UNL A   1      45.427  26.943  27.538  1.00  0.00    -0.248 NA
ATOM     43  C   UNL A   1      44.561  26.941  25.389  1.00  0.00     0.031 C 
ATOM     44  C   UNL A   1      41.253  24.827  28.086  1.00  0.00     0.029 A 
ATOM     45  N   UNL A   1      42.171  26.774  28.571  1.00  0.00    -0.354 N 
ATOM     46  C   UNL A   1      46.059  27.937  26.799  1.00  0.00     0.074 A 
ATOM     47  C   UNL A   1      45.591  27.790  25.443  1.00  0.00     0.031 C 
ATOM     48  C   UNL A   1      40.289  25.577  28.662  1.00  0.00     0.029 A 
ATOM     49  C   UNL A   1      40.864  26.856  29.032  1.00  0.00     0.049 A 
ATOM     50  H   UNL A   1      42.838  27.479  28.734  1.00  0.00     0.167 HD
ATOM     51  C   UNL A   1      46.755  28.932  27.417  1.00  0.00     0.037 A 
ATOM     52  C   UNL A   1      40.296  27.907  29.670  1.00  0.00     0.037 A 
ATOM     53  C   UNL A   1      47.017  28.602  28.795  1.00  0.00     0.049 A 
ATOM     54  C   UNL A   1      41.400  28.715  30.244  1.00  0.00     0.074 A 
ATOM     55  C   UNL A   1      47.718  27.600  29.437  1.00  0.00     0.029 A 
ATOM     56  N   UNL A   1      46.192  29.146  29.749  1.00  0.00    -0.354 N 
ATOM     57  N   UNL A   1      42.169  28.303  31.212  1.00  0.00    -0.248 NA
ATOM     58  C   UNL A   1      41.939  29.795  29.433  1.00  0.00     0.031 C 
ATOM     59  C   UNL A   1      46.932  27.275  30.583  1.00  0.00     0.029 A 
ATOM     60  C   UNL A   1      45.837  28.140  30.611  1.00  0.00     0.049 A 
ATOM     61  H   UNL A   1      45.909  30.087  29.804  1.00  0.00     0.167 HD
ATOM     62  C   UNL A   1      43.436  28.746  30.866  1.00  0.00     0.074 A 
ATOM     63  C   UNL A   1      43.218  29.738  29.816  1.00  0.00     0.031 C 
ATOM     64  C   UNL A   1      44.550  28.061  31.261  1.00  0.00     0.037 A 
BRANCH  51  65
ATOM     65  C   UNL A   1      46.884  30.344  26.905  1.00  0.00     0.064 A 
ATOM     66  C   UNL A   1      48.148  30.968  26.924  1.00  0.00     0.173 A 
ATOM     67  C   UNL A   1      45.785  31.203  26.697  1.00  0.00     0.173 A 
ATOM     68  F   UNL A   1      49.262  30.248  27.130  1.00  0.00    -0.203 F 
ATOM     69  C   UNL A   1      48.290  32.355  26.830  1.00  0.00     0.198 A 
ATOM     70  C   UNL A   1      45.934  32.581  26.549  1.00  0.00     0.198 A 
ATOM     71  F   UNL A   1      44.522  30.765  26.744  1.00  0.00    -0.203 F 
ATOM     72  F   UNL A   1      49.498  32.913  26.986  1.00  0.00    -0.200 F 
ATOM     73  C   UNL A   1      47.181  33.160  26.650  1.00  0.00     0.200 A 
ATOM     74  F   UNL A   1      44.845  33.347  26.395  1.00  0.00    -0.200 F 
ATOM     75  F   UNL A   1      47.305  34.494  26.627  1.00  0.00    -0.200 F 
ENDBRANCH  51  65
BRANCH  52  76
ATOM     76  C   UNL A   1      38.910  28.413  29.560  1.00  0.00     0.064 A 
ATOM     77  C   UNL A   1      38.132  28.645  30.706  1.00  0.00     0.173 A 
ATOM     78  C   UNL A   1      38.430  28.961  28.353  1.00  0.00     0.173 A 
ATOM     79  F   UNL A   1      38.540  28.190  31.899  1.00  0.00    -0.203 F 
ATOM     80  C   UNL A   1      36.965  29.412  30.656  1.00  0.00     0.198 A 
ATOM     81  C   UNL A   1      37.262  29.723  28.305  1.00  0.00     0.198 A 
ATOM     82  F   UNL A   1      39.137  28.850  27.220  1.00  0.00    -0.203 F 
ATOM     83  F   UNL A   1      36.287  29.672  31.783  1.00  0.00    -0.200 F 
ATOM     84  C   UNL A   1      36.539  29.963  29.459  1.00  0.00     0.200 A 
ATOM     85  F   UNL A   1      36.881  30.280  27.146  1.00  0.00    -0.200 F 
ATOM     86  F   UNL A   1      35.460  30.758  29.423  1.00  0.00    -0.200 F 
ENDBRANCH  52  76
BRANCH  64  87
ATOM     87  C   UNL A   1      44.378  26.987  32.300  1.00  0.00     0.064 A 
ATOM     88  C   UNL A   1      44.204  27.234  33.674  1.00  0.00     0.173 A 
ATOM     89  C   UNL A   1      44.253  25.661  31.866  1.00  0.00     0.173 A 
ATOM     90  F   UNL A   1      44.210  28.480  34.159  1.00  0.00    -0.203 F 
ATOM     91  C   UNL A   1      43.963  26.194  34.572  1.00  0.00     0.198 A 
ATOM     92  C   UNL A   1      43.976  24.630  32.759  1.00  0.00     0.198 A 
ATOM     93  F   UNL A   1      44.356  25.370  30.560  1.00  0.00    -0.203 F 
ATOM     94  F   UNL A   1      43.816  26.456  35.880  1.00  0.00    -0.200 F 
ATOM     95  C   UNL A   1      43.842  24.894  34.113  1.00  0.00     0.200 A 
ATOM     96  F   UNL A   1      43.812  23.381  32.302  1.00  0.00    -0.200 F 
ATOM     97  F   UNL A   1      43.573  23.899  34.970  1.00  0.00    -0.200 F 
ENDBRANCH  64  87
ENDBRANCH  38  39
ENDBRANCH  30  33
ENDBRANCH  28  29
ENDBRANCH  27  28
ENDBRANCH  26  27
ENDBRANCH   1  26
TORSDOF 15
ENDMDL
