MODEL 1
REMARK VINA RESULT:     -11.4      0.000      0.000
REMARK SMILES CN(Cc1ccc(Cl)cc1Cl)S(=O)(=O)CCCC(=O)NCCCCCCNC(=O)c1ccc(-c2c3nc(c(-c4c(F)c(F)c(F)c(F)c4F)c4ccc([nH]4)c(-c4c(F)c(F)c(F)c(F)c4F)c4nc(c(-c5c(F)c(F)c(F)c(F)c5F)c5ccc2[nH]5)C=C4)C=C3)cc1
REMARK SMILES IDX 21 1 20 2 18 3 19 4 17 6 16 7 15 8 12 9 13 10 14 11 2 12
REMARK SMILES IDX 1 13 3 14 4 15 5 16 10 17 6 18 9 19 11 20 7 21 8 22 22 23
REMARK SMILES IDX 23 24 24 25 25 26 26 27 27 28 28 29 29 31 30 32 31 33 92 34
REMARK SMILES IDX 32 35 91 36 33 37 34 38 35 39 85 40 36 41 90 42 84 43 86 44
REMARK SMILES IDX 37 45 89 46 83 47 82 48 38 50 70 51 50 52 69 53 51 54 54 55
REMARK SMILES IDX 68 56 87 57 52 58 53 59 67 61 88 62 55 63 39 64 40 65 48 66
REMARK SMILES IDX 41 67 42 68 46 69 49 70 43 71 44 72 47 73 45 74 71 75 72 76
REMARK SMILES IDX 80 77 73 78 74 79 78 80 81 81 75 82 76 83 79 84 77 85 56 86
REMARK SMILES IDX 57 87 65 88 58 89 59 90 63 91 66 92 60 93 61 94 64 95 62 96
REMARK H PARENT 20 5 27 30 86 49 54 60
REMARK Flexibility Score: inf
ROOT
ATOM      1  C   UNL A   1      32.351  28.676  27.282  1.00  0.00     0.116 C 
ENDROOT
BRANCH   1   2
ATOM      2  N   UNL A   1      31.619  27.437  27.282  1.00  0.00    -0.356 N 
ATOM      3  C   UNL A   1      30.958  26.797  26.285  1.00  0.00     0.220 C 
ATOM      4  O   UNL A   1      30.557  25.654  26.521  1.00  0.00    -0.275 OA
ATOM      5  H   UNL A   1      31.593  26.976  28.152  1.00  0.00     0.163 HD
BRANCH   3   6
ATOM      6  C   UNL A   1      30.780  27.403  24.900  1.00  0.00     0.101 C 
BRANCH   6   7
ATOM      7  C   UNL A   1      30.916  26.505  23.676  1.00  0.00     0.027 C 
BRANCH   7   8
ATOM      8  C   UNL A   1      31.630  26.990  22.424  1.00  0.00     0.155 C 
BRANCH   8   9
ATOM      9  S   UNL A   1      33.251  26.380  21.923  1.00  0.00     0.214 S 
ATOM     10  O   UNL A   1      34.120  27.534  21.901  1.00  0.00    -0.212 OA
ATOM     11  O   UNL A   1      33.013  25.620  20.706  1.00  0.00    -0.212 OA
BRANCH   9  12
ATOM     12  N   UNL A   1      33.841  25.302  23.066  1.00  0.00    -0.201 NA
ATOM     13  C   UNL A   1      34.050  25.843  24.428  1.00  0.00     0.124 C 
BRANCH  12  14
ATOM     14  C   UNL A   1      33.638  23.824  23.011  1.00  0.00     0.138 C 
BRANCH  14  15
ATOM     15  C   UNL A   1      34.640  22.864  23.621  1.00  0.00    -0.014 A 
ATOM     16  C   UNL A   1      36.008  23.092  23.364  1.00  0.00     0.008 A 
ATOM     17  C   UNL A   1      34.326  21.811  24.491  1.00  0.00     0.047 A 
ATOM     18  C   UNL A   1      36.997  22.221  23.828  1.00  0.00     0.021 A 
ATOM     19  C   UNL A   1      35.308  20.903  24.909  1.00  0.00     0.041 A 
ATOM     20  Cl  UNL A   1      32.770  21.623  25.203  1.00  0.00    -0.084 Cl
ATOM     21  C   UNL A   1      36.633  21.091  24.544  1.00  0.00     0.042 A 
ATOM     22  Cl  UNL A   1      37.827  19.939  24.993  1.00  0.00    -0.084 Cl
ENDBRANCH  14  15
ENDBRANCH  12  14
ENDBRANCH   9  12
ENDBRANCH   8   9
ENDBRANCH   7   8
ENDBRANCH   6   7
ENDBRANCH   3   6
ENDBRANCH   1   2
BRANCH   1  23
ATOM     23  C   UNL A   1      33.812  28.488  26.877  1.00  0.00     0.021 C 
BRANCH  23  24
ATOM     24  C   UNL A   1      34.668  29.729  27.141  1.00  0.00     0.002 C 
BRANCH  24  25
ATOM     25  C   UNL A   1      33.981  30.813  27.983  1.00  0.00     0.002 C 
BRANCH  25  26
ATOM     26  C   UNL A   1      33.662  32.107  27.232  1.00  0.00     0.021 C 
BRANCH  26  27
ATOM     27  C   UNL A   1      32.277  32.661  27.513  1.00  0.00     0.116 C 
BRANCH  27  28
ATOM     28  N   UNL A   1      32.334  34.112  27.640  1.00  0.00    -0.352 N 
ATOM     29  C   UNL A   1      33.007  34.879  28.558  1.00  0.00     0.251 C 
ATOM     30  H   UNL A   1      31.815  34.614  26.971  1.00  0.00     0.163 HD
ATOM     31  O   UNL A   1      32.634  36.026  28.779  1.00  0.00    -0.269 OA
BRANCH  29  32
ATOM     32  C   UNL A   1      34.196  34.341  29.256  1.00  0.00     0.039 A 
ATOM     33  C   UNL A   1      35.461  34.505  28.683  1.00  0.00     0.014 A 
ATOM     34  C   UNL A   1      34.059  33.603  30.433  1.00  0.00     0.014 A 
ATOM     35  C   UNL A   1      36.582  33.948  29.303  1.00  0.00     0.010 A 
ATOM     36  C   UNL A   1      35.184  33.147  31.107  1.00  0.00     0.010 A 
ATOM     37  C   UNL A   1      36.454  33.280  30.532  1.00  0.00    -0.014 A 
BRANCH  37  38
ATOM     38  C   UNL A   1      37.613  32.654  31.215  1.00  0.00     0.031 A 
ATOM     39  C   UNL A   1      38.331  31.505  30.558  1.00  0.00     0.074 A 
ATOM     40  C   UNL A   1      37.963  33.059  32.451  1.00  0.00     0.049 A 
ATOM     41  N   UNL A   1      39.270  30.727  31.036  1.00  0.00    -0.248 NA
ATOM     42  C   UNL A   1      37.909  31.155  29.189  1.00  0.00     0.031 C 
ATOM     43  C   UNL A   1      37.313  34.132  33.205  1.00  0.00     0.029 A 
ATOM     44  N   UNL A   1      38.940  32.601  33.298  1.00  0.00    -0.354 N 
ATOM     45  C   UNL A   1      39.523  29.786  30.045  1.00  0.00     0.074 A 
ATOM     46  C   UNL A   1      38.602  30.049  28.962  1.00  0.00     0.031 C 
ATOM     47  C   UNL A   1      37.922  34.263  34.395  1.00  0.00     0.029 A 
ATOM     48  C   UNL A   1      38.969  33.253  34.506  1.00  0.00     0.049 A 
ATOM     49  H   UNL A   1      39.560  31.874  33.061  1.00  0.00     0.167 HD
ATOM     50  C   UNL A   1      40.458  28.807  30.030  1.00  0.00     0.037 A 
ATOM     51  C   UNL A   1      39.745  33.045  35.586  1.00  0.00     0.037 A 
ATOM     52  C   UNL A   1      41.398  28.581  31.094  1.00  0.00     0.049 A 
ATOM     53  C   UNL A   1      40.779  31.951  35.541  1.00  0.00     0.074 A 
ATOM     54  C   UNL A   1      42.429  27.661  31.153  1.00  0.00     0.029 A 
ATOM     55  N   UNL A   1      41.421  29.288  32.288  1.00  0.00    -0.354 N 
ATOM     56  N   UNL A   1      41.053  31.108  34.574  1.00  0.00    -0.248 NA
ATOM     57  C   UNL A   1      41.616  31.781  36.736  1.00  0.00     0.031 C 
ATOM     58  C   UNL A   1      43.044  27.775  32.403  1.00  0.00     0.029 A 
ATOM     59  C   UNL A   1      42.438  28.810  33.097  1.00  0.00     0.049 A 
ATOM     60  H   UNL A   1      40.807  30.020  32.523  1.00  0.00     0.167 HD
ATOM     61  C   UNL A   1      42.116  30.338  35.027  1.00  0.00     0.074 A 
ATOM     62  C   UNL A   1      42.445  30.822  36.351  1.00  0.00     0.031 C 
ATOM     63  C   UNL A   1      42.762  29.323  34.404  1.00  0.00     0.037 A 
BRANCH  50  64
ATOM     64  C   UNL A   1      40.519  27.911  28.824  1.00  0.00     0.064 A 
ATOM     65  C   UNL A   1      39.781  26.721  28.750  1.00  0.00     0.173 A 
ATOM     66  C   UNL A   1      41.288  28.274  27.707  1.00  0.00     0.173 A 
ATOM     67  F   UNL A   1      39.037  26.319  29.793  1.00  0.00    -0.203 F 
ATOM     68  C   UNL A   1      39.830  25.914  27.616  1.00  0.00     0.198 A 
ATOM     69  C   UNL A   1      41.308  27.483  26.562  1.00  0.00     0.198 A 
ATOM     70  F   UNL A   1      42.010  29.405  27.720  1.00  0.00    -0.203 F 
ATOM     71  F   UNL A   1      39.154  24.757  27.588  1.00  0.00    -0.200 F 
ATOM     72  C   UNL A   1      40.586  26.300  26.519  1.00  0.00     0.200 A 
ATOM     73  F   UNL A   1      42.026  27.866  25.496  1.00  0.00    -0.200 F 
ATOM     74  F   UNL A   1      40.621  25.529  25.423  1.00  0.00    -0.200 F 
ENDBRANCH  50  64
BRANCH  51  75
ATOM     75  C   UNL A   1      39.590  33.897  36.795  1.00  0.00     0.064 A 
ATOM     76  C   UNL A   1      38.803  33.475  37.878  1.00  0.00     0.173 A 
ATOM     77  C   UNL A   1      40.205  35.154  36.889  1.00  0.00     0.173 A 
ATOM     78  F   UNL A   1      38.180  32.288  37.829  1.00  0.00    -0.203 F 
ATOM     79  C   UNL A   1      38.611  34.291  38.991  1.00  0.00     0.198 A 
ATOM     80  C   UNL A   1      40.039  35.954  38.019  1.00  0.00     0.198 A 
ATOM     81  F   UNL A   1      40.973  35.604  35.887  1.00  0.00    -0.203 F 
ATOM     82  F   UNL A   1      37.806  33.887  39.983  1.00  0.00    -0.200 F 
ATOM     83  C   UNL A   1      39.233  35.527  39.063  1.00  0.00     0.200 A 
ATOM     84  F   UNL A   1      40.656  37.142  38.092  1.00  0.00    -0.200 F 
ATOM     85  F   UNL A   1      39.047  36.312  40.133  1.00  0.00    -0.200 F 
ENDBRANCH  51  75
BRANCH  63  86
ATOM     86  C   UNL A   1      43.929  28.705  35.119  1.00  0.00     0.064 A 
ATOM     87  C   UNL A   1      43.784  27.571  35.932  1.00  0.00     0.173 A 
ATOM     88  C   UNL A   1      45.220  29.229  34.944  1.00  0.00     0.173 A 
ATOM     89  F   UNL A   1      42.570  27.041  36.141  1.00  0.00    -0.203 F 
ATOM     90  C   UNL A   1      44.885  27.000  36.563  1.00  0.00     0.198 A 
ATOM     91  C   UNL A   1      46.322  28.633  35.549  1.00  0.00     0.198 A 
ATOM     92  F   UNL A   1      45.414  30.306  34.169  1.00  0.00    -0.203 F 
ATOM     93  F   UNL A   1      44.717  25.947  37.375  1.00  0.00    -0.200 F 
ATOM     94  C   UNL A   1      46.153  27.526  36.365  1.00  0.00     0.200 A 
ATOM     95  F   UNL A   1      47.549  29.132  35.340  1.00  0.00    -0.200 F 
ATOM     96  F   UNL A   1      47.214  26.966  36.964  1.00  0.00    -0.200 F 
ENDBRANCH  63  86
ENDBRANCH  37  38
ENDBRANCH  29  32
ENDBRANCH  27  28
ENDBRANCH  26  27
ENDBRANCH  25  26
ENDBRANCH  24  25
ENDBRANCH  23  24
ENDBRANCH   1  23
TORSDOF 19
ENDMDL
MODEL 2
REMARK VINA RESULT:     -11.3      1.633      7.475
REMARK SMILES CN(Cc1ccc(Cl)cc1Cl)S(=O)(=O)CCCC(=O)NCCCCCCNC(=O)c1ccc(-c2c3nc(c(-c4c(F)c(F)c(F)c(F)c4F)c4ccc([nH]4)c(-c4c(F)c(F)c(F)c(F)c4F)c4nc(c(-c5c(F)c(F)c(F)c(F)c5F)c5ccc2[nH]5)C=C4)C=C3)cc1
REMARK SMILES IDX 21 1 20 2 18 3 19 4 17 6 16 7 15 8 12 9 13 10 14 11 2 12
REMARK SMILES IDX 1 13 3 14 4 15 5 16 10 17 6 18 9 19 11 20 7 21 8 22 22 23
REMARK SMILES IDX 23 24 24 25 25 26 26 27 27 28 28 29 29 31 30 32 31 33 92 34
REMARK SMILES IDX 32 35 91 36 33 37 34 38 35 39 85 40 36 41 90 42 84 43 86 44
REMARK SMILES IDX 37 45 89 46 83 47 82 48 38 50 70 51 50 52 69 53 51 54 54 55
REMARK SMILES IDX 68 56 87 57 52 58 53 59 67 61 88 62 55 63 39 64 40 65 48 66
REMARK SMILES IDX 41 67 42 68 46 69 49 70 43 71 44 72 47 73 45 74 71 75 72 76
REMARK SMILES IDX 80 77 73 78 74 79 78 80 81 81 75 82 76 83 79 84 77 85 56 86
REMARK SMILES IDX 57 87 65 88 58 89 59 90 63 91 66 92 60 93 61 94 64 95 62 96
REMARK H PARENT 20 5 27 30 86 49 54 60
REMARK Flexibility Score: inf
ROOT
ATOM      1  C   UNL A   1      33.666  31.410  27.286  1.00  0.00     0.116 C 
ENDROOT
BRANCH   1   2
ATOM      2  N   UNL A   1      33.245  30.075  27.623  1.00  0.00    -0.356 N 
ATOM      3  C   UNL A   1      33.024  28.990  26.840  1.00  0.00     0.220 C 
ATOM      4  O   UNL A   1      32.832  27.914  27.412  1.00  0.00    -0.275 OA
ATOM      5  H   UNL A   1      33.091  29.924  28.584  1.00  0.00     0.163 HD
BRANCH   3   6
ATOM      6  C   UNL A   1      33.091  29.050  25.320  1.00  0.00     0.101 C 
BRANCH   6   7
ATOM      7  C   UNL A   1      33.491  27.799  24.547  1.00  0.00     0.027 C 
BRANCH   7   8
ATOM      8  C   UNL A   1      33.369  27.743  23.032  1.00  0.00     0.155 C 
BRANCH   8   9
ATOM      9  S   UNL A   1      32.606  26.360  22.162  1.00  0.00     0.214 S 
ATOM     10  O   UNL A   1      33.618  25.845  21.270  1.00  0.00    -0.212 OA
ATOM     11  O   UNL A   1      31.359  26.886  21.629  1.00  0.00    -0.212 OA
BRANCH   9  12
ATOM     12  N   UNL A   1      32.200  25.147  23.249  1.00  0.00    -0.201 NA
ATOM     13  C   UNL A   1      30.807  25.159  23.750  1.00  0.00     0.124 C 
BRANCH  12  14
ATOM     14  C   UNL A   1      32.868  23.813  23.308  1.00  0.00     0.138 C 
BRANCH  14  15
ATOM     15  C   UNL A   1      34.207  23.628  23.993  1.00  0.00    -0.014 A 
ATOM     16  C   UNL A   1      35.314  23.284  23.189  1.00  0.00     0.008 A 
ATOM     17  C   UNL A   1      34.459  23.853  25.354  1.00  0.00     0.047 A 
ATOM     18  C   UNL A   1      36.571  23.027  23.742  1.00  0.00     0.021 A 
ATOM     19  C   UNL A   1      35.703  23.540  25.919  1.00  0.00     0.041 A 
ATOM     20  Cl  UNL A   1      33.330  24.631  26.394  1.00  0.00    -0.084 Cl
ATOM     21  C   UNL A   1      36.742  23.093  25.116  1.00  0.00     0.042 A 
ATOM     22  Cl  UNL A   1      38.244  22.638  25.816  1.00  0.00    -0.084 Cl
ENDBRANCH  14  15
ENDBRANCH  12  14
ENDBRANCH   9  12
ENDBRANCH   8   9
ENDBRANCH   7   8
ENDBRANCH   6   7
ENDBRANCH   3   6
ENDBRANCH   1   2
BRANCH   1  23
ATOM     23  C   UNL A   1      34.932  31.826  28.033  1.00  0.00     0.021 C 
BRANCH  23  24
ATOM     24  C   UNL A   1      34.678  32.922  29.071  1.00  0.00     0.002 C 
BRANCH  24  25
ATOM     25  C   UNL A   1      35.236  34.300  28.697  1.00  0.00     0.002 C 
BRANCH  25  26
ATOM     26  C   UNL A   1      34.220  35.444  28.747  1.00  0.00     0.021 C 
BRANCH  26  27
ATOM     27  C   UNL A   1      32.877  35.055  29.337  1.00  0.00     0.116 C 
BRANCH  27  28
ATOM     28  N   UNL A   1      32.524  35.963  30.421  1.00  0.00    -0.352 N 
ATOM     29  C   UNL A   1      32.827  35.880  31.757  1.00  0.00     0.251 C 
ATOM     30  H   UNL A   1      31.993  36.748  30.157  1.00  0.00     0.163 HD
ATOM     31  O   UNL A   1      32.132  36.476  32.574  1.00  0.00    -0.269 OA
BRANCH  29  32
ATOM     32  C   UNL A   1      34.003  35.106  32.212  1.00  0.00     0.039 A 
ATOM     33  C   UNL A   1      35.274  35.685  32.149  1.00  0.00     0.014 A 
ATOM     34  C   UNL A   1      33.867  33.778  32.626  1.00  0.00     0.014 A 
ATOM     35  C   UNL A   1      36.397  34.941  32.519  1.00  0.00     0.010 A 
ATOM     36  C   UNL A   1      34.967  33.077  33.100  1.00  0.00     0.010 A 
ATOM     37  C   UNL A   1      36.249  33.635  33.016  1.00  0.00    -0.014 A 
BRANCH  37  38
ATOM     38  C   UNL A   1      37.414  32.800  33.401  1.00  0.00     0.031 A 
ATOM     39  C   UNL A   1      38.127  33.073  34.700  1.00  0.00     0.074 A 
ATOM     40  C   UNL A   1      37.878  31.863  32.552  1.00  0.00     0.049 A 
ATOM     41  N   UNL A   1      39.241  32.563  35.161  1.00  0.00    -0.248 NA
ATOM     42  C   UNL A   1      37.526  34.087  35.585  1.00  0.00     0.031 C 
ATOM     43  C   UNL A   1      37.298  31.541  31.248  1.00  0.00     0.029 A 
ATOM     44  N   UNL A   1      38.958  31.024  32.653  1.00  0.00    -0.354 N 
ATOM     45  C   UNL A   1      39.486  33.214  36.364  1.00  0.00     0.074 A 
ATOM     46  C   UNL A   1      38.440  34.197  36.537  1.00  0.00     0.031 C 
ATOM     47  C   UNL A   1      38.016  30.559  30.678  1.00  0.00     0.029 A 
ATOM     48  C   UNL A   1      39.133  30.220  31.553  1.00  0.00     0.049 A 
ATOM     49  H   UNL A   1      39.551  31.000  33.438  1.00  0.00     0.167 HD
ATOM     50  C   UNL A   1      40.480  32.993  37.256  1.00  0.00     0.037 A 
ATOM     51  C   UNL A   1      40.098  29.322  31.278  1.00  0.00     0.037 A 
ATOM     52  C   UNL A   1      41.491  31.982  37.095  1.00  0.00     0.049 A 
ATOM     53  C   UNL A   1      41.190  29.094  32.290  1.00  0.00     0.074 A 
ATOM     54  C   UNL A   1      42.503  31.629  37.967  1.00  0.00     0.029 A 
ATOM     55  N   UNL A   1      41.613  31.161  35.983  1.00  0.00    -0.354 N 
ATOM     56  N   UNL A   1      41.376  29.670  33.454  1.00  0.00    -0.248 NA
ATOM     57  C   UNL A   1      42.204  28.086  31.953  1.00  0.00     0.031 C 
ATOM     58  C   UNL A   1      43.270  30.629  37.362  1.00  0.00     0.029 A 
ATOM     59  C   UNL A   1      42.697  30.314  36.141  1.00  0.00     0.049 A 
ATOM     60  H   UNL A   1      41.016  31.177  35.200  1.00  0.00     0.167 HD
ATOM     61  C   UNL A   1      42.501  29.068  34.003  1.00  0.00     0.074 A 
ATOM     62  C   UNL A   1      42.948  28.075  33.050  1.00  0.00     0.031 C 
ATOM     63  C   UNL A   1      43.110  29.316  35.188  1.00  0.00     0.037 A 
BRANCH  50  64
ATOM     64  C   UNL A   1      40.521  33.849  38.490  1.00  0.00     0.064 A 
ATOM     65  C   UNL A   1      41.274  35.032  38.544  1.00  0.00     0.173 A 
ATOM     66  C   UNL A   1      39.756  33.510  39.617  1.00  0.00     0.173 A 
ATOM     67  F   UNL A   1      42.032  35.400  37.500  1.00  0.00    -0.203 F 
ATOM     68  C   UNL A   1      41.282  35.827  39.688  1.00  0.00     0.198 A 
ATOM     69  C   UNL A   1      39.740  34.325  40.746  1.00  0.00     0.198 A 
ATOM     70  F   UNL A   1      39.013  32.393  39.620  1.00  0.00    -0.203 F 
ATOM     71  F   UNL A   1      42.048  36.926  39.732  1.00  0.00    -0.200 F 
ATOM     72  C   UNL A   1      40.508  35.478  40.784  1.00  0.00     0.200 A 
ATOM     73  F   UNL A   1      38.978  33.994  41.799  1.00  0.00    -0.200 F 
ATOM     74  F   UNL A   1      40.506  36.251  41.878  1.00  0.00    -0.200 F 
ENDBRANCH  50  64
BRANCH  51  75
ATOM     75  C   UNL A   1      40.070  28.559  30.002  1.00  0.00     0.064 A 
ATOM     76  C   UNL A   1      39.442  27.307  29.926  1.00  0.00     0.173 A 
ATOM     77  C   UNL A   1      40.682  29.051  28.840  1.00  0.00     0.173 A 
ATOM     78  F   UNL A   1      38.857  26.785  31.015  1.00  0.00    -0.203 F 
ATOM     79  C   UNL A   1      39.457  26.563  28.748  1.00  0.00     0.198 A 
ATOM     80  C   UNL A   1      40.666  28.321  27.653  1.00  0.00     0.198 A 
ATOM     81  F   UNL A   1      41.290  30.246  28.855  1.00  0.00    -0.203 F 
ATOM     82  F   UNL A   1      38.902  25.343  28.723  1.00  0.00    -0.200 F 
ATOM     83  C   UNL A   1      40.064  27.072  27.612  1.00  0.00     0.200 A 
ATOM     84  F   UNL A   1      41.240  28.824  26.552  1.00  0.00    -0.200 F 
ATOM     85  F   UNL A   1      40.080  26.356  26.479  1.00  0.00    -0.200 F 
ENDBRANCH  51  75
BRANCH  63  86
ATOM     86  C   UNL A   1      44.288  28.459  35.552  1.00  0.00     0.064 A 
ATOM     87  C   UNL A   1      44.138  27.244  36.235  1.00  0.00     0.173 A 
ATOM     88  C   UNL A   1      45.583  28.841  35.165  1.00  0.00     0.173 A 
ATOM     89  F   UNL A   1      42.923  26.841  36.639  1.00  0.00    -0.203 F 
ATOM     90  C   UNL A   1      45.244  26.454  36.539  1.00  0.00     0.198 A 
ATOM     91  C   UNL A   1      46.680  28.031  35.440  1.00  0.00     0.198 A 
ATOM     92  F   UNL A   1      45.780  29.990  34.501  1.00  0.00    -0.203 F 
ATOM     93  F   UNL A   1      45.082  25.320  37.235  1.00  0.00    -0.200 F 
ATOM     94  C   UNL A   1      46.511  26.844  36.134  1.00  0.00     0.200 A 
ATOM     95  F   UNL A   1      47.902  28.401  35.029  1.00  0.00    -0.200 F 
ATOM     96  F   UNL A   1      47.573  26.075  36.416  1.00  0.00    -0.200 F 
ENDBRANCH  63  86
ENDBRANCH  37  38
ENDBRANCH  29  32
ENDBRANCH  27  28
ENDBRANCH  26  27
ENDBRANCH  25  26
ENDBRANCH  24  25
ENDBRANCH  23  24
ENDBRANCH   1  23
TORSDOF 19
ENDMDL
MODEL 3
REMARK VINA RESULT:     -11.2      6.476     11.096
REMARK SMILES CN(Cc1ccc(Cl)cc1Cl)S(=O)(=O)CCCC(=O)NCCCCCCNC(=O)c1ccc(-c2c3nc(c(-c4c(F)c(F)c(F)c(F)c4F)c4ccc([nH]4)c(-c4c(F)c(F)c(F)c(F)c4F)c4nc(c(-c5c(F)c(F)c(F)c(F)c5F)c5ccc2[nH]5)C=C4)C=C3)cc1
REMARK SMILES IDX 21 1 20 2 18 3 19 4 17 6 16 7 15 8 12 9 13 10 14 11 2 12
REMARK SMILES IDX 1 13 3 14 4 15 5 16 10 17 6 18 9 19 11 20 7 21 8 22 22 23
REMARK SMILES IDX 23 24 24 25 25 26 26 27 27 28 28 29 29 31 30 32 31 33 92 34
REMARK SMILES IDX 32 35 91 36 33 37 34 38 35 39 85 40 36 41 90 42 84 43 86 44
REMARK SMILES IDX 37 45 89 46 83 47 82 48 38 50 70 51 50 52 69 53 51 54 54 55
REMARK SMILES IDX 68 56 87 57 52 58 53 59 67 61 88 62 55 63 39 64 40 65 48 66
REMARK SMILES IDX 41 67 42 68 46 69 49 70 43 71 44 72 47 73 45 74 71 75 72 76
REMARK SMILES IDX 80 77 73 78 74 79 78 80 81 81 75 82 76 83 79 84 77 85 56 86
REMARK SMILES IDX 57 87 65 88 58 89 59 90 63 91 66 92 60 93 61 94 64 95 62 96
REMARK H PARENT 20 5 27 30 86 49 54 60
REMARK Flexibility Score: inf
ROOT
ATOM      1  C   UNL A   1      39.918  22.413  26.639  1.00  0.00     0.116 C 
ENDROOT
BRANCH   1   2
ATOM      2  N   UNL A   1      38.919  21.799  25.803  1.00  0.00    -0.356 N 
ATOM      3  C   UNL A   1      37.723  22.263  25.364  1.00  0.00     0.220 C 
ATOM      4  O   UNL A   1      37.137  21.588  24.513  1.00  0.00    -0.275 OA
ATOM      5  H   UNL A   1      39.141  20.889  25.500  1.00  0.00     0.163 HD
BRANCH   3   6
ATOM      6  C   UNL A   1      37.145  23.596  25.818  1.00  0.00     0.101 C 
BRANCH   6   7
ATOM      7  C   UNL A   1      35.748  23.994  25.354  1.00  0.00     0.027 C 
BRANCH   7   8
ATOM      8  C   UNL A   1      34.512  23.539  26.114  1.00  0.00     0.155 C 
BRANCH   8   9
ATOM      9  S   UNL A   1      33.111  22.737  25.311  1.00  0.00     0.214 S 
ATOM     10  O   UNL A   1      32.800  21.580  26.118  1.00  0.00    -0.212 OA
ATOM     11  O   UNL A   1      33.508  22.574  23.922  1.00  0.00    -0.212 OA
BRANCH   9  12
ATOM     12  N   UNL A   1      31.778  23.756  25.322  1.00  0.00    -0.201 NA
ATOM     13  C   UNL A   1      31.742  24.774  26.397  1.00  0.00     0.124 C 
BRANCH  12  14
ATOM     14  C   UNL A   1      30.977  24.106  24.112  1.00  0.00     0.138 C 
BRANCH  14  15
ATOM     15  C   UNL A   1      30.801  25.544  23.667  1.00  0.00    -0.014 A 
ATOM     16  C   UNL A   1      29.561  26.165  23.928  1.00  0.00     0.008 A 
ATOM     17  C   UNL A   1      31.798  26.341  23.089  1.00  0.00     0.047 A 
ATOM     18  C   UNL A   1      29.285  27.464  23.495  1.00  0.00     0.021 A 
ATOM     19  C   UNL A   1      31.506  27.622  22.601  1.00  0.00     0.041 A 
ATOM     20  Cl  UNL A   1      33.454  25.874  23.044  1.00  0.00    -0.084 Cl
ATOM     21  C   UNL A   1      30.240  28.162  22.773  1.00  0.00     0.042 A 
ATOM     22  Cl  UNL A   1      29.858  29.702  22.110  1.00  0.00    -0.084 Cl
ENDBRANCH  14  15
ENDBRANCH  12  14
ENDBRANCH   9  12
ENDBRANCH   8   9
ENDBRANCH   7   8
ENDBRANCH   6   7
ENDBRANCH   3   6
ENDBRANCH   1   2
BRANCH   1  23
ATOM     23  C   UNL A   1      41.337  22.135  26.147  1.00  0.00     0.021 C 
BRANCH  23  24
ATOM     24  C   UNL A   1      42.158  21.304  27.135  1.00  0.00     0.002 C 
BRANCH  24  25
ATOM     25  C   UNL A   1      41.753  19.828  27.222  1.00  0.00     0.002 C 
BRANCH  25  26
ATOM     26  C   UNL A   1      42.328  18.935  26.119  1.00  0.00     0.021 C 
BRANCH  26  27
ATOM     27  C   UNL A   1      43.777  18.539  26.334  1.00  0.00     0.116 C 
BRANCH  27  28
ATOM     28  N   UNL A   1      44.469  18.458  25.054  1.00  0.00    -0.352 N 
ATOM     29  C   UNL A   1      44.750  19.454  24.152  1.00  0.00     0.251 C 
ATOM     30  H   UNL A   1      44.778  17.559  24.798  1.00  0.00     0.163 HD
ATOM     31  O   UNL A   1      44.959  19.168  22.978  1.00  0.00    -0.269 OA
BRANCH  29  32
ATOM     32  C   UNL A   1      44.835  20.863  24.596  1.00  0.00     0.039 A 
ATOM     33  C   UNL A   1      44.271  21.868  23.805  1.00  0.00     0.014 A 
ATOM     34  C   UNL A   1      45.542  21.206  25.751  1.00  0.00     0.014 A 
ATOM     35  C   UNL A   1      44.399  23.207  24.185  1.00  0.00     0.010 A 
ATOM     36  C   UNL A   1      45.572  22.523  26.187  1.00  0.00     0.010 A 
ATOM     37  C   UNL A   1      45.036  23.543  25.390  1.00  0.00    -0.014 A 
BRANCH  37  38
ATOM     38  C   UNL A   1      45.214  24.952  25.823  1.00  0.00     0.031 A 
ATOM     39  C   UNL A   1      46.575  25.591  25.727  1.00  0.00     0.074 A 
ATOM     40  C   UNL A   1      44.184  25.620  26.374  1.00  0.00     0.049 A 
ATOM     41  N   UNL A   1      46.982  26.752  26.175  1.00  0.00    -0.248 NA
ATOM     42  C   UNL A   1      47.634  24.801  25.073  1.00  0.00     0.031 C 
ATOM     43  C   UNL A   1      42.833  25.090  26.560  1.00  0.00     0.029 A 
ATOM     44  N   UNL A   1      44.119  26.886  26.899  1.00  0.00    -0.354 N 
ATOM     45  C   UNL A   1      48.340  26.813  25.887  1.00  0.00     0.074 A 
ATOM     46  C   UNL A   1      48.704  25.554  25.278  1.00  0.00     0.031 C 
ATOM     47  C   UNL A   1      42.067  26.029  27.138  1.00  0.00     0.029 A 
ATOM     48  C   UNL A   1      42.885  27.207  27.409  1.00  0.00     0.049 A 
ATOM     49  H   UNL A   1      44.885  27.505  26.910  1.00  0.00     0.167 HD
ATOM     50  C   UNL A   1      49.200  27.840  26.088  1.00  0.00     0.037 A 
ATOM     51  C   UNL A   1      42.468  28.322  28.038  1.00  0.00     0.037 A 
ATOM     52  C   UNL A   1      48.818  29.106  26.655  1.00  0.00     0.049 A 
ATOM     53  C   UNL A   1      43.445  29.449  28.245  1.00  0.00     0.074 A 
ATOM     54  C   UNL A   1      49.593  30.235  26.842  1.00  0.00     0.029 A 
ATOM     55  N   UNL A   1      47.548  29.406  27.125  1.00  0.00    -0.354 N 
ATOM     56  N   UNL A   1      44.711  29.523  27.910  1.00  0.00    -0.248 NA
ATOM     57  C   UNL A   1      42.934  30.653  28.914  1.00  0.00     0.031 C 
ATOM     58  C   UNL A   1      48.805  31.204  27.472  1.00  0.00     0.029 A 
ATOM     59  C   UNL A   1      47.523  30.700  27.618  1.00  0.00     0.049 A 
ATOM     60  H   UNL A   1      46.778  28.792  27.108  1.00  0.00     0.167 HD
ATOM     61  C   UNL A   1      45.135  30.789  28.290  1.00  0.00     0.074 A 
ATOM     62  C   UNL A   1      43.988  31.455  28.871  1.00  0.00     0.031 C 
ATOM     63  C   UNL A   1      46.363  31.351  28.171  1.00  0.00     0.037 A 
BRANCH  50  64
ATOM     64  C   UNL A   1      50.635  27.645  25.686  1.00  0.00     0.064 A 
ATOM     65  C   UNL A   1      51.062  27.826  24.362  1.00  0.00     0.173 A 
ATOM     66  C   UNL A   1      51.605  27.322  26.647  1.00  0.00     0.173 A 
ATOM     67  F   UNL A   1      50.176  28.125  23.399  1.00  0.00    -0.203 F 
ATOM     68  C   UNL A   1      52.400  27.665  24.010  1.00  0.00     0.198 A 
ATOM     69  C   UNL A   1      52.947  27.196  26.298  1.00  0.00     0.198 A 
ATOM     70  F   UNL A   1      51.255  27.142  27.930  1.00  0.00    -0.203 F 
ATOM     71  F   UNL A   1      52.775  27.796  22.730  1.00  0.00    -0.200 F 
ATOM     72  C   UNL A   1      53.343  27.359  24.980  1.00  0.00     0.200 A 
ATOM     73  F   UNL A   1      53.860  26.916  27.240  1.00  0.00    -0.200 F 
ATOM     74  F   UNL A   1      54.632  27.219  24.642  1.00  0.00    -0.200 F 
ENDBRANCH  50  64
BRANCH  51  75
ATOM     75  C   UNL A   1      41.060  28.438  28.501  1.00  0.00     0.064 A 
ATOM     76  C   UNL A   1      40.693  28.040  29.795  1.00  0.00     0.173 A 
ATOM     77  C   UNL A   1      40.050  28.930  27.661  1.00  0.00     0.173 A 
ATOM     78  F   UNL A   1      41.618  27.546  30.631  1.00  0.00    -0.203 F 
ATOM     79  C   UNL A   1      39.366  28.097  30.218  1.00  0.00     0.198 A 
ATOM     80  C   UNL A   1      38.729  29.019  28.098  1.00  0.00     0.198 A 
ATOM     81  F   UNL A   1      40.347  29.332  26.417  1.00  0.00    -0.203 F 
ATOM     82  F   UNL A   1      39.036  27.653  31.439  1.00  0.00    -0.200 F 
ATOM     83  C   UNL A   1      38.387  28.592  29.371  1.00  0.00     0.200 A 
ATOM     84  F   UNL A   1      37.788  29.513  27.282  1.00  0.00    -0.200 F 
ATOM     85  F   UNL A   1      37.111  28.645  29.778  1.00  0.00    -0.200 F 
ENDBRANCH  51  75
BRANCH  63  86
ATOM     86  C   UNL A   1      46.517  32.775  28.619  1.00  0.00     0.064 A 
ATOM     87  C   UNL A   1      46.254  33.854  27.763  1.00  0.00     0.173 A 
ATOM     88  C   UNL A   1      46.887  33.060  29.943  1.00  0.00     0.173 A 
ATOM     89  F   UNL A   1      45.910  33.634  26.485  1.00  0.00    -0.203 F 
ATOM     90  C   UNL A   1      46.380  35.167  28.209  1.00  0.00     0.198 A 
ATOM     91  C   UNL A   1      46.977  34.374  30.394  1.00  0.00     0.198 A 
ATOM     92  F   UNL A   1      47.142  32.064  30.805  1.00  0.00    -0.203 F 
ATOM     93  F   UNL A   1      46.170  36.183  27.360  1.00  0.00    -0.200 F 
ATOM     94  C   UNL A   1      46.732  35.425  29.525  1.00  0.00     0.200 A 
ATOM     95  F   UNL A   1      47.299  34.620  31.672  1.00  0.00    -0.200 F 
ATOM     96  F   UNL A   1      46.840  36.690  29.956  1.00  0.00    -0.200 F 
ENDBRANCH  63  86
ENDBRANCH  37  38
ENDBRANCH  29  32
ENDBRANCH  27  28
ENDBRANCH  26  27
ENDBRANCH  25  26
ENDBRANCH  24  25
ENDBRANCH  23  24
ENDBRANCH   1  23
TORSDOF 19
ENDMDL
