MODEL 1
REMARK VINA RESULT:     -11.3      0.000      0.000
REMARK SMILES C/C(=C\C(=O)NCCCCCCNC(=O)c1ccc(-c2c3nc(c(-c4c(F)c(F)c(F)c(F)c4F)c4ccc([nH]4)c(-c4c(F)c(F)c(F)c(F)c4F)c4nc(c(-c5c(F)c(F)c(F)c(F)c5F)c5ccc2[nH]5)C=C4)C=C3)cc1)CSc1ccc(N)c(C)c1
REMARK SMILES IDX 8 1 7 2 6 3 4 4 5 5 3 7 1 8 2 9 79 10 80 11 81 12 82 13
REMARK SMILES IDX 88 14 83 15 86 16 84 17 87 18 85 19 9 22 10 23 11 24 12 25
REMARK SMILES IDX 13 26 14 27 15 29 16 30 17 31 78 32 18 33 77 34 19 35 20 36
REMARK SMILES IDX 21 37 71 38 22 39 76 40 70 41 72 42 23 43 75 44 69 45 68 46
REMARK SMILES IDX 24 48 56 49 36 50 55 51 37 52 40 53 54 54 73 55 38 56 39 57
REMARK SMILES IDX 53 59 74 60 41 61 25 62 26 63 34 64 27 65 28 66 32 67 35 68
REMARK SMILES IDX 29 69 30 70 33 71 31 72 57 73 58 74 66 75 59 76 60 77 64 78
REMARK SMILES IDX 67 79 61 80 62 81 65 82 63 83 42 84 43 85 51 86 44 87 45 88
REMARK SMILES IDX 49 89 52 90 46 91 47 92 50 93 48 94
REMARK H PARENT 6 6 85 20 85 21 13 28 72 47 40 58
REMARK Flexibility Score: inf
ROOT
ATOM      1  C   UNL A   1      30.943  27.945  23.030  1.00  0.00     0.021 C 
ENDROOT
BRANCH   1   2
ATOM      2  C   UNL A   1      32.421  27.722  22.724  1.00  0.00     0.116 C 
BRANCH   2   3
ATOM      3  N   UNL A   1      32.646  26.968  21.518  1.00  0.00    -0.353 N 
ATOM      4  C   UNL A   1      32.879  25.673  21.236  1.00  0.00     0.243 C 
ATOM      5  O   UNL A   1      33.009  25.388  20.039  1.00  0.00    -0.270 OA
ATOM      6  H   UNL A   1      32.626  27.532  20.711  1.00  0.00     0.163 HD
BRANCH   4   7
ATOM      7  C   UNL A   1      33.058  24.554  22.204  1.00  0.00     0.071 C 
ATOM      8  C   UNL A   1      30.893  23.829  23.367  1.00  0.00     0.040 C 
ATOM      9  C   UNL A   1      32.359  23.781  23.063  1.00  0.00    -0.058 C 
BRANCH   9  10
ATOM     10  C   UNL A   1      33.078  22.624  23.742  1.00  0.00     0.105 C 
BRANCH  10  11
ATOM     11  S   UNL A   1      33.576  23.047  25.442  1.00  0.00    -0.122 SA
BRANCH  11  12
ATOM     12  C   UNL A   1      35.318  22.666  25.417  1.00  0.00     0.008 A 
ATOM     13  C   UNL A   1      35.811  21.431  25.000  1.00  0.00     0.017 A 
ATOM     14  C   UNL A   1      36.214  23.614  25.917  1.00  0.00     0.020 A 
ATOM     15  C   UNL A   1      37.181  21.163  25.057  1.00  0.00     0.027 A 
ATOM     16  C   UNL A   1      37.596  23.353  25.984  1.00  0.00    -0.027 A 
ATOM     17  C   UNL A   1      38.089  22.118  25.529  1.00  0.00     0.034 A 
ATOM     18  C   UNL A   1      38.504  24.396  26.575  1.00  0.00     0.046 C 
BRANCH  17  19
ATOM     19  N   UNL A   1      39.425  21.769  25.661  1.00  0.00    -0.399 N 
ATOM     20  H   UNL A   1      40.117  22.469  25.685  1.00  0.00     0.156 HD
ATOM     21  H   UNL A   1      39.682  20.821  25.731  1.00  0.00     0.156 HD
ENDBRANCH  17  19
ENDBRANCH  11  12
ENDBRANCH  10  11
ENDBRANCH   9  10
ENDBRANCH   4   7
ENDBRANCH   2   3
ENDBRANCH   1   2
BRANCH   1  22
ATOM     22  C   UNL A   1      30.515  27.424  24.407  1.00  0.00     0.002 C 
BRANCH  22  23
ATOM     23  C   UNL A   1      31.639  27.290  25.446  1.00  0.00     0.002 C 
BRANCH  23  24
ATOM     24  C   UNL A   1      31.873  28.517  26.332  1.00  0.00     0.021 C 
BRANCH  24  25
ATOM     25  C   UNL A   1      33.051  29.395  25.913  1.00  0.00     0.116 C 
BRANCH  25  26
ATOM     26  N   UNL A   1      32.826  30.794  26.240  1.00  0.00    -0.352 N 
ATOM     27  C   UNL A   1      33.412  31.589  27.186  1.00  0.00     0.251 C 
ATOM     28  H   UNL A   1      32.142  31.242  25.691  1.00  0.00     0.163 HD
ATOM     29  O   UNL A   1      32.910  32.679  27.461  1.00  0.00    -0.269 OA
BRANCH  27  30
ATOM     30  C   UNL A   1      34.642  31.160  27.885  1.00  0.00     0.039 A 
ATOM     31  C   UNL A   1      35.705  32.062  27.984  1.00  0.00     0.014 A 
ATOM     32  C   UNL A   1      34.780  29.860  28.381  1.00  0.00     0.014 A 
ATOM     33  C   UNL A   1      36.887  31.676  28.620  1.00  0.00     0.010 A 
ATOM     34  C   UNL A   1      35.934  29.497  29.074  1.00  0.00     0.010 A 
ATOM     35  C   UNL A   1      37.001  30.399  29.191  1.00  0.00    -0.014 A 
BRANCH  35  36
ATOM     36  C   UNL A   1      38.233  30.006  29.920  1.00  0.00     0.031 A 
ATOM     37  C   UNL A   1      38.491  30.507  31.313  1.00  0.00     0.074 A 
ATOM     38  C   UNL A   1      39.140  29.225  29.303  1.00  0.00     0.049 A 
ATOM     39  N   UNL A   1      39.508  30.267  32.104  1.00  0.00    -0.248 NA
ATOM     40  C   UNL A   1      37.488  31.417  31.888  1.00  0.00     0.031 C 
ATOM     41  C   UNL A   1      39.029  28.730  27.930  1.00  0.00     0.029 A 
ATOM     42  N   UNL A   1      40.332  28.713  29.746  1.00  0.00    -0.354 N 
ATOM     43  C   UNL A   1      39.272  31.000  33.259  1.00  0.00     0.074 A 
ATOM     44  C   UNL A   1      38.043  31.734  33.049  1.00  0.00     0.031 C 
ATOM     45  C   UNL A   1      40.094  27.962  27.653  1.00  0.00     0.029 A 
ATOM     46  C   UNL A   1      40.974  27.932  28.817  1.00  0.00     0.049 A 
ATOM     47  H   UNL A   1      40.693  28.888  30.646  1.00  0.00     0.167 HD
ATOM     48  C   UNL A   1      40.002  31.038  34.399  1.00  0.00     0.037 A 
ATOM     49  C   UNL A   1      42.140  27.264  28.899  1.00  0.00     0.037 A 
ATOM     50  C   UNL A   1      41.214  30.287  34.612  1.00  0.00     0.049 A 
ATOM     51  C   UNL A   1      42.917  27.304  30.185  1.00  0.00     0.074 A 
ATOM     52  C   UNL A   1      41.991  30.205  35.753  1.00  0.00     0.029 A 
ATOM     53  N   UNL A   1      41.824  29.489  33.654  1.00  0.00    -0.354 N 
ATOM     54  N   UNL A   1      42.642  27.936  31.300  1.00  0.00    -0.248 NA
ATOM     55  C   UNL A   1      44.161  26.524  30.227  1.00  0.00     0.031 C 
ATOM     56  C   UNL A   1      43.095  29.392  35.473  1.00  0.00     0.029 A 
ATOM     57  C   UNL A   1      42.981  28.929  34.173  1.00  0.00     0.049 A 
ATOM     58  H   UNL A   1      41.486  29.344  32.741  1.00  0.00     0.167 HD
ATOM     59  C   UNL A   1      43.665  27.617  32.181  1.00  0.00     0.074 A 
ATOM     60  C   UNL A   1      44.554  26.713  31.478  1.00  0.00     0.031 C 
ATOM     61  C   UNL A   1      43.858  28.039  33.455  1.00  0.00     0.037 A 
BRANCH  48  62
ATOM     62  C   UNL A   1      39.507  31.917  35.512  1.00  0.00     0.064 A 
ATOM     63  C   UNL A   1      38.570  31.457  36.451  1.00  0.00     0.173 A 
ATOM     64  C   UNL A   1      40.003  33.219  35.667  1.00  0.00     0.173 A 
ATOM     65  F   UNL A   1      38.057  30.222  36.342  1.00  0.00    -0.203 F 
ATOM     66  C   UNL A   1      38.127  32.278  37.484  1.00  0.00     0.198 A 
ATOM     67  C   UNL A   1      39.580  34.029  36.719  1.00  0.00     0.198 A 
ATOM     68  F   UNL A   1      40.904  33.708  34.802  1.00  0.00    -0.203 F 
ATOM     69  F   UNL A   1      37.197  31.832  38.340  1.00  0.00    -0.200 F 
ATOM     70  C   UNL A   1      38.638  33.560  37.623  1.00  0.00     0.200 A 
ATOM     71  F   UNL A   1      40.082  35.263  36.858  1.00  0.00    -0.200 F 
ATOM     72  F   UNL A   1      38.216  34.347  38.622  1.00  0.00    -0.200 F 
ENDBRANCH  48  62
BRANCH  49  73
ATOM     73  C   UNL A   1      42.620  26.471  27.739  1.00  0.00     0.064 A 
ATOM     74  C   UNL A   1      42.191  25.151  27.542  1.00  0.00     0.173 A 
ATOM     75  C   UNL A   1      43.512  27.014  26.803  1.00  0.00     0.173 A 
ATOM     76  F   UNL A   1      41.352  24.583  28.421  1.00  0.00    -0.203 F 
ATOM     77  C   UNL A   1      42.651  24.397  26.466  1.00  0.00     0.198 A 
ATOM     78  C   UNL A   1      43.951  26.268  25.711  1.00  0.00     0.198 A 
ATOM     79  F   UNL A   1      43.947  28.274  26.942  1.00  0.00    -0.203 F 
ATOM     80  F   UNL A   1      42.259  23.123  26.327  1.00  0.00    -0.200 F 
ATOM     81  C   UNL A   1      43.527  24.958  25.548  1.00  0.00     0.200 A 
ATOM     82  F   UNL A   1      44.785  26.818  24.818  1.00  0.00    -0.200 F 
ATOM     83  F   UNL A   1      43.966  24.234  24.510  1.00  0.00    -0.200 F 
ENDBRANCH  49  73
BRANCH  61  84
ATOM     84  C   UNL A   1      45.068  27.511  34.169  1.00  0.00     0.064 A 
ATOM     85  C   UNL A   1      46.293  28.192  34.137  1.00  0.00     0.173 A 
ATOM     86  C   UNL A   1      45.000  26.314  34.898  1.00  0.00     0.173 A 
ATOM     87  F   UNL A   1      46.414  29.332  33.439  1.00  0.00    -0.203 F 
ATOM     88  C   UNL A   1      47.416  27.676  34.778  1.00  0.00     0.198 A 
ATOM     89  C   UNL A   1      46.117  25.818  35.565  1.00  0.00     0.198 A 
ATOM     90  F   UNL A   1      43.849  25.627  34.967  1.00  0.00    -0.203 F 
ATOM     91  F   UNL A   1      48.591  28.314  34.683  1.00  0.00    -0.200 F 
ATOM     92  C   UNL A   1      47.326  26.492  35.495  1.00  0.00     0.200 A 
ATOM     93  F   UNL A   1      46.025  24.680  36.266  1.00  0.00    -0.200 F 
ATOM     94  F   UNL A   1      48.408  25.997  36.109  1.00  0.00    -0.200 F 
ENDBRANCH  61  84
ENDBRANCH  35  36
ENDBRANCH  27  30
ENDBRANCH  25  26
ENDBRANCH  24  25
ENDBRANCH  23  24
ENDBRANCH  22  23
ENDBRANCH   1  22
TORSDOF 17
ENDMDL
MODEL 2
REMARK VINA RESULT:     -11.1      4.580      9.893
REMARK SMILES C/C(=C\C(=O)NCCCCCCNC(=O)c1ccc(-c2c3nc(c(-c4c(F)c(F)c(F)c(F)c4F)c4ccc([nH]4)c(-c4c(F)c(F)c(F)c(F)c4F)c4nc(c(-c5c(F)c(F)c(F)c(F)c5F)c5ccc2[nH]5)C=C4)C=C3)cc1)CSc1ccc(N)c(C)c1
REMARK SMILES IDX 8 1 7 2 6 3 4 4 5 5 3 7 1 8 2 9 79 10 80 11 81 12 82 13
REMARK SMILES IDX 88 14 83 15 86 16 84 17 87 18 85 19 9 22 10 23 11 24 12 25
REMARK SMILES IDX 13 26 14 27 15 29 16 30 17 31 78 32 18 33 77 34 19 35 20 36
REMARK SMILES IDX 21 37 71 38 22 39 76 40 70 41 72 42 23 43 75 44 69 45 68 46
REMARK SMILES IDX 24 48 56 49 36 50 55 51 37 52 40 53 54 54 73 55 38 56 39 57
REMARK SMILES IDX 53 59 74 60 41 61 25 62 26 63 34 64 27 65 28 66 32 67 35 68
REMARK SMILES IDX 29 69 30 70 33 71 31 72 57 73 58 74 66 75 59 76 60 77 64 78
REMARK SMILES IDX 67 79 61 80 62 81 65 82 63 83 42 84 43 85 51 86 44 87 45 88
REMARK SMILES IDX 49 89 52 90 46 91 47 92 50 93 48 94
REMARK H PARENT 6 6 85 20 85 21 13 28 72 47 40 58
REMARK Flexibility Score: inf
ROOT
ATOM      1  C   UNL A   1      43.470  18.400  25.987  1.00  0.00     0.021 C 
ENDROOT
BRANCH   1   2
ATOM      2  C   UNL A   1      43.950  18.821  24.601  1.00  0.00     0.116 C 
BRANCH   2   3
ATOM      3  N   UNL A   1      45.383  18.928  24.503  1.00  0.00    -0.353 N 
ATOM      4  C   UNL A   1      46.294  19.851  24.865  1.00  0.00     0.243 C 
ATOM      5  O   UNL A   1      47.476  19.575  24.625  1.00  0.00    -0.270 OA
ATOM      6  H   UNL A   1      45.792  18.143  24.071  1.00  0.00     0.163 HD
BRANCH   4   7
ATOM      7  C   UNL A   1      46.037  21.190  25.465  1.00  0.00     0.071 C 
ATOM      8  C   UNL A   1      44.773  22.796  23.920  1.00  0.00     0.040 C 
ATOM      9  C   UNL A   1      45.463  22.379  25.183  1.00  0.00    -0.058 C 
BRANCH   9  10
ATOM     10  C   UNL A   1      45.371  23.418  26.292  1.00  0.00     0.105 C 
BRANCH  10  11
ATOM     11  S   UNL A   1      46.327  24.914  25.893  1.00  0.00    -0.122 SA
BRANCH  11  12
ATOM     12  C   UNL A   1      45.065  26.174  25.928  1.00  0.00     0.008 A 
ATOM     13  C   UNL A   1      43.881  26.071  25.200  1.00  0.00     0.017 A 
ATOM     14  C   UNL A   1      45.314  27.346  26.646  1.00  0.00     0.020 A 
ATOM     15  C   UNL A   1      42.952  27.114  25.215  1.00  0.00     0.027 A 
ATOM     16  C   UNL A   1      44.387  28.406  26.663  1.00  0.00    -0.027 A 
ATOM     17  C   UNL A   1      43.180  28.280  25.955  1.00  0.00     0.034 A 
ATOM     18  C   UNL A   1      44.733  29.660  27.417  1.00  0.00     0.046 C 
BRANCH  17  19
ATOM     19  N   UNL A   1      42.275  29.327  25.857  1.00  0.00    -0.399 N 
ATOM     20  H   UNL A   1      42.589  30.229  25.616  1.00  0.00     0.156 HD
ATOM     21  H   UNL A   1      41.318  29.169  26.027  1.00  0.00     0.156 HD
ENDBRANCH  17  19
ENDBRANCH  11  12
ENDBRANCH  10  11
ENDBRANCH   9  10
ENDBRANCH   4   7
ENDBRANCH   2   3
ENDBRANCH   1   2
BRANCH   1  22
ATOM     22  C   UNL A   1      42.310  19.252  26.519  1.00  0.00     0.002 C 
BRANCH  22  23
ATOM     23  C   UNL A   1      42.600  20.754  26.665  1.00  0.00     0.002 C 
BRANCH  23  24
ATOM     24  C   UNL A   1      41.509  21.694  26.147  1.00  0.00     0.021 C 
BRANCH  24  25
ATOM     25  C   UNL A   1      40.109  21.412  26.690  1.00  0.00     0.116 C 
BRANCH  25  26
ATOM     26  N   UNL A   1      39.073  21.929  25.811  1.00  0.00    -0.352 N 
ATOM     27  C   UNL A   1      38.438  23.141  25.805  1.00  0.00     0.251 C 
ATOM     28  H   UNL A   1      38.781  21.307  25.106  1.00  0.00     0.163 HD
ATOM     29  O   UNL A   1      37.421  23.292  25.128  1.00  0.00    -0.269 OA
BRANCH  27  30
ATOM     30  C   UNL A   1      38.956  24.275  26.599  1.00  0.00     0.039 A 
ATOM     31  C   UNL A   1      38.507  24.432  27.914  1.00  0.00     0.014 A 
ATOM     32  C   UNL A   1      39.824  25.218  26.041  1.00  0.00     0.014 A 
ATOM     33  C   UNL A   1      38.962  25.507  28.680  1.00  0.00     0.010 A 
ATOM     34  C   UNL A   1      40.330  26.252  26.826  1.00  0.00     0.010 A 
ATOM     35  C   UNL A   1      39.897  26.411  28.150  1.00  0.00    -0.014 A 
BRANCH  35  36
ATOM     36  C   UNL A   1      40.429  27.519  28.982  1.00  0.00     0.031 A 
ATOM     37  C   UNL A   1      41.838  27.476  29.504  1.00  0.00     0.074 A 
ATOM     38  C   UNL A   1      39.620  28.547  29.299  1.00  0.00     0.049 A 
ATOM     39  N   UNL A   1      42.474  28.354  30.241  1.00  0.00    -0.248 NA
ATOM     40  C   UNL A   1      42.631  26.282  29.176  1.00  0.00     0.031 C 
ATOM     41  C   UNL A   1      38.216  28.668  28.905  1.00  0.00     0.029 A 
ATOM     42  N   UNL A   1      39.860  29.686  30.026  1.00  0.00    -0.354 N 
ATOM     43  C   UNL A   1      43.733  27.815  30.471  1.00  0.00     0.074 A 
ATOM     44  C   UNL A   1      43.755  26.512  29.840  1.00  0.00     0.031 C 
ATOM     45  C   UNL A   1      37.727  29.828  29.369  1.00  0.00     0.029 A 
ATOM     46  C   UNL A   1      38.774  30.520  30.115  1.00  0.00     0.049 A 
ATOM     47  H   UNL A   1      40.730  29.885  30.444  1.00  0.00     0.167 HD
ATOM     48  C   UNL A   1      44.781  28.366  31.127  1.00  0.00     0.037 A 
ATOM     49  C   UNL A   1      38.640  31.712  30.726  1.00  0.00     0.037 A 
ATOM     50  C   UNL A   1      44.760  29.673  31.735  1.00  0.00     0.049 A 
ATOM     51  C   UNL A   1      39.826  32.312  31.426  1.00  0.00     0.074 A 
ATOM     52  C   UNL A   1      45.788  30.349  32.366  1.00  0.00     0.029 A 
ATOM     53  N   UNL A   1      43.647  30.499  31.787  1.00  0.00    -0.354 N 
ATOM     54  N   UNL A   1      41.036  31.829  31.568  1.00  0.00    -0.248 NA
ATOM     55  C   UNL A   1      39.631  33.632  32.041  1.00  0.00     0.031 C 
ATOM     56  C   UNL A   1      45.287  31.568  32.838  1.00  0.00     0.029 A 
ATOM     57  C   UNL A   1      43.958  31.671  32.460  1.00  0.00     0.049 A 
ATOM     58  H   UNL A   1      42.765  30.286  31.404  1.00  0.00     0.167 HD
ATOM     59  C   UNL A   1      41.752  32.789  32.269  1.00  0.00     0.074 A 
ATOM     60  C   UNL A   1      40.845  33.896  32.501  1.00  0.00     0.031 C 
ATOM     61  C   UNL A   1      43.040  32.757  32.689  1.00  0.00     0.037 A 
BRANCH  48  62
ATOM     62  C   UNL A   1      46.045  27.560  31.220  1.00  0.00     0.064 A 
ATOM     63  C   UNL A   1      46.231  26.597  32.223  1.00  0.00     0.173 A 
ATOM     64  C   UNL A   1      47.066  27.725  30.273  1.00  0.00     0.173 A 
ATOM     65  F   UNL A   1      45.289  26.407  33.159  1.00  0.00    -0.203 F 
ATOM     66  C   UNL A   1      47.404  25.849  32.291  1.00  0.00     0.198 A 
ATOM     67  C   UNL A   1      48.226  26.955  30.327  1.00  0.00     0.198 A 
ATOM     68  F   UNL A   1      46.940  28.628  29.289  1.00  0.00    -0.203 F 
ATOM     69  F   UNL A   1      47.577  24.968  33.286  1.00  0.00    -0.200 F 
ATOM     70  C   UNL A   1      48.397  26.023  31.339  1.00  0.00     0.200 A 
ATOM     71  F   UNL A   1      49.180  27.115  29.400  1.00  0.00    -0.200 F 
ATOM     72  F   UNL A   1      49.521  25.297  31.402  1.00  0.00    -0.200 F 
ENDBRANCH  48  62
BRANCH  49  73
ATOM     73  C   UNL A   1      37.341  32.431  30.667  1.00  0.00     0.064 A 
ATOM     74  C   UNL A   1      36.387  32.277  31.681  1.00  0.00     0.173 A 
ATOM     75  C   UNL A   1      37.030  33.287  29.601  1.00  0.00     0.173 A 
ATOM     76  F   UNL A   1      36.633  31.454  32.712  1.00  0.00    -0.203 F 
ATOM     77  C   UNL A   1      35.161  32.935  31.623  1.00  0.00     0.198 A 
ATOM     78  C   UNL A   1      35.814  33.967  29.557  1.00  0.00     0.198 A 
ATOM     79  F   UNL A   1      37.911  33.474  28.608  1.00  0.00    -0.203 F 
ATOM     80  F   UNL A   1      34.249  32.735  32.584  1.00  0.00    -0.200 F 
ATOM     81  C   UNL A   1      34.878  33.784  30.563  1.00  0.00     0.200 A 
ATOM     82  F   UNL A   1      35.550  34.798  28.539  1.00  0.00    -0.200 F 
ATOM     83  F   UNL A   1      33.700  34.421  30.509  1.00  0.00    -0.200 F 
ENDBRANCH  49  73
BRANCH  61  84
ATOM     84  C   UNL A   1      43.543  33.963  33.428  1.00  0.00     0.064 A 
ATOM     85  C   UNL A   1      44.101  35.058  32.752  1.00  0.00     0.173 A 
ATOM     86  C   UNL A   1      43.460  34.028  34.827  1.00  0.00     0.173 A 
ATOM     87  F   UNL A   1      44.219  35.037  31.415  1.00  0.00    -0.203 F 
ATOM     88  C   UNL A   1      44.591  36.157  33.451  1.00  0.00     0.198 A 
ATOM     89  C   UNL A   1      43.922  35.143  35.521  1.00  0.00     0.198 A 
ATOM     90  F   UNL A   1      42.927  33.010  35.522  1.00  0.00    -0.203 F 
ATOM     91  F   UNL A   1      45.175  37.165  32.787  1.00  0.00    -0.200 F 
ATOM     92  C   UNL A   1      44.497  36.201  34.834  1.00  0.00     0.200 A 
ATOM     93  F   UNL A   1      43.820  35.188  36.856  1.00  0.00    -0.200 F 
ATOM     94  F   UNL A   1      44.972  37.259  35.505  1.00  0.00    -0.200 F 
ENDBRANCH  61  84
ENDBRANCH  35  36
ENDBRANCH  27  30
ENDBRANCH  25  26
ENDBRANCH  24  25
ENDBRANCH  23  24
ENDBRANCH  22  23
ENDBRANCH   1  22
TORSDOF 17
ENDMDL
MODEL 3
REMARK VINA RESULT:     -11.1      2.587      8.151
REMARK SMILES C/C(=C\C(=O)NCCCCCCNC(=O)c1ccc(-c2c3nc(c(-c4c(F)c(F)c(F)c(F)c4F)c4ccc([nH]4)c(-c4c(F)c(F)c(F)c(F)c4F)c4nc(c(-c5c(F)c(F)c(F)c(F)c5F)c5ccc2[nH]5)C=C4)C=C3)cc1)CSc1ccc(N)c(C)c1
REMARK SMILES IDX 8 1 7 2 6 3 4 4 5 5 3 7 1 8 2 9 79 10 80 11 81 12 82 13
REMARK SMILES IDX 88 14 83 15 86 16 84 17 87 18 85 19 9 22 10 23 11 24 12 25
REMARK SMILES IDX 13 26 14 27 15 29 16 30 17 31 78 32 18 33 77 34 19 35 20 36
REMARK SMILES IDX 21 37 71 38 22 39 76 40 70 41 72 42 23 43 75 44 69 45 68 46
REMARK SMILES IDX 24 48 56 49 36 50 55 51 37 52 40 53 54 54 73 55 38 56 39 57
REMARK SMILES IDX 53 59 74 60 41 61 25 62 26 63 34 64 27 65 28 66 32 67 35 68
REMARK SMILES IDX 29 69 30 70 33 71 31 72 57 73 58 74 66 75 59 76 60 77 64 78
REMARK SMILES IDX 67 79 61 80 62 81 65 82 63 83 42 84 43 85 51 86 44 87 45 88
REMARK SMILES IDX 49 89 52 90 46 91 47 92 50 93 48 94
REMARK H PARENT 6 6 85 20 85 21 13 28 72 47 40 58
REMARK Flexibility Score: inf
ROOT
ATOM      1  C   UNL A   1      32.475  29.171  27.256  1.00  0.00     0.021 C 
ENDROOT
BRANCH   1   2
ATOM      2  C   UNL A   1      32.902  27.809  26.718  1.00  0.00     0.116 C 
BRANCH   2   3
ATOM      3  N   UNL A   1      31.839  26.838  26.715  1.00  0.00    -0.353 N 
ATOM      4  C   UNL A   1      31.762  25.513  26.488  1.00  0.00     0.243 C 
ATOM      5  O   UNL A   1      30.640  25.003  26.597  1.00  0.00    -0.270 OA
ATOM      6  H   UNL A   1      30.964  27.235  26.929  1.00  0.00     0.163 HD
BRANCH   4   7
ATOM      7  C   UNL A   1      32.861  24.603  26.061  1.00  0.00     0.071 C 
ATOM      8  C   UNL A   1      33.091  22.500  27.507  1.00  0.00     0.040 C 
ATOM      9  C   UNL A   1      33.445  23.429  26.386  1.00  0.00    -0.058 C 
BRANCH   9  10
ATOM     10  C   UNL A   1      34.520  22.876  25.461  1.00  0.00     0.105 C 
BRANCH  10  11
ATOM     11  S   UNL A   1      35.007  21.186  25.931  1.00  0.00    -0.122 SA
BRANCH  11  12
ATOM     12  C   UNL A   1      34.076  20.202  24.769  1.00  0.00     0.008 A 
ATOM     13  C   UNL A   1      32.975  20.700  24.077  1.00  0.00     0.017 A 
ATOM     14  C   UNL A   1      34.416  18.856  24.616  1.00  0.00     0.020 A 
ATOM     15  C   UNL A   1      32.244  19.869  23.224  1.00  0.00     0.027 A 
ATOM     16  C   UNL A   1      33.684  18.008  23.763  1.00  0.00    -0.027 A 
ATOM     17  C   UNL A   1      32.595  18.526  23.041  1.00  0.00     0.034 A 
ATOM     18  C   UNL A   1      34.070  16.557  23.675  1.00  0.00     0.046 C 
BRANCH  17  19
ATOM     19  N   UNL A   1      31.779  17.718  22.263  1.00  0.00    -0.399 N 
ATOM     20  H   UNL A   1      31.406  18.061  21.419  1.00  0.00     0.156 HD
ATOM     21  H   UNL A   1      31.574  16.800  22.554  1.00  0.00     0.156 HD
ENDBRANCH  17  19
ENDBRANCH  11  12
ENDBRANCH  10  11
ENDBRANCH   9  10
ENDBRANCH   4   7
ENDBRANCH   2   3
ENDBRANCH   1   2
BRANCH   1  22
ATOM     22  C   UNL A   1      32.481  30.280  26.196  1.00  0.00     0.002 C 
BRANCH  22  23
ATOM     23  C   UNL A   1      31.158  31.044  26.027  1.00  0.00     0.002 C 
BRANCH  23  24
ATOM     24  C   UNL A   1      31.177  32.508  26.477  1.00  0.00     0.021 C 
BRANCH  24  25
ATOM     25  C   UNL A   1      32.453  32.942  27.195  1.00  0.00     0.116 C 
BRANCH  25  26
ATOM     26  N   UNL A   1      32.386  34.329  27.626  1.00  0.00    -0.352 N 
ATOM     27  C   UNL A   1      33.039  34.975  28.640  1.00  0.00     0.251 C 
ATOM     28  H   UNL A   1      31.772  34.895  27.104  1.00  0.00     0.163 HD
ATOM     29  O   UNL A   1      32.661  36.093  28.992  1.00  0.00    -0.269 OA
BRANCH  27  30
ATOM     30  C   UNL A   1      34.193  34.352  29.320  1.00  0.00     0.039 A 
ATOM     31  C   UNL A   1      33.960  33.578  30.461  1.00  0.00     0.014 A 
ATOM     32  C   UNL A   1      35.503  34.576  28.885  1.00  0.00     0.014 A 
ATOM     33  C   UNL A   1      35.034  32.995  31.137  1.00  0.00     0.010 A 
ATOM     34  C   UNL A   1      36.568  33.940  29.519  1.00  0.00     0.010 A 
ATOM     35  C   UNL A   1      36.344  33.151  30.656  1.00  0.00    -0.014 A 
BRANCH  35  36
ATOM     36  C   UNL A   1      37.482  32.483  31.337  1.00  0.00     0.031 A 
ATOM     37  C   UNL A   1      38.204  31.341  30.679  1.00  0.00     0.074 A 
ATOM     38  C   UNL A   1      37.835  32.885  32.572  1.00  0.00     0.049 A 
ATOM     39  N   UNL A   1      39.220  30.641  31.120  1.00  0.00    -0.248 NA
ATOM     40  C   UNL A   1      37.708  30.912  29.362  1.00  0.00     0.031 C 
ATOM     41  C   UNL A   1      37.167  33.939  33.337  1.00  0.00     0.029 A 
ATOM     42  N   UNL A   1      38.839  32.457  33.402  1.00  0.00    -0.354 N 
ATOM     43  C   UNL A   1      39.477  29.688  30.143  1.00  0.00     0.074 A 
ATOM     44  C   UNL A   1      38.479  29.864  29.109  1.00  0.00     0.031 C 
ATOM     45  C   UNL A   1      37.797  34.095  34.512  1.00  0.00     0.029 A 
ATOM     46  C   UNL A   1      38.895  33.136  34.593  1.00  0.00     0.049 A 
ATOM     47  H   UNL A   1      39.462  31.731  33.165  1.00  0.00     0.167 HD
ATOM     48  C   UNL A   1      40.468  28.766  30.102  1.00  0.00     0.037 A 
ATOM     49  C   UNL A   1      39.740  33.003  35.632  1.00  0.00     0.037 A 
ATOM     50  C   UNL A   1      41.472  28.609  31.123  1.00  0.00     0.049 A 
ATOM     51  C   UNL A   1      40.846  31.988  35.549  1.00  0.00     0.074 A 
ATOM     52  C   UNL A   1      42.557  27.751  31.145  1.00  0.00     0.029 A 
ATOM     53  N   UNL A   1      41.509  29.331  32.308  1.00  0.00    -0.354 N 
ATOM     54  N   UNL A   1      41.128  31.147  34.585  1.00  0.00    -0.248 NA
ATOM     55  C   UNL A   1      41.761  31.915  36.696  1.00  0.00     0.031 C 
ATOM     56  C   UNL A   1      43.226  27.922  32.362  1.00  0.00     0.029 A 
ATOM     57  C   UNL A   1      42.587  28.920  33.078  1.00  0.00     0.049 A 
ATOM     58  H   UNL A   1      40.866  30.029  32.565  1.00  0.00     0.167 HD
ATOM     59  C   UNL A   1      42.260  30.459  34.997  1.00  0.00     0.074 A 
ATOM     60  C   UNL A   1      42.629  31.000  36.290  1.00  0.00     0.031 C 
ATOM     61  C   UNL A   1      42.932  29.464  34.367  1.00  0.00     0.037 A 
BRANCH  48  62
ATOM     62  C   UNL A   1      40.522  27.856  28.908  1.00  0.00     0.064 A 
ATOM     63  C   UNL A   1      39.776  26.668  28.856  1.00  0.00     0.173 A 
ATOM     64  C   UNL A   1      41.295  28.193  27.788  1.00  0.00     0.173 A 
ATOM     65  F   UNL A   1      39.028  26.294  29.905  1.00  0.00    -0.203 F 
ATOM     66  C   UNL A   1      39.827  25.837  27.739  1.00  0.00     0.198 A 
ATOM     67  C   UNL A   1      41.320  27.375  26.660  1.00  0.00     0.198 A 
ATOM     68  F   UNL A   1      42.023  29.320  27.781  1.00  0.00    -0.203 F 
ATOM     69  F   UNL A   1      39.143  24.685  27.732  1.00  0.00    -0.200 F 
ATOM     70  C   UNL A   1      40.592  26.195  26.639  1.00  0.00     0.200 A 
ATOM     71  F   UNL A   1      42.052  27.727  25.594  1.00  0.00    -0.200 F 
ATOM     72  F   UNL A   1      40.634  25.399  25.563  1.00  0.00    -0.200 F 
ENDBRANCH  48  62
BRANCH  49  73
ATOM     73  C   UNL A   1      39.594  33.880  36.822  1.00  0.00     0.064 A 
ATOM     74  C   UNL A   1      40.244  35.119  36.887  1.00  0.00     0.173 A 
ATOM     75  C   UNL A   1      38.801  33.500  37.915  1.00  0.00     0.173 A 
ATOM     76  F   UNL A   1      41.029  35.517  35.874  1.00  0.00    -0.203 F 
ATOM     77  C   UNL A   1      40.125  35.938  38.007  1.00  0.00     0.198 A 
ATOM     78  C   UNL A   1      38.659  34.332  39.023  1.00  0.00     0.198 A 
ATOM     79  F   UNL A   1      38.152  32.327  37.899  1.00  0.00    -0.203 F 
ATOM     80  F   UNL A   1      40.793  37.098  38.061  1.00  0.00    -0.200 F 
ATOM     81  C   UNL A   1      39.328  35.546  39.072  1.00  0.00     0.200 A 
ATOM     82  F   UNL A   1      37.876  33.957  40.044  1.00  0.00    -0.200 F 
ATOM     83  F   UNL A   1      39.209  36.336  40.148  1.00  0.00    -0.200 F 
ENDBRANCH  49  73
BRANCH  61  84
ATOM     84  C   UNL A   1      44.140  28.912  35.066  1.00  0.00     0.064 A 
ATOM     85  C   UNL A   1      44.046  27.821  35.942  1.00  0.00     0.173 A 
ATOM     86  C   UNL A   1      45.407  29.477  34.854  1.00  0.00     0.173 A 
ATOM     87  F   UNL A   1      42.854  27.257  36.192  1.00  0.00    -0.203 F 
ATOM     88  C   UNL A   1      45.169  27.338  36.608  1.00  0.00     0.198 A 
ATOM     89  C   UNL A   1      46.533  28.971  35.497  1.00  0.00     0.198 A 
ATOM     90  F   UNL A   1      45.553  30.518  34.020  1.00  0.00    -0.203 F 
ATOM     91  F   UNL A   1      45.044  26.333  37.486  1.00  0.00    -0.200 F 
ATOM     92  C   UNL A   1      46.412  27.911  36.382  1.00  0.00     0.200 A 
ATOM     93  F   UNL A   1      47.735  29.518  35.268  1.00  0.00    -0.200 F 
ATOM     94  F   UNL A   1      47.491  27.446  37.025  1.00  0.00    -0.200 F 
ENDBRANCH  61  84
ENDBRANCH  35  36
ENDBRANCH  27  30
ENDBRANCH  25  26
ENDBRANCH  24  25
ENDBRANCH  23  24
ENDBRANCH  22  23
ENDBRANCH   1  22
TORSDOF 17
ENDMDL
