MODEL 1
REMARK VINA RESULT:     -11.1      0.000      0.000
REMARK SMILES CCCCCCNC(=O)Oc1cccc(-c2ccc([C@@H](C)C(=O)NCCCCCCNC(=O)c3ccc(-c4c5nc(c(-c6c(F)c(F)c(F)c(F)c6F)c6ccc([nH]6)c(-c6c(F)c(F)c(F)c(F)c6F)c6nc(c(-c7c(F)c(F)c(F)c(F)c7F)c7ccc4[nH]7)C=C6)C=C5)cc3)cc2F)c1
REMARK SMILES IDX 22 1 23 2 24 3 20 5 21 6 19 7 16 8 17 9 98 10 18 11 97 12
REMARK SMILES IDX 99 13 15 14 11 15 12 16 100 17 13 18 14 19 10 20 8 21 7 22
REMARK SMILES IDX 9 24 6 25 5 26 4 27 3 28 2 29 1 30 25 31 26 32 27 33 28 34
REMARK SMILES IDX 29 35 30 36 31 37 32 38 33 40 34 41 35 42 96 43 36 44 95 45
REMARK SMILES IDX 37 46 38 47 39 48 89 49 40 50 94 51 88 52 90 53 41 54 93 55
REMARK SMILES IDX 87 56 86 57 42 59 74 60 54 61 73 62 55 63 58 64 72 65 91 66
REMARK SMILES IDX 56 67 57 68 71 70 92 71 59 72 43 73 44 74 52 75 45 76 46 77
REMARK SMILES IDX 50 78 53 79 47 80 48 81 51 82 49 83 75 84 76 85 84 86 77 87
REMARK SMILES IDX 78 88 82 89 85 90 79 91 80 92 83 93 81 94 60 95 61 96 69 97
REMARK SMILES IDX 62 98 63 99 67 100 70 101 64 102 65 103 68 104 66 105
REMARK H PARENT 24 4 7 23 31 39 90 58 58 69
REMARK Flexibility Score: inf
ROOT
ATOM      1  C   UNL A   1      34.201  23.761  23.512  1.00  0.00     0.227 C 
ATOM      2  O   UNL A   1      35.117  23.705  22.683  1.00  0.00    -0.274 OA
ATOM      3  N   UNL A   1      32.946  23.937  23.017  1.00  0.00    -0.356 N 
ATOM      4  H   UNL A   1      32.894  23.922  22.033  1.00  0.00     0.163 HD
ENDROOT
BRANCH   1   5
ATOM      5  C   UNL A   1      34.514  23.626  25.009  1.00  0.00     0.105 C 
ATOM      6  C   UNL A   1      34.080  24.826  25.851  1.00  0.00     0.023 C 
BRANCH   5   7
ATOM      7  C   UNL A   1      35.904  23.079  25.292  1.00  0.00    -0.033 A 
ATOM      8  C   UNL A   1      38.506  22.118  26.011  1.00  0.00     0.018 A 
ATOM      9  C   UNL A   1      37.513  21.259  25.513  1.00  0.00     0.012 A 
ATOM     10  C   UNL A   1      38.170  23.477  26.094  1.00  0.00     0.131 A 
ATOM     11  C   UNL A   1      36.250  21.733  25.132  1.00  0.00     0.005 A 
ATOM     12  C   UNL A   1      36.896  23.948  25.765  1.00  0.00     0.044 A 
ATOM     13  F   UNL A   1      39.075  24.382  26.498  1.00  0.00    -0.206 F 
BRANCH   8  14
ATOM     14  C   UNL A   1      39.822  21.593  26.442  1.00  0.00    -0.012 A 
ATOM     15  C   UNL A   1      41.784  20.202  26.055  1.00  0.00     0.133 A 
ATOM     16  C   UNL A   1      42.358  20.615  27.253  1.00  0.00     0.047 A 
ATOM     17  C   UNL A   1      40.535  20.676  25.650  1.00  0.00     0.056 A 
ATOM     18  C   UNL A   1      41.676  21.528  28.049  1.00  0.00     0.004 A 
ATOM     19  C   UNL A   1      40.421  22.003  27.650  1.00  0.00     0.009 A 
BRANCH  15  20
ATOM     20  O   UNL A   1      42.446  19.189  25.345  1.00  0.00    -0.410 OA
BRANCH  20  21
ATOM     21  C   UNL A   1      43.457  18.487  25.985  1.00  0.00     0.412 C 
ATOM     22  N   UNL A   1      44.700  18.776  25.491  1.00  0.00    -0.321 N 
ATOM     23  H   UNL A   1      45.458  18.293  25.891  1.00  0.00     0.167 HD
ATOM     24  O   UNL A   1      43.311  17.676  26.891  1.00  0.00    -0.224 OA
BRANCH  22  25
ATOM     25  C   UNL A   1      45.014  19.722  24.439  1.00  0.00     0.119 C 
BRANCH  25  26
ATOM     26  C   UNL A   1      46.282  20.519  24.743  1.00  0.00     0.021 C 
BRANCH  26  27
ATOM     27  C   UNL A   1      46.062  22.020  24.967  1.00  0.00     0.002 C 
BRANCH  27  28
ATOM     28  C   UNL A   1      45.302  22.394  26.244  1.00  0.00    -0.000 C 
BRANCH  28  29
ATOM     29  C   UNL A   1      45.958  23.475  27.106  1.00  0.00    -0.003 C 
ATOM     30  C   UNL A   1      45.203  23.754  28.398  1.00  0.00     0.004 C 
ENDBRANCH  28  29
ENDBRANCH  27  28
ENDBRANCH  26  27
ENDBRANCH  25  26
ENDBRANCH  22  25
ENDBRANCH  20  21
ENDBRANCH  15  20
ENDBRANCH   8  14
ENDBRANCH   5   7
ENDBRANCH   1   5
BRANCH   3  31
ATOM     31  C   UNL A   1      31.675  24.139  23.675  1.00  0.00     0.116 C 
BRANCH  31  32
ATOM     32  C   UNL A   1      31.059  25.493  23.316  1.00  0.00     0.021 C 
BRANCH  32  33
ATOM     33  C   UNL A   1      32.069  26.645  23.283  1.00  0.00     0.002 C 
BRANCH  33  34
ATOM     34  C   UNL A   1      31.692  27.868  24.129  1.00  0.00     0.002 C 
BRANCH  34  35
ATOM     35  C   UNL A   1      32.417  27.990  25.473  1.00  0.00     0.021 C 
BRANCH  35  36
ATOM     36  C   UNL A   1      33.506  29.058  25.516  1.00  0.00     0.116 C 
BRANCH  36  37
ATOM     37  N   UNL A   1      32.966  30.371  25.832  1.00  0.00    -0.352 N 
ATOM     38  C   UNL A   1      33.303  31.238  26.840  1.00  0.00     0.251 C 
ATOM     39  H   UNL A   1      32.251  30.684  25.234  1.00  0.00     0.163 HD
ATOM     40  O   UNL A   1      32.586  32.203  27.089  1.00  0.00    -0.269 OA
BRANCH  38  41
ATOM     41  C   UNL A   1      34.526  31.012  27.639  1.00  0.00     0.039 A 
ATOM     42  C   UNL A   1      34.763  29.741  28.169  1.00  0.00     0.014 A 
ATOM     43  C   UNL A   1      35.415  32.059  27.902  1.00  0.00     0.014 A 
ATOM     44  C   UNL A   1      35.917  29.506  28.920  1.00  0.00     0.010 A 
ATOM     45  C   UNL A   1      36.597  31.808  28.592  1.00  0.00     0.010 A 
ATOM     46  C   UNL A   1      36.855  30.532  29.116  1.00  0.00    -0.014 A 
BRANCH  46  47
ATOM     47  C   UNL A   1      38.103  30.295  29.884  1.00  0.00     0.031 A 
ATOM     48  C   UNL A   1      39.222  29.498  29.276  1.00  0.00     0.074 A 
ATOM     49  C   UNL A   1      38.205  30.749  31.146  1.00  0.00     0.049 A 
ATOM     50  N   UNL A   1      40.363  29.133  29.804  1.00  0.00    -0.248 NA
ATOM     51  C   UNL A   1      39.019  29.025  27.898  1.00  0.00     0.031 C 
ATOM     52  C   UNL A   1      37.175  31.506  31.859  1.00  0.00     0.029 A 
ATOM     53  N   UNL A   1      39.226  30.637  32.058  1.00  0.00    -0.354 N 
ATOM     54  C   UNL A   1      41.007  28.381  28.829  1.00  0.00     0.074 A 
ATOM     55  C   UNL A   1      40.105  28.293  27.700  1.00  0.00     0.031 C 
ATOM     56  C   UNL A   1      37.628  31.817  33.084  1.00  0.00     0.029 A 
ATOM     57  C   UNL A   1      38.962  31.250  33.257  1.00  0.00     0.049 A 
ATOM     58  H   UNL A   1      40.067  30.162  31.869  1.00  0.00     0.167 HD
ATOM     59  C   UNL A   1      42.246  27.835  28.861  1.00  0.00     0.037 A 
ATOM     60  C   UNL A   1      39.714  31.345  34.370  1.00  0.00     0.037 A 
ATOM     61  C   UNL A   1      43.147  27.941  29.980  1.00  0.00     0.049 A 
ATOM     62  C   UNL A   1      41.077  30.710  34.390  1.00  0.00     0.074 A 
ATOM     63  C   UNL A   1      44.440  27.463  30.097  1.00  0.00     0.029 A 
ATOM     64  N   UNL A   1      42.843  28.569  31.179  1.00  0.00    -0.354 N 
ATOM     65  N   UNL A   1      41.699  30.049  33.444  1.00  0.00    -0.248 NA
ATOM     66  C   UNL A   1      41.844  30.837  35.638  1.00  0.00     0.031 C 
ATOM     67  C   UNL A   1      44.904  27.766  31.382  1.00  0.00     0.029 A 
ATOM     68  C   UNL A   1      43.917  28.474  32.050  1.00  0.00     0.049 A 
ATOM     69  H   UNL A   1      41.990  29.015  31.383  1.00  0.00     0.167 HD
ATOM     70  C   UNL A   1      42.940  29.712  33.965  1.00  0.00     0.074 A 
ATOM     71  C   UNL A   1      42.986  30.247  35.311  1.00  0.00     0.031 C 
ATOM     72  C   UNL A   1      43.950  29.021  33.383  1.00  0.00     0.037 A 
BRANCH  59  73
ATOM     73  C   UNL A   1      42.695  27.075  27.646  1.00  0.00     0.064 A 
ATOM     74  C   UNL A   1      42.218  25.784  27.370  1.00  0.00     0.173 A 
ATOM     75  C   UNL A   1      43.607  27.643  26.744  1.00  0.00     0.173 A 
ATOM     76  F   UNL A   1      41.355  25.190  28.206  1.00  0.00    -0.203 F 
ATOM     77  C   UNL A   1      42.669  25.075  26.260  1.00  0.00     0.198 A 
ATOM     78  C   UNL A   1      44.031  26.944  25.617  1.00  0.00     0.198 A 
ATOM     79  F   UNL A   1      44.089  28.877  26.956  1.00  0.00    -0.203 F 
ATOM     80  F   UNL A   1      42.247  23.820  26.051  1.00  0.00    -0.200 F 
ATOM     81  C   UNL A   1      43.570  25.658  25.382  1.00  0.00     0.200 A 
ATOM     82  F   UNL A   1      44.893  27.513  24.763  1.00  0.00    -0.200 F 
ATOM     83  F   UNL A   1      44.005  24.973  24.313  1.00  0.00    -0.200 F 
ENDBRANCH  59  73
BRANCH  60  84
ATOM     84  C   UNL A   1      39.212  32.110  35.540  1.00  0.00     0.064 A 
ATOM     85  C   UNL A   1      38.418  31.487  36.512  1.00  0.00     0.173 A 
ATOM     86  C   UNL A   1      39.517  33.467  35.716  1.00  0.00     0.173 A 
ATOM     87  F   UNL A   1      38.084  30.195  36.374  1.00  0.00    -0.203 F 
ATOM     88  C   UNL A   1      37.934  32.195  37.609  1.00  0.00     0.198 A 
ATOM     89  C   UNL A   1      39.054  34.168  36.828  1.00  0.00     0.198 A 
ATOM     90  F   UNL A   1      40.277  34.108  34.816  1.00  0.00    -0.203 F 
ATOM     91  F   UNL A   1      37.146  31.584  38.504  1.00  0.00    -0.200 F 
ATOM     92  C   UNL A   1      38.257  33.534  37.769  1.00  0.00     0.200 A 
ATOM     93  F   UNL A   1      39.379  35.458  36.986  1.00  0.00    -0.200 F 
ATOM     94  F   UNL A   1      37.798  34.214  38.828  1.00  0.00    -0.200 F 
ENDBRANCH  60  84
BRANCH  72  95
ATOM     95  C   UNL A   1      45.209  28.842  34.181  1.00  0.00     0.064 A 
ATOM     96  C   UNL A   1      45.407  27.721  35.000  1.00  0.00     0.173 A 
ATOM     97  C   UNL A   1      46.240  29.790  34.100  1.00  0.00     0.173 A 
ATOM     98  F   UNL A   1      44.444  26.796  35.124  1.00  0.00    -0.203 F 
ATOM     99  C   UNL A   1      46.584  27.568  35.728  1.00  0.00     0.198 A 
ATOM    100  C   UNL A   1      47.427  29.619  34.807  1.00  0.00     0.198 A 
ATOM    101  F   UNL A   1      46.100  30.877  33.327  1.00  0.00    -0.203 F 
ATOM    102  F   UNL A   1      46.734  26.514  36.541  1.00  0.00    -0.200 F 
ATOM    103  C   UNL A   1      47.595  28.513  35.627  1.00  0.00     0.200 A 
ATOM    104  F   UNL A   1      48.406  30.527  34.698  1.00  0.00    -0.200 F 
ATOM    105  F   UNL A   1      48.729  28.360  36.324  1.00  0.00    -0.200 F 
ENDBRANCH  72  95
ENDBRANCH  46  47
ENDBRANCH  38  41
ENDBRANCH  36  37
ENDBRANCH  35  36
ENDBRANCH  34  35
ENDBRANCH  33  34
ENDBRANCH  32  33
ENDBRANCH  31  32
ENDBRANCH   3  31
TORSDOF 22
ENDMDL
MODEL 2
REMARK VINA RESULT:     -10.1      5.089      9.700
REMARK SMILES CCCCCCNC(=O)Oc1cccc(-c2ccc([C@@H](C)C(=O)NCCCCCCNC(=O)c3ccc(-c4c5nc(c(-c6c(F)c(F)c(F)c(F)c6F)c6ccc([nH]6)c(-c6c(F)c(F)c(F)c(F)c6F)c6nc(c(-c7c(F)c(F)c(F)c(F)c7F)c7ccc4[nH]7)C=C6)C=C5)cc3)cc2F)c1
REMARK SMILES IDX 22 1 23 2 24 3 20 5 21 6 19 7 16 8 17 9 98 10 18 11 97 12
REMARK SMILES IDX 99 13 15 14 11 15 12 16 100 17 13 18 14 19 10 20 8 21 7 22
REMARK SMILES IDX 9 24 6 25 5 26 4 27 3 28 2 29 1 30 25 31 26 32 27 33 28 34
REMARK SMILES IDX 29 35 30 36 31 37 32 38 33 40 34 41 35 42 96 43 36 44 95 45
REMARK SMILES IDX 37 46 38 47 39 48 89 49 40 50 94 51 88 52 90 53 41 54 93 55
REMARK SMILES IDX 87 56 86 57 42 59 74 60 54 61 73 62 55 63 58 64 72 65 91 66
REMARK SMILES IDX 56 67 57 68 71 70 92 71 59 72 43 73 44 74 52 75 45 76 46 77
REMARK SMILES IDX 50 78 53 79 47 80 48 81 51 82 49 83 75 84 76 85 84 86 77 87
REMARK SMILES IDX 78 88 82 89 85 90 79 91 80 92 83 93 81 94 60 95 61 96 69 97
REMARK SMILES IDX 62 98 63 99 67 100 70 101 64 102 65 103 68 104 66 105
REMARK H PARENT 24 4 7 23 31 39 90 58 58 69
REMARK Flexibility Score: inf
ROOT
ATOM      1  C   UNL A   1      43.230  20.384  25.433  1.00  0.00     0.227 C 
ATOM      2  O   UNL A   1      43.449  19.475  24.623  1.00  0.00    -0.274 OA
ATOM      3  N   UNL A   1      43.869  21.563  25.206  1.00  0.00    -0.356 N 
ATOM      4  H   UNL A   1      44.384  21.589  24.367  1.00  0.00     0.163 HD
ENDROOT
BRANCH   1   5
ATOM      5  C   UNL A   1      42.271  20.148  26.608  1.00  0.00     0.105 C 
ATOM      6  C   UNL A   1      42.484  18.819  27.333  1.00  0.00     0.023 C 
BRANCH   5   7
ATOM      7  C   UNL A   1      40.829  20.518  26.300  1.00  0.00    -0.033 A 
ATOM      8  C   UNL A   1      38.181  21.364  25.602  1.00  0.00     0.018 A 
ATOM      9  C   UNL A   1      38.621  20.049  25.377  1.00  0.00     0.012 A 
ATOM     10  C   UNL A   1      39.094  22.226  26.228  1.00  0.00     0.131 A 
ATOM     11  C   UNL A   1      39.905  19.627  25.746  1.00  0.00     0.005 A 
ATOM     12  C   UNL A   1      40.393  21.826  26.551  1.00  0.00     0.044 A 
ATOM     13  F   UNL A   1      38.741  23.483  26.542  1.00  0.00    -0.206 F 
BRANCH   8  14
ATOM     14  C   UNL A   1      36.834  21.802  25.174  1.00  0.00    -0.012 A 
ATOM     15  C   UNL A   1      34.434  21.971  25.556  1.00  0.00     0.133 A 
ATOM     16  C   UNL A   1      34.256  22.670  24.368  1.00  0.00     0.047 A 
ATOM     17  C   UNL A   1      35.698  21.536  25.959  1.00  0.00     0.056 A 
ATOM     18  C   UNL A   1      35.365  22.951  23.578  1.00  0.00     0.004 A 
ATOM     19  C   UNL A   1      36.635  22.515  23.975  1.00  0.00     0.009 A 
BRANCH  15  20
ATOM     20  O   UNL A   1      33.277  21.600  26.259  1.00  0.00    -0.410 OA
BRANCH  20  21
ATOM     21  C   UNL A   1      32.172  21.178  25.534  1.00  0.00     0.412 C 
ATOM     22  N   UNL A   1      31.043  21.896  25.819  1.00  0.00    -0.321 N 
ATOM     23  H   UNL A   1      30.219  21.629  25.351  1.00  0.00     0.167 HD
ATOM     24  O   UNL A   1      32.148  20.260  24.723  1.00  0.00    -0.224 OA
BRANCH  22  25
ATOM     25  C   UNL A   1      30.936  23.010  26.740  1.00  0.00     0.119 C 
BRANCH  25  26
ATOM     26  C   UNL A   1      30.575  24.312  26.025  1.00  0.00     0.021 C 
BRANCH  26  27
ATOM     27  C   UNL A   1      31.521  25.486  26.307  1.00  0.00     0.002 C 
BRANCH  27  28
ATOM     28  C   UNL A   1      32.467  25.862  25.161  1.00  0.00    -0.000 C 
BRANCH  28  29
ATOM     29  C   UNL A   1      33.863  26.323  25.586  1.00  0.00    -0.003 C 
ATOM     30  C   UNL A   1      33.928  27.803  25.934  1.00  0.00     0.004 C 
ENDBRANCH  28  29
ENDBRANCH  27  28
ENDBRANCH  26  27
ENDBRANCH  25  26
ENDBRANCH  22  25
ENDBRANCH  20  21
ENDBRANCH  15  20
ENDBRANCH   8  14
ENDBRANCH   5   7
ENDBRANCH   1   5
BRANCH   3  31
ATOM     31  C   UNL A   1      43.926  22.787  25.975  1.00  0.00     0.116 C 
BRANCH  31  32
ATOM     32  C   UNL A   1      44.500  23.945  25.157  1.00  0.00     0.021 C 
BRANCH  32  33
ATOM     33  C   UNL A   1      44.368  25.311  25.836  1.00  0.00     0.002 C 
BRANCH  33  34
ATOM     34  C   UNL A   1      43.603  26.370  25.029  1.00  0.00     0.002 C 
BRANCH  34  35
ATOM     35  C   UNL A   1      42.277  26.835  25.641  1.00  0.00     0.021 C 
BRANCH  35  36
ATOM     36  C   UNL A   1      41.218  25.744  25.770  1.00  0.00     0.116 C 
BRANCH  36  37
ATOM     37  N   UNL A   1      40.214  26.079  26.768  1.00  0.00    -0.352 N 
ATOM     38  C   UNL A   1      40.309  26.097  28.136  1.00  0.00     0.251 C 
ATOM     39  H   UNL A   1      39.334  26.331  26.407  1.00  0.00     0.163 HD
ATOM     40  O   UNL A   1      39.297  26.187  28.824  1.00  0.00    -0.269 OA
BRANCH  38  41
ATOM     41  C   UNL A   1      41.630  26.000  28.792  1.00  0.00     0.039 A 
ATOM     42  C   UNL A   1      42.295  24.771  28.796  1.00  0.00     0.014 A 
ATOM     43  C   UNL A   1      42.194  27.105  29.437  1.00  0.00     0.014 A 
ATOM     44  C   UNL A   1      43.548  24.661  29.404  1.00  0.00     0.010 A 
ATOM     45  C   UNL A   1      43.471  27.013  29.983  1.00  0.00     0.010 A 
ATOM     46  C   UNL A   1      44.156  25.788  29.981  1.00  0.00    -0.014 A 
BRANCH  46  47
ATOM     47  C   UNL A   1      45.501  25.701  30.603  1.00  0.00     0.031 A 
ATOM     48  C   UNL A   1      46.723  26.074  29.813  1.00  0.00     0.074 A 
ATOM     49  C   UNL A   1      45.625  25.233  31.859  1.00  0.00     0.049 A 
ATOM     50  N   UNL A   1      47.985  26.010  30.157  1.00  0.00    -0.248 NA
ATOM     51  C   UNL A   1      46.497  26.559  28.443  1.00  0.00     0.031 C 
ATOM     52  C   UNL A   1      44.517  24.807  32.716  1.00  0.00     0.029 A 
ATOM     53  N   UNL A   1      46.740  25.033  32.633  1.00  0.00    -0.354 N 
ATOM     54  C   UNL A   1      48.701  26.435  29.045  1.00  0.00     0.074 A 
ATOM     55  C   UNL A   1      47.737  26.698  27.998  1.00  0.00     0.031 C 
ATOM     56  C   UNL A   1      45.005  24.427  33.907  1.00  0.00     0.029 A 
ATOM     57  C   UNL A   1      46.460  24.545  33.885  1.00  0.00     0.049 A 
ATOM     58  H   UNL A   1      47.654  25.222  32.320  1.00  0.00     0.167 HD
ATOM     59  C   UNL A   1      50.037  26.615  28.916  1.00  0.00     0.037 A 
ATOM     60  C   UNL A   1      47.286  24.231  34.901  1.00  0.00     0.037 A 
ATOM     61  C   UNL A   1      50.991  26.370  29.967  1.00  0.00     0.049 A 
ATOM     62  C   UNL A   1      48.769  24.415  34.726  1.00  0.00     0.074 A 
ATOM     63  C   UNL A   1      52.361  26.562  29.954  1.00  0.00     0.029 A 
ATOM     64  N   UNL A   1      50.670  25.873  31.222  1.00  0.00    -0.354 N 
ATOM     65  N   UNL A   1      49.431  24.871  33.690  1.00  0.00    -0.248 NA
ATOM     66  C   UNL A   1      49.618  24.042  35.866  1.00  0.00     0.031 C 
ATOM     67  C   UNL A   1      52.874  26.144  31.187  1.00  0.00     0.029 A 
ATOM     68  C   UNL A   1      51.817  25.734  31.985  1.00  0.00     0.049 A 
ATOM     69  H   UNL A   1      49.760  25.651  31.526  1.00  0.00     0.167 HD
ATOM     70  C   UNL A   1      50.768  24.873  34.063  1.00  0.00     0.074 A 
ATOM     71  C   UNL A   1      50.822  24.379  35.423  1.00  0.00     0.031 C 
ATOM     72  C   UNL A   1      51.852  25.250  33.342  1.00  0.00     0.037 A 
BRANCH  59  73
ATOM     73  C   UNL A   1      50.541  27.101  27.588  1.00  0.00     0.064 A 
ATOM     74  C   UNL A   1      50.622  28.470  27.289  1.00  0.00     0.173 A 
ATOM     75  C   UNL A   1      50.953  26.191  26.603  1.00  0.00     0.173 A 
ATOM     76  F   UNL A   1      50.229  29.383  28.191  1.00  0.00    -0.203 F 
ATOM     77  C   UNL A   1      51.057  28.908  26.041  1.00  0.00     0.198 A 
ATOM     78  C   UNL A   1      51.418  26.633  25.367  1.00  0.00     0.198 A 
ATOM     79  F   UNL A   1      50.903  24.871  26.837  1.00  0.00    -0.203 F 
ATOM     80  F   UNL A   1      51.067  30.218  25.758  1.00  0.00    -0.200 F 
ATOM     81  C   UNL A   1      51.460  27.990  25.084  1.00  0.00     0.200 A 
ATOM     82  F   UNL A   1      51.818  25.745  24.447  1.00  0.00    -0.200 F 
ATOM     83  F   UNL A   1      51.877  28.413  23.881  1.00  0.00    -0.200 F 
ENDBRANCH  59  73
BRANCH  60  84
ATOM     84  C   UNL A   1      46.725  23.752  36.191  1.00  0.00     0.064 A 
ATOM     85  C   UNL A   1      46.604  22.381  36.450  1.00  0.00     0.173 A 
ATOM     86  C   UNL A   1      46.308  24.646  37.187  1.00  0.00     0.173 A 
ATOM     87  F   UNL A   1      46.972  21.489  35.518  1.00  0.00    -0.203 F 
ATOM     88  C   UNL A   1      46.072  21.919  37.652  1.00  0.00     0.198 A 
ATOM     89  C   UNL A   1      45.800  24.183  38.400  1.00  0.00     0.198 A 
ATOM     90  F   UNL A   1      46.408  25.969  36.989  1.00  0.00    -0.203 F 
ATOM     91  F   UNL A   1      45.932  20.603  37.859  1.00  0.00    -0.200 F 
ATOM     92  C   UNL A   1      45.676  22.821  38.628  1.00  0.00     0.200 A 
ATOM     93  F   UNL A   1      45.430  25.057  39.345  1.00  0.00    -0.200 F 
ATOM     94  F   UNL A   1      45.170  22.378  39.787  1.00  0.00    -0.200 F 
ENDBRANCH  60  84
BRANCH  72  95
ATOM     95  C   UNL A   1      53.187  25.184  34.027  1.00  0.00     0.064 A 
ATOM     96  C   UNL A   1      54.024  24.065  33.903  1.00  0.00     0.173 A 
ATOM     97  C   UNL A   1      53.646  26.268  34.791  1.00  0.00     0.173 A 
ATOM     98  F   UNL A   1      53.622  22.996  33.199  1.00  0.00    -0.203 F 
ATOM     99  C   UNL A   1      55.261  24.025  34.540  1.00  0.00     0.198 A 
ATOM    100  C   UNL A   1      54.896  26.236  35.401  1.00  0.00     0.198 A 
ATOM    101  F   UNL A   1      52.885  27.364  34.935  1.00  0.00    -0.203 F 
ATOM    102  F   UNL A   1      56.024  22.927  34.448  1.00  0.00    -0.200 F 
ATOM    103  C   UNL A   1      55.699  25.111  35.283  1.00  0.00     0.200 A 
ATOM    104  F   UNL A   1      55.322  27.291  36.108  1.00  0.00    -0.200 F 
ATOM    105  F   UNL A   1      56.893  25.072  35.890  1.00  0.00    -0.200 F 
ENDBRANCH  72  95
ENDBRANCH  46  47
ENDBRANCH  38  41
ENDBRANCH  36  37
ENDBRANCH  35  36
ENDBRANCH  34  35
ENDBRANCH  33  34
ENDBRANCH  32  33
ENDBRANCH  31  32
ENDBRANCH   3  31
TORSDOF 22
ENDMDL
MODEL 3
REMARK VINA RESULT:     -10.1      2.855      9.189
REMARK SMILES CCCCCCNC(=O)Oc1cccc(-c2ccc([C@@H](C)C(=O)NCCCCCCNC(=O)c3ccc(-c4c5nc(c(-c6c(F)c(F)c(F)c(F)c6F)c6ccc([nH]6)c(-c6c(F)c(F)c(F)c(F)c6F)c6nc(c(-c7c(F)c(F)c(F)c(F)c7F)c7ccc4[nH]7)C=C6)C=C5)cc3)cc2F)c1
REMARK SMILES IDX 22 1 23 2 24 3 20 5 21 6 19 7 16 8 17 9 98 10 18 11 97 12
REMARK SMILES IDX 99 13 15 14 11 15 12 16 100 17 13 18 14 19 10 20 8 21 7 22
REMARK SMILES IDX 9 24 6 25 5 26 4 27 3 28 2 29 1 30 25 31 26 32 27 33 28 34
REMARK SMILES IDX 29 35 30 36 31 37 32 38 33 40 34 41 35 42 96 43 36 44 95 45
REMARK SMILES IDX 37 46 38 47 39 48 89 49 40 50 94 51 88 52 90 53 41 54 93 55
REMARK SMILES IDX 87 56 86 57 42 59 74 60 54 61 73 62 55 63 58 64 72 65 91 66
REMARK SMILES IDX 56 67 57 68 71 70 92 71 59 72 43 73 44 74 52 75 45 76 46 77
REMARK SMILES IDX 50 78 53 79 47 80 48 81 51 82 49 83 75 84 76 85 84 86 77 87
REMARK SMILES IDX 78 88 82 89 85 90 79 91 80 92 83 93 81 94 60 95 61 96 69 97
REMARK SMILES IDX 62 98 63 99 67 100 70 101 64 102 65 103 68 104 66 105
REMARK H PARENT 24 4 7 23 31 39 90 58 58 69
REMARK Flexibility Score: inf
ROOT
ATOM      1  C   UNL A   1      41.937  23.785  27.325  1.00  0.00     0.227 C 
ATOM      2  O   UNL A   1      41.830  24.911  27.826  1.00  0.00    -0.274 OA
ATOM      3  N   UNL A   1      42.996  23.592  26.492  1.00  0.00    -0.356 N 
ATOM      4  H   UNL A   1      43.613  24.358  26.438  1.00  0.00     0.163 HD
ENDROOT
BRANCH   1   5
ATOM      5  C   UNL A   1      40.911  22.695  27.664  1.00  0.00     0.105 C 
ATOM      6  C   UNL A   1      41.500  21.289  27.764  1.00  0.00     0.023 C 
BRANCH   5   7
ATOM      7  C   UNL A   1      39.611  22.822  26.885  1.00  0.00    -0.033 A 
ATOM      8  C   UNL A   1      37.095  22.900  25.516  1.00  0.00     0.018 A 
ATOM      9  C   UNL A   1      37.571  23.998  26.250  1.00  0.00     0.012 A 
ATOM     10  C   UNL A   1      37.939  21.780  25.453  1.00  0.00     0.131 A 
ATOM     11  C   UNL A   1      38.815  23.972  26.895  1.00  0.00     0.005 A 
ATOM     12  C   UNL A   1      39.157  21.729  26.135  1.00  0.00     0.044 A 
ATOM     13  F   UNL A   1      37.597  20.708  24.721  1.00  0.00    -0.206 F 
BRANCH   8  14
ATOM     14  C   UNL A   1      35.762  22.932  24.872  1.00  0.00    -0.012 A 
ATOM     15  C   UNL A   1      33.331  22.880  25.016  1.00  0.00     0.133 A 
ATOM     16  C   UNL A   1      33.209  23.028  23.639  1.00  0.00     0.047 A 
ATOM     17  C   UNL A   1      34.583  22.828  25.631  1.00  0.00     0.056 A 
ATOM     18  C   UNL A   1      34.361  23.140  22.868  1.00  0.00     0.004 A 
ATOM     19  C   UNL A   1      35.620  23.085  23.478  1.00  0.00     0.009 A 
BRANCH  15  20
ATOM     20  O   UNL A   1      32.152  22.645  25.740  1.00  0.00    -0.410 OA
BRANCH  20  21
ATOM     21  C   UNL A   1      32.045  23.180  27.016  1.00  0.00     0.412 C 
ATOM     22  N   UNL A   1      31.543  24.453  27.019  1.00  0.00    -0.321 N 
ATOM     23  H   UNL A   1      31.463  24.894  27.894  1.00  0.00     0.167 HD
ATOM     24  O   UNL A   1      32.362  22.624  28.060  1.00  0.00    -0.224 OA
BRANCH  22  25
ATOM     25  C   UNL A   1      31.117  25.216  25.863  1.00  0.00     0.119 C 
BRANCH  25  26
ATOM     26  C   UNL A   1      31.839  26.560  25.766  1.00  0.00     0.021 C 
BRANCH  26  27
ATOM     27  C   UNL A   1      33.362  26.464  25.610  1.00  0.00     0.002 C 
BRANCH  27  28
ATOM     28  C   UNL A   1      33.902  26.760  24.206  1.00  0.00    -0.000 C 
BRANCH  28  29
ATOM     29  C   UNL A   1      32.843  27.082  23.149  1.00  0.00    -0.003 C 
ATOM     30  C   UNL A   1      33.112  26.418  21.806  1.00  0.00     0.004 C 
ENDBRANCH  28  29
ENDBRANCH  27  28
ENDBRANCH  26  27
ENDBRANCH  25  26
ENDBRANCH  22  25
ENDBRANCH  20  21
ENDBRANCH  15  20
ENDBRANCH   8  14
ENDBRANCH   5   7
ENDBRANCH   1   5
BRANCH   3  31
ATOM     31  C   UNL A   1      43.378  22.464  25.672  1.00  0.00     0.116 C 
BRANCH  31  32
ATOM     32  C   UNL A   1      43.668  22.883  24.230  1.00  0.00     0.021 C 
BRANCH  32  33
ATOM     33  C   UNL A   1      45.160  23.013  23.909  1.00  0.00     0.002 C 
BRANCH  33  34
ATOM     34  C   UNL A   1      46.101  22.871  25.114  1.00  0.00     0.002 C 
BRANCH  34  35
ATOM     35  C   UNL A   1      46.795  24.161  25.565  1.00  0.00     0.021 C 
BRANCH  35  36
ATOM     36  C   UNL A   1      45.871  25.368  25.700  1.00  0.00     0.116 C 
BRANCH  36  37
ATOM     37  N   UNL A   1      46.399  26.534  25.010  1.00  0.00    -0.352 N 
ATOM     38  C   UNL A   1      46.143  27.866  25.216  1.00  0.00     0.251 C 
ATOM     39  H   UNL A   1      47.036  26.339  24.286  1.00  0.00     0.163 HD
ATOM     40  O   UNL A   1      46.507  28.699  24.391  1.00  0.00    -0.269 OA
BRANCH  38  41
ATOM     41  C   UNL A   1      45.421  28.307  26.428  1.00  0.00     0.039 A 
ATOM     42  C   UNL A   1      45.381  29.670  26.734  1.00  0.00     0.014 A 
ATOM     43  C   UNL A   1      44.821  27.378  27.284  1.00  0.00     0.014 A 
ATOM     44  C   UNL A   1      44.696  30.107  27.870  1.00  0.00     0.010 A 
ATOM     45  C   UNL A   1      44.083  27.818  28.378  1.00  0.00     0.010 A 
ATOM     46  C   UNL A   1      44.022  29.186  28.688  1.00  0.00    -0.014 A 
BRANCH  46  47
ATOM     47  C   UNL A   1      43.262  29.632  29.882  1.00  0.00     0.031 A 
ATOM     48  C   UNL A   1      41.802  29.968  29.765  1.00  0.00     0.074 A 
ATOM     49  C   UNL A   1      43.899  29.788  31.058  1.00  0.00     0.049 A 
ATOM     50  N   UNL A   1      40.981  30.429  30.675  1.00  0.00    -0.248 NA
ATOM     51  C   UNL A   1      41.190  29.785  28.440  1.00  0.00     0.031 C 
ATOM     52  C   UNL A   1      45.320  29.527  31.290  1.00  0.00     0.029 A 
ATOM     53  N   UNL A   1      43.434  30.208  32.278  1.00  0.00    -0.354 N 
ATOM     54  C   UNL A   1      39.762  30.602  30.031  1.00  0.00     0.074 A 
ATOM     55  C   UNL A   1      39.966  30.251  28.641  1.00  0.00     0.031 C 
ATOM     56  C   UNL A   1      45.604  29.762  32.581  1.00  0.00     0.029 A 
ATOM     57  C   UNL A   1      44.396  30.226  33.257  1.00  0.00     0.049 A 
ATOM     58  H   UNL A   1      42.498  30.471  32.437  1.00  0.00     0.167 HD
ATOM     59  C   UNL A   1      38.576  30.992  30.554  1.00  0.00     0.037 A 
ATOM     60  C   UNL A   1      44.311  30.577  34.554  1.00  0.00     0.037 A 
ATOM     61  C   UNL A   1      38.373  31.322  31.941  1.00  0.00     0.049 A 
ATOM     62  C   UNL A   1      42.988  31.030  35.107  1.00  0.00     0.074 A 
ATOM     63  C   UNL A   1      37.202  31.685  32.581  1.00  0.00     0.029 A 
ATOM     64  N   UNL A   1      39.373  31.331  32.902  1.00  0.00    -0.354 N 
ATOM     65  N   UNL A   1      41.829  31.136  34.503  1.00  0.00    -0.248 NA
ATOM     66  C   UNL A   1      42.962  31.412  36.526  1.00  0.00     0.031 C 
ATOM     67  C   UNL A   1      37.501  31.953  33.922  1.00  0.00     0.029 A 
ATOM     68  C   UNL A   1      38.850  31.712  34.127  1.00  0.00     0.049 A 
ATOM     69  H   UNL A   1      40.316  31.101  32.739  1.00  0.00     0.167 HD
ATOM     70  C   UNL A   1      40.931  31.561  35.471  1.00  0.00     0.074 A 
ATOM     71  C   UNL A   1      41.678  31.688  36.706  1.00  0.00     0.031 C 
ATOM     72  C   UNL A   1      39.607  31.823  35.349  1.00  0.00     0.037 A 
BRANCH  59  73
ATOM     73  C   UNL A   1      37.406  31.080  29.616  1.00  0.00     0.064 A 
ATOM     74  C   UNL A   1      36.616  29.959  29.318  1.00  0.00     0.173 A 
ATOM     75  C   UNL A   1      37.065  32.300  29.012  1.00  0.00     0.173 A 
ATOM     76  F   UNL A   1      36.906  28.766  29.859  1.00  0.00    -0.203 F 
ATOM     77  C   UNL A   1      35.557  30.046  28.419  1.00  0.00     0.198 A 
ATOM     78  C   UNL A   1      35.984  32.391  28.138  1.00  0.00     0.198 A 
ATOM     79  F   UNL A   1      37.781  33.405  29.267  1.00  0.00    -0.203 F 
ATOM     80  F   UNL A   1      34.856  28.948  28.103  1.00  0.00    -0.200 F 
ATOM     81  C   UNL A   1      35.239  31.262  27.835  1.00  0.00     0.200 A 
ATOM     82  F   UNL A   1      35.670  33.569  27.583  1.00  0.00    -0.200 F 
ATOM     83  F   UNL A   1      34.218  31.344  26.968  1.00  0.00    -0.200 F 
ENDBRANCH  59  73
BRANCH  60  84
ATOM     84  C   UNL A   1      45.506  30.468  35.430  1.00  0.00     0.064 A 
ATOM     85  C   UNL A   1      45.863  29.238  35.999  1.00  0.00     0.173 A 
ATOM     86  C   UNL A   1      46.313  31.579  35.713  1.00  0.00     0.173 A 
ATOM     87  F   UNL A   1      45.108  28.153  35.773  1.00  0.00    -0.203 F 
ATOM     88  C   UNL A   1      46.976  29.125  36.829  1.00  0.00     0.198 A 
ATOM     89  C   UNL A   1      47.441  31.459  36.523  1.00  0.00     0.198 A 
ATOM     90  F   UNL A   1      46.016  32.777  35.189  1.00  0.00    -0.203 F 
ATOM     91  F   UNL A   1      47.273  27.945  37.390  1.00  0.00    -0.200 F 
ATOM     92  C   UNL A   1      47.767  30.234  37.086  1.00  0.00     0.200 A 
ATOM     93  F   UNL A   1      48.211  32.530  36.758  1.00  0.00    -0.200 F 
ATOM     94  F   UNL A   1      48.841  30.124  37.879  1.00  0.00    -0.200 F 
ENDBRANCH  60  84
BRANCH  72  95
ATOM     95  C   UNL A   1      38.871  32.231  36.593  1.00  0.00     0.064 A 
ATOM     96  C   UNL A   1      38.044  31.335  37.287  1.00  0.00     0.173 A 
ATOM     97  C   UNL A   1      39.020  33.527  37.111  1.00  0.00     0.173 A 
ATOM     98  F   UNL A   1      37.856  30.092  36.821  1.00  0.00    -0.203 F 
ATOM     99  C   UNL A   1      37.375  31.730  38.442  1.00  0.00     0.198 A 
ATOM    100  C   UNL A   1      38.372  33.908  38.282  1.00  0.00     0.198 A 
ATOM    101  F   UNL A   1      39.803  34.419  36.487  1.00  0.00    -0.203 F 
ATOM    102  F   UNL A   1      36.553  30.873  39.063  1.00  0.00    -0.200 F 
ATOM    103  C   UNL A   1      37.544  33.013  38.942  1.00  0.00     0.200 A 
ATOM    104  F   UNL A   1      38.546  35.144  38.770  1.00  0.00    -0.200 F 
ATOM    105  F   UNL A   1      36.903  33.388  40.057  1.00  0.00    -0.200 F 
ENDBRANCH  72  95
ENDBRANCH  46  47
ENDBRANCH  38  41
ENDBRANCH  36  37
ENDBRANCH  35  36
ENDBRANCH  34  35
ENDBRANCH  33  34
ENDBRANCH  32  33
ENDBRANCH  31  32
ENDBRANCH   3  31
TORSDOF 22
ENDMDL
