MODEL 1
REMARK VINA RESULT:     -12.9      0.000      0.000
REMARK SMILES CN1C(=O)C[C@@H](C(=O)NCCCCCCNC(=O)c2ccc(-c3c4nc(c(-c5c(F)c(F)c(F)c(F)c5F)c5ccc([nH]5)c(-c5c(F)c(F)c(F)c(F)c5F)c5nc(c(-c6c(F)c(F)c(F)c(F)c6F)c6ccc3[nH]6)C=C5)C=C4)cc2)C12CCN(c1ccc(Cl)cn1)CC2
REMARK SMILES IDX 13 1 12 2 11 3 10 4 9 5 7 6 8 7 6 9 1 10 2 11 3 12 82 13
REMARK SMILES IDX 4 14 5 15 83 16 94 17 84 18 93 19 85 20 86 21 87 22 92 23
REMARK SMILES IDX 88 24 91 25 89 26 90 27 14 28 15 29 16 30 17 31 18 33 19 34
REMARK SMILES IDX 20 35 81 36 21 37 80 38 22 39 23 40 24 41 74 42 25 43 79 44
REMARK SMILES IDX 73 45 75 46 26 47 78 48 72 49 71 50 27 52 59 53 39 54 58 55
REMARK SMILES IDX 40 56 43 57 57 58 76 59 41 60 42 61 56 63 77 64 44 65 28 66
REMARK SMILES IDX 29 67 37 68 30 69 31 70 35 71 38 72 32 73 33 74 36 75 34 76
REMARK SMILES IDX 60 77 61 78 69 79 62 80 63 81 67 82 70 83 64 84 65 85 68 86
REMARK SMILES IDX 66 87 45 88 46 89 54 90 47 91 48 92 52 93 55 94 49 95 50 96
REMARK SMILES IDX 53 97 51 98
REMARK H PARENT 9 8 16 32 75 51 43 62
REMARK Flexibility Score: inf
ROOT
ATOM      1  C   UNL A   1      31.532  30.812  26.302  1.00  0.00     0.002 C 
ENDROOT
BRANCH   1   2
ATOM      2  C   UNL A   1      32.861  30.166  26.693  1.00  0.00     0.002 C 
BRANCH   2   3
ATOM      3  C   UNL A   1      32.728  28.954  27.613  1.00  0.00     0.021 C 
BRANCH   3   4
ATOM      4  C   UNL A   1      32.304  27.663  26.910  1.00  0.00     0.116 C 
BRANCH   4   5
ATOM      5  N   UNL A   1      33.411  26.980  26.274  1.00  0.00    -0.356 N 
ATOM      6  C   UNL A   1      33.483  26.054  25.287  1.00  0.00     0.226 C 
ATOM      7  O   UNL A   1      34.622  25.686  24.975  1.00  0.00    -0.275 OA
ATOM      8  H   UNL A   1      34.291  27.240  26.631  1.00  0.00     0.163 HD
BRANCH   6   9
ATOM      9  C   UNL A   1      32.286  25.435  24.562  1.00  0.00     0.113 C 
ATOM     10  C   UNL A   1      32.656  25.027  20.866  1.00  0.00     0.147 C 
ATOM     11  N   UNL A   1      32.401  24.878  22.287  1.00  0.00    -0.339 N 
ATOM     12  C   UNL A   1      32.620  23.686  22.961  1.00  0.00     0.223 C 
ATOM     13  C   UNL A   1      31.907  25.961  23.155  1.00  0.00     0.058 C 
ATOM     14  O   UNL A   1      32.991  22.630  22.469  1.00  0.00    -0.275 OA
ATOM     15  C   UNL A   1      32.389  23.914  24.427  1.00  0.00     0.116 C 
ATOM     16  C   UNL A   1      32.512  27.334  22.799  1.00  0.00     0.051 C 
ATOM     17  C   UNL A   1      30.352  26.034  23.004  1.00  0.00     0.051 C 
ATOM     18  C   UNL A   1      31.862  28.472  23.565  1.00  0.00     0.120 C 
ATOM     19  C   UNL A   1      29.718  27.260  23.683  1.00  0.00     0.120 C 
ATOM     20  N   UNL A   1      30.454  28.430  23.247  1.00  0.00    -0.356 N 
BRANCH  20  21
ATOM     21  C   UNL A   1      29.815  29.546  22.769  1.00  0.00     0.128 A 
ATOM     22  C   UNL A   1      29.330  30.508  23.662  1.00  0.00     0.048 A 
ATOM     23  N   UNL A   1      29.679  29.704  21.437  1.00  0.00    -0.238 NA
ATOM     24  C   UNL A   1      28.674  31.641  23.188  1.00  0.00     0.026 A 
ATOM     25  C   UNL A   1      29.006  30.797  20.996  1.00  0.00     0.134 A 
ATOM     26  C   UNL A   1      28.495  31.781  21.825  1.00  0.00     0.059 A 
ATOM     27  Cl  UNL A   1      27.667  33.142  21.189  1.00  0.00    -0.083 Cl
ENDBRANCH  20  21
ENDBRANCH   6   9
ENDBRANCH   4   5
ENDBRANCH   3   4
ENDBRANCH   2   3
ENDBRANCH   1   2
BRANCH   1  28
ATOM     28  C   UNL A   1      31.394  32.284  26.699  1.00  0.00     0.021 C 
BRANCH  28  29
ATOM     29  C   UNL A   1      32.647  32.895  27.319  1.00  0.00     0.116 C 
BRANCH  29  30
ATOM     30  N   UNL A   1      32.455  34.294  27.662  1.00  0.00    -0.352 N 
ATOM     31  C   UNL A   1      33.044  35.024  28.661  1.00  0.00     0.251 C 
ATOM     32  H   UNL A   1      31.814  34.784  27.101  1.00  0.00     0.163 HD
ATOM     33  O   UNL A   1      32.611  36.131  28.960  1.00  0.00    -0.269 OA
BRANCH  31  34
ATOM     34  C   UNL A   1      34.200  34.460  29.387  1.00  0.00     0.039 A 
ATOM     35  C   UNL A   1      33.975  33.754  30.569  1.00  0.00     0.014 A 
ATOM     36  C   UNL A   1      35.500  34.632  28.901  1.00  0.00     0.014 A 
ATOM     37  C   UNL A   1      35.052  33.175  31.241  1.00  0.00     0.010 A 
ATOM     38  C   UNL A   1      36.563  33.992  29.530  1.00  0.00     0.010 A 
ATOM     39  C   UNL A   1      36.350  33.263  30.710  1.00  0.00    -0.014 A 
BRANCH  39  40
ATOM     40  C   UNL A   1      37.500  32.611  31.387  1.00  0.00     0.031 A 
ATOM     41  C   UNL A   1      38.214  31.466  30.722  1.00  0.00     0.074 A 
ATOM     42  C   UNL A   1      37.873  33.023  32.614  1.00  0.00     0.049 A 
ATOM     43  N   UNL A   1      39.193  30.724  31.176  1.00  0.00    -0.248 NA
ATOM     44  C   UNL A   1      37.753  31.089  29.376  1.00  0.00     0.031 C 
ATOM     45  C   UNL A   1      37.236  34.099  33.376  1.00  0.00     0.029 A 
ATOM     46  N   UNL A   1      38.875  32.579  33.442  1.00  0.00    -0.354 N 
ATOM     47  C   UNL A   1      39.465  29.803  30.174  1.00  0.00     0.074 A 
ATOM     48  C   UNL A   1      38.505  30.030  29.116  1.00  0.00     0.031 C 
ATOM     49  C   UNL A   1      37.874  34.247  34.548  1.00  0.00     0.029 A 
ATOM     50  C   UNL A   1      38.935  33.248  34.641  1.00  0.00     0.049 A 
ATOM     51  H   UNL A   1      39.490  31.851  33.200  1.00  0.00     0.167 HD
ATOM     52  C   UNL A   1      40.449  28.874  30.124  1.00  0.00     0.037 A 
ATOM     53  C   UNL A   1      39.748  33.066  35.699  1.00  0.00     0.037 A 
ATOM     54  C   UNL A   1      41.408  28.655  31.174  1.00  0.00     0.049 A 
ATOM     55  C   UNL A   1      40.801  31.990  35.634  1.00  0.00     0.074 A 
ATOM     56  C   UNL A   1      42.451  27.746  31.216  1.00  0.00     0.029 A 
ATOM     57  N   UNL A   1      41.443  29.358  32.370  1.00  0.00    -0.354 N 
ATOM     58  N   UNL A   1      41.082  31.161  34.658  1.00  0.00    -0.248 NA
ATOM     59  C   UNL A   1      41.658  31.830  36.818  1.00  0.00     0.031 C 
ATOM     60  C   UNL A   1      43.091  27.870  32.452  1.00  0.00     0.029 A 
ATOM     61  C   UNL A   1      42.483  28.894  33.159  1.00  0.00     0.049 A 
ATOM     62  H   UNL A   1      40.821  30.079  32.619  1.00  0.00     0.167 HD
ATOM     63  C   UNL A   1      42.168  30.412  35.093  1.00  0.00     0.074 A 
ATOM     64  C   UNL A   1      42.507  30.898  36.413  1.00  0.00     0.031 C 
ATOM     65  C   UNL A   1      42.822  29.408  34.460  1.00  0.00     0.037 A 
BRANCH  52  66
ATOM     66  C   UNL A   1      40.554  28.036  28.883  1.00  0.00     0.064 A 
ATOM     67  C   UNL A   1      39.848  26.829  28.756  1.00  0.00     0.173 A 
ATOM     68  C   UNL A   1      41.314  28.468  27.786  1.00  0.00     0.173 A 
ATOM     69  F   UNL A   1      39.117  26.365  29.781  1.00  0.00    -0.203 F 
ATOM     70  C   UNL A   1      39.916  26.077  27.587  1.00  0.00     0.198 A 
ATOM     71  C   UNL A   1      41.354  27.729  26.606  1.00  0.00     0.198 A 
ATOM     72  F   UNL A   1      42.004  29.617  27.851  1.00  0.00    -0.203 F 
ATOM     73  F   UNL A   1      39.265  24.908  27.506  1.00  0.00    -0.200 F 
ATOM     74  C   UNL A   1      40.660  26.533  26.509  1.00  0.00     0.200 A 
ATOM     75  F   UNL A   1      42.062  28.177  25.560  1.00  0.00    -0.200 F 
ATOM     76  F   UNL A   1      40.711  25.816  25.379  1.00  0.00    -0.200 F 
ENDBRANCH  52  66
BRANCH  53  77
ATOM     77  C   UNL A   1      39.611  33.914  36.914  1.00  0.00     0.064 A 
ATOM     78  C   UNL A   1      38.844  33.488  38.009  1.00  0.00     0.173 A 
ATOM     79  C   UNL A   1      40.192  35.188  36.986  1.00  0.00     0.173 A 
ATOM     80  F   UNL A   1      38.250  32.285  37.982  1.00  0.00    -0.203 F 
ATOM     81  C   UNL A   1      38.626  34.320  39.105  1.00  0.00     0.198 A 
ATOM     82  C   UNL A   1      40.005  36.005  38.099  1.00  0.00     0.198 A 
ATOM     83  F   UNL A   1      40.941  35.644  35.971  1.00  0.00    -0.203 F 
ATOM     84  F   UNL A   1      37.827  33.916  40.101  1.00  0.00    -0.200 F 
ATOM     85  C   UNL A   1      39.209  35.577  39.150  1.00  0.00     0.200 A 
ATOM     86  F   UNL A   1      40.583  37.212  38.146  1.00  0.00    -0.200 F 
ATOM     87  F   UNL A   1      38.990  36.381  40.199  1.00  0.00    -0.200 F 
ENDBRANCH  53  77
BRANCH  65  88
ATOM     88  C   UNL A   1      44.007  28.808  35.162  1.00  0.00     0.064 A 
ATOM     89  C   UNL A   1      43.880  27.705  36.017  1.00  0.00     0.173 A 
ATOM     90  C   UNL A   1      45.293  29.327  34.945  1.00  0.00     0.173 A 
ATOM     91  F   UNL A   1      42.671  27.181  36.268  1.00  0.00    -0.203 F 
ATOM     92  C   UNL A   1      44.993  27.163  36.656  1.00  0.00     0.198 A 
ATOM     93  C   UNL A   1      46.407  28.760  35.557  1.00  0.00     0.198 A 
ATOM     94  F   UNL A   1      45.472  30.377  34.129  1.00  0.00    -0.203 F 
ATOM     95  F   UNL A   1      44.839  26.144  37.512  1.00  0.00    -0.200 F 
ATOM     96  C   UNL A   1      46.255  27.685  36.419  1.00  0.00     0.200 A 
ATOM     97  F   UNL A   1      47.628  29.256  35.314  1.00  0.00    -0.200 F 
ATOM     98  F   UNL A   1      47.326  27.156  37.028  1.00  0.00    -0.200 F 
ENDBRANCH  65  88
ENDBRANCH  39  40
ENDBRANCH  31  34
ENDBRANCH  29  30
ENDBRANCH  28  29
ENDBRANCH   1  28
TORSDOF 14
ENDMDL
MODEL 2
REMARK VINA RESULT:     -12.9      2.388      3.984
REMARK SMILES CN1C(=O)C[C@@H](C(=O)NCCCCCCNC(=O)c2ccc(-c3c4nc(c(-c5c(F)c(F)c(F)c(F)c5F)c5ccc([nH]5)c(-c5c(F)c(F)c(F)c(F)c5F)c5nc(c(-c6c(F)c(F)c(F)c(F)c6F)c6ccc3[nH]6)C=C5)C=C4)cc2)C12CCN(c1ccc(Cl)cn1)CC2
REMARK SMILES IDX 13 1 12 2 11 3 10 4 9 5 7 6 8 7 6 9 1 10 2 11 3 12 82 13
REMARK SMILES IDX 4 14 5 15 83 16 94 17 84 18 93 19 85 20 86 21 87 22 92 23
REMARK SMILES IDX 88 24 91 25 89 26 90 27 14 28 15 29 16 30 17 31 18 33 19 34
REMARK SMILES IDX 20 35 81 36 21 37 80 38 22 39 23 40 24 41 74 42 25 43 79 44
REMARK SMILES IDX 73 45 75 46 26 47 78 48 72 49 71 50 27 52 59 53 39 54 58 55
REMARK SMILES IDX 40 56 43 57 57 58 76 59 41 60 42 61 56 63 77 64 44 65 28 66
REMARK SMILES IDX 29 67 37 68 30 69 31 70 35 71 38 72 32 73 33 74 36 75 34 76
REMARK SMILES IDX 60 77 61 78 69 79 62 80 63 81 67 82 70 83 64 84 65 85 68 86
REMARK SMILES IDX 66 87 45 88 46 89 54 90 47 91 48 92 52 93 55 94 49 95 50 96
REMARK SMILES IDX 53 97 51 98
REMARK H PARENT 9 8 16 32 75 51 43 62
REMARK Flexibility Score: inf
ROOT
ATOM      1  C   UNL A   1      31.523  30.286  26.484  1.00  0.00     0.002 C 
ENDROOT
BRANCH   1   2
ATOM      2  C   UNL A   1      31.841  29.813  25.065  1.00  0.00     0.002 C 
BRANCH   2   3
ATOM      3  C   UNL A   1      30.633  29.301  24.284  1.00  0.00     0.021 C 
BRANCH   3   4
ATOM      4  C   UNL A   1      30.658  27.801  23.985  1.00  0.00     0.116 C 
BRANCH   4   5
ATOM      5  N   UNL A   1      30.884  26.995  25.167  1.00  0.00    -0.356 N 
ATOM      6  C   UNL A   1      31.925  26.235  25.584  1.00  0.00     0.226 C 
ATOM      7  O   UNL A   1      31.782  25.678  26.678  1.00  0.00    -0.275 OA
ATOM      8  H   UNL A   1      30.126  27.000  25.796  1.00  0.00     0.163 HD
BRANCH   6   9
ATOM      9  C   UNL A   1      33.225  26.009  24.808  1.00  0.00     0.113 C 
ATOM     10  C   UNL A   1      32.865  25.602  21.112  1.00  0.00     0.147 C 
ATOM     11  N   UNL A   1      33.247  25.964  22.464  1.00  0.00    -0.339 N 
ATOM     12  C   UNL A   1      33.662  27.242  22.803  1.00  0.00     0.223 C 
ATOM     13  C   UNL A   1      33.222  25.032  23.605  1.00  0.00     0.058 C 
ATOM     14  O   UNL A   1      33.807  28.187  22.040  1.00  0.00    -0.275 OA
ATOM     15  C   UNL A   1      33.848  27.308  24.292  1.00  0.00     0.116 C 
ATOM     16  C   UNL A   1      32.017  24.070  23.564  1.00  0.00     0.051 C 
ATOM     17  C   UNL A   1      34.544  24.197  23.581  1.00  0.00     0.051 C 
ATOM     18  C   UNL A   1      32.096  22.994  24.631  1.00  0.00     0.120 C 
ATOM     19  C   UNL A   1      34.562  23.032  24.585  1.00  0.00     0.120 C 
ATOM     20  N   UNL A   1      33.333  22.283  24.406  1.00  0.00    -0.356 N 
BRANCH  20  21
ATOM     21  C   UNL A   1      33.335  20.918  24.265  1.00  0.00     0.128 A 
ATOM     22  C   UNL A   1      34.403  20.167  24.769  1.00  0.00     0.048 A 
ATOM     23  N   UNL A   1      32.294  20.320  23.654  1.00  0.00    -0.238 NA
ATOM     24  C   UNL A   1      34.419  18.782  24.625  1.00  0.00     0.026 A 
ATOM     25  C   UNL A   1      32.344  18.974  23.492  1.00  0.00     0.134 A 
ATOM     26  C   UNL A   1      33.373  18.173  23.959  1.00  0.00     0.059 A 
ATOM     27  Cl  UNL A   1      33.356  16.475  23.727  1.00  0.00    -0.083 Cl
ENDBRANCH  20  21
ENDBRANCH   6   9
ENDBRANCH   4   5
ENDBRANCH   3   4
ENDBRANCH   2   3
ENDBRANCH   1   2
BRANCH   1  28
ATOM     28  C   UNL A   1      31.400  31.804  26.641  1.00  0.00     0.021 C 
BRANCH  28  29
ATOM     29  C   UNL A   1      32.681  32.503  27.083  1.00  0.00     0.116 C 
BRANCH  29  30
ATOM     30  N   UNL A   1      32.447  33.894  27.429  1.00  0.00    -0.352 N 
ATOM     31  C   UNL A   1      33.011  34.639  28.432  1.00  0.00     0.251 C 
ATOM     32  H   UNL A   1      31.793  34.367  26.867  1.00  0.00     0.163 HD
ATOM     33  O   UNL A   1      32.545  35.732  28.733  1.00  0.00    -0.269 OA
BRANCH  31  34
ATOM     34  C   UNL A   1      34.182  34.107  29.160  1.00  0.00     0.039 A 
ATOM     35  C   UNL A   1      33.974  33.201  30.200  1.00  0.00     0.014 A 
ATOM     36  C   UNL A   1      35.477  34.507  28.815  1.00  0.00     0.014 A 
ATOM     37  C   UNL A   1      35.072  32.654  30.866  1.00  0.00     0.010 A 
ATOM     38  C   UNL A   1      36.571  33.904  29.428  1.00  0.00     0.010 A 
ATOM     39  C   UNL A   1      36.379  32.978  30.464  1.00  0.00    -0.014 A 
BRANCH  39  40
ATOM     40  C   UNL A   1      37.558  32.366  31.130  1.00  0.00     0.031 A 
ATOM     41  C   UNL A   1      38.304  31.247  30.458  1.00  0.00     0.074 A 
ATOM     42  C   UNL A   1      37.929  32.792  32.352  1.00  0.00     0.049 A 
ATOM     43  N   UNL A   1      39.313  30.540  30.902  1.00  0.00    -0.248 NA
ATOM     44  C   UNL A   1      37.843  30.852  29.117  1.00  0.00     0.031 C 
ATOM     45  C   UNL A   1      37.263  33.847  33.120  1.00  0.00     0.029 A 
ATOM     46  N   UNL A   1      38.954  32.385  33.170  1.00  0.00    -0.354 N 
ATOM     47  C   UNL A   1      39.607  29.628  29.898  1.00  0.00     0.074 A 
ATOM     48  C   UNL A   1      38.628  29.820  28.850  1.00  0.00     0.031 C 
ATOM     49  C   UNL A   1      37.907  34.018  34.285  1.00  0.00     0.029 A 
ATOM     50  C   UNL A   1      39.003  33.057  34.368  1.00  0.00     0.049 A 
ATOM     51  H   UNL A   1      39.592  31.678  32.923  1.00  0.00     0.167 HD
ATOM     52  C   UNL A   1      40.621  28.733  29.839  1.00  0.00     0.037 A 
ATOM     53  C   UNL A   1      39.833  32.905  35.418  1.00  0.00     0.037 A 
ATOM     54  C   UNL A   1      41.599  28.549  30.879  1.00  0.00     0.049 A 
ATOM     55  C   UNL A   1      40.922  31.866  35.343  1.00  0.00     0.074 A 
ATOM     56  C   UNL A   1      42.673  27.676  30.911  1.00  0.00     0.029 A 
ATOM     57  N   UNL A   1      41.621  29.254  32.074  1.00  0.00    -0.354 N 
ATOM     58  N   UNL A   1      41.222  31.046  34.364  1.00  0.00    -0.248 NA
ATOM     59  C   UNL A   1      41.796  31.737  36.517  1.00  0.00     0.031 C 
ATOM     60  C   UNL A   1      43.321  27.824  32.140  1.00  0.00     0.029 A 
ATOM     61  C   UNL A   1      42.685  28.827  32.853  1.00  0.00     0.049 A 
ATOM     62  H   UNL A   1      40.977  29.953  32.329  1.00  0.00     0.167 HD
ATOM     63  C   UNL A   1      42.337  30.335  34.789  1.00  0.00     0.074 A 
ATOM     64  C   UNL A   1      42.673  30.834  36.105  1.00  0.00     0.031 C 
ATOM     65  C   UNL A   1      43.019  29.354  34.150  1.00  0.00     0.037 A 
BRANCH  52  66
ATOM     66  C   UNL A   1      40.743  27.898  28.597  1.00  0.00     0.064 A 
ATOM     67  C   UNL A   1      40.068  26.673  28.474  1.00  0.00     0.173 A 
ATOM     68  C   UNL A   1      41.487  28.350  27.497  1.00  0.00     0.173 A 
ATOM     69  F   UNL A   1      39.354  26.191  29.501  1.00  0.00    -0.203 F 
ATOM     70  C   UNL A   1      40.150  25.923  27.304  1.00  0.00     0.198 A 
ATOM     71  C   UNL A   1      41.541  27.611  26.317  1.00  0.00     0.198 A 
ATOM     72  F   UNL A   1      42.147  29.516  27.559  1.00  0.00    -0.203 F 
ATOM     73  F   UNL A   1      39.530  24.737  27.226  1.00  0.00    -0.200 F 
ATOM     74  C   UNL A   1      40.878  26.398  26.223  1.00  0.00     0.200 A 
ATOM     75  F   UNL A   1      42.233  28.078  25.268  1.00  0.00    -0.200 F 
ATOM     76  F   UNL A   1      40.942  25.682  25.093  1.00  0.00    -0.200 F 
ENDBRANCH  52  66
BRANCH  53  77
ATOM     77  C   UNL A   1      39.679  33.748  36.634  1.00  0.00     0.064 A 
ATOM     78  C   UNL A   1      38.864  33.337  37.699  1.00  0.00     0.173 A 
ATOM     79  C   UNL A   1      40.293  35.005  36.734  1.00  0.00     0.173 A 
ATOM     80  F   UNL A   1      38.237  32.152  37.644  1.00  0.00    -0.203 F 
ATOM     81  C   UNL A   1      38.633  34.169  38.794  1.00  0.00     0.198 A 
ATOM     82  C   UNL A   1      40.091  35.820  37.846  1.00  0.00     0.198 A 
ATOM     83  F   UNL A   1      41.087  35.446  35.748  1.00  0.00    -0.203 F 
ATOM     84  F   UNL A   1      37.789  33.781  39.760  1.00  0.00    -0.200 F 
ATOM     85  C   UNL A   1      39.248  35.408  38.867  1.00  0.00     0.200 A 
ATOM     86  F   UNL A   1      40.701  37.010  37.921  1.00  0.00    -0.200 F 
ATOM     87  F   UNL A   1      39.018  36.212  39.914  1.00  0.00    -0.200 F 
ENDBRANCH  53  77
BRANCH  65  88
ATOM     88  C   UNL A   1      44.232  28.797  34.839  1.00  0.00     0.064 A 
ATOM     89  C   UNL A   1      44.158  27.668  35.667  1.00  0.00     0.173 A 
ATOM     90  C   UNL A   1      45.491  29.384  34.640  1.00  0.00     0.173 A 
ATOM     91  F   UNL A   1      42.976  27.078  35.902  1.00  0.00    -0.203 F 
ATOM     92  C   UNL A   1      45.295  27.166  36.296  1.00  0.00     0.198 A 
ATOM     93  C   UNL A   1      46.630  28.858  35.240  1.00  0.00     0.198 A 
ATOM     94  F   UNL A   1      45.618  30.462  33.850  1.00  0.00    -0.203 F 
ATOM     95  F   UNL A   1      45.191  26.119  37.126  1.00  0.00    -0.200 F 
ATOM     96  C   UNL A   1      46.531  27.756  36.075  1.00  0.00     0.200 A 
ATOM     97  F   UNL A   1      47.826  29.419  35.013  1.00  0.00    -0.200 F 
ATOM     98  F   UNL A   1      47.625  27.266  36.674  1.00  0.00    -0.200 F 
ENDBRANCH  65  88
ENDBRANCH  39  40
ENDBRANCH  31  34
ENDBRANCH  29  30
ENDBRANCH  28  29
ENDBRANCH   1  28
TORSDOF 14
ENDMDL
MODEL 3
REMARK VINA RESULT:     -12.8      3.261      5.256
REMARK SMILES CN1C(=O)C[C@@H](C(=O)NCCCCCCNC(=O)c2ccc(-c3c4nc(c(-c5c(F)c(F)c(F)c(F)c5F)c5ccc([nH]5)c(-c5c(F)c(F)c(F)c(F)c5F)c5nc(c(-c6c(F)c(F)c(F)c(F)c6F)c6ccc3[nH]6)C=C5)C=C4)cc2)C12CCN(c1ccc(Cl)cn1)CC2
REMARK SMILES IDX 13 1 12 2 11 3 10 4 9 5 7 6 8 7 6 9 1 10 2 11 3 12 82 13
REMARK SMILES IDX 4 14 5 15 83 16 94 17 84 18 93 19 85 20 86 21 87 22 92 23
REMARK SMILES IDX 88 24 91 25 89 26 90 27 14 28 15 29 16 30 17 31 18 33 19 34
REMARK SMILES IDX 20 35 81 36 21 37 80 38 22 39 23 40 24 41 74 42 25 43 79 44
REMARK SMILES IDX 73 45 75 46 26 47 78 48 72 49 71 50 27 52 59 53 39 54 58 55
REMARK SMILES IDX 40 56 43 57 57 58 76 59 41 60 42 61 56 63 77 64 44 65 28 66
REMARK SMILES IDX 29 67 37 68 30 69 31 70 35 71 38 72 32 73 33 74 36 75 34 76
REMARK SMILES IDX 60 77 61 78 69 79 62 80 63 81 67 82 70 83 64 84 65 85 68 86
REMARK SMILES IDX 66 87 45 88 46 89 54 90 47 91 48 92 52 93 55 94 49 95 50 96
REMARK SMILES IDX 53 97 51 98
REMARK H PARENT 9 8 16 32 75 51 43 62
REMARK Flexibility Score: inf
ROOT
ATOM      1  C   UNL A   1      31.851  28.725  23.331  1.00  0.00     0.002 C 
ENDROOT
BRANCH   1   2
ATOM      2  C   UNL A   1      30.898  27.987  24.272  1.00  0.00     0.002 C 
BRANCH   2   3
ATOM      3  C   UNL A   1      30.021  26.939  23.589  1.00  0.00     0.021 C 
BRANCH   3   4
ATOM      4  C   UNL A   1      30.564  25.510  23.662  1.00  0.00     0.116 C 
BRANCH   4   5
ATOM      5  N   UNL A   1      30.828  25.078  25.018  1.00  0.00    -0.356 N 
ATOM      6  C   UNL A   1      31.917  24.546  25.625  1.00  0.00     0.226 C 
ATOM      7  O   UNL A   1      31.796  24.298  26.830  1.00  0.00    -0.275 OA
ATOM      8  H   UNL A   1      30.060  25.192  25.624  1.00  0.00     0.163 HD
BRANCH   6   9
ATOM      9  C   UNL A   1      33.247  24.224  24.938  1.00  0.00     0.113 C 
ATOM     10  C   UNL A   1      33.029  23.307  21.322  1.00  0.00     0.147 C 
ATOM     11  N   UNL A   1      33.359  23.855  22.625  1.00  0.00    -0.339 N 
ATOM     12  C   UNL A   1      33.758  25.171  22.799  1.00  0.00     0.223 C 
ATOM     13  C   UNL A   1      33.291  23.090  23.883  1.00  0.00     0.058 C 
ATOM     14  O   UNL A   1      33.931  26.002  21.918  1.00  0.00    -0.275 OA
ATOM     15  C   UNL A   1      33.887  25.443  24.270  1.00  0.00     0.116 C 
ATOM     16  C   UNL A   1      32.090  22.124  23.929  1.00  0.00     0.051 C 
ATOM     17  C   UNL A   1      34.614  22.268  24.024  1.00  0.00     0.051 C 
ATOM     18  C   UNL A   1      32.129  21.206  25.137  1.00  0.00     0.120 C 
ATOM     19  C   UNL A   1      34.595  21.253  25.179  1.00  0.00     0.120 C 
ATOM     20  N   UNL A   1      33.375  20.479  25.060  1.00  0.00    -0.356 N 
BRANCH  20  21
ATOM     21  C   UNL A   1      33.384  19.107  25.110  1.00  0.00     0.128 A 
ATOM     22  C   UNL A   1      34.418  18.395  24.493  1.00  0.00     0.048 A 
ATOM     23  N   UNL A   1      32.398  18.468  25.769  1.00  0.00    -0.238 NA
ATOM     24  C   UNL A   1      34.434  17.003  24.531  1.00  0.00     0.026 A 
ATOM     25  C   UNL A   1      32.411  17.111  25.766  1.00  0.00     0.134 A 
ATOM     26  C   UNL A   1      33.399  16.346  25.169  1.00  0.00     0.059 A 
ATOM     27  Cl  UNL A   1      33.353  14.633  25.220  1.00  0.00    -0.083 Cl
ENDBRANCH  20  21
ENDBRANCH   6   9
ENDBRANCH   4   5
ENDBRANCH   3   4
ENDBRANCH   2   3
ENDBRANCH   1   2
BRANCH   1  28
ATOM     28  C   UNL A   1      33.249  28.974  23.903  1.00  0.00     0.021 C 
BRANCH  28  29
ATOM     29  C   UNL A   1      33.293  29.163  25.415  1.00  0.00     0.116 C 
BRANCH  29  30
ATOM     30  N   UNL A   1      32.787  30.466  25.813  1.00  0.00    -0.352 N 
ATOM     31  C   UNL A   1      33.186  31.265  26.853  1.00  0.00     0.251 C 
ATOM     32  H   UNL A   1      32.056  30.824  25.261  1.00  0.00     0.163 HD
ATOM     33  O   UNL A   1      32.511  32.231  27.190  1.00  0.00    -0.269 OA
BRANCH  31  34
ATOM     34  C   UNL A   1      34.434  30.944  27.576  1.00  0.00     0.039 A 
ATOM     35  C   UNL A   1      35.378  31.953  27.772  1.00  0.00     0.014 A 
ATOM     36  C   UNL A   1      34.668  29.652  28.054  1.00  0.00     0.014 A 
ATOM     37  C   UNL A   1      36.539  31.678  28.494  1.00  0.00     0.010 A 
ATOM     38  C   UNL A   1      35.790  29.398  28.837  1.00  0.00     0.010 A 
ATOM     39  C   UNL A   1      36.740  30.406  29.058  1.00  0.00    -0.014 A 
BRANCH  39  40
ATOM     40  C   UNL A   1      37.948  30.112  29.871  1.00  0.00     0.031 A 
ATOM     41  C   UNL A   1      39.011  29.194  29.334  1.00  0.00     0.074 A 
ATOM     42  C   UNL A   1      38.065  30.638  31.105  1.00  0.00     0.049 A 
ATOM     43  N   UNL A   1      40.103  28.762  29.914  1.00  0.00    -0.248 NA
ATOM     44  C   UNL A   1      38.812  28.674  27.971  1.00  0.00     0.031 C 
ATOM     45  C   UNL A   1      37.084  31.514  31.750  1.00  0.00     0.029 A 
ATOM     46  N   UNL A   1      39.059  30.508  32.045  1.00  0.00    -0.354 N 
ATOM     47  C   UNL A   1      40.718  27.929  28.989  1.00  0.00     0.074 A 
ATOM     48  C   UNL A   1      39.847  27.858  27.836  1.00  0.00     0.031 C 
ATOM     49  C   UNL A   1      37.533  31.858  32.967  1.00  0.00     0.029 A 
ATOM     50  C   UNL A   1      38.810  31.194  33.209  1.00  0.00     0.049 A 
ATOM     51  H   UNL A   1      39.871  29.972  31.898  1.00  0.00     0.167 HD
ATOM     52  C   UNL A   1      41.917  27.307  29.078  1.00  0.00     0.037 A 
ATOM     53  C   UNL A   1      39.528  31.267  34.346  1.00  0.00     0.037 A 
ATOM     54  C   UNL A   1      42.786  27.385  30.222  1.00  0.00     0.049 A 
ATOM     55  C   UNL A   1      40.835  30.523  34.433  1.00  0.00     0.074 A 
ATOM     56  C   UNL A   1      44.027  26.800  30.407  1.00  0.00     0.029 A 
ATOM     57  N   UNL A   1      42.504  28.097  31.380  1.00  0.00    -0.354 N 
ATOM     58  N   UNL A   1      41.431  29.781  33.531  1.00  0.00    -0.248 NA
ATOM     59  C   UNL A   1      41.576  30.632  35.698  1.00  0.00     0.031 C 
ATOM     60  C   UNL A   1      44.477  27.124  31.690  1.00  0.00     0.029 A 
ATOM     61  C   UNL A   1      43.543  27.956  32.285  1.00  0.00     0.049 A 
ATOM     62  H   UNL A   1      41.687  28.624  31.533  1.00  0.00     0.167 HD
ATOM     63  C   UNL A   1      42.628  29.371  34.102  1.00  0.00     0.074 A 
ATOM     64  C   UNL A   1      42.684  29.961  35.423  1.00  0.00     0.031 C 
ATOM     65  C   UNL A   1      43.593  28.573  33.584  1.00  0.00     0.037 A 
BRANCH  52  66
ATOM     66  C   UNL A   1      42.374  26.502  27.896  1.00  0.00     0.064 A 
ATOM     67  C   UNL A   1      41.947  25.179  27.705  1.00  0.00     0.173 A 
ATOM     68  C   UNL A   1      43.195  27.074  26.911  1.00  0.00     0.173 A 
ATOM     69  F   UNL A   1      41.172  24.582  28.623  1.00  0.00    -0.203 F 
ATOM     70  C   UNL A   1      42.340  24.452  26.585  1.00  0.00     0.198 A 
ATOM     71  C   UNL A   1      43.560  26.354  25.777  1.00  0.00     0.198 A 
ATOM     72  F   UNL A   1      43.627  28.338  27.041  1.00  0.00    -0.203 F 
ATOM     73  F   UNL A   1      41.953  23.176  26.447  1.00  0.00    -0.200 F 
ATOM     74  C   UNL A   1      43.137  25.043  25.617  1.00  0.00     0.200 A 
ATOM     75  F   UNL A   1      44.319  26.931  24.835  1.00  0.00    -0.200 F 
ATOM     76  F   UNL A   1      43.501  24.348  24.532  1.00  0.00    -0.200 F 
ENDBRANCH  52  66
BRANCH  53  77
ATOM     77  C   UNL A   1      39.040  32.071  35.499  1.00  0.00     0.064 A 
ATOM     78  C   UNL A   1      39.371  33.429  35.625  1.00  0.00     0.173 A 
ATOM     79  C   UNL A   1      38.283  31.490  36.527  1.00  0.00     0.173 A 
ATOM     80  F   UNL A   1      40.110  34.028  34.679  1.00  0.00    -0.203 F 
ATOM     81  C   UNL A   1      39.005  34.160  36.754  1.00  0.00     0.198 A 
ATOM     82  C   UNL A   1      37.886  32.231  37.638  1.00  0.00     0.198 A 
ATOM     83  F   UNL A   1      37.933  30.198  36.456  1.00  0.00    -0.203 F 
ATOM     84  F   UNL A   1      39.401  35.433  36.882  1.00  0.00    -0.200 F 
ATOM     85  C   UNL A   1      38.261  33.560  37.758  1.00  0.00     0.200 A 
ATOM     86  F   UNL A   1      37.153  31.653  38.598  1.00  0.00    -0.200 F 
ATOM     87  F   UNL A   1      37.918  34.260  38.849  1.00  0.00    -0.200 F 
ENDBRANCH  53  77
BRANCH  65  88
ATOM     88  C   UNL A   1      44.817  28.340  34.423  1.00  0.00     0.064 A 
ATOM     89  C   UNL A   1      44.903  27.270  35.325  1.00  0.00     0.173 A 
ATOM     90  C   UNL A   1      45.933  29.181  34.293  1.00  0.00     0.173 A 
ATOM     91  F   UNL A   1      43.859  26.446  35.496  1.00  0.00    -0.203 F 
ATOM     92  C   UNL A   1      46.049  27.071  36.091  1.00  0.00     0.198 A 
ATOM     93  C   UNL A   1      47.090  28.957  35.034  1.00  0.00     0.198 A 
ATOM     94  F   UNL A   1      45.907  30.215  33.437  1.00  0.00    -0.203 F 
ATOM     95  F   UNL A   1      46.087  26.076  36.988  1.00  0.00    -0.200 F 
ATOM     96  C   UNL A   1      47.144  27.909  35.939  1.00  0.00     0.200 A 
ATOM     97  F   UNL A   1      48.152  29.758  34.874  1.00  0.00    -0.200 F 
ATOM     98  F   UNL A   1      48.249  27.710  36.671  1.00  0.00    -0.200 F 
ENDBRANCH  65  88
ENDBRANCH  39  40
ENDBRANCH  31  34
ENDBRANCH  29  30
ENDBRANCH  28  29
ENDBRANCH   1  28
TORSDOF 14
ENDMDL
