MODEL 1
REMARK VINA RESULT:     -12.3      0.000      0.000
REMARK SMILES O=C(NCCCCCCNC(=O)c1cc2cnc(Cl)cc2[nH]1)c1ccc(-c2c3nc(c(-c4c(F)c(F)c(F)c(F)c4F)c4ccc([nH]4)c(-c4c(F)c(F)c(F)c(F)c4F)c4nc(c(-c5c(F)c(F)c(F)c(F)c5F)c5ccc2[nH]5)C=C4)C=C3)cc1
REMARK SMILES IDX 5 1 4 2 3 3 1 4 2 5 23 7 24 8 85 9 25 10 84 11 26 12 27 13
REMARK SMILES IDX 28 14 78 15 29 16 83 17 77 18 79 19 30 20 82 21 76 22 75 23
REMARK SMILES IDX 31 25 63 26 43 27 62 28 44 29 47 30 61 31 80 32 45 33 46 34
REMARK SMILES IDX 60 36 81 37 48 38 32 39 33 40 41 41 34 42 35 43 39 44 42 45
REMARK SMILES IDX 36 46 37 47 40 48 38 49 64 50 65 51 73 52 66 53 67 54 71 55
REMARK SMILES IDX 74 56 68 57 69 58 72 59 70 60 49 61 50 62 58 63 51 64 52 65
REMARK SMILES IDX 56 66 59 67 53 68 54 69 57 70 55 71 6 72 7 73 8 74 9 75
REMARK SMILES IDX 10 76 11 77 12 79 13 80 14 81 22 82 15 83 21 84 16 86 20 87
REMARK SMILES IDX 17 88 18 89 19 90
REMARK H PARENT 3 6 79 24 47 35 10 78 22 85
REMARK Flexibility Score: inf
ROOT
ATOM      1  C   UNL A   1      42.188  20.112  27.290  1.00  0.00     0.021 C 
ENDROOT
BRANCH   1   2
ATOM      2  C   UNL A   1      42.410  19.744  25.834  1.00  0.00     0.116 C 
BRANCH   2   3
ATOM      3  N   UNL A   1      43.811  19.472  25.490  1.00  0.00    -0.352 N 
ATOM      4  O   UNL A   1      45.748  20.011  24.405  1.00  0.00    -0.269 OA
ATOM      5  C   UNL A   1      44.762  20.376  25.032  1.00  0.00     0.251 C 
ATOM      6  H   UNL A   1      44.111  18.540  25.595  1.00  0.00     0.163 HD
BRANCH   5   7
ATOM      7  C   UNL A   1      44.556  21.801  25.340  1.00  0.00     0.039 A 
ATOM      8  C   UNL A   1      43.692  22.630  24.622  1.00  0.00     0.014 A 
ATOM      9  C   UNL A   1      45.211  22.270  26.467  1.00  0.00     0.014 A 
ATOM     10  C   UNL A   1      43.452  23.910  25.121  1.00  0.00     0.010 A 
ATOM     11  C   UNL A   1      44.721  23.368  27.106  1.00  0.00     0.010 A 
ATOM     12  C   UNL A   1      43.957  24.263  26.388  1.00  0.00    -0.014 A 
BRANCH  12  13
ATOM     13  C   UNL A   1      43.662  25.539  27.027  1.00  0.00     0.031 A 
ATOM     14  C   UNL A   1      44.614  26.611  26.665  1.00  0.00     0.074 A 
ATOM     15  C   UNL A   1      42.556  25.772  27.774  1.00  0.00     0.049 A 
ATOM     16  N   UNL A   1      45.563  27.068  27.408  1.00  0.00    -0.248 NA
ATOM     17  C   UNL A   1      44.652  27.095  25.277  1.00  0.00     0.031 C 
ATOM     18  C   UNL A   1      41.393  24.899  28.004  1.00  0.00     0.029 A 
ATOM     19  N   UNL A   1      42.204  26.899  28.453  1.00  0.00    -0.354 N 
ATOM     20  C   UNL A   1      46.177  28.066  26.665  1.00  0.00     0.074 A 
ATOM     21  C   UNL A   1      45.717  27.901  25.311  1.00  0.00     0.031 C 
ATOM     22  C   UNL A   1      40.384  25.604  28.560  1.00  0.00     0.029 A 
ATOM     23  C   UNL A   1      40.888  26.914  28.914  1.00  0.00     0.049 A 
ATOM     24  H   UNL A   1      42.829  27.644  28.607  1.00  0.00     0.167 HD
ATOM     25  C   UNL A   1      46.772  29.108  27.304  1.00  0.00     0.037 A 
ATOM     26  C   UNL A   1      40.266  27.924  29.568  1.00  0.00     0.037 A 
ATOM     27  C   UNL A   1      46.987  28.796  28.698  1.00  0.00     0.049 A 
ATOM     28  C   UNL A   1      41.334  28.752  30.170  1.00  0.00     0.074 A 
ATOM     29  C   UNL A   1      47.715  27.848  29.391  1.00  0.00     0.029 A 
ATOM     30  N   UNL A   1      46.047  29.274  29.577  1.00  0.00    -0.354 N 
ATOM     31  N   UNL A   1      42.110  28.345  31.135  1.00  0.00    -0.248 NA
ATOM     32  C   UNL A   1      41.823  29.888  29.407  1.00  0.00     0.031 C 
ATOM     33  C   UNL A   1      46.913  27.510  30.522  1.00  0.00     0.029 A 
ATOM     34  C   UNL A   1      45.771  28.314  30.511  1.00  0.00     0.049 A 
ATOM     35  H   UNL A   1      45.637  30.168  29.539  1.00  0.00     0.167 HD
ATOM     36  C   UNL A   1      43.354  28.863  30.819  1.00  0.00     0.074 A 
ATOM     37  C   UNL A   1      43.090  29.903  29.827  1.00  0.00     0.031 C 
ATOM     38  C   UNL A   1      44.491  28.195  31.175  1.00  0.00     0.037 A 
BRANCH  25  39
ATOM     39  C   UNL A   1      46.725  30.535  26.810  1.00  0.00     0.064 A 
ATOM     40  C   UNL A   1      47.904  31.308  26.854  1.00  0.00     0.173 A 
ATOM     41  C   UNL A   1      45.531  31.261  26.606  1.00  0.00     0.173 A 
ATOM     42  F   UNL A   1      49.092  30.727  27.077  1.00  0.00    -0.203 F 
ATOM     43  C   UNL A   1      47.874  32.702  26.776  1.00  0.00     0.198 A 
ATOM     44  C   UNL A   1      45.512  32.647  26.474  1.00  0.00     0.198 A 
ATOM     45  F   UNL A   1      44.326  30.683  26.648  1.00  0.00    -0.203 F 
ATOM     46  F   UNL A   1      49.003  33.401  26.956  1.00  0.00    -0.200 F 
ATOM     47  C   UNL A   1      46.679  33.371  26.589  1.00  0.00     0.200 A 
ATOM     48  F   UNL A   1      44.339  33.277  26.324  1.00  0.00    -0.200 F 
ATOM     49  F   UNL A   1      46.640  34.709  26.576  1.00  0.00    -0.200 F 
ENDBRANCH  25  39
BRANCH  26  50
ATOM     50  C   UNL A   1      38.865  28.402  29.462  1.00  0.00     0.064 A 
ATOM     51  C   UNL A   1      38.082  28.586  30.616  1.00  0.00     0.173 A 
ATOM     52  C   UNL A   1      38.381  28.994  28.280  1.00  0.00     0.173 A 
ATOM     53  F   UNL A   1      38.485  28.080  31.792  1.00  0.00    -0.203 F 
ATOM     54  C   UNL A   1      36.921  29.366  30.602  1.00  0.00     0.198 A 
ATOM     55  C   UNL A   1      37.218  29.769  28.268  1.00  0.00     0.198 A 
ATOM     56  F   UNL A   1      39.080  28.919  27.139  1.00  0.00    -0.203 F 
ATOM     57  F   UNL A   1      36.250  29.587  31.743  1.00  0.00    -0.200 F 
ATOM     58  C   UNL A   1      36.500  29.972  29.432  1.00  0.00     0.200 A 
ATOM     59  F   UNL A   1      36.838  30.377  27.134  1.00  0.00    -0.200 F 
ATOM     60  F   UNL A   1      35.433  30.783  29.434  1.00  0.00    -0.200 F 
ENDBRANCH  26  50
BRANCH  38  61
ATOM     61  C   UNL A   1      44.367  27.111  32.213  1.00  0.00     0.064 A 
ATOM     62  C   UNL A   1      44.234  25.740  31.930  1.00  0.00     0.173 A 
ATOM     63  C   UNL A   1      44.531  27.478  33.555  1.00  0.00     0.173 A 
ATOM     64  F   UNL A   1      44.147  25.299  30.669  1.00  0.00    -0.203 F 
ATOM     65  C   UNL A   1      44.242  24.789  32.950  1.00  0.00     0.198 A 
ATOM     66  C   UNL A   1      44.577  26.524  34.567  1.00  0.00     0.198 A 
ATOM     67  F   UNL A   1      44.702  28.769  33.881  1.00  0.00    -0.203 F 
ATOM     68  F   UNL A   1      44.108  23.486  32.658  1.00  0.00    -0.200 F 
ATOM     69  C   UNL A   1      44.426  25.181  34.266  1.00  0.00     0.200 A 
ATOM     70  F   UNL A   1      44.798  26.908  35.832  1.00  0.00    -0.200 F 
ATOM     71  F   UNL A   1      44.483  24.264  35.242  1.00  0.00    -0.200 F 
ENDBRANCH  38  61
ENDBRANCH  12  13
ENDBRANCH   5   7
ENDBRANCH   2   3
ENDBRANCH   1   2
BRANCH   1  72
ATOM     72  C   UNL A   1      41.180  21.248  27.525  1.00  0.00     0.002 C 
BRANCH  72  73
ATOM     73  C   UNL A   1      40.486  21.857  26.295  1.00  0.00     0.002 C 
BRANCH  73  74
ATOM     74  C   UNL A   1      39.045  21.419  26.025  1.00  0.00     0.021 C 
BRANCH  74  75
ATOM     75  C   UNL A   1      38.040  22.550  25.831  1.00  0.00     0.116 C 
BRANCH  75  76
ATOM     76  N   UNL A   1      37.721  22.794  24.435  1.00  0.00    -0.351 N 
ATOM     77  C   UNL A   1      36.510  23.070  23.840  1.00  0.00     0.267 C 
ATOM     78  H   UNL A   1      38.489  22.756  23.819  1.00  0.00     0.163 HD
ATOM     79  O   UNL A   1      36.435  23.046  22.621  1.00  0.00    -0.268 OA
BRANCH  77  80
ATOM     80  C   UNL A   1      35.385  23.341  24.701  1.00  0.00     0.105 A 
ATOM     81  C   UNL A   1      34.945  24.560  25.187  1.00  0.00     0.043 A 
ATOM     82  N   UNL A   1      34.555  22.387  25.243  1.00  0.00    -0.350 N 
ATOM     83  C   UNL A   1      33.675  24.354  25.794  1.00  0.00     0.019 A 
ATOM     84  C   UNL A   1      33.435  22.980  25.774  1.00  0.00     0.051 A 
ATOM     85  H   UNL A   1      34.737  21.420  25.250  1.00  0.00     0.167 HD
ATOM     86  C   UNL A   1      32.687  25.195  26.319  1.00  0.00     0.123 A 
ATOM     87  C   UNL A   1      32.242  22.425  26.226  1.00  0.00     0.067 A 
ATOM     88  N   UNL A   1      31.505  24.686  26.746  1.00  0.00    -0.244 NA
ATOM     89  C   UNL A   1      31.317  23.351  26.680  1.00  0.00     0.131 A 
ATOM     90  Cl  UNL A   1      29.761  22.831  27.189  1.00  0.00    -0.062 Cl
ENDBRANCH  77  80
ENDBRANCH  75  76
ENDBRANCH  74  75
ENDBRANCH  73  74
ENDBRANCH  72  73
ENDBRANCH   1  72
TORSDOF 13
ENDMDL
MODEL 2
REMARK VINA RESULT:     -12.0      1.356      1.969
REMARK SMILES O=C(NCCCCCCNC(=O)c1cc2cnc(Cl)cc2[nH]1)c1ccc(-c2c3nc(c(-c4c(F)c(F)c(F)c(F)c4F)c4ccc([nH]4)c(-c4c(F)c(F)c(F)c(F)c4F)c4nc(c(-c5c(F)c(F)c(F)c(F)c5F)c5ccc2[nH]5)C=C4)C=C3)cc1
REMARK SMILES IDX 5 1 4 2 3 3 1 4 2 5 23 7 24 8 85 9 25 10 84 11 26 12 27 13
REMARK SMILES IDX 28 14 78 15 29 16 83 17 77 18 79 19 30 20 82 21 76 22 75 23
REMARK SMILES IDX 31 25 63 26 43 27 62 28 44 29 47 30 61 31 80 32 45 33 46 34
REMARK SMILES IDX 60 36 81 37 48 38 32 39 33 40 41 41 34 42 35 43 39 44 42 45
REMARK SMILES IDX 36 46 37 47 40 48 38 49 64 50 65 51 73 52 66 53 67 54 71 55
REMARK SMILES IDX 74 56 68 57 69 58 72 59 70 60 49 61 50 62 58 63 51 64 52 65
REMARK SMILES IDX 56 66 59 67 53 68 54 69 57 70 55 71 6 72 7 73 8 74 9 75
REMARK SMILES IDX 10 76 11 77 12 79 13 80 14 81 22 82 15 83 21 84 16 86 20 87
REMARK SMILES IDX 17 88 18 89 19 90
REMARK H PARENT 3 6 79 24 47 35 10 78 22 85
REMARK Flexibility Score: inf
ROOT
ATOM      1  C   UNL A   1      42.111  20.074  27.248  1.00  0.00     0.021 C 
ENDROOT
BRANCH   1   2
ATOM      2  C   UNL A   1      42.329  19.669  25.801  1.00  0.00     0.116 C 
BRANCH   2   3
ATOM      3  N   UNL A   1      43.729  19.393  25.459  1.00  0.00    -0.352 N 
ATOM      4  O   UNL A   1      45.672  19.929  24.383  1.00  0.00    -0.269 OA
ATOM      5  C   UNL A   1      44.686  20.295  25.009  1.00  0.00     0.251 C 
ATOM      6  H   UNL A   1      44.025  18.459  25.560  1.00  0.00     0.163 HD
BRANCH   5   7
ATOM      7  C   UNL A   1      44.485  21.719  25.324  1.00  0.00     0.039 A 
ATOM      8  C   UNL A   1      43.571  22.538  24.658  1.00  0.00     0.014 A 
ATOM      9  C   UNL A   1      45.203  22.198  26.408  1.00  0.00     0.014 A 
ATOM     10  C   UNL A   1      43.350  23.817  25.167  1.00  0.00     0.010 A 
ATOM     11  C   UNL A   1      44.743  23.294  27.072  1.00  0.00     0.010 A 
ATOM     12  C   UNL A   1      43.928  24.179  26.399  1.00  0.00    -0.014 A 
BRANCH  12  13
ATOM     13  C   UNL A   1      43.661  25.455  27.051  1.00  0.00     0.031 A 
ATOM     14  C   UNL A   1      44.623  26.515  26.682  1.00  0.00     0.074 A 
ATOM     15  C   UNL A   1      42.570  25.698  27.816  1.00  0.00     0.049 A 
ATOM     16  N   UNL A   1      45.589  26.954  27.414  1.00  0.00    -0.248 NA
ATOM     17  C   UNL A   1      44.647  27.009  25.297  1.00  0.00     0.031 C 
ATOM     18  C   UNL A   1      41.398  24.841  28.057  1.00  0.00     0.029 A 
ATOM     19  N   UNL A   1      42.243  26.825  28.508  1.00  0.00    -0.354 N 
ATOM     20  C   UNL A   1      46.206  27.949  26.669  1.00  0.00     0.074 A 
ATOM     21  C   UNL A   1      45.724  27.800  25.321  1.00  0.00     0.031 C 
ATOM     22  C   UNL A   1      40.407  25.555  28.633  1.00  0.00     0.029 A 
ATOM     23  C   UNL A   1      40.935  26.856  28.988  1.00  0.00     0.049 A 
ATOM     24  H   UNL A   1      42.881  27.560  28.657  1.00  0.00     0.167 HD
ATOM     25  C   UNL A   1      46.826  28.978  27.306  1.00  0.00     0.037 A 
ATOM     26  C   UNL A   1      40.337  27.870  29.659  1.00  0.00     0.037 A 
ATOM     27  C   UNL A   1      47.056  28.653  28.695  1.00  0.00     0.049 A 
ATOM     28  C   UNL A   1      41.425  28.679  30.250  1.00  0.00     0.074 A 
ATOM     29  C   UNL A   1      47.781  27.690  29.370  1.00  0.00     0.029 A 
ATOM     30  N   UNL A   1      46.136  29.138  29.590  1.00  0.00    -0.354 N 
ATOM     31  N   UNL A   1      42.209  28.254  31.200  1.00  0.00    -0.248 NA
ATOM     32  C   UNL A   1      41.919  29.813  29.487  1.00  0.00     0.031 C 
ATOM     33  C   UNL A   1      46.991  27.355  30.511  1.00  0.00     0.029 A 
ATOM     34  C   UNL A   1      45.861  28.176  30.522  1.00  0.00     0.049 A 
ATOM     35  H   UNL A   1      45.738  30.038  29.565  1.00  0.00     0.167 HD
ATOM     36  C   UNL A   1      43.457  28.757  30.869  1.00  0.00     0.074 A 
ATOM     37  C   UNL A   1      43.193  29.807  29.888  1.00  0.00     0.031 C 
ATOM     38  C   UNL A   1      44.589  28.070  31.204  1.00  0.00     0.037 A 
BRANCH  25  39
ATOM     39  C   UNL A   1      46.791  30.408  26.823  1.00  0.00     0.064 A 
ATOM     40  C   UNL A   1      47.976  31.171  26.876  1.00  0.00     0.173 A 
ATOM     41  C   UNL A   1      45.604  31.145  26.620  1.00  0.00     0.173 A 
ATOM     42  F   UNL A   1      49.159  30.579  27.099  1.00  0.00    -0.203 F 
ATOM     43  C   UNL A   1      47.958  32.567  26.808  1.00  0.00     0.198 A 
ATOM     44  C   UNL A   1      45.597  32.532  26.498  1.00  0.00     0.198 A 
ATOM     45  F   UNL A   1      44.394  30.577  26.653  1.00  0.00    -0.203 F 
ATOM     46  F   UNL A   1      49.091  33.256  26.997  1.00  0.00    -0.200 F 
ATOM     47  C   UNL A   1      46.768  33.246  26.622  1.00  0.00     0.200 A 
ATOM     48  F   UNL A   1      44.428  33.173  26.348  1.00  0.00    -0.200 F 
ATOM     49  F   UNL A   1      46.740  34.585  26.618  1.00  0.00    -0.200 F 
ENDBRANCH  25  39
BRANCH  26  50
ATOM     50  C   UNL A   1      38.942  28.368  29.576  1.00  0.00     0.064 A 
ATOM     51  C   UNL A   1      38.180  28.562  30.744  1.00  0.00     0.173 A 
ATOM     52  C   UNL A   1      38.446  28.968  28.403  1.00  0.00     0.173 A 
ATOM     53  F   UNL A   1      38.596  28.050  31.912  1.00  0.00    -0.203 F 
ATOM     54  C   UNL A   1      37.031  29.359  30.750  1.00  0.00     0.198 A 
ATOM     55  C   UNL A   1      37.295  29.760  28.411  1.00  0.00     0.198 A 
ATOM     56  F   UNL A   1      39.125  28.885  27.250  1.00  0.00    -0.203 F 
ATOM     57  F   UNL A   1      36.383  29.589  31.902  1.00  0.00    -0.200 F 
ATOM     58  C   UNL A   1      36.600  29.973  29.587  1.00  0.00     0.200 A 
ATOM     59  F   UNL A   1      36.905  30.375  27.285  1.00  0.00    -0.200 F 
ATOM     60  F   UNL A   1      35.545  30.799  29.608  1.00  0.00    -0.200 F 
ENDBRANCH  26  50
BRANCH  38  61
ATOM     61  C   UNL A   1      44.464  26.981  32.237  1.00  0.00     0.064 A 
ATOM     62  C   UNL A   1      44.337  27.197  33.620  1.00  0.00     0.173 A 
ATOM     63  C   UNL A   1      44.329  25.664  31.776  1.00  0.00     0.173 A 
ATOM     64  F   UNL A   1      44.379  28.432  34.135  1.00  0.00    -0.203 F 
ATOM     65  C   UNL A   1      44.109  26.137  34.497  1.00  0.00     0.198 A 
ATOM     66  C   UNL A   1      44.064  24.614  32.649  1.00  0.00     0.198 A 
ATOM     67  F   UNL A   1      44.401  25.404  30.460  1.00  0.00    -0.203 F 
ATOM     68  F   UNL A   1      43.997  26.365  35.815  1.00  0.00    -0.200 F 
ATOM     69  C   UNL A   1      43.961  24.849  34.010  1.00  0.00     0.200 A 
ATOM     70  F   UNL A   1      43.879  23.378  32.165  1.00  0.00    -0.200 F 
ATOM     71  F   UNL A   1      43.693  23.836  34.847  1.00  0.00    -0.200 F 
ENDBRANCH  38  61
ENDBRANCH  12  13
ENDBRANCH   5   7
ENDBRANCH   2   3
ENDBRANCH   1   2
BRANCH   1  72
ATOM     72  C   UNL A   1      40.992  21.103  27.471  1.00  0.00     0.002 C 
BRANCH  72  73
ATOM     73  C   UNL A   1      40.215  21.596  26.240  1.00  0.00     0.002 C 
BRANCH  73  74
ATOM     74  C   UNL A   1      39.376  22.865  26.413  1.00  0.00     0.021 C 
BRANCH  74  75
ATOM     75  C   UNL A   1      37.899  22.729  26.053  1.00  0.00     0.116 C 
BRANCH  75  76
ATOM     76  N   UNL A   1      37.598  23.181  24.706  1.00  0.00    -0.351 N 
ATOM     77  C   UNL A   1      36.643  22.738  23.817  1.00  0.00     0.267 C 
ATOM     78  H   UNL A   1      38.165  23.916  24.377  1.00  0.00     0.163 HD
ATOM     79  O   UNL A   1      36.692  23.126  22.661  1.00  0.00    -0.268 OA
BRANCH  77  80
ATOM     80  C   UNL A   1      35.653  21.808  24.305  1.00  0.00     0.105 A 
ATOM     81  C   UNL A   1      34.315  22.036  24.575  1.00  0.00     0.043 A 
ATOM     82  N   UNL A   1      35.896  20.496  24.638  1.00  0.00    -0.350 N 
ATOM     83  C   UNL A   1      33.696  20.776  24.803  1.00  0.00     0.019 A 
ATOM     84  C   UNL A   1      34.711  19.819  24.792  1.00  0.00     0.051 A 
ATOM     85  H   UNL A   1      36.789  20.099  24.750  1.00  0.00     0.167 HD
ATOM     86  C   UNL A   1      32.375  20.345  24.976  1.00  0.00     0.123 A 
ATOM     87  C   UNL A   1      34.452  18.457  24.913  1.00  0.00     0.067 A 
ATOM     88  N   UNL A   1      32.090  19.024  25.074  1.00  0.00    -0.244 NA
ATOM     89  C   UNL A   1      33.108  18.139  25.031  1.00  0.00     0.131 A 
ATOM     90  Cl  UNL A   1      32.619  16.494  25.101  1.00  0.00    -0.062 Cl
ENDBRANCH  77  80
ENDBRANCH  75  76
ENDBRANCH  74  75
ENDBRANCH  73  74
ENDBRANCH  72  73
ENDBRANCH   1  72
TORSDOF 13
ENDMDL
MODEL 3
REMARK VINA RESULT:     -11.6      4.438     10.012
REMARK SMILES O=C(NCCCCCCNC(=O)c1cc2cnc(Cl)cc2[nH]1)c1ccc(-c2c3nc(c(-c4c(F)c(F)c(F)c(F)c4F)c4ccc([nH]4)c(-c4c(F)c(F)c(F)c(F)c4F)c4nc(c(-c5c(F)c(F)c(F)c(F)c5F)c5ccc2[nH]5)C=C4)C=C3)cc1
REMARK SMILES IDX 5 1 4 2 3 3 1 4 2 5 23 7 24 8 85 9 25 10 84 11 26 12 27 13
REMARK SMILES IDX 28 14 78 15 29 16 83 17 77 18 79 19 30 20 82 21 76 22 75 23
REMARK SMILES IDX 31 25 63 26 43 27 62 28 44 29 47 30 61 31 80 32 45 33 46 34
REMARK SMILES IDX 60 36 81 37 48 38 32 39 33 40 41 41 34 42 35 43 39 44 42 45
REMARK SMILES IDX 36 46 37 47 40 48 38 49 64 50 65 51 73 52 66 53 67 54 71 55
REMARK SMILES IDX 74 56 68 57 69 58 72 59 70 60 49 61 50 62 58 63 51 64 52 65
REMARK SMILES IDX 56 66 59 67 53 68 54 69 57 70 55 71 6 72 7 73 8 74 9 75
REMARK SMILES IDX 10 76 11 77 12 79 13 80 14 81 22 82 15 83 21 84 16 86 20 87
REMARK SMILES IDX 17 88 18 89 19 90
REMARK H PARENT 3 6 79 24 47 35 10 78 22 85
REMARK Flexibility Score: inf
ROOT
ATOM      1  C   UNL A   1      34.623  34.935  28.832  1.00  0.00     0.021 C 
ENDROOT
BRANCH   1   2
ATOM      2  C   UNL A   1      33.325  34.885  29.618  1.00  0.00     0.116 C 
BRANCH   2   3
ATOM      3  N   UNL A   1      33.305  35.753  30.801  1.00  0.00    -0.352 N 
ATOM      4  O   UNL A   1      33.388  36.058  33.064  1.00  0.00    -0.269 OA
ATOM      5  C   UNL A   1      33.791  35.467  32.071  1.00  0.00     0.251 C 
ATOM      6  H   UNL A   1      32.899  36.642  30.680  1.00  0.00     0.163 HD
BRANCH   5   7
ATOM      7  C   UNL A   1      34.831  34.431  32.188  1.00  0.00     0.039 A 
ATOM      8  C   UNL A   1      34.570  33.062  32.116  1.00  0.00     0.014 A 
ATOM      9  C   UNL A   1      36.132  34.898  32.284  1.00  0.00     0.014 A 
ATOM     10  C   UNL A   1      35.659  32.192  32.064  1.00  0.00     0.010 A 
ATOM     11  C   UNL A   1      37.155  34.084  31.905  1.00  0.00     0.010 A 
ATOM     12  C   UNL A   1      36.958  32.720  31.933  1.00  0.00    -0.014 A 
BRANCH  12  13
ATOM     13  C   UNL A   1      38.138  31.881  31.765  1.00  0.00     0.031 A 
ATOM     14  C   UNL A   1      38.838  31.590  33.034  1.00  0.00     0.074 A 
ATOM     15  C   UNL A   1      38.494  31.306  30.591  1.00  0.00     0.049 A 
ATOM     16  N   UNL A   1      39.938  32.128  33.436  1.00  0.00    -0.248 NA
ATOM     17  C   UNL A   1      38.163  30.772  34.052  1.00  0.00     0.031 C 
ATOM     18  C   UNL A   1      37.764  31.279  29.313  1.00  0.00     0.029 A 
ATOM     19  N   UNL A   1      39.591  30.549  30.306  1.00  0.00    -0.354 N 
ATOM     20  C   UNL A   1      40.220  31.542  34.661  1.00  0.00     0.074 A 
ATOM     21  C   UNL A   1      39.012  30.880  35.079  1.00  0.00     0.031 C 
ATOM     22  C   UNL A   1      38.311  30.366  28.482  1.00  0.00     0.029 A 
ATOM     23  C   UNL A   1      39.543  29.893  29.078  1.00  0.00     0.049 A 
ATOM     24  H   UNL A   1      40.357  30.472  30.920  1.00  0.00     0.167 HD
ATOM     25  C   UNL A   1      41.513  31.415  35.063  1.00  0.00     0.037 A 
ATOM     26  C   UNL A   1      40.468  29.042  28.572  1.00  0.00     0.037 A 
ATOM     27  C   UNL A   1      42.376  32.272  34.283  1.00  0.00     0.049 A 
ATOM     28  C   UNL A   1      41.738  29.343  29.269  1.00  0.00     0.074 A 
ATOM     29  C   UNL A   1      42.485  33.635  34.083  1.00  0.00     0.029 A 
ATOM     30  N   UNL A   1      43.030  31.677  33.234  1.00  0.00    -0.354 N 
ATOM     31  N   UNL A   1      42.398  30.458  29.122  1.00  0.00    -0.248 NA
ATOM     32  C   UNL A   1      42.055  28.577  30.461  1.00  0.00     0.031 C 
ATOM     33  C   UNL A   1      42.844  33.786  32.709  1.00  0.00     0.029 A 
ATOM     34  C   UNL A   1      43.009  32.516  32.153  1.00  0.00     0.049 A 
ATOM     35  H   UNL A   1      43.449  30.787  33.257  1.00  0.00     0.167 HD
ATOM     36  C   UNL A   1      42.866  30.751  30.392  1.00  0.00     0.074 A 
ATOM     37  C   UNL A   1      42.738  29.502  31.140  1.00  0.00     0.031 C 
ATOM     38  C   UNL A   1      43.032  32.049  30.784  1.00  0.00     0.037 A 
BRANCH  25  39
ATOM     39  C   UNL A   1      42.050  30.212  35.802  1.00  0.00     0.064 A 
ATOM     40  C   UNL A   1      43.003  30.411  36.822  1.00  0.00     0.173 A 
ATOM     41  C   UNL A   1      41.919  28.882  35.345  1.00  0.00     0.173 A 
ATOM     42  F   UNL A   1      43.235  31.640  37.307  1.00  0.00    -0.203 F 
ATOM     43  C   UNL A   1      43.811  29.372  37.289  1.00  0.00     0.198 A 
ATOM     44  C   UNL A   1      42.690  27.839  35.852  1.00  0.00     0.198 A 
ATOM     45  F   UNL A   1      41.137  28.553  34.312  1.00  0.00    -0.203 F 
ATOM     46  F   UNL A   1      44.793  29.635  38.162  1.00  0.00    -0.200 F 
ATOM     47  C   UNL A   1      43.656  28.088  36.802  1.00  0.00     0.200 A 
ATOM     48  F   UNL A   1      42.544  26.607  35.344  1.00  0.00    -0.200 F 
ATOM     49  F   UNL A   1      44.470  27.103  37.203  1.00  0.00    -0.200 F 
ENDBRANCH  25  39
BRANCH  26  50
ATOM     50  C   UNL A   1      40.283  27.805  27.774  1.00  0.00     0.064 A 
ATOM     51  C   UNL A   1      41.040  27.583  26.609  1.00  0.00     0.173 A 
ATOM     52  C   UNL A   1      39.614  26.685  28.304  1.00  0.00     0.173 A 
ATOM     53  F   UNL A   1      41.733  28.589  26.054  1.00  0.00    -0.203 F 
ATOM     54  C   UNL A   1      41.172  26.309  26.047  1.00  0.00     0.198 A 
ATOM     55  C   UNL A   1      39.744  25.414  27.738  1.00  0.00     0.198 A 
ATOM     56  F   UNL A   1      38.908  26.781  29.440  1.00  0.00    -0.203 F 
ATOM     57  F   UNL A   1      41.973  26.126  24.987  1.00  0.00    -0.200 F 
ATOM     58  C   UNL A   1      40.539  25.222  26.623  1.00  0.00     0.200 A 
ATOM     59  F   UNL A   1      39.151  24.363  28.323  1.00  0.00    -0.200 F 
ATOM     60  F   UNL A   1      40.728  23.989  26.132  1.00  0.00    -0.200 F 
ENDBRANCH  26  50
BRANCH  38  61
ATOM     61  C   UNL A   1      43.051  33.105  29.710  1.00  0.00     0.064 A 
ATOM     62  C   UNL A   1      41.968  33.940  29.388  1.00  0.00     0.173 A 
ATOM     63  C   UNL A   1      44.276  33.366  29.081  1.00  0.00     0.173 A 
ATOM     64  F   UNL A   1      40.784  33.807  29.999  1.00  0.00    -0.203 F 
ATOM     65  C   UNL A   1      42.105  34.973  28.459  1.00  0.00     0.198 A 
ATOM     66  C   UNL A   1      44.419  34.419  28.183  1.00  0.00     0.198 A 
ATOM     67  F   UNL A   1      45.355  32.624  29.380  1.00  0.00    -0.203 F 
ATOM     68  F   UNL A   1      41.056  35.755  28.162  1.00  0.00    -0.200 F 
ATOM     69  C   UNL A   1      43.333  35.218  27.867  1.00  0.00     0.200 A 
ATOM     70  F   UNL A   1      45.621  34.677  27.648  1.00  0.00    -0.200 F 
ATOM     71  F   UNL A   1      43.478  36.240  27.012  1.00  0.00    -0.200 F 
ENDBRANCH  38  61
ENDBRANCH  12  13
ENDBRANCH   5   7
ENDBRANCH   2   3
ENDBRANCH   1   2
BRANCH   1  72
ATOM     72  C   UNL A   1      35.204  33.564  28.451  1.00  0.00     0.002 C 
BRANCH  72  73
ATOM     73  C   UNL A   1      34.270  32.557  27.760  1.00  0.00     0.002 C 
BRANCH  73  74
ATOM     74  C   UNL A   1      34.557  31.072  27.996  1.00  0.00     0.021 C 
BRANCH  74  75
ATOM     75  C   UNL A   1      33.884  30.110  27.021  1.00  0.00     0.116 C 
BRANCH  75  76
ATOM     76  N   UNL A   1      32.837  29.315  27.638  1.00  0.00    -0.351 N 
ATOM     77  C   UNL A   1      32.150  28.224  27.150  1.00  0.00     0.267 C 
ATOM     78  H   UNL A   1      32.577  29.599  28.544  1.00  0.00     0.163 HD
ATOM     79  O   UNL A   1      31.170  27.827  27.759  1.00  0.00    -0.268 OA
BRANCH  77  80
ATOM     80  C   UNL A   1      32.617  27.634  25.919  1.00  0.00     0.105 A 
ATOM     81  C   UNL A   1      33.509  26.590  25.747  1.00  0.00     0.043 A 
ATOM     82  N   UNL A   1      32.273  28.059  24.656  1.00  0.00    -0.350 N 
ATOM     83  C   UNL A   1      33.475  26.209  24.377  1.00  0.00     0.019 A 
ATOM     84  C   UNL A   1      32.653  27.126  23.723  1.00  0.00     0.051 A 
ATOM     85  H   UNL A   1      31.820  28.908  24.451  1.00  0.00     0.167 HD
ATOM     86  C   UNL A   1      34.025  25.157  23.635  1.00  0.00     0.123 A 
ATOM     87  C   UNL A   1      32.336  27.011  22.373  1.00  0.00     0.067 A 
ATOM     88  N   UNL A   1      33.717  25.006  22.323  1.00  0.00    -0.244 NA
ATOM     89  C   UNL A   1      32.894  25.908  21.746  1.00  0.00     0.131 A 
ATOM     90  Cl  UNL A   1      32.527  25.578  20.101  1.00  0.00    -0.062 Cl
ENDBRANCH  77  80
ENDBRANCH  75  76
ENDBRANCH  74  75
ENDBRANCH  73  74
ENDBRANCH  72  73
ENDBRANCH   1  72
TORSDOF 13
ENDMDL
