MODEL 1
REMARK VINA RESULT:     -12.0      0.000      0.000
REMARK SMILES Cc1cccc(/C=C(/F)C(=O)NCCCCCCNC(=O)c2ccc(-c3c4nc(c(-c5c(F)c(F)c(F)c(F)c5F)c5ccc([nH]5)c(-c5c(F)c(F)c(F)c(F)c5F)c5nc(c(-c6c(F)c(F)c(F)c(F)c6F)c6ccc3[nH]6)C=C5)C=C4)cc2)c1C
REMARK SMILES IDX 16 1 15 2 14 3 13 4 12 5 10 6 11 7 8 9 7 10 9 11 6 12 1 13
REMARK SMILES IDX 2 14 3 15 85 16 4 17 86 18 5 19 17 20 18 21 19 22 20 23
REMARK SMILES IDX 21 25 22 26 23 27 84 28 24 29 83 30 25 31 26 32 27 33 77 34
REMARK SMILES IDX 28 35 82 36 76 37 78 38 29 39 81 40 75 41 74 42 30 44 62 45
REMARK SMILES IDX 42 46 61 47 43 48 46 49 60 50 79 51 44 52 45 53 59 55 80 56
REMARK SMILES IDX 47 57 31 58 32 59 40 60 33 61 34 62 38 63 41 64 35 65 36 66
REMARK SMILES IDX 39 67 37 68 63 69 64 70 72 71 65 72 66 73 70 74 73 75 67 76
REMARK SMILES IDX 68 77 71 78 69 79 48 80 49 81 57 82 50 83 51 84 55 85 58 86
REMARK SMILES IDX 52 87 53 88 56 89 54 90
REMARK H PARENT 12 8 19 24 78 43 46 54
REMARK Flexibility Score: inf
ROOT
ATOM      1  C   UNL A   1      31.615  30.694  26.150  1.00  0.00     0.002 C 
ENDROOT
BRANCH   1   2
ATOM      2  C   UNL A   1      32.987  30.128  26.523  1.00  0.00     0.002 C 
BRANCH   2   3
ATOM      3  C   UNL A   1      32.964  28.753  27.216  1.00  0.00     0.021 C 
BRANCH   3   4
ATOM      4  C   UNL A   1      31.568  28.273  27.626  1.00  0.00     0.116 C 
BRANCH   4   5
ATOM      5  N   UNL A   1      31.402  26.898  27.199  1.00  0.00    -0.350 N 
ATOM      6  C   UNL A   1      30.655  26.468  26.140  1.00  0.00     0.280 C 
ATOM      7  O   UNL A   1      29.852  25.553  26.295  1.00  0.00    -0.267 OA
ATOM      8  H   UNL A   1      31.875  26.209  27.721  1.00  0.00     0.163 HD
BRANCH   6   9
ATOM      9  C   UNL A   1      31.039  26.992  24.808  1.00  0.00     0.188 C 
ATOM     10  C   UNL A   1      31.981  26.457  24.018  1.00  0.00     0.053 C 
ATOM     11  F   UNL A   1      30.436  28.139  24.426  1.00  0.00    -0.201 F 
BRANCH  10  12
ATOM     12  C   UNL A   1      32.808  25.244  24.206  1.00  0.00    -0.019 A 
ATOM     13  C   UNL A   1      33.042  21.424  23.812  1.00  0.00     0.044 C 
ATOM     14  C   UNL A   1      33.359  22.855  24.168  1.00  0.00    -0.048 A 
ATOM     15  C   UNL A   1      34.623  23.143  24.698  1.00  0.00     0.004 A 
ATOM     16  C   UNL A   1      32.414  23.900  23.975  1.00  0.00    -0.041 A 
ATOM     17  C   UNL A   1      34.981  24.451  24.996  1.00  0.00     0.001 A 
ATOM     18  C   UNL A   1      31.029  23.528  23.508  1.00  0.00     0.045 C 
ATOM     19  C   UNL A   1      34.089  25.489  24.736  1.00  0.00     0.008 A 
ENDBRANCH  10  12
ENDBRANCH   6   9
ENDBRANCH   4   5
ENDBRANCH   3   4
ENDBRANCH   2   3
ENDBRANCH   1   2
BRANCH   1  20
ATOM     20  C   UNL A   1      31.409  32.168  26.501  1.00  0.00     0.021 C 
BRANCH  20  21
ATOM     21  C   UNL A   1      32.537  32.799  27.309  1.00  0.00     0.116 C 
BRANCH  21  22
ATOM     22  N   UNL A   1      32.298  34.200  27.611  1.00  0.00    -0.352 N 
ATOM     23  C   UNL A   1      32.936  34.995  28.531  1.00  0.00     0.251 C 
ATOM     24  H   UNL A   1      31.587  34.636  27.089  1.00  0.00     0.163 HD
ATOM     25  O   UNL A   1      32.527  36.132  28.763  1.00  0.00    -0.269 OA
BRANCH  23  26
ATOM     26  C   UNL A   1      34.100  34.467  29.272  1.00  0.00     0.039 A 
ATOM     27  C   UNL A   1      33.886  33.830  30.497  1.00  0.00     0.014 A 
ATOM     28  C   UNL A   1      35.394  34.583  28.755  1.00  0.00     0.014 A 
ATOM     29  C   UNL A   1      34.962  33.253  31.174  1.00  0.00     0.010 A 
ATOM     30  C   UNL A   1      36.456  33.955  29.401  1.00  0.00     0.010 A 
ATOM     31  C   UNL A   1      36.250  33.284  30.616  1.00  0.00    -0.014 A 
BRANCH  31  32
ATOM     32  C   UNL A   1      37.393  32.620  31.290  1.00  0.00     0.031 A 
ATOM     33  C   UNL A   1      38.100  31.474  30.622  1.00  0.00     0.074 A 
ATOM     34  C   UNL A   1      37.756  33.008  32.528  1.00  0.00     0.049 A 
ATOM     35  N   UNL A   1      39.073  30.725  31.076  1.00  0.00    -0.248 NA
ATOM     36  C   UNL A   1      37.635  31.106  29.276  1.00  0.00     0.031 C 
ATOM     37  C   UNL A   1      37.118  34.075  33.300  1.00  0.00     0.029 A 
ATOM     38  N   UNL A   1      38.742  32.539  33.359  1.00  0.00    -0.354 N 
ATOM     39  C   UNL A   1      39.325  29.791  30.081  1.00  0.00     0.074 A 
ATOM     40  C   UNL A   1      38.374  30.037  29.017  1.00  0.00     0.031 C 
ATOM     41  C   UNL A   1      37.739  34.190  34.485  1.00  0.00     0.029 A 
ATOM     42  C   UNL A   1      38.796  33.187  34.568  1.00  0.00     0.049 A 
ATOM     43  H   UNL A   1      39.352  31.806  33.112  1.00  0.00     0.167 HD
ATOM     44  C   UNL A   1      40.277  28.828  30.047  1.00  0.00     0.037 A 
ATOM     45  C   UNL A   1      39.605  32.990  35.627  1.00  0.00     0.037 A 
ATOM     46  C   UNL A   1      41.244  28.605  31.090  1.00  0.00     0.049 A 
ATOM     47  C   UNL A   1      40.657  31.917  35.561  1.00  0.00     0.074 A 
ATOM     48  C   UNL A   1      42.291  27.701  31.116  1.00  0.00     0.029 A 
ATOM     49  N   UNL A   1      41.279  29.295  32.292  1.00  0.00    -0.354 N 
ATOM     50  N   UNL A   1      40.929  31.084  34.587  1.00  0.00    -0.248 NA
ATOM     51  C   UNL A   1      41.518  31.760  36.743  1.00  0.00     0.031 C 
ATOM     52  C   UNL A   1      42.940  27.818  32.351  1.00  0.00     0.029 A 
ATOM     53  C   UNL A   1      42.320  28.822  33.077  1.00  0.00     0.049 A 
ATOM     54  H   UNL A   1      40.658  30.014  32.549  1.00  0.00     0.167 HD
ATOM     55  C   UNL A   1      42.003  30.321  35.025  1.00  0.00     0.074 A 
ATOM     56  C   UNL A   1      42.344  30.801  36.349  1.00  0.00     0.031 C 
ATOM     57  C   UNL A   1      42.648  29.313  34.389  1.00  0.00     0.037 A 
BRANCH  44  58
ATOM     58  C   UNL A   1      40.326  27.945  28.836  1.00  0.00     0.064 A 
ATOM     59  C   UNL A   1      41.086  28.290  27.708  1.00  0.00     0.173 A 
ATOM     60  C   UNL A   1      39.639  26.722  28.817  1.00  0.00     0.173 A 
ATOM     61  F   UNL A   1      41.751  29.454  27.673  1.00  0.00    -0.203 F 
ATOM     62  C   UNL A   1      41.135  27.455  26.595  1.00  0.00     0.198 A 
ATOM     63  C   UNL A   1      39.712  25.877  27.713  1.00  0.00     0.198 A 
ATOM     64  F   UNL A   1      38.903  26.344  29.873  1.00  0.00    -0.203 F 
ATOM     65  F   UNL A   1      41.833  27.825  25.512  1.00  0.00    -0.200 F 
ATOM     66  C   UNL A   1      40.454  26.247  26.601  1.00  0.00     0.200 A 
ATOM     67  F   UNL A   1      39.063  24.706  27.723  1.00  0.00    -0.200 F 
ATOM     68  F   UNL A   1      40.509  25.441  25.531  1.00  0.00    -0.200 F 
ENDBRANCH  44  58
BRANCH  45  69
ATOM     69  C   UNL A   1      39.466  33.843  36.834  1.00  0.00     0.064 A 
ATOM     70  C   UNL A   1      38.695  33.421  37.926  1.00  0.00     0.173 A 
ATOM     71  C   UNL A   1      40.096  35.092  36.922  1.00  0.00     0.173 A 
ATOM     72  F   UNL A   1      38.057  32.242  37.877  1.00  0.00    -0.203 F 
ATOM     73  C   UNL A   1      38.543  34.225  39.053  1.00  0.00     0.198 A 
ATOM     74  C   UNL A   1      39.962  35.886  38.060  1.00  0.00     0.198 A 
ATOM     75  F   UNL A   1      40.847  35.539  35.905  1.00  0.00    -0.203 F 
ATOM     76  F   UNL A   1      37.765  33.815  40.065  1.00  0.00    -0.200 F 
ATOM     77  C   UNL A   1      39.181  35.455  39.122  1.00  0.00     0.200 A 
ATOM     78  F   UNL A   1      40.589  37.068  38.127  1.00  0.00    -0.200 F 
ATOM     79  F   UNL A   1      39.036  36.227  40.206  1.00  0.00    -0.200 F 
ENDBRANCH  45  69
BRANCH  57  80
ATOM     80  C   UNL A   1      43.801  28.676  35.105  1.00  0.00     0.064 A 
ATOM     81  C   UNL A   1      45.109  29.160  34.960  1.00  0.00     0.173 A 
ATOM     82  C   UNL A   1      43.588  27.598  35.977  1.00  0.00     0.173 A 
ATOM     83  F   UNL A   1      45.364  30.178  34.124  1.00  0.00    -0.203 F 
ATOM     84  C   UNL A   1      46.168  28.573  35.648  1.00  0.00     0.198 A 
ATOM     85  C   UNL A   1      44.645  27.030  36.682  1.00  0.00     0.198 A 
ATOM     86  F   UNL A   1      42.354  27.103  36.152  1.00  0.00    -0.203 F 
ATOM     87  F   UNL A   1      47.416  29.025  35.464  1.00  0.00    -0.200 F 
ATOM     88  C   UNL A   1      45.934  27.515  36.514  1.00  0.00     0.200 A 
ATOM     89  F   UNL A   1      44.417  26.014  37.526  1.00  0.00    -0.200 F 
ATOM     90  F   UNL A   1      46.954  26.955  37.181  1.00  0.00    -0.200 F 
ENDBRANCH  57  80
ENDBRANCH  31  32
ENDBRANCH  23  26
ENDBRANCH  21  22
ENDBRANCH  20  21
ENDBRANCH   1  20
TORSDOF 14
ENDMDL
MODEL 2
REMARK VINA RESULT:     -12.0      1.142      2.875
REMARK SMILES Cc1cccc(/C=C(/F)C(=O)NCCCCCCNC(=O)c2ccc(-c3c4nc(c(-c5c(F)c(F)c(F)c(F)c5F)c5ccc([nH]5)c(-c5c(F)c(F)c(F)c(F)c5F)c5nc(c(-c6c(F)c(F)c(F)c(F)c6F)c6ccc3[nH]6)C=C5)C=C4)cc2)c1C
REMARK SMILES IDX 16 1 15 2 14 3 13 4 12 5 10 6 11 7 8 9 7 10 9 11 6 12 1 13
REMARK SMILES IDX 2 14 3 15 85 16 4 17 86 18 5 19 17 20 18 21 19 22 20 23
REMARK SMILES IDX 21 25 22 26 23 27 84 28 24 29 83 30 25 31 26 32 27 33 77 34
REMARK SMILES IDX 28 35 82 36 76 37 78 38 29 39 81 40 75 41 74 42 30 44 62 45
REMARK SMILES IDX 42 46 61 47 43 48 46 49 60 50 79 51 44 52 45 53 59 55 80 56
REMARK SMILES IDX 47 57 31 58 32 59 40 60 33 61 34 62 38 63 41 64 35 65 36 66
REMARK SMILES IDX 39 67 37 68 63 69 64 70 72 71 65 72 66 73 70 74 73 75 67 76
REMARK SMILES IDX 68 77 71 78 69 79 48 80 49 81 57 82 50 83 51 84 55 85 58 86
REMARK SMILES IDX 52 87 53 88 56 89 54 90
REMARK H PARENT 12 8 19 24 78 43 46 54
REMARK Flexibility Score: inf
ROOT
ATOM      1  C   UNL A   1      31.717  30.718  26.092  1.00  0.00     0.002 C 
ENDROOT
BRANCH   1   2
ATOM      2  C   UNL A   1      32.376  29.791  27.117  1.00  0.00     0.002 C 
BRANCH   2   3
ATOM      3  C   UNL A   1      33.738  29.209  26.697  1.00  0.00     0.021 C 
BRANCH   3   4
ATOM      4  C   UNL A   1      33.648  27.941  25.841  1.00  0.00     0.116 C 
BRANCH   4   5
ATOM      5  N   UNL A   1      32.883  26.943  26.563  1.00  0.00    -0.350 N 
ATOM      6  C   UNL A   1      31.744  26.330  26.124  1.00  0.00     0.280 C 
ATOM      7  O   UNL A   1      30.758  26.285  26.855  1.00  0.00    -0.267 OA
ATOM      8  H   UNL A   1      33.216  26.683  27.452  1.00  0.00     0.163 HD
BRANCH   6   9
ATOM      9  C   UNL A   1      31.858  25.550  24.869  1.00  0.00     0.188 C 
ATOM     10  C   UNL A   1      31.387  25.945  23.678  1.00  0.00     0.053 C 
ATOM     11  F   UNL A   1      32.410  24.322  24.982  1.00  0.00    -0.201 F 
BRANCH  10  12
ATOM     12  C   UNL A   1      30.718  27.206  23.286  1.00  0.00    -0.019 A 
ATOM     13  C   UNL A   1      27.426  29.193  23.173  1.00  0.00     0.044 C 
ATOM     14  C   UNL A   1      28.864  28.781  22.984  1.00  0.00    -0.048 A 
ATOM     15  C   UNL A   1      29.750  29.707  22.417  1.00  0.00     0.004 A 
ATOM     16  C   UNL A   1      29.331  27.494  23.367  1.00  0.00    -0.041 A 
ATOM     17  C   UNL A   1      31.094  29.395  22.266  1.00  0.00     0.001 A 
ATOM     18  C   UNL A   1      28.321  26.493  23.869  1.00  0.00     0.045 C 
ATOM     19  C   UNL A   1      31.574  28.165  22.712  1.00  0.00     0.008 A 
ENDBRANCH  10  12
ENDBRANCH   6   9
ENDBRANCH   4   5
ENDBRANCH   3   4
ENDBRANCH   2   3
ENDBRANCH   1   2
BRANCH   1  20
ATOM     20  C   UNL A   1      31.432  32.134  26.594  1.00  0.00     0.021 C 
BRANCH  20  21
ATOM     21  C   UNL A   1      32.593  32.803  27.323  1.00  0.00     0.116 C 
BRANCH  21  22
ATOM     22  N   UNL A   1      32.339  34.201  27.625  1.00  0.00    -0.352 N 
ATOM     23  C   UNL A   1      32.966  35.003  28.546  1.00  0.00     0.251 C 
ATOM     24  H   UNL A   1      31.623  34.629  27.102  1.00  0.00     0.163 HD
ATOM     25  O   UNL A   1      32.545  36.136  28.777  1.00  0.00    -0.269 OA
BRANCH  23  26
ATOM     26  C   UNL A   1      34.135  34.488  29.287  1.00  0.00     0.039 A 
ATOM     27  C   UNL A   1      33.931  33.885  30.531  1.00  0.00     0.014 A 
ATOM     28  C   UNL A   1      35.425  34.582  28.754  1.00  0.00     0.014 A 
ATOM     29  C   UNL A   1      35.011  33.320  31.212  1.00  0.00     0.010 A 
ATOM     30  C   UNL A   1      36.490  33.965  29.404  1.00  0.00     0.010 A 
ATOM     31  C   UNL A   1      36.293  33.328  30.639  1.00  0.00    -0.014 A 
BRANCH  31  32
ATOM     32  C   UNL A   1      37.440  32.675  31.318  1.00  0.00     0.031 A 
ATOM     33  C   UNL A   1      38.161  31.536  30.654  1.00  0.00     0.074 A 
ATOM     34  C   UNL A   1      37.794  33.067  32.557  1.00  0.00     0.049 A 
ATOM     35  N   UNL A   1      39.139  30.796  31.112  1.00  0.00    -0.248 NA
ATOM     36  C   UNL A   1      37.705  31.163  29.306  1.00  0.00     0.031 C 
ATOM     37  C   UNL A   1      37.143  34.128  33.326  1.00  0.00     0.029 A 
ATOM     38  N   UNL A   1      38.781  32.608  33.393  1.00  0.00    -0.354 N 
ATOM     39  C   UNL A   1      39.403  29.864  30.118  1.00  0.00     0.074 A 
ATOM     40  C   UNL A   1      38.455  30.101  29.051  1.00  0.00     0.031 C 
ATOM     41  C   UNL A   1      37.758  34.250  34.514  1.00  0.00     0.029 A 
ATOM     42  C   UNL A   1      38.824  33.257  34.602  1.00  0.00     0.049 A 
ATOM     43  H   UNL A   1      39.399  31.880  33.149  1.00  0.00     0.167 HD
ATOM     44  C   UNL A   1      40.365  28.911  30.088  1.00  0.00     0.037 A 
ATOM     45  C   UNL A   1      39.631  33.068  35.664  1.00  0.00     0.037 A 
ATOM     46  C   UNL A   1      41.330  28.697  31.136  1.00  0.00     0.049 A 
ATOM     47  C   UNL A   1      40.693  32.005  35.603  1.00  0.00     0.074 A 
ATOM     48  C   UNL A   1      42.385  27.803  31.167  1.00  0.00     0.029 A 
ATOM     49  N   UNL A   1      41.353  29.388  32.338  1.00  0.00    -0.354 N 
ATOM     50  N   UNL A   1      40.977  31.175  34.631  1.00  0.00    -0.248 NA
ATOM     51  C   UNL A   1      41.550  31.857  36.788  1.00  0.00     0.031 C 
ATOM     52  C   UNL A   1      43.028  27.927  32.404  1.00  0.00     0.029 A 
ATOM     53  C   UNL A   1      42.395  28.926  33.127  1.00  0.00     0.049 A 
ATOM     54  H   UNL A   1      40.725  30.101  32.592  1.00  0.00     0.167 HD
ATOM     55  C   UNL A   1      42.056  30.422  35.074  1.00  0.00     0.074 A 
ATOM     56  C   UNL A   1      42.387  30.906  36.399  1.00  0.00     0.031 C 
ATOM     57  C   UNL A   1      42.713  29.420  34.441  1.00  0.00     0.037 A 
BRANCH  44  58
ATOM     58  C   UNL A   1      40.428  28.028  28.879  1.00  0.00     0.064 A 
ATOM     59  C   UNL A   1      39.727  26.813  28.820  1.00  0.00     0.173 A 
ATOM     60  C   UNL A   1      41.163  28.417  27.749  1.00  0.00     0.173 A 
ATOM     61  F   UNL A   1      39.019  26.392  29.879  1.00  0.00    -0.203 F 
ATOM     62  C   UNL A   1      39.781  26.009  27.686  1.00  0.00     0.198 A 
ATOM     63  C   UNL A   1      41.194  27.622  26.606  1.00  0.00     0.198 A 
ATOM     64  F   UNL A   1      41.847  29.572  27.752  1.00  0.00    -0.203 F 
ATOM     65  F   UNL A   1      39.139  24.833  27.668  1.00  0.00    -0.200 F 
ATOM     66  C   UNL A   1      40.509  26.417  26.578  1.00  0.00     0.200 A 
ATOM     67  F   UNL A   1      41.888  28.023  25.532  1.00  0.00    -0.200 F 
ATOM     68  F   UNL A   1      40.554  25.644  25.483  1.00  0.00    -0.200 F 
ENDBRANCH  44  58
BRANCH  45  69
ATOM     69  C   UNL A   1      39.479  33.920  36.870  1.00  0.00     0.064 A 
ATOM     70  C   UNL A   1      40.092  35.179  36.941  1.00  0.00     0.173 A 
ATOM     71  C   UNL A   1      38.724  33.497  37.973  1.00  0.00     0.173 A 
ATOM     72  F   UNL A   1      40.842  35.615  35.918  1.00  0.00    -0.203 F 
ATOM     73  C   UNL A   1      39.972  35.975  38.078  1.00  0.00     0.198 A 
ATOM     74  C   UNL A   1      38.584  34.305  39.100  1.00  0.00     0.198 A 
ATOM     75  F   UNL A   1      38.115  32.302  37.953  1.00  0.00    -0.203 F 
ATOM     76  F   UNL A   1      40.603  37.156  38.136  1.00  0.00    -0.200 F 
ATOM     77  C   UNL A   1      39.213  35.539  39.155  1.00  0.00     0.200 A 
ATOM     78  F   UNL A   1      37.842  33.886  40.134  1.00  0.00    -0.200 F 
ATOM     79  F   UNL A   1      39.096  36.306  40.247  1.00  0.00    -0.200 F 
ENDBRANCH  45  69
BRANCH  57  80
ATOM     80  C   UNL A   1      43.869  28.795  35.161  1.00  0.00     0.064 A 
ATOM     81  C   UNL A   1      43.692  27.694  36.013  1.00  0.00     0.173 A 
ATOM     82  C   UNL A   1      45.173  29.275  34.966  1.00  0.00     0.173 A 
ATOM     83  F   UNL A   1      42.462  27.211  36.245  1.00  0.00    -0.203 F 
ATOM     84  C   UNL A   1      44.778  27.109  36.659  1.00  0.00     0.198 A 
ATOM     85  C   UNL A   1      46.258  28.671  35.594  1.00  0.00     0.198 A 
ATOM     86  F   UNL A   1      45.393  30.322  34.157  1.00  0.00    -0.203 F 
ATOM     87  F   UNL A   1      44.581  26.084  37.500  1.00  0.00    -0.200 F 
ATOM     88  C   UNL A   1      46.060  27.593  36.443  1.00  0.00     0.200 A 
ATOM     89  F   UNL A   1      47.498  29.133  35.377  1.00  0.00    -0.200 F 
ATOM     90  F   UNL A   1      47.104  27.024  37.061  1.00  0.00    -0.200 F 
ENDBRANCH  57  80
ENDBRANCH  31  32
ENDBRANCH  23  26
ENDBRANCH  21  22
ENDBRANCH  20  21
ENDBRANCH   1  20
TORSDOF 14
ENDMDL
MODEL 3
REMARK VINA RESULT:     -12.0      1.196      2.142
REMARK SMILES Cc1cccc(/C=C(/F)C(=O)NCCCCCCNC(=O)c2ccc(-c3c4nc(c(-c5c(F)c(F)c(F)c(F)c5F)c5ccc([nH]5)c(-c5c(F)c(F)c(F)c(F)c5F)c5nc(c(-c6c(F)c(F)c(F)c(F)c6F)c6ccc3[nH]6)C=C5)C=C4)cc2)c1C
REMARK SMILES IDX 16 1 15 2 14 3 13 4 12 5 10 6 11 7 8 9 7 10 9 11 6 12 1 13
REMARK SMILES IDX 2 14 3 15 85 16 4 17 86 18 5 19 17 20 18 21 19 22 20 23
REMARK SMILES IDX 21 25 22 26 23 27 84 28 24 29 83 30 25 31 26 32 27 33 77 34
REMARK SMILES IDX 28 35 82 36 76 37 78 38 29 39 81 40 75 41 74 42 30 44 62 45
REMARK SMILES IDX 42 46 61 47 43 48 46 49 60 50 79 51 44 52 45 53 59 55 80 56
REMARK SMILES IDX 47 57 31 58 32 59 40 60 33 61 34 62 38 63 41 64 35 65 36 66
REMARK SMILES IDX 39 67 37 68 63 69 64 70 72 71 65 72 66 73 70 74 73 75 67 76
REMARK SMILES IDX 68 77 71 78 69 79 48 80 49 81 57 82 50 83 51 84 55 85 58 86
REMARK SMILES IDX 52 87 53 88 56 89 54 90
REMARK H PARENT 12 8 19 24 78 43 46 54
REMARK Flexibility Score: inf
ROOT
ATOM      1  C   UNL A   1      31.538  30.584  26.705  1.00  0.00     0.002 C 
ENDROOT
BRANCH   1   2
ATOM      2  C   UNL A   1      32.374  29.930  25.602  1.00  0.00     0.002 C 
BRANCH   2   3
ATOM      3  C   UNL A   1      33.599  29.135  26.090  1.00  0.00     0.021 C 
BRANCH   3   4
ATOM      4  C   UNL A   1      33.665  27.693  25.574  1.00  0.00     0.116 C 
BRANCH   4   5
ATOM      5  N   UNL A   1      32.822  26.859  26.408  1.00  0.00    -0.350 N 
ATOM      6  C   UNL A   1      31.580  26.390  26.084  1.00  0.00     0.280 C 
ATOM      7  O   UNL A   1      30.653  26.530  26.876  1.00  0.00    -0.267 OA
ATOM      8  H   UNL A   1      33.178  26.606  27.291  1.00  0.00     0.163 HD
BRANCH   6   9
ATOM      9  C   UNL A   1      31.496  25.530  24.881  1.00  0.00     0.188 C 
ATOM     10  C   UNL A   1      30.963  25.905  23.709  1.00  0.00     0.053 C 
ATOM     11  F   UNL A   1      31.922  24.256  25.031  1.00  0.00    -0.201 F 
BRANCH  10  12
ATOM     12  C   UNL A   1      30.399  27.207  23.289  1.00  0.00    -0.019 A 
ATOM     13  C   UNL A   1      27.278  29.451  23.126  1.00  0.00     0.044 C 
ATOM     14  C   UNL A   1      28.679  28.921  22.949  1.00  0.00    -0.048 A 
ATOM     15  C   UNL A   1      29.638  29.760  22.366  1.00  0.00     0.004 A 
ATOM     16  C   UNL A   1      29.040  27.608  23.360  1.00  0.00    -0.041 A 
ATOM     17  C   UNL A   1      30.952  29.337  22.227  1.00  0.00     0.001 A 
ATOM     18  C   UNL A   1      27.951  26.702  23.879  1.00  0.00     0.045 C 
ATOM     19  C   UNL A   1      31.330  28.082  22.699  1.00  0.00     0.008 A 
ENDBRANCH  10  12
ENDBRANCH   6   9
ENDBRANCH   4   5
ENDBRANCH   3   4
ENDBRANCH   2   3
ENDBRANCH   1   2
BRANCH   1  20
ATOM     20  C   UNL A   1      31.478  32.110  26.650  1.00  0.00     0.021 C 
BRANCH  20  21
ATOM     21  C   UNL A   1      32.673  32.823  27.272  1.00  0.00     0.116 C 
BRANCH  21  22
ATOM     22  N   UNL A   1      32.386  34.203  27.626  1.00  0.00    -0.352 N 
ATOM     23  C   UNL A   1      32.975  34.976  28.595  1.00  0.00     0.251 C 
ATOM     24  H   UNL A   1      31.676  34.640  27.103  1.00  0.00     0.163 HD
ATOM     25  O   UNL A   1      32.528  36.090  28.863  1.00  0.00    -0.269 OA
BRANCH  23  26
ATOM     26  C   UNL A   1      34.135  34.450  29.345  1.00  0.00     0.039 A 
ATOM     27  C   UNL A   1      33.912  33.802  30.563  1.00  0.00     0.014 A 
ATOM     28  C   UNL A   1      35.434  34.578  28.843  1.00  0.00     0.014 A 
ATOM     29  C   UNL A   1      34.984  33.228  31.248  1.00  0.00     0.010 A 
ATOM     30  C   UNL A   1      36.492  33.952  29.496  1.00  0.00     0.010 A 
ATOM     31  C   UNL A   1      36.277  33.271  30.704  1.00  0.00    -0.014 A 
BRANCH  31  32
ATOM     32  C   UNL A   1      37.418  32.609  31.385  1.00  0.00     0.031 A 
ATOM     33  C   UNL A   1      38.124  31.457  30.728  1.00  0.00     0.074 A 
ATOM     34  C   UNL A   1      37.778  33.006  32.621  1.00  0.00     0.049 A 
ATOM     35  N   UNL A   1      39.094  30.709  31.190  1.00  0.00    -0.248 NA
ATOM     36  C   UNL A   1      37.661  31.080  29.383  1.00  0.00     0.031 C 
ATOM     37  C   UNL A   1      37.142  34.081  33.384  1.00  0.00     0.029 A 
ATOM     38  N   UNL A   1      38.762  32.541  33.459  1.00  0.00    -0.354 N 
ATOM     39  C   UNL A   1      39.346  29.768  30.202  1.00  0.00     0.074 A 
ATOM     40  C   UNL A   1      38.399  30.008  29.135  1.00  0.00     0.031 C 
ATOM     41  C   UNL A   1      37.760  34.203  34.569  1.00  0.00     0.029 A 
ATOM     42  C   UNL A   1      38.814  33.198  34.663  1.00  0.00     0.049 A 
ATOM     43  H   UNL A   1      39.370  31.805  33.218  1.00  0.00     0.167 HD
ATOM     44  C   UNL A   1      40.296  28.802  30.178  1.00  0.00     0.037 A 
ATOM     45  C   UNL A   1      39.621  33.007  35.725  1.00  0.00     0.037 A 
ATOM     46  C   UNL A   1      41.260  28.585  31.225  1.00  0.00     0.049 A 
ATOM     47  C   UNL A   1      40.670  31.932  35.670  1.00  0.00     0.074 A 
ATOM     48  C   UNL A   1      42.305  27.679  31.260  1.00  0.00     0.029 A 
ATOM     49  N   UNL A   1      41.294  29.284  32.422  1.00  0.00    -0.354 N 
ATOM     50  N   UNL A   1      40.943  31.091  34.702  1.00  0.00    -0.248 NA
ATOM     51  C   UNL A   1      41.528  31.783  36.854  1.00  0.00     0.031 C 
ATOM     52  C   UNL A   1      42.951  27.804  32.495  1.00  0.00     0.029 A 
ATOM     53  C   UNL A   1      42.332  28.815  33.212  1.00  0.00     0.049 A 
ATOM     54  H   UNL A   1      40.674  30.006  32.672  1.00  0.00     0.167 HD
ATOM     55  C   UNL A   1      42.014  30.329  35.149  1.00  0.00     0.074 A 
ATOM     56  C   UNL A   1      42.352  30.818  36.470  1.00  0.00     0.031 C 
ATOM     57  C   UNL A   1      42.658  29.315  34.522  1.00  0.00     0.037 A 
BRANCH  44  58
ATOM     58  C   UNL A   1      40.346  27.910  28.974  1.00  0.00     0.064 A 
ATOM     59  C   UNL A   1      41.117  28.241  27.848  1.00  0.00     0.173 A 
ATOM     60  C   UNL A   1      39.650  26.693  28.959  1.00  0.00     0.173 A 
ATOM     61  F   UNL A   1      41.791  29.399  27.810  1.00  0.00    -0.203 F 
ATOM     62  C   UNL A   1      41.167  27.397  26.742  1.00  0.00     0.198 A 
ATOM     63  C   UNL A   1      39.723  25.839  27.861  1.00  0.00     0.198 A 
ATOM     64  F   UNL A   1      38.903  26.328  30.013  1.00  0.00    -0.203 F 
ATOM     65  F   UNL A   1      41.875  27.753  25.661  1.00  0.00    -0.200 F 
ATOM     66  C   UNL A   1      40.476  26.195  26.752  1.00  0.00     0.200 A 
ATOM     67  F   UNL A   1      39.064  24.673  27.877  1.00  0.00    -0.200 F 
ATOM     68  F   UNL A   1      40.531  25.381  25.689  1.00  0.00    -0.200 F 
ENDBRANCH  44  58
BRANCH  45  69
ATOM     69  C   UNL A   1      39.481  33.870  36.925  1.00  0.00     0.064 A 
ATOM     70  C   UNL A   1      38.722  33.449  38.027  1.00  0.00     0.173 A 
ATOM     71  C   UNL A   1      40.097  35.127  36.997  1.00  0.00     0.173 A 
ATOM     72  F   UNL A   1      38.097  32.263  37.993  1.00  0.00    -0.203 F 
ATOM     73  C   UNL A   1      38.569  34.262  39.147  1.00  0.00     0.198 A 
ATOM     74  C   UNL A   1      39.962  35.929  38.129  1.00  0.00     0.198 A 
ATOM     75  F   UNL A   1      40.836  35.573  35.971  1.00  0.00    -0.203 F 
ATOM     76  F   UNL A   1      37.803  33.853  40.169  1.00  0.00    -0.200 F 
ATOM     77  C   UNL A   1      39.193  35.500  39.200  1.00  0.00     0.200 A 
ATOM     78  F   UNL A   1      40.576  37.119  38.180  1.00  0.00    -0.200 F 
ATOM     79  F   UNL A   1      39.047  36.281  40.279  1.00  0.00    -0.200 F 
ENDBRANCH  45  69
BRANCH  57  80
ATOM     80  C   UNL A   1      43.808  28.681  35.245  1.00  0.00     0.064 A 
ATOM     81  C   UNL A   1      45.120  29.149  35.085  1.00  0.00     0.173 A 
ATOM     82  C   UNL A   1      43.588  27.622  36.139  1.00  0.00     0.173 A 
ATOM     83  F   UNL A   1      45.381  30.147  34.228  1.00  0.00    -0.203 F 
ATOM     84  C   UNL A   1      46.176  28.565  35.780  1.00  0.00     0.198 A 
ATOM     85  C   UNL A   1      44.643  27.059  36.851  1.00  0.00     0.198 A 
ATOM     86  F   UNL A   1      42.350  27.143  36.330  1.00  0.00    -0.203 F 
ATOM     87  F   UNL A   1      47.428  29.000  35.582  1.00  0.00    -0.200 F 
ATOM     88  C   UNL A   1      45.936  27.526  36.668  1.00  0.00     0.200 A 
ATOM     89  F   UNL A   1      44.409  26.062  37.716  1.00  0.00    -0.200 F 
ATOM     90  F   UNL A   1      46.953  26.970  37.341  1.00  0.00    -0.200 F 
ENDBRANCH  57  80
ENDBRANCH  31  32
ENDBRANCH  23  26
ENDBRANCH  21  22
ENDBRANCH  20  21
ENDBRANCH   1  20
TORSDOF 14
ENDMDL
