MODEL 1
REMARK VINA RESULT:     -11.0      0.000      0.000
REMARK SMILES O=C(Cc1ccc(NC(=O)C2CCCC2)cc1)NCCCCCCNC(=O)c1ccc(-c2c3nc(c(-c4c(F)c(F)c(F)c(F)c4F)c4ccc([nH]4)c(-c4c(F)c(F)c(F)c(F)c4F)c4nc(c(-c5c(F)c(F)c(F)c(F)c5F)c5ccc2[nH]5)C=C4)C=C3)cc1
REMARK SMILES IDX 21 1 20 2 19 3 18 4 1 5 2 6 3 8 4 9 5 10 17 11 6 12 16 13
REMARK SMILES IDX 7 14 8 15 9 16 10 18 11 19 12 20 15 21 13 22 14 23 22 24
REMARK SMILES IDX 23 25 24 26 25 27 26 28 27 30 28 31 29 32 90 33 30 34 89 35
REMARK SMILES IDX 31 36 32 37 33 38 83 39 34 40 88 41 82 42 84 43 35 44 87 45
REMARK SMILES IDX 81 46 80 47 36 49 68 50 48 51 67 52 49 53 52 54 66 55 85 56
REMARK SMILES IDX 50 57 51 58 65 60 86 61 53 62 37 63 38 64 46 65 39 66 40 67
REMARK SMILES IDX 44 68 47 69 41 70 42 71 45 72 43 73 69 74 70 75 78 76 71 77
REMARK SMILES IDX 72 78 76 79 79 80 73 81 74 82 77 83 75 84 54 85 55 86 63 87
REMARK SMILES IDX 56 88 57 89 61 90 64 91 58 92 59 93 62 94 60 95
REMARK H PARENT 18 7 8 17 25 29 84 48 52 59
REMARK Flexibility Score: inf
ROOT
ATOM      1  C   UNL A   1      33.145  23.380  26.655  1.00  0.00     0.002 C 
ENDROOT
BRANCH   1   2
ATOM      2  C   UNL A   1      33.862  22.210  27.345  1.00  0.00     0.021 C 
BRANCH   2   3
ATOM      3  C   UNL A   1      33.873  20.914  26.543  1.00  0.00     0.116 C 
BRANCH   3   4
ATOM      4  N   UNL A   1      33.415  21.145  25.196  1.00  0.00    -0.356 N 
ATOM      5  O   UNL A   1      32.013  19.328  25.068  1.00  0.00    -0.275 OA
ATOM      6  C   UNL A   1      32.494  20.338  24.568  1.00  0.00     0.224 C 
ATOM      7  H   UNL A   1      33.776  21.916  24.703  1.00  0.00     0.163 HD
BRANCH   6   8
ATOM      8  C   UNL A   1      32.161  20.808  23.172  1.00  0.00     0.135 C 
BRANCH   8   9
ATOM      9  C   UNL A   1      32.189  22.302  22.943  1.00  0.00    -0.039 A 
ATOM     10  C   UNL A   1      31.136  23.039  23.480  1.00  0.00     0.006 A 
ATOM     11  C   UNL A   1      33.153  22.994  22.199  1.00  0.00     0.006 A 
ATOM     12  C   UNL A   1      31.057  24.421  23.303  1.00  0.00     0.026 A 
ATOM     13  C   UNL A   1      33.064  24.383  22.020  1.00  0.00     0.026 A 
ATOM     14  C   UNL A   1      32.021  25.125  22.587  1.00  0.00     0.041 A 
BRANCH  14  15
ATOM     15  N   UNL A   1      32.051  26.521  22.376  1.00  0.00    -0.326 N 
ATOM     16  C   UNL A   1      32.257  27.611  23.181  1.00  0.00     0.227 C 
ATOM     17  H   UNL A   1      31.886  26.767  21.437  1.00  0.00     0.169 HD
ATOM     18  O   UNL A   1      32.173  28.731  22.668  1.00  0.00    -0.274 OA
BRANCH  16  19
ATOM     19  C   UNL A   1      32.594  27.440  24.641  1.00  0.00     0.079 C 
ATOM     20  C   UNL A   1      33.808  28.275  25.047  1.00  0.00     0.013 C 
ATOM     21  C   UNL A   1      31.566  27.923  25.659  1.00  0.00     0.013 C 
ATOM     22  C   UNL A   1      33.833  28.125  26.559  1.00  0.00     0.001 C 
ATOM     23  C   UNL A   1      32.368  27.931  26.965  1.00  0.00     0.001 C 
ENDBRANCH  16  19
ENDBRANCH  14  15
ENDBRANCH   8   9
ENDBRANCH   6   8
ENDBRANCH   3   4
ENDBRANCH   2   3
ENDBRANCH   1   2
BRANCH   1  24
ATOM     24  C   UNL A   1      34.062  24.472  26.097  1.00  0.00     0.002 C 
BRANCH  24  25
ATOM     25  C   UNL A   1      35.146  23.971  25.141  1.00  0.00     0.021 C 
BRANCH  25  26
ATOM     26  C   UNL A   1      36.569  24.336  25.546  1.00  0.00     0.116 C 
BRANCH  26  27
ATOM     27  N   UNL A   1      37.417  23.168  25.715  1.00  0.00    -0.352 N 
ATOM     28  C   UNL A   1      38.683  23.088  26.247  1.00  0.00     0.251 C 
ATOM     29  H   UNL A   1      37.033  22.316  25.407  1.00  0.00     0.163 HD
ATOM     30  O   UNL A   1      39.323  22.048  26.169  1.00  0.00    -0.269 OA
BRANCH  28  31
ATOM     31  C   UNL A   1      39.279  24.279  26.889  1.00  0.00     0.039 A 
ATOM     32  C   UNL A   1      40.007  25.173  26.102  1.00  0.00     0.014 A 
ATOM     33  C   UNL A   1      39.107  24.522  28.254  1.00  0.00     0.014 A 
ATOM     34  C   UNL A   1      40.510  26.345  26.672  1.00  0.00     0.010 A 
ATOM     35  C   UNL A   1      39.539  25.725  28.803  1.00  0.00     0.010 A 
ATOM     36  C   UNL A   1      40.246  26.649  28.017  1.00  0.00    -0.014 A 
BRANCH  36  37
ATOM     37  C   UNL A   1      40.695  27.933  28.616  1.00  0.00     0.031 A 
ATOM     38  C   UNL A   1      42.138  28.131  28.989  1.00  0.00     0.074 A 
ATOM     39  C   UNL A   1      39.791  28.897  28.877  1.00  0.00     0.049 A 
ATOM     40  N   UNL A   1      42.709  29.156  29.571  1.00  0.00    -0.248 NA
ATOM     41  C   UNL A   1      43.057  27.022  28.694  1.00  0.00     0.031 C 
ATOM     42  C   UNL A   1      38.356  28.805  28.606  1.00  0.00     0.029 A 
ATOM     43  N   UNL A   1      39.944  30.140  29.440  1.00  0.00    -0.354 N 
ATOM     44  C   UNL A   1      44.045  28.811  29.719  1.00  0.00     0.074 A 
ATOM     45  C   UNL A   1      44.191  27.461  29.221  1.00  0.00     0.031 C 
ATOM     46  C   UNL A   1      37.764  29.952  28.977  1.00  0.00     0.029 A 
ATOM     47  C   UNL A   1      38.769  30.842  29.553  1.00  0.00     0.049 A 
ATOM     48  H   UNL A   1      40.813  30.495  29.734  1.00  0.00     0.167 HD
ATOM     49  C   UNL A   1      45.065  29.561  30.204  1.00  0.00     0.037 A 
ATOM     50  C   UNL A   1      38.525  32.061  30.070  1.00  0.00     0.037 A 
ATOM     51  C   UNL A   1      44.919  30.910  30.684  1.00  0.00     0.049 A 
ATOM     52  C   UNL A   1      39.672  32.865  30.622  1.00  0.00     0.074 A 
ATOM     53  C   UNL A   1      45.898  31.774  31.142  1.00  0.00     0.029 A 
ATOM     54  N   UNL A   1      43.712  31.591  30.776  1.00  0.00    -0.354 N 
ATOM     55  N   UNL A   1      40.944  32.556  30.688  1.00  0.00    -0.248 NA
ATOM     56  C   UNL A   1      39.348  34.192  31.165  1.00  0.00     0.031 C 
ATOM     57  C   UNL A   1      45.278  32.954  31.565  1.00  0.00     0.029 A 
ATOM     58  C   UNL A   1      43.921  32.853  31.310  1.00  0.00     0.049 A 
ATOM     59  H   UNL A   1      42.838  31.230  30.502  1.00  0.00     0.167 HD
ATOM     60  C   UNL A   1      41.576  33.658  31.249  1.00  0.00     0.074 A 
ATOM     61  C   UNL A   1      40.548  34.650  31.489  1.00  0.00     0.031 C 
ATOM     62  C   UNL A   1      42.889  33.833  31.538  1.00  0.00     0.037 A 
BRANCH  49  63
ATOM     63  C   UNL A   1      46.432  28.938  30.240  1.00  0.00     0.064 A 
ATOM     64  C   UNL A   1      47.318  29.038  29.157  1.00  0.00     0.173 A 
ATOM     65  C   UNL A   1      46.877  28.265  31.389  1.00  0.00     0.173 A 
ATOM     66  F   UNL A   1      46.940  29.662  28.030  1.00  0.00    -0.203 F 
ATOM     67  C   UNL A   1      48.585  28.462  29.209  1.00  0.00     0.198 A 
ATOM     68  C   UNL A   1      48.157  27.720  31.451  1.00  0.00     0.198 A 
ATOM     69  F   UNL A   1      46.074  28.145  32.457  1.00  0.00    -0.203 F 
ATOM     70  F   UNL A   1      49.392  28.525  28.141  1.00  0.00    -0.200 F 
ATOM     71  C   UNL A   1      49.005  27.811  30.358  1.00  0.00     0.200 A 
ATOM     72  F   UNL A   1      48.568  27.105  32.568  1.00  0.00    -0.200 F 
ATOM     73  F   UNL A   1      50.229  27.265  30.411  1.00  0.00    -0.200 F 
ENDBRANCH  49  63
BRANCH  50  74
ATOM     74  C   UNL A   1      37.141  32.605  30.077  1.00  0.00     0.064 A 
ATOM     75  C   UNL A   1      36.649  33.336  28.987  1.00  0.00     0.173 A 
ATOM     76  C   UNL A   1      36.287  32.415  31.173  1.00  0.00     0.173 A 
ATOM     77  F   UNL A   1      37.433  33.562  27.923  1.00  0.00    -0.203 F 
ATOM     78  C   UNL A   1      35.365  33.878  29.003  1.00  0.00     0.198 A 
ATOM     79  C   UNL A   1      34.991  32.929  31.174  1.00  0.00     0.198 A 
ATOM     80  F   UNL A   1      36.705  31.718  32.239  1.00  0.00    -0.203 F 
ATOM     81  F   UNL A   1      34.940  34.618  27.971  1.00  0.00    -0.200 F 
ATOM     82  C   UNL A   1      34.535  33.669  30.094  1.00  0.00     0.200 A 
ATOM     83  F   UNL A   1      34.188  32.711  32.224  1.00  0.00    -0.200 F 
ATOM     84  F   UNL A   1      33.300  34.188  30.108  1.00  0.00    -0.200 F 
ENDBRANCH  50  74
BRANCH  62  85
ATOM     85  C   UNL A   1      43.299  35.161  32.109  1.00  0.00     0.064 A 
ATOM     86  C   UNL A   1      43.688  36.232  31.289  1.00  0.00     0.173 A 
ATOM     87  C   UNL A   1      43.266  35.377  33.495  1.00  0.00     0.173 A 
ATOM     88  F   UNL A   1      43.751  36.075  29.958  1.00  0.00    -0.203 F 
ATOM     89  C   UNL A   1      44.055  37.457  31.839  1.00  0.00     0.198 A 
ATOM     90  C   UNL A   1      43.599  36.614  34.039  1.00  0.00     0.198 A 
ATOM     91  F   UNL A   1      42.894  34.389  34.324  1.00  0.00    -0.203 F 
ATOM     92  F   UNL A   1      44.473  38.449  31.040  1.00  0.00    -0.200 F 
ATOM     93  C   UNL A   1      44.001  37.651  33.211  1.00  0.00     0.200 A 
ATOM     94  F   UNL A   1      43.531  36.803  35.364  1.00  0.00    -0.200 F 
ATOM     95  F   UNL A   1      44.346  38.834  33.737  1.00  0.00    -0.200 F 
ENDBRANCH  62  85
ENDBRANCH  36  37
ENDBRANCH  28  31
ENDBRANCH  26  27
ENDBRANCH  25  26
ENDBRANCH  24  25
ENDBRANCH   1  24
TORSDOF 16
ENDMDL
MODEL 2
REMARK VINA RESULT:     -11.0      3.980      6.277
REMARK SMILES O=C(Cc1ccc(NC(=O)C2CCCC2)cc1)NCCCCCCNC(=O)c1ccc(-c2c3nc(c(-c4c(F)c(F)c(F)c(F)c4F)c4ccc([nH]4)c(-c4c(F)c(F)c(F)c(F)c4F)c4nc(c(-c5c(F)c(F)c(F)c(F)c5F)c5ccc2[nH]5)C=C4)C=C3)cc1
REMARK SMILES IDX 21 1 20 2 19 3 18 4 1 5 2 6 3 8 4 9 5 10 17 11 6 12 16 13
REMARK SMILES IDX 7 14 8 15 9 16 10 18 11 19 12 20 15 21 13 22 14 23 22 24
REMARK SMILES IDX 23 25 24 26 25 27 26 28 27 30 28 31 29 32 90 33 30 34 89 35
REMARK SMILES IDX 31 36 32 37 33 38 83 39 34 40 88 41 82 42 84 43 35 44 87 45
REMARK SMILES IDX 81 46 80 47 36 49 68 50 48 51 67 52 49 53 52 54 66 55 85 56
REMARK SMILES IDX 50 57 51 58 65 60 86 61 53 62 37 63 38 64 46 65 39 66 40 67
REMARK SMILES IDX 44 68 47 69 41 70 42 71 45 72 43 73 69 74 70 75 78 76 71 77
REMARK SMILES IDX 72 78 76 79 79 80 73 81 74 82 77 83 75 84 54 85 55 86 63 87
REMARK SMILES IDX 56 88 57 89 61 90 64 91 58 92 59 93 62 94 60 95
REMARK H PARENT 18 7 8 17 25 29 84 48 52 59
REMARK Flexibility Score: inf
ROOT
ATOM      1  C   UNL A   1      40.903  20.456  26.911  1.00  0.00     0.002 C 
ENDROOT
BRANCH   1   2
ATOM      2  C   UNL A   1      41.086  21.974  27.043  1.00  0.00     0.021 C 
BRANCH   2   3
ATOM      3  C   UNL A   1      39.815  22.786  26.822  1.00  0.00     0.116 C 
BRANCH   3   4
ATOM      4  N   UNL A   1      38.730  21.930  26.411  1.00  0.00    -0.356 N 
ATOM      5  O   UNL A   1      37.717  23.434  24.998  1.00  0.00    -0.275 OA
ATOM      6  C   UNL A   1      37.771  22.320  25.504  1.00  0.00     0.224 C 
ATOM      7  H   UNL A   1      38.673  21.027  26.795  1.00  0.00     0.163 HD
BRANCH   6   8
ATOM      8  C   UNL A   1      36.760  21.234  25.222  1.00  0.00     0.135 C 
BRANCH   8   9
ATOM      9  C   UNL A   1      35.340  21.509  25.660  1.00  0.00    -0.039 A 
ATOM     10  C   UNL A   1      35.174  22.372  26.742  1.00  0.00     0.006 A 
ATOM     11  C   UNL A   1      34.190  20.935  25.105  1.00  0.00     0.006 A 
ATOM     12  C   UNL A   1      33.904  22.671  27.239  1.00  0.00     0.026 A 
ATOM     13  C   UNL A   1      32.917  21.235  25.614  1.00  0.00     0.026 A 
ATOM     14  C   UNL A   1      32.751  22.126  26.680  1.00  0.00     0.041 A 
BRANCH  14  15
ATOM     15  N   UNL A   1      31.424  22.386  27.086  1.00  0.00    -0.326 N 
ATOM     16  C   UNL A   1      30.512  23.372  26.817  1.00  0.00     0.227 C 
ATOM     17  H   UNL A   1      31.074  21.703  27.704  1.00  0.00     0.169 HD
ATOM     18  O   UNL A   1      29.418  23.318  27.388  1.00  0.00    -0.274 OA
BRANCH  16  19
ATOM     19  C   UNL A   1      30.833  24.474  25.838  1.00  0.00     0.079 C 
ATOM     20  C   UNL A   1      30.621  24.030  24.391  1.00  0.00     0.013 C 
ATOM     21  C   UNL A   1      29.960  25.725  25.879  1.00  0.00     0.013 C 
ATOM     22  C   UNL A   1      30.786  25.324  23.610  1.00  0.00     0.001 C 
ATOM     23  C   UNL A   1      30.323  26.427  24.567  1.00  0.00     0.001 C 
ENDBRANCH  16  19
ENDBRANCH  14  15
ENDBRANCH   8   9
ENDBRANCH   6   8
ENDBRANCH   3   4
ENDBRANCH   2   3
ENDBRANCH   1   2
BRANCH   1  24
ATOM     24  C   UNL A   1      41.933  19.605  27.660  1.00  0.00     0.002 C 
BRANCH  24  25
ATOM     25  C   UNL A   1      42.749  18.660  26.776  1.00  0.00     0.021 C 
BRANCH  25  26
ATOM     26  C   UNL A   1      42.766  19.028  25.297  1.00  0.00     0.116 C 
BRANCH  26  27
ATOM     27  N   UNL A   1      44.030  18.702  24.657  1.00  0.00    -0.352 N 
ATOM     28  C   UNL A   1      45.077  19.534  24.337  1.00  0.00     0.251 C 
ATOM     29  H   UNL A   1      44.154  17.755  24.421  1.00  0.00     0.163 HD
ATOM     30  O   UNL A   1      46.006  19.126  23.654  1.00  0.00    -0.269 OA
BRANCH  28  31
ATOM     31  C   UNL A   1      45.058  20.939  24.800  1.00  0.00     0.039 A 
ATOM     32  C   UNL A   1      45.354  21.211  26.136  1.00  0.00     0.014 A 
ATOM     33  C   UNL A   1      44.766  21.982  23.917  1.00  0.00     0.014 A 
ATOM     34  C   UNL A   1      45.421  22.535  26.574  1.00  0.00     0.010 A 
ATOM     35  C   UNL A   1      44.910  23.302  24.333  1.00  0.00     0.010 A 
ATOM     36  C   UNL A   1      45.238  23.593  25.667  1.00  0.00    -0.014 A 
BRANCH  36  37
ATOM     37  C   UNL A   1      45.394  25.007  26.095  1.00  0.00     0.031 A 
ATOM     38  C   UNL A   1      46.739  25.674  26.030  1.00  0.00     0.074 A 
ATOM     39  C   UNL A   1      44.335  25.670  26.597  1.00  0.00     0.049 A 
ATOM     40  N   UNL A   1      47.085  26.879  26.409  1.00  0.00    -0.248 NA
ATOM     41  C   UNL A   1      47.851  24.874  25.492  1.00  0.00     0.031 C 
ATOM     42  C   UNL A   1      42.990  25.117  26.756  1.00  0.00     0.029 A 
ATOM     43  N   UNL A   1      44.225  26.952  27.077  1.00  0.00    -0.354 N 
ATOM     44  C   UNL A   1      48.448  26.976  26.165  1.00  0.00     0.074 A 
ATOM     45  C   UNL A   1      48.880  25.691  25.661  1.00  0.00     0.031 C 
ATOM     46  C   UNL A   1      42.184  26.060  27.271  1.00  0.00     0.029 A 
ATOM     47  C   UNL A   1      42.964  27.269  27.519  1.00  0.00     0.049 A 
ATOM     48  H   UNL A   1      44.979  27.584  27.101  1.00  0.00     0.167 HD
ATOM     49  C   UNL A   1      49.262  28.048  26.323  1.00  0.00     0.037 A 
ATOM     50  C   UNL A   1      42.491  28.402  28.072  1.00  0.00     0.037 A 
ATOM     51  C   UNL A   1      48.826  29.330  26.810  1.00  0.00     0.049 A 
ATOM     52  C   UNL A   1      43.421  29.571  28.257  1.00  0.00     0.074 A 
ATOM     53  C   UNL A   1      49.560  30.494  26.953  1.00  0.00     0.029 A 
ATOM     54  N   UNL A   1      47.537  29.615  27.242  1.00  0.00    -0.354 N 
ATOM     55  N   UNL A   1      44.693  29.674  27.953  1.00  0.00    -0.248 NA
ATOM     56  C   UNL A   1      42.848  30.784  28.856  1.00  0.00     0.031 C 
ATOM     57  C   UNL A   1      48.733  31.466  27.526  1.00  0.00     0.029 A 
ATOM     58  C   UNL A   1      47.465  30.929  27.679  1.00  0.00     0.049 A 
ATOM     59  H   UNL A   1      46.787  28.978  27.238  1.00  0.00     0.167 HD
ATOM     60  C   UNL A   1      45.063  30.969  28.294  1.00  0.00     0.074 A 
ATOM     61  C   UNL A   1      43.877  31.619  28.811  1.00  0.00     0.031 C 
ATOM     62  C   UNL A   1      46.276  31.565  28.185  1.00  0.00     0.037 A 
BRANCH  49  63
ATOM     63  C   UNL A   1      50.713  27.879  25.967  1.00  0.00     0.064 A 
ATOM     64  C   UNL A   1      51.683  27.593  26.939  1.00  0.00     0.173 A 
ATOM     65  C   UNL A   1      51.132  27.967  24.631  1.00  0.00     0.173 A 
ATOM     66  F   UNL A   1      51.339  27.507  28.234  1.00  0.00    -0.203 F 
ATOM     67  C   UNL A   1      53.022  27.431  26.592  1.00  0.00     0.198 A 
ATOM     68  C   UNL A   1      52.466  27.771  24.282  1.00  0.00     0.198 A 
ATOM     69  F   UNL A   1      50.245  28.233  23.659  1.00  0.00    -0.203 F 
ATOM     70  F   UNL A   1      53.938  27.211  27.545  1.00  0.00    -0.200 F 
ATOM     71  C   UNL A   1      53.411  27.513  25.263  1.00  0.00     0.200 A 
ATOM     72  F   UNL A   1      52.837  27.835  22.997  1.00  0.00    -0.200 F 
ATOM     73  F   UNL A   1      54.699  27.349  24.929  1.00  0.00    -0.200 F 
ENDBRANCH  49  63
BRANCH  50  74
ATOM     74  C   UNL A   1      41.063  28.495  28.475  1.00  0.00     0.064 A 
ATOM     75  C   UNL A   1      40.093  28.981  27.588  1.00  0.00     0.173 A 
ATOM     76  C   UNL A   1      40.638  28.110  29.755  1.00  0.00     0.173 A 
ATOM     77  F   UNL A   1      40.451  29.381  26.358  1.00  0.00    -0.203 F 
ATOM     78  C   UNL A   1      38.759  29.103  27.972  1.00  0.00     0.198 A 
ATOM     79  C   UNL A   1      39.299  28.202  30.129  1.00  0.00     0.198 A 
ATOM     80  F   UNL A   1      41.523  27.632  30.642  1.00  0.00    -0.203 F 
ATOM     81  F   UNL A   1      37.864  29.621  27.121  1.00  0.00    -0.200 F 
ATOM     82  C   UNL A   1      38.362  28.708  29.240  1.00  0.00     0.200 A 
ATOM     83  F   UNL A   1      38.917  27.803  31.349  1.00  0.00    -0.200 F 
ATOM     84  F   UNL A   1      37.079  28.823  29.609  1.00  0.00    -0.200 F 
ENDBRANCH  50  74
BRANCH  62  85
ATOM     85  C   UNL A   1      46.375  33.007  28.598  1.00  0.00     0.064 A 
ATOM     86  C   UNL A   1      46.725  33.381  29.904  1.00  0.00     0.173 A 
ATOM     87  C   UNL A   1      46.153  34.028  27.661  1.00  0.00     0.173 A 
ATOM     88  F   UNL A   1      46.934  32.445  30.842  1.00  0.00    -0.203 F 
ATOM     89  C   UNL A   1      46.821  34.724  30.262  1.00  0.00     0.198 A 
ATOM     90  C   UNL A   1      46.285  35.368  28.013  1.00  0.00     0.198 A 
ATOM     91  F   UNL A   1      45.823  33.726  26.396  1.00  0.00    -0.203 F 
ATOM     92  F   UNL A   1      47.105  35.058  31.528  1.00  0.00    -0.200 F 
ATOM     93  C   UNL A   1      46.610  35.715  29.316  1.00  0.00     0.200 A 
ATOM     94  F   UNL A   1      46.096  36.324  27.093  1.00  0.00    -0.200 F 
ATOM     95  F   UNL A   1      46.712  37.005  29.661  1.00  0.00    -0.200 F 
ENDBRANCH  62  85
ENDBRANCH  36  37
ENDBRANCH  28  31
ENDBRANCH  26  27
ENDBRANCH  25  26
ENDBRANCH  24  25
ENDBRANCH   1  24
TORSDOF 16
ENDMDL
MODEL 3
REMARK VINA RESULT:     -11.0      4.725     10.707
REMARK SMILES O=C(Cc1ccc(NC(=O)C2CCCC2)cc1)NCCCCCCNC(=O)c1ccc(-c2c3nc(c(-c4c(F)c(F)c(F)c(F)c4F)c4ccc([nH]4)c(-c4c(F)c(F)c(F)c(F)c4F)c4nc(c(-c5c(F)c(F)c(F)c(F)c5F)c5ccc2[nH]5)C=C4)C=C3)cc1
REMARK SMILES IDX 21 1 20 2 19 3 18 4 1 5 2 6 3 8 4 9 5 10 17 11 6 12 16 13
REMARK SMILES IDX 7 14 8 15 9 16 10 18 11 19 12 20 15 21 13 22 14 23 22 24
REMARK SMILES IDX 23 25 24 26 25 27 26 28 27 30 28 31 29 32 90 33 30 34 89 35
REMARK SMILES IDX 31 36 32 37 33 38 83 39 34 40 88 41 82 42 84 43 35 44 87 45
REMARK SMILES IDX 81 46 80 47 36 49 68 50 48 51 67 52 49 53 52 54 66 55 85 56
REMARK SMILES IDX 50 57 51 58 65 60 86 61 53 62 37 63 38 64 46 65 39 66 40 67
REMARK SMILES IDX 44 68 47 69 41 70 42 71 45 72 43 73 69 74 70 75 78 76 71 77
REMARK SMILES IDX 72 78 76 79 79 80 73 81 74 82 77 83 75 84 54 85 55 86 63 87
REMARK SMILES IDX 56 88 57 89 61 90 64 91 58 92 59 93 62 94 60 95
REMARK H PARENT 18 7 8 17 25 29 84 48 52 59
REMARK Flexibility Score: inf
ROOT
ATOM      1  C   UNL A   1      33.689  35.951  29.165  1.00  0.00     0.002 C 
ENDROOT
BRANCH   1   2
ATOM      2  C   UNL A   1      33.080  35.272  30.400  1.00  0.00     0.021 C 
BRANCH   2   3
ATOM      3  C   UNL A   1      33.962  35.311  31.643  1.00  0.00     0.116 C 
BRANCH   3   4
ATOM      4  N   UNL A   1      35.202  34.615  31.408  1.00  0.00    -0.356 N 
ATOM      5  O   UNL A   1      34.446  32.517  31.965  1.00  0.00    -0.275 OA
ATOM      6  C   UNL A   1      35.340  33.255  31.568  1.00  0.00     0.224 C 
ATOM      7  H   UNL A   1      35.986  35.135  31.121  1.00  0.00     0.163 HD
BRANCH   6   8
ATOM      8  C   UNL A   1      36.729  32.766  31.235  1.00  0.00     0.135 C 
BRANCH   8   9
ATOM      9  C   UNL A   1      37.481  32.074  32.349  1.00  0.00    -0.039 A 
ATOM     10  C   UNL A   1      38.543  32.774  32.918  1.00  0.00     0.006 A 
ATOM     11  C   UNL A   1      37.231  30.778  32.819  1.00  0.00     0.006 A 
ATOM     12  C   UNL A   1      39.315  32.212  33.936  1.00  0.00     0.026 A 
ATOM     13  C   UNL A   1      38.016  30.218  33.838  1.00  0.00     0.026 A 
ATOM     14  C   UNL A   1      39.062  30.935  34.429  1.00  0.00     0.041 A 
BRANCH  14  15
ATOM     15  N   UNL A   1      39.761  30.289  35.473  1.00  0.00    -0.326 N 
ATOM     16  C   UNL A   1      40.877  29.496  35.536  1.00  0.00     0.227 C 
ATOM     17  H   UNL A   1      39.352  30.441  36.356  1.00  0.00     0.169 HD
ATOM     18  O   UNL A   1      41.205  29.048  36.639  1.00  0.00    -0.274 OA
BRANCH  16  19
ATOM     19  C   UNL A   1      41.686  29.201  34.297  1.00  0.00     0.079 C 
ATOM     20  C   UNL A   1      43.057  28.620  34.637  1.00  0.00     0.013 C 
ATOM     21  C   UNL A   1      41.152  28.131  33.350  1.00  0.00     0.013 C 
ATOM     22  C   UNL A   1      43.598  28.206  33.278  1.00  0.00     0.001 C 
ATOM     23  C   UNL A   1      42.359  27.854  32.448  1.00  0.00     0.001 C 
ENDBRANCH  16  19
ENDBRANCH  14  15
ENDBRANCH   8   9
ENDBRANCH   6   8
ENDBRANCH   3   4
ENDBRANCH   2   3
ENDBRANCH   1   2
BRANCH   1  24
ATOM     24  C   UNL A   1      34.236  34.998  28.098  1.00  0.00     0.002 C 
BRANCH  24  25
ATOM     25  C   UNL A   1      33.576  33.619  28.072  1.00  0.00     0.021 C 
BRANCH  25  26
ATOM     26  C   UNL A   1      34.522  32.455  28.344  1.00  0.00     0.116 C 
BRANCH  26  27
ATOM     27  N   UNL A   1      33.916  31.166  28.053  1.00  0.00    -0.352 N 
ATOM     28  C   UNL A   1      34.522  29.940  27.907  1.00  0.00     0.251 C 
ATOM     29  H   UNL A   1      32.938  31.171  27.947  1.00  0.00     0.163 HD
ATOM     30  O   UNL A   1      33.883  28.978  27.504  1.00  0.00    -0.269 OA
BRANCH  28  31
ATOM     31  C   UNL A   1      35.962  29.799  28.212  1.00  0.00     0.039 A 
ATOM     32  C   UNL A   1      36.341  29.363  29.483  1.00  0.00     0.014 A 
ATOM     33  C   UNL A   1      36.932  30.078  27.246  1.00  0.00     0.014 A 
ATOM     34  C   UNL A   1      37.691  29.145  29.765  1.00  0.00     0.010 A 
ATOM     35  C   UNL A   1      38.268  29.786  27.502  1.00  0.00     0.010 A 
ATOM     36  C   UNL A   1      38.662  29.318  28.765  1.00  0.00    -0.014 A 
BRANCH  36  37
ATOM     37  C   UNL A   1      40.092  29.004  29.021  1.00  0.00     0.031 A 
ATOM     38  C   UNL A   1      40.974  30.004  29.715  1.00  0.00     0.074 A 
ATOM     39  C   UNL A   1      40.608  27.843  28.575  1.00  0.00     0.049 A 
ATOM     40  N   UNL A   1      42.256  29.936  29.978  1.00  0.00    -0.248 NA
ATOM     41  C   UNL A   1      40.341  31.258  30.149  1.00  0.00     0.031 C 
ATOM     42  C   UNL A   1      39.866  26.813  27.846  1.00  0.00     0.029 A 
ATOM     43  N   UNL A   1      41.882  27.336  28.660  1.00  0.00    -0.354 N 
ATOM     44  C   UNL A   1      42.580  31.135  30.595  1.00  0.00     0.074 A 
ATOM     45  C   UNL A   1      41.377  31.939  30.616  1.00  0.00     0.031 C 
ATOM     46  C   UNL A   1      40.689  25.788  27.573  1.00  0.00     0.029 A 
ATOM     47  C   UNL A   1      42.025  26.105  28.067  1.00  0.00     0.049 A 
ATOM     48  H   UNL A   1      42.621  27.811  29.102  1.00  0.00     0.167 HD
ATOM     49  C   UNL A   1      43.768  31.523  31.120  1.00  0.00     0.037 A 
ATOM     50  C   UNL A   1      43.114  25.325  27.930  1.00  0.00     0.037 A 
ATOM     51  C   UNL A   1      44.958  30.715  31.111  1.00  0.00     0.049 A 
ATOM     52  C   UNL A   1      44.426  25.788  28.503  1.00  0.00     0.074 A 
ATOM     53  C   UNL A   1      46.195  30.994  31.665  1.00  0.00     0.029 A 
ATOM     54  N   UNL A   1      45.064  29.469  30.508  1.00  0.00    -0.354 N 
ATOM     55  N   UNL A   1      44.703  26.894  29.151  1.00  0.00    -0.248 NA
ATOM     56  C   UNL A   1      45.577  24.891  28.331  1.00  0.00     0.031 C 
ATOM     57  C   UNL A   1      47.064  29.945  31.348  1.00  0.00     0.029 A 
ATOM     58  C   UNL A   1      46.353  28.981  30.653  1.00  0.00     0.049 A 
ATOM     59  H   UNL A   1      44.331  29.001  30.046  1.00  0.00     0.167 HD
ATOM     60  C   UNL A   1      46.047  26.812  29.490  1.00  0.00     0.074 A 
ATOM     61  C   UNL A   1      46.525  25.539  28.991  1.00  0.00     0.031 C 
ATOM     62  C   UNL A   1      46.814  27.709  30.157  1.00  0.00     0.037 A 
BRANCH  49  63
ATOM     63  C   UNL A   1      43.839  32.886  31.749  1.00  0.00     0.064 A 
ATOM     64  C   UNL A   1      44.204  34.022  31.010  1.00  0.00     0.173 A 
ATOM     65  C   UNL A   1      43.501  33.065  33.099  1.00  0.00     0.173 A 
ATOM     66  F   UNL A   1      44.547  33.906  29.718  1.00  0.00    -0.203 F 
ATOM     67  C   UNL A   1      44.257  35.280  31.606  1.00  0.00     0.198 A 
ATOM     68  C   UNL A   1      43.522  34.329  33.683  1.00  0.00     0.198 A 
ATOM     69  F   UNL A   1      43.138  32.015  33.852  1.00  0.00    -0.203 F 
ATOM     70  F   UNL A   1      44.661  36.341  30.893  1.00  0.00    -0.200 F 
ATOM     71  C   UNL A   1      43.909  35.433  32.939  1.00  0.00     0.200 A 
ATOM     72  F   UNL A   1      43.170  34.478  34.967  1.00  0.00    -0.200 F 
ATOM     73  F   UNL A   1      43.952  36.646  33.509  1.00  0.00    -0.200 F 
ENDBRANCH  49  63
BRANCH  50  74
ATOM     74  C   UNL A   1      43.008  24.014  27.234  1.00  0.00     0.064 A 
ATOM     75  C   UNL A   1      42.603  22.863  27.924  1.00  0.00     0.173 A 
ATOM     76  C   UNL A   1      43.316  23.883  25.873  1.00  0.00     0.173 A 
ATOM     77  F   UNL A   1      42.315  22.932  29.232  1.00  0.00    -0.203 F 
ATOM     78  C   UNL A   1      42.535  21.626  27.285  1.00  0.00     0.198 A 
ATOM     79  C   UNL A   1      43.217  22.651  25.227  1.00  0.00     0.198 A 
ATOM     80  F   UNL A   1      43.702  24.953  25.164  1.00  0.00    -0.203 F 
ATOM     81  F   UNL A   1      42.197  20.533  27.981  1.00  0.00    -0.200 F 
ATOM     82  C   UNL A   1      42.837  21.522  25.936  1.00  0.00     0.200 A 
ATOM     83  F   UNL A   1      43.493  22.560  23.919  1.00  0.00    -0.200 F 
ATOM     84  F   UNL A   1      42.769  20.333  25.321  1.00  0.00    -0.200 F 
ENDBRANCH  50  74
BRANCH  62  85
ATOM     85  C   UNL A   1      48.244  27.331  30.422  1.00  0.00     0.064 A 
ATOM     86  C   UNL A   1      48.609  26.540  31.522  1.00  0.00     0.173 A 
ATOM     87  C   UNL A   1      49.259  27.735  29.540  1.00  0.00     0.173 A 
ATOM     88  F   UNL A   1      47.681  26.138  32.403  1.00  0.00    -0.203 F 
ATOM     89  C   UNL A   1      49.940  26.193  31.744  1.00  0.00     0.198 A 
ATOM     90  C   UNL A   1      50.583  27.356  29.745  1.00  0.00     0.198 A 
ATOM     91  F   UNL A   1      48.964  28.486  28.468  1.00  0.00    -0.203 F 
ATOM     92  F   UNL A   1      50.272  25.481  32.830  1.00  0.00    -0.200 F 
ATOM     93  C   UNL A   1      50.923  26.593  30.852  1.00  0.00     0.200 A 
ATOM     94  F   UNL A   1      51.529  27.731  28.874  1.00  0.00    -0.200 F 
ATOM     95  F   UNL A   1      52.201  26.250  31.063  1.00  0.00    -0.200 F 
ENDBRANCH  62  85
ENDBRANCH  36  37
ENDBRANCH  28  31
ENDBRANCH  26  27
ENDBRANCH  25  26
ENDBRANCH  24  25
ENDBRANCH   1  24
TORSDOF 16
ENDMDL
