MODEL 1
REMARK VINA RESULT:     -12.3      0.000      0.000
REMARK SMILES Cc1ccccc1OCC[NH+]1CCC(CC(=O)NCCCCCCNC(=O)c2ccc(-c3c4nc(c(-c5c(F)c(F)c(F)c(F)c5F)c5ccc([nH]5)c(-c5c(F)c(F)c(F)c(F)c5F)c5nc(c(-c6c(F)c(F)c(F)c(F)c6F)c6ccc3[nH]6)C=C5)C=C4)cc2)CC1
REMARK SMILES IDX 20 1 19 2 18 3 16 4 17 5 15 7 14 8 11 9 12 10 92 11 13 13
REMARK SMILES IDX 91 14 10 15 9 16 8 17 7 18 1 19 2 20 3 21 4 22 6 23 5 24
REMARK SMILES IDX 21 25 22 26 23 27 24 28 25 29 26 30 27 32 28 33 29 34 90 35
REMARK SMILES IDX 30 36 89 37 31 38 32 39 33 40 83 41 34 42 88 43 82 44 84 45
REMARK SMILES IDX 35 46 87 47 81 48 80 49 36 51 68 52 48 53 67 54 49 55 52 56
REMARK SMILES IDX 66 57 85 58 50 59 51 60 65 62 86 63 53 64 37 65 38 66 46 67
REMARK SMILES IDX 39 68 40 69 44 70 47 71 41 72 42 73 45 74 43 75 69 76 70 77
REMARK SMILES IDX 78 78 71 79 72 80 76 81 79 82 73 83 74 84 77 85 75 86 54 87
REMARK SMILES IDX 55 88 63 89 56 90 57 91 61 92 64 93 58 94 59 95 62 96 60 97
REMARK H PARENT 18 6 11 12 25 31 84 50 52 61
REMARK Flexibility Score: inf
ROOT
ATOM      1  C   UNL A   1      33.929  32.650  28.623  1.00  0.00     0.021 C 
ENDROOT
BRANCH   1   2
ATOM      2  C   UNL A   1      34.018  31.300  27.897  1.00  0.00     0.116 C 
BRANCH   2   3
ATOM      3  N   UNL A   1      33.039  31.206  26.824  1.00  0.00    -0.356 N 
ATOM      4  C   UNL A   1      32.115  30.239  26.549  1.00  0.00     0.220 C 
ATOM      5  O   UNL A   1      31.418  30.362  25.541  1.00  0.00    -0.275 OA
ATOM      6  H   UNL A   1      33.043  31.962  26.194  1.00  0.00     0.163 HD
BRANCH   4   7
ATOM      7  C   UNL A   1      31.941  29.049  27.478  1.00  0.00     0.104 C 
BRANCH   7   8
ATOM      8  C   UNL A   1      32.245  27.689  26.787  1.00  0.00     0.009 C 
ATOM      9  N   UNL A   1      32.486  25.105  23.880  1.00  0.00    -0.332 N 
ATOM     10  C   UNL A   1      30.895  25.251  24.880  1.00  0.00     0.262 C 
ATOM     11  C   UNL A   1      33.898  26.259  24.218  1.00  0.00     0.262 C 
ATOM     12  H   UNL A   1      32.757  24.249  24.363  1.00  0.00     0.348 HD
ATOM     13  C   UNL A   1      30.654  26.734  26.152  1.00  0.00     0.066 C 
ATOM     14  C   UNL A   1      33.900  27.542  25.704  1.00  0.00     0.066 C 
BRANCH   9  15
ATOM     15  C   UNL A   1      32.399  24.749  22.490  1.00  0.00     0.304 C 
BRANCH  15  16
ATOM     16  C   UNL A   1      33.237  23.536  22.236  1.00  0.00     0.290 C 
BRANCH  16  17
ATOM     17  O   UNL A   1      33.104  22.525  23.234  1.00  0.00    -0.487 OA
BRANCH  17  18
ATOM     18  C   UNL A   1      34.215  21.879  23.778  1.00  0.00     0.122 A 
ATOM     19  C   UNL A   1      33.005  19.303  25.480  1.00  0.00     0.048 C 
ATOM     20  C   UNL A   1      34.371  20.665  24.713  1.00  0.00    -0.009 A 
ATOM     21  C   UNL A   1      35.812  20.737  25.066  1.00  0.00     0.007 A 
ATOM     22  C   UNL A   1      36.820  21.687  24.721  1.00  0.00     0.001 A 
ATOM     23  C   UNL A   1      35.259  22.823  23.437  1.00  0.00     0.047 A 
ATOM     24  C   UNL A   1      36.542  22.747  23.916  1.00  0.00     0.004 A 
ENDBRANCH  17  18
ENDBRANCH  16  17
ENDBRANCH  15  16
ENDBRANCH   9  15
ENDBRANCH   7   8
ENDBRANCH   4   7
ENDBRANCH   2   3
ENDBRANCH   1   2
BRANCH   1  25
ATOM     25  C   UNL A   1      34.837  33.755  28.092  1.00  0.00     0.002 C 
BRANCH  25  26
ATOM     26  C   UNL A   1      34.436  35.180  28.484  1.00  0.00     0.002 C 
BRANCH  26  27
ATOM     27  C   UNL A   1      33.214  35.298  29.391  1.00  0.00     0.021 C 
BRANCH  27  28
ATOM     28  C   UNL A   1      33.519  35.768  30.804  1.00  0.00     0.116 C 
BRANCH  28  29
ATOM     29  N   UNL A   1      33.002  34.848  31.812  1.00  0.00    -0.352 N 
ATOM     30  C   UNL A   1      33.634  33.921  32.615  1.00  0.00     0.251 C 
ATOM     31  H   UNL A   1      32.028  34.896  31.942  1.00  0.00     0.163 HD
ATOM     32  O   UNL A   1      32.962  33.126  33.268  1.00  0.00    -0.269 OA
BRANCH  30  33
ATOM     33  C   UNL A   1      35.088  34.030  32.870  1.00  0.00     0.039 A 
ATOM     34  C   UNL A   1      35.867  34.486  31.794  1.00  0.00     0.014 A 
ATOM     35  C   UNL A   1      35.675  33.344  33.921  1.00  0.00     0.014 A 
ATOM     36  C   UNL A   1      37.144  33.974  31.621  1.00  0.00     0.010 A 
ATOM     37  C   UNL A   1      36.860  32.704  33.675  1.00  0.00     0.010 A 
ATOM     38  C   UNL A   1      37.556  32.980  32.495  1.00  0.00    -0.014 A 
BRANCH  38  39
ATOM     39  C   UNL A   1      38.754  32.192  32.331  1.00  0.00     0.031 A 
ATOM     40  C   UNL A   1      38.648  30.983  31.503  1.00  0.00     0.074 A 
ATOM     41  C   UNL A   1      39.931  32.700  32.753  1.00  0.00     0.049 A 
ATOM     42  N   UNL A   1      39.511  30.035  31.508  1.00  0.00    -0.248 NA
ATOM     43  C   UNL A   1      37.513  30.719  30.623  1.00  0.00     0.031 C 
ATOM     44  C   UNL A   1      41.272  32.288  32.357  1.00  0.00     0.029 A 
ATOM     45  N   UNL A   1      40.148  33.627  33.786  1.00  0.00    -0.354 N 
ATOM     46  C   UNL A   1      39.230  29.214  30.439  1.00  0.00     0.074 A 
ATOM     47  C   UNL A   1      37.922  29.618  29.990  1.00  0.00     0.031 C 
ATOM     48  C   UNL A   1      42.147  32.692  33.292  1.00  0.00     0.029 A 
ATOM     49  C   UNL A   1      41.370  33.238  34.389  1.00  0.00     0.049 A 
ATOM     50  H   UNL A   1      39.573  34.385  34.038  1.00  0.00     0.167 HD
ATOM     51  C   UNL A   1      40.227  28.399  29.991  1.00  0.00     0.037 A 
ATOM     52  C   UNL A   1      41.403  32.774  35.674  1.00  0.00     0.037 A 
ATOM     53  C   UNL A   1      41.394  28.531  30.861  1.00  0.00     0.049 A 
ATOM     54  C   UNL A   1      41.911  31.355  35.772  1.00  0.00     0.074 A 
ATOM     55  C   UNL A   1      42.550  29.289  30.764  1.00  0.00     0.029 A 
ATOM     56  N   UNL A   1      41.299  28.118  32.183  1.00  0.00    -0.354 N 
ATOM     57  N   UNL A   1      41.829  30.490  34.798  1.00  0.00    -0.248 NA
ATOM     58  C   UNL A   1      42.574  30.808  36.950  1.00  0.00     0.031 C 
ATOM     59  C   UNL A   1      43.145  29.341  32.049  1.00  0.00     0.029 A 
ATOM     60  C   UNL A   1      42.360  28.603  32.918  1.00  0.00     0.049 A 
ATOM     61  H   UNL A   1      40.575  27.557  32.545  1.00  0.00     0.167 HD
ATOM     62  C   UNL A   1      42.429  29.314  35.174  1.00  0.00     0.074 A 
ATOM     63  C   UNL A   1      42.875  29.564  36.532  1.00  0.00     0.031 C 
ATOM     64  C   UNL A   1      42.516  28.248  34.320  1.00  0.00     0.037 A 
BRANCH  51  65
ATOM     65  C   UNL A   1      40.284  27.698  28.654  1.00  0.00     0.064 A 
ATOM     66  C   UNL A   1      39.704  26.415  28.507  1.00  0.00     0.173 A 
ATOM     67  C   UNL A   1      40.916  28.185  27.495  1.00  0.00     0.173 A 
ATOM     68  F   UNL A   1      39.001  25.844  29.493  1.00  0.00    -0.203 F 
ATOM     69  C   UNL A   1      39.822  25.660  27.339  1.00  0.00     0.198 A 
ATOM     70  C   UNL A   1      41.059  27.417  26.335  1.00  0.00     0.198 A 
ATOM     71  F   UNL A   1      41.376  29.436  27.414  1.00  0.00    -0.203 F 
ATOM     72  F   UNL A   1      39.260  24.444  27.275  1.00  0.00    -0.200 F 
ATOM     73  C   UNL A   1      40.518  26.152  26.257  1.00  0.00     0.200 A 
ATOM     74  F   UNL A   1      41.724  27.923  25.285  1.00  0.00    -0.200 F 
ATOM     75  F   UNL A   1      40.650  25.422  25.143  1.00  0.00    -0.200 F 
ENDBRANCH  51  65
BRANCH  52  76
ATOM     76  C   UNL A   1      40.334  33.389  36.512  1.00  0.00     0.064 A 
ATOM     77  C   UNL A   1      39.214  32.582  36.807  1.00  0.00     0.173 A 
ATOM     78  C   UNL A   1      40.618  34.446  37.385  1.00  0.00     0.173 A 
ATOM     79  F   UNL A   1      38.886  31.570  35.988  1.00  0.00    -0.203 F 
ATOM     80  C   UNL A   1      38.542  32.699  38.021  1.00  0.00     0.198 A 
ATOM     81  C   UNL A   1      39.916  34.580  38.587  1.00  0.00     0.198 A 
ATOM     82  F   UNL A   1      41.657  35.260  37.151  1.00  0.00    -0.203 F 
ATOM     83  F   UNL A   1      37.598  31.805  38.351  1.00  0.00    -0.200 F 
ATOM     84  C   UNL A   1      38.921  33.674  38.927  1.00  0.00     0.200 A 
ATOM     85  F   UNL A   1      40.276  35.527  39.466  1.00  0.00    -0.200 F 
ATOM     86  F   UNL A   1      38.361  33.712  40.144  1.00  0.00    -0.200 F 
ENDBRANCH  52  76
BRANCH  64  87
ATOM     87  C   UNL A   1      42.846  26.802  34.650  1.00  0.00     0.064 A 
ATOM     88  C   UNL A   1      42.064  25.973  35.468  1.00  0.00     0.173 A 
ATOM     89  C   UNL A   1      43.929  26.144  34.001  1.00  0.00     0.173 A 
ATOM     90  F   UNL A   1      40.944  26.413  36.050  1.00  0.00    -0.203 F 
ATOM     91  C   UNL A   1      42.370  24.622  35.668  1.00  0.00     0.198 A 
ATOM     92  C   UNL A   1      44.185  24.781  34.143  1.00  0.00     0.198 A 
ATOM     93  F   UNL A   1      44.767  26.788  33.177  1.00  0.00    -0.203 F 
ATOM     94  F   UNL A   1      41.615  23.891  36.500  1.00  0.00    -0.200 F 
ATOM     95  C   UNL A   1      43.417  24.023  34.994  1.00  0.00     0.200 A 
ATOM     96  F   UNL A   1      45.166  24.213  33.428  1.00  0.00    -0.200 F 
ATOM     97  F   UNL A   1      43.670  22.717  35.148  1.00  0.00    -0.200 F 
ENDBRANCH  64  87
ENDBRANCH  38  39
ENDBRANCH  30  33
ENDBRANCH  28  29
ENDBRANCH  27  28
ENDBRANCH  26  27
ENDBRANCH  25  26
ENDBRANCH   1  25
TORSDOF 18
ENDMDL
MODEL 2
REMARK VINA RESULT:     -11.9      3.183      5.059
REMARK SMILES Cc1ccccc1OCC[NH+]1CCC(CC(=O)NCCCCCCNC(=O)c2ccc(-c3c4nc(c(-c5c(F)c(F)c(F)c(F)c5F)c5ccc([nH]5)c(-c5c(F)c(F)c(F)c(F)c5F)c5nc(c(-c6c(F)c(F)c(F)c(F)c6F)c6ccc3[nH]6)C=C5)C=C4)cc2)CC1
REMARK SMILES IDX 20 1 19 2 18 3 16 4 17 5 15 7 14 8 11 9 12 10 92 11 13 13
REMARK SMILES IDX 91 14 10 15 9 16 8 17 7 18 1 19 2 20 3 21 4 22 6 23 5 24
REMARK SMILES IDX 21 25 22 26 23 27 24 28 25 29 26 30 27 32 28 33 29 34 90 35
REMARK SMILES IDX 30 36 89 37 31 38 32 39 33 40 83 41 34 42 88 43 82 44 84 45
REMARK SMILES IDX 35 46 87 47 81 48 80 49 36 51 68 52 48 53 67 54 49 55 52 56
REMARK SMILES IDX 66 57 85 58 50 59 51 60 65 62 86 63 53 64 37 65 38 66 46 67
REMARK SMILES IDX 39 68 40 69 44 70 47 71 41 72 42 73 45 74 43 75 69 76 70 77
REMARK SMILES IDX 78 78 71 79 72 80 76 81 79 82 73 83 74 84 77 85 75 86 54 87
REMARK SMILES IDX 55 88 63 89 56 90 57 91 61 92 64 93 58 94 59 95 62 96 60 97
REMARK H PARENT 18 6 11 12 25 31 84 50 52 61
REMARK Flexibility Score: inf
ROOT
ATOM      1  C   UNL A   1      30.146  27.877  24.730  1.00  0.00     0.021 C 
ENDROOT
BRANCH   1   2
ATOM      2  C   UNL A   1      30.696  26.513  24.289  1.00  0.00     0.116 C 
BRANCH   2   3
ATOM      3  N   UNL A   1      30.660  26.367  22.841  1.00  0.00    -0.356 N 
ATOM      4  C   UNL A   1      31.647  26.519  21.909  1.00  0.00     0.220 C 
ATOM      5  O   UNL A   1      31.357  26.385  20.720  1.00  0.00    -0.275 OA
ATOM      6  H   UNL A   1      29.781  26.119  22.473  1.00  0.00     0.163 HD
BRANCH   4   7
ATOM      7  C   UNL A   1      33.072  26.827  22.337  1.00  0.00     0.104 C 
BRANCH   7   8
ATOM      8  C   UNL A   1      33.767  25.630  23.045  1.00  0.00     0.009 C 
ATOM      9  N   UNL A   1      34.116  22.576  25.440  1.00  0.00    -0.332 N 
ATOM     10  C   UNL A   1      34.496  24.312  26.068  1.00  0.00     0.262 C 
ATOM     11  C   UNL A   1      33.482  22.336  23.714  1.00  0.00     0.262 C 
ATOM     12  H   UNL A   1      35.106  22.343  25.365  1.00  0.00     0.348 HD
ATOM     13  C   UNL A   1      34.053  25.883  24.969  1.00  0.00     0.066 C 
ATOM     14  C   UNL A   1      33.342  23.797  22.412  1.00  0.00     0.066 C 
BRANCH   9  15
ATOM     15  C   UNL A   1      33.566  21.614  26.356  1.00  0.00     0.304 C 
BRANCH  15  16
ATOM     16  C   UNL A   1      34.183  20.275  26.100  1.00  0.00     0.290 C 
BRANCH  16  17
ATOM     17  O   UNL A   1      33.233  19.219  25.965  1.00  0.00    -0.487 OA
BRANCH  17  18
ATOM     18  C   UNL A   1      33.232  18.368  24.860  1.00  0.00     0.122 A 
ATOM     19  C   UNL A   1      35.536  16.070  25.499  1.00  0.00     0.048 C 
ATOM     20  C   UNL A   1      34.083  17.144  24.475  1.00  0.00    -0.009 A 
ATOM     21  C   UNL A   1      33.690  16.933  23.059  1.00  0.00     0.007 A 
ATOM     22  C   UNL A   1      32.815  17.670  22.204  1.00  0.00     0.001 A 
ATOM     23  C   UNL A   1      32.344  19.091  23.973  1.00  0.00     0.047 A 
ATOM     24  C   UNL A   1      32.150  18.766  22.656  1.00  0.00     0.004 A 
ENDBRANCH  17  18
ENDBRANCH  16  17
ENDBRANCH  15  16
ENDBRANCH   9  15
ENDBRANCH   7   8
ENDBRANCH   4   7
ENDBRANCH   2   3
ENDBRANCH   1   2
BRANCH   1  25
ATOM     25  C   UNL A   1      31.029  29.083  24.426  1.00  0.00     0.002 C 
BRANCH  25  26
ATOM     26  C   UNL A   1      32.291  29.208  25.284  1.00  0.00     0.002 C 
BRANCH  26  27
ATOM     27  C   UNL A   1      32.357  30.434  26.191  1.00  0.00     0.021 C 
BRANCH  27  28
ATOM     28  C   UNL A   1      33.029  30.191  27.533  1.00  0.00     0.116 C 
BRANCH  28  29
ATOM     29  N   UNL A   1      33.887  31.304  27.927  1.00  0.00    -0.352 N 
ATOM     30  C   UNL A   1      35.127  31.334  28.531  1.00  0.00     0.251 C 
ATOM     31  H   UNL A   1      33.514  32.192  27.726  1.00  0.00     0.163 HD
ATOM     32  O   UNL A   1      35.580  32.403  28.931  1.00  0.00    -0.269 OA
BRANCH  30  33
ATOM     33  C   UNL A   1      36.000  30.140  28.489  1.00  0.00     0.039 A 
ATOM     34  C   UNL A   1      36.264  29.529  29.726  1.00  0.00     0.014 A 
ATOM     35  C   UNL A   1      36.822  29.903  27.399  1.00  0.00     0.014 A 
ATOM     36  C   UNL A   1      37.510  28.962  29.946  1.00  0.00     0.010 A 
ATOM     37  C   UNL A   1      38.106  29.501  27.651  1.00  0.00     0.010 A 
ATOM     38  C   UNL A   1      38.456  29.092  28.940  1.00  0.00    -0.014 A 
BRANCH  38  39
ATOM     39  C   UNL A   1      39.852  28.756  29.083  1.00  0.00     0.031 A 
ATOM     40  C   UNL A   1      40.251  27.392  28.711  1.00  0.00     0.074 A 
ATOM     41  C   UNL A   1      40.737  29.742  29.338  1.00  0.00     0.049 A 
ATOM     42  N   UNL A   1      41.359  26.850  29.059  1.00  0.00    -0.248 NA
ATOM     43  C   UNL A   1      39.392  26.494  27.944  1.00  0.00     0.031 C 
ATOM     44  C   UNL A   1      42.181  29.716  29.140  1.00  0.00     0.029 A 
ATOM     45  N   UNL A   1      40.504  30.959  30.001  1.00  0.00    -0.354 N 
ATOM     46  C   UNL A   1      41.505  25.694  28.325  1.00  0.00     0.074 A 
ATOM     47  C   UNL A   1      40.212  25.463  27.732  1.00  0.00     0.031 C 
ATOM     48  C   UNL A   1      42.745  30.666  29.905  1.00  0.00     0.029 A 
ATOM     49  C   UNL A   1      41.689  31.222  30.731  1.00  0.00     0.049 A 
ATOM     50  H   UNL A   1      39.690  31.510  29.966  1.00  0.00     0.167 HD
ATOM     51  C   UNL A   1      42.760  25.177  28.205  1.00  0.00     0.037 A 
ATOM     52  C   UNL A   1      41.688  31.221  32.098  1.00  0.00     0.037 A 
ATOM     53  C   UNL A   1      43.693  25.966  29.009  1.00  0.00     0.049 A 
ATOM     54  C   UNL A   1      42.600  30.168  32.684  1.00  0.00     0.074 A 
ATOM     55  C   UNL A   1      44.551  27.006  28.690  1.00  0.00     0.029 A 
ATOM     56  N   UNL A   1      43.549  25.977  30.390  1.00  0.00    -0.354 N 
ATOM     57  N   UNL A   1      42.932  29.072  32.059  1.00  0.00    -0.248 NA
ATOM     58  C   UNL A   1      43.231  30.277  33.994  1.00  0.00     0.031 C 
ATOM     59  C   UNL A   1      44.914  27.655  29.896  1.00  0.00     0.029 A 
ATOM     60  C   UNL A   1      44.289  27.000  30.943  1.00  0.00     0.049 A 
ATOM     61  H   UNL A   1      42.997  25.343  30.902  1.00  0.00     0.167 HD
ATOM     62  C   UNL A   1      43.815  28.353  32.827  1.00  0.00     0.074 A 
ATOM     63  C   UNL A   1      43.964  29.149  34.030  1.00  0.00     0.031 C 
ATOM     64  C   UNL A   1      44.352  27.174  32.386  1.00  0.00     0.037 A 
BRANCH  51  65
ATOM     65  C   UNL A   1      43.222  24.161  27.187  1.00  0.00     0.064 A 
ATOM     66  C   UNL A   1      42.855  22.802  27.333  1.00  0.00     0.173 A 
ATOM     67  C   UNL A   1      44.050  24.423  26.080  1.00  0.00     0.173 A 
ATOM     68  F   UNL A   1      42.011  22.400  28.291  1.00  0.00    -0.203 F 
ATOM     69  C   UNL A   1      43.342  21.793  26.500  1.00  0.00     0.198 A 
ATOM     70  C   UNL A   1      44.560  23.409  25.263  1.00  0.00     0.198 A 
ATOM     71  F   UNL A   1      44.360  25.668  25.708  1.00  0.00    -0.203 F 
ATOM     72  F   UNL A   1      42.963  20.523  26.706  1.00  0.00    -0.200 F 
ATOM     73  C   UNL A   1      44.212  22.092  25.476  1.00  0.00     0.200 A 
ATOM     74  F   UNL A   1      45.392  23.724  24.258  1.00  0.00    -0.200 F 
ATOM     75  F   UNL A   1      44.696  21.124  24.688  1.00  0.00    -0.200 F 
ENDBRANCH  51  65
BRANCH  52  76
ATOM     76  C   UNL A   1      40.373  31.657  32.650  1.00  0.00     0.064 A 
ATOM     77  C   UNL A   1      39.993  32.994  32.405  1.00  0.00     0.173 A 
ATOM     78  C   UNL A   1      39.355  30.731  32.907  1.00  0.00     0.173 A 
ATOM     79  F   UNL A   1      40.933  33.925  32.175  1.00  0.00    -0.203 F 
ATOM     80  C   UNL A   1      38.656  33.341  32.222  1.00  0.00     0.198 A 
ATOM     81  C   UNL A   1      38.013  31.094  32.757  1.00  0.00     0.198 A 
ATOM     82  F   UNL A   1      39.652  29.449  33.164  1.00  0.00    -0.203 F 
ATOM     83  F   UNL A   1      38.337  34.578  31.816  1.00  0.00    -0.200 F 
ATOM     84  C   UNL A   1      37.670  32.380  32.360  1.00  0.00     0.200 A 
ATOM     85  F   UNL A   1      37.053  30.167  32.895  1.00  0.00    -0.200 F 
ATOM     86  F   UNL A   1      36.397  32.678  32.065  1.00  0.00    -0.200 F 
ENDBRANCH  52  76
BRANCH  64  87
ATOM     87  C   UNL A   1      45.073  26.109  33.196  1.00  0.00     0.064 A 
ATOM     88  C   UNL A   1      44.442  25.201  34.058  1.00  0.00     0.173 A 
ATOM     89  C   UNL A   1      46.463  25.871  32.997  1.00  0.00     0.173 A 
ATOM     90  F   UNL A   1      43.120  25.217  34.253  1.00  0.00    -0.203 F 
ATOM     91  C   UNL A   1      45.147  24.183  34.713  1.00  0.00     0.198 A 
ATOM     92  C   UNL A   1      47.144  24.810  33.591  1.00  0.00     0.198 A 
ATOM     93  F   UNL A   1      47.213  26.639  32.195  1.00  0.00    -0.203 F 
ATOM     94  F   UNL A   1      44.500  23.376  35.566  1.00  0.00    -0.200 F 
ATOM     95  C   UNL A   1      46.490  23.977  34.467  1.00  0.00     0.200 A 
ATOM     96  F   UNL A   1      48.431  24.594  33.285  1.00  0.00    -0.200 F 
ATOM     97  F   UNL A   1      47.146  22.968  35.055  1.00  0.00    -0.200 F 
ENDBRANCH  64  87
ENDBRANCH  38  39
ENDBRANCH  30  33
ENDBRANCH  28  29
ENDBRANCH  27  28
ENDBRANCH  26  27
ENDBRANCH  25  26
ENDBRANCH   1  25
TORSDOF 18
ENDMDL
MODEL 3
REMARK VINA RESULT:     -11.9      3.161      5.050
REMARK SMILES Cc1ccccc1OCC[NH+]1CCC(CC(=O)NCCCCCCNC(=O)c2ccc(-c3c4nc(c(-c5c(F)c(F)c(F)c(F)c5F)c5ccc([nH]5)c(-c5c(F)c(F)c(F)c(F)c5F)c5nc(c(-c6c(F)c(F)c(F)c(F)c6F)c6ccc3[nH]6)C=C5)C=C4)cc2)CC1
REMARK SMILES IDX 20 1 19 2 18 3 16 4 17 5 15 7 14 8 11 9 12 10 92 11 13 13
REMARK SMILES IDX 91 14 10 15 9 16 8 17 7 18 1 19 2 20 3 21 4 22 6 23 5 24
REMARK SMILES IDX 21 25 22 26 23 27 24 28 25 29 26 30 27 32 28 33 29 34 90 35
REMARK SMILES IDX 30 36 89 37 31 38 32 39 33 40 83 41 34 42 88 43 82 44 84 45
REMARK SMILES IDX 35 46 87 47 81 48 80 49 36 51 68 52 48 53 67 54 49 55 52 56
REMARK SMILES IDX 66 57 85 58 50 59 51 60 65 62 86 63 53 64 37 65 38 66 46 67
REMARK SMILES IDX 39 68 40 69 44 70 47 71 41 72 42 73 45 74 43 75 69 76 70 77
REMARK SMILES IDX 78 78 71 79 72 80 76 81 79 82 73 83 74 84 77 85 75 86 54 87
REMARK SMILES IDX 55 88 63 89 56 90 57 91 61 92 64 93 58 94 59 95 62 96 60 97
REMARK H PARENT 18 6 11 12 25 31 84 50 52 61
REMARK Flexibility Score: inf
ROOT
ATOM      1  C   UNL A   1      31.399  28.716  26.234  1.00  0.00     0.021 C 
ENDROOT
BRANCH   1   2
ATOM      2  C   UNL A   1      31.882  29.249  24.878  1.00  0.00     0.116 C 
BRANCH   2   3
ATOM      3  N   UNL A   1      30.820  29.218  23.883  1.00  0.00    -0.356 N 
ATOM      4  C   UNL A   1      30.691  28.473  22.745  1.00  0.00     0.220 C 
ATOM      5  O   UNL A   1      29.707  28.661  22.028  1.00  0.00    -0.275 OA
ATOM      6  H   UNL A   1      30.073  29.834  24.058  1.00  0.00     0.163 HD
BRANCH   4   7
ATOM      7  C   UNL A   1      31.731  27.425  22.386  1.00  0.00     0.104 C 
BRANCH   7   8
ATOM      8  C   UNL A   1      32.001  26.417  23.539  1.00  0.00     0.009 C 
ATOM      9  N   UNL A   1      33.321  23.173  25.247  1.00  0.00    -0.332 N 
ATOM     10  C   UNL A   1      31.597  23.201  24.486  1.00  0.00     0.262 C 
ATOM     11  C   UNL A   1      34.422  24.657  25.094  1.00  0.00     0.262 C 
ATOM     12  H   UNL A   1      32.948  23.249  26.193  1.00  0.00     0.348 HD
ATOM     13  C   UNL A   1      31.027  24.723  23.376  1.00  0.00     0.066 C 
ATOM     14  C   UNL A   1      33.825  26.358  24.320  1.00  0.00     0.066 C 
BRANCH   9  15
ATOM     15  C   UNL A   1      34.066  21.943  25.228  1.00  0.00     0.304 C 
BRANCH  15  16
ATOM     16  C   UNL A   1      33.225  20.845  25.797  1.00  0.00     0.290 C 
BRANCH  16  17
ATOM     17  O   UNL A   1      33.852  19.564  25.764  1.00  0.00    -0.487 OA
BRANCH  17  18
ATOM     18  C   UNL A   1      33.530  18.611  24.797  1.00  0.00     0.122 A 
ATOM     19  C   UNL A   1      35.536  16.035  25.376  1.00  0.00     0.048 C 
ATOM     20  C   UNL A   1      34.106  17.225  24.454  1.00  0.00    -0.009 A 
ATOM     21  C   UNL A   1      33.445  16.933  23.157  1.00  0.00     0.007 A 
ATOM     22  C   UNL A   1      32.556  17.713  22.356  1.00  0.00     0.001 A 
ATOM     23  C   UNL A   1      32.621  19.376  23.969  1.00  0.00     0.047 A 
ATOM     24  C   UNL A   1      32.153  18.949  22.754  1.00  0.00     0.004 A 
ENDBRANCH  17  18
ENDBRANCH  16  17
ENDBRANCH  15  16
ENDBRANCH   9  15
ENDBRANCH   7   8
ENDBRANCH   4   7
ENDBRANCH   2   3
ENDBRANCH   1   2
BRANCH   1  25
ATOM     25  C   UNL A   1      32.482  28.471  27.280  1.00  0.00     0.002 C 
BRANCH  25  26
ATOM     26  C   UNL A   1      33.921  28.520  26.759  1.00  0.00     0.002 C 
BRANCH  26  27
ATOM     27  C   UNL A   1      34.667  29.832  26.993  1.00  0.00     0.021 C 
BRANCH  27  28
ATOM     28  C   UNL A   1      33.971  30.792  27.945  1.00  0.00     0.116 C 
BRANCH  28  29
ATOM     29  N   UNL A   1      34.913  31.692  28.603  1.00  0.00    -0.352 N 
ATOM     30  C   UNL A   1      36.107  31.452  29.250  1.00  0.00     0.251 C 
ATOM     31  H   UNL A   1      34.649  32.639  28.582  1.00  0.00     0.163 HD
ATOM     32  O   UNL A   1      36.642  32.354  29.889  1.00  0.00    -0.269 OA
BRANCH  30  33
ATOM     33  C   UNL A   1      36.852  30.200  28.990  1.00  0.00     0.039 A 
ATOM     34  C   UNL A   1      36.984  29.325  30.081  1.00  0.00     0.014 A 
ATOM     35  C   UNL A   1      37.703  30.097  27.901  1.00  0.00     0.014 A 
ATOM     36  C   UNL A   1      38.150  28.588  30.218  1.00  0.00     0.010 A 
ATOM     37  C   UNL A   1      38.923  29.509  28.105  1.00  0.00     0.010 A 
ATOM     38  C   UNL A   1      39.158  28.810  29.291  1.00  0.00    -0.014 A 
BRANCH  38  39
ATOM     39  C   UNL A   1      40.501  28.297  29.406  1.00  0.00     0.031 A 
ATOM     40  C   UNL A   1      40.748  26.951  28.870  1.00  0.00     0.074 A 
ATOM     41  C   UNL A   1      41.488  29.132  29.792  1.00  0.00     0.049 A 
ATOM     42  N   UNL A   1      41.777  26.243  29.160  1.00  0.00    -0.248 NA
ATOM     43  C   UNL A   1      39.810  26.263  27.988  1.00  0.00     0.031 C 
ATOM     44  C   UNL A   1      42.924  28.960  29.607  1.00  0.00     0.029 A 
ATOM     45  N   UNL A   1      41.381  30.277  30.599  1.00  0.00    -0.354 N 
ATOM     46  C   UNL A   1      41.806  25.178  28.288  1.00  0.00     0.074 A 
ATOM     47  C   UNL A   1      40.510  25.175  27.657  1.00  0.00     0.031 C 
ATOM     48  C   UNL A   1      43.574  29.735  30.491  1.00  0.00     0.029 A 
ATOM     49  C   UNL A   1      42.570  30.306  31.369  1.00  0.00     0.049 A 
ATOM     50  H   UNL A   1      40.637  30.921  30.625  1.00  0.00     0.167 HD
ATOM     51  C   UNL A   1      42.995  24.535  28.118  1.00  0.00     0.037 A 
ATOM     52  C   UNL A   1      42.534  30.137  32.725  1.00  0.00     0.037 A 
ATOM     53  C   UNL A   1      43.992  25.103  29.024  1.00  0.00     0.049 A 
ATOM     54  C   UNL A   1      43.303  28.920  33.184  1.00  0.00     0.074 A 
ATOM     55  C   UNL A   1      44.973  26.064  28.847  1.00  0.00     0.029 A 
ATOM     56  N   UNL A   1      43.816  24.960  30.394  1.00  0.00    -0.354 N 
ATOM     57  N   UNL A   1      43.521  27.877  32.430  1.00  0.00    -0.248 NA
ATOM     58  C   UNL A   1      43.909  28.791  34.504  1.00  0.00     0.031 C 
ATOM     59  C   UNL A   1      45.379  26.513  30.128  1.00  0.00     0.029 A 
ATOM     60  C   UNL A   1      44.656  25.812  31.078  1.00  0.00     0.049 A 
ATOM     61  H   UNL A   1      43.181  24.338  30.816  1.00  0.00     0.167 HD
ATOM     62  C   UNL A   1      44.295  26.970  33.111  1.00  0.00     0.074 A 
ATOM     63  C   UNL A   1      44.505  27.589  34.406  1.00  0.00     0.031 C 
ATOM     64  C   UNL A   1      44.702  25.799  32.532  1.00  0.00     0.037 A 
BRANCH  51  65
ATOM     65  C   UNL A   1      43.362  23.604  26.986  1.00  0.00     0.064 A 
ATOM     66  C   UNL A   1      42.930  22.256  27.014  1.00  0.00     0.173 A 
ATOM     67  C   UNL A   1      44.156  23.935  25.873  1.00  0.00     0.173 A 
ATOM     68  F   UNL A   1      42.105  21.802  27.966  1.00  0.00    -0.203 F 
ATOM     69  C   UNL A   1      43.328  21.313  26.066  1.00  0.00     0.198 A 
ATOM     70  C   UNL A   1      44.579  22.984  24.938  1.00  0.00     0.198 A 
ATOM     71  F   UNL A   1      44.516  25.194  25.610  1.00  0.00    -0.203 F 
ATOM     72  F   UNL A   1      42.893  20.048  26.164  1.00  0.00    -0.200 F 
ATOM     73  C   UNL A   1      44.171  21.670  25.038  1.00  0.00     0.200 A 
ATOM     74  F   UNL A   1      45.384  23.357  23.932  1.00  0.00    -0.200 F 
ATOM     75  F   UNL A   1      44.571  20.764  24.137  1.00  0.00    -0.200 F 
ENDBRANCH  51  65
BRANCH  52  76
ATOM     76  C   UNL A   1      41.265  30.655  33.313  1.00  0.00     0.064 A 
ATOM     77  C   UNL A   1      41.064  32.051  33.263  1.00  0.00     0.173 A 
ATOM     78  C   UNL A   1      40.131  29.840  33.413  1.00  0.00     0.173 A 
ATOM     79  F   UNL A   1      42.121  32.876  33.190  1.00  0.00    -0.203 F 
ATOM     80  C   UNL A   1      39.789  32.590  33.111  1.00  0.00     0.198 A 
ATOM     81  C   UNL A   1      38.851  30.391  33.296  1.00  0.00     0.198 A 
ATOM     82  F   UNL A   1      40.256  28.508  33.482  1.00  0.00    -0.203 F 
ATOM     83  F   UNL A   1      39.642  33.904  32.888  1.00  0.00    -0.200 F 
ATOM     84  C   UNL A   1      38.686  31.754  33.088  1.00  0.00     0.200 A 
ATOM     85  F   UNL A   1      37.778  29.586  33.278  1.00  0.00    -0.200 F 
ATOM     86  F   UNL A   1      37.472  32.254  32.819  1.00  0.00    -0.200 F 
ENDBRANCH  52  76
BRANCH  64  87
ATOM     87  C   UNL A   1      45.274  24.565  33.210  1.00  0.00     0.064 A 
ATOM     88  C   UNL A   1      46.596  24.442  33.660  1.00  0.00     0.173 A 
ATOM     89  C   UNL A   1      44.422  23.482  33.571  1.00  0.00     0.173 A 
ATOM     90  F   UNL A   1      47.486  25.428  33.505  1.00  0.00    -0.203 F 
ATOM     91  C   UNL A   1      47.045  23.314  34.356  1.00  0.00     0.198 A 
ATOM     92  C   UNL A   1      44.854  22.396  34.330  1.00  0.00     0.198 A 
ATOM     93  F   UNL A   1      43.126  23.447  33.230  1.00  0.00    -0.203 F 
ATOM     94  F   UNL A   1      48.333  23.230  34.717  1.00  0.00    -0.200 F 
ATOM     95  C   UNL A   1      46.173  22.301  34.706  1.00  0.00     0.200 A 
ATOM     96  F   UNL A   1      43.972  21.461  34.711  1.00  0.00    -0.200 F 
ATOM     97  F   UNL A   1      46.596  21.250  35.419  1.00  0.00    -0.200 F 
ENDBRANCH  64  87
ENDBRANCH  38  39
ENDBRANCH  30  33
ENDBRANCH  28  29
ENDBRANCH  27  28
ENDBRANCH  26  27
ENDBRANCH  25  26
ENDBRANCH   1  25
TORSDOF 18
ENDMDL
