MODEL 1
REMARK VINA RESULT:     -12.3      0.000      0.000
REMARK SMILES CS(=O)(=O)c1ccc(NS(=O)(=O)c2ccc(F)c(C(=O)NCCCCCCNC(=O)c3ccc(-c4c5nc(c(-c6c(F)c(F)c(F)c(F)c6F)c6ccc([nH]6)c(-c6c(F)c(F)c(F)c(F)c6F)c6nc(c(-c7c(F)c(F)c(F)c(F)c7F)c7ccc4[nH]7)C=C6)C=C5)cc3)c2)cc1
REMARK SMILES IDX 23 1 22 2 21 3 19 4 20 5 18 7 13 8 14 9 94 10 15 11 16 12
REMARK SMILES IDX 17 13 10 14 11 15 12 16 9 17 8 19 5 20 6 21 96 22 7 23 95 24
REMARK SMILES IDX 2 25 1 26 3 27 4 28 24 29 25 30 26 31 27 32 28 33 29 34
REMARK SMILES IDX 30 36 31 37 32 38 93 39 33 40 92 41 34 42 35 43 36 44 86 45
REMARK SMILES IDX 37 46 91 47 85 48 87 49 38 50 90 51 84 52 83 53 39 55 71 56
REMARK SMILES IDX 51 57 70 58 52 59 55 60 69 61 88 62 53 63 54 64 68 66 89 67
REMARK SMILES IDX 56 68 40 69 41 70 49 71 42 72 43 73 47 74 50 75 44 76 45 77
REMARK SMILES IDX 48 78 46 79 72 80 73 81 81 82 74 83 75 84 79 85 82 86 76 87
REMARK SMILES IDX 77 88 80 89 78 90 57 91 58 92 66 93 59 94 60 95 64 96 67 97
REMARK SMILES IDX 61 98 62 99 65 100 63 101
REMARK H PARENT 21 6 9 18 28 35 87 54 55 65
REMARK Flexibility Score: inf
ROOT
ATOM      1  C   UNL A   1      33.303  31.532  27.615  1.00  0.00     0.021 C 
ENDROOT
BRANCH   1   2
ATOM      2  C   UNL A   1      33.249  30.104  27.091  1.00  0.00     0.116 C 
BRANCH   2   3
ATOM      3  N   UNL A   1      33.494  29.983  25.670  1.00  0.00    -0.352 N 
ATOM      4  C   UNL A   1      33.161  29.023  24.741  1.00  0.00     0.254 C 
ATOM      5  O   UNL A   1      33.497  29.263  23.581  1.00  0.00    -0.269 OA
ATOM      6  H   UNL A   1      33.999  30.738  25.292  1.00  0.00     0.163 HD
BRANCH   4   7
ATOM      7  C   UNL A   1      32.448  27.746  25.059  1.00  0.00     0.076 A 
ATOM      8  C   UNL A   1      32.351  25.406  25.745  1.00  0.00     0.088 A 
ATOM      9  C   UNL A   1      30.962  25.401  25.636  1.00  0.00     0.025 A 
ATOM     10  C   UNL A   1      33.066  26.602  25.580  1.00  0.00     0.039 A 
ATOM     11  C   UNL A   1      30.322  26.538  25.154  1.00  0.00     0.041 A 
ATOM     12  C   UNL A   1      31.063  27.680  24.831  1.00  0.00     0.136 A 
ATOM     13  F   UNL A   1      30.390  28.700  24.283  1.00  0.00    -0.206 F 
BRANCH   8  14
ATOM     14  S   UNL A   1      33.228  23.890  26.080  1.00  0.00     0.261 S 
ATOM     15  O   UNL A   1      32.455  23.123  27.023  1.00  0.00    -0.201 OA
ATOM     16  O   UNL A   1      34.607  24.251  26.371  1.00  0.00    -0.201 OA
BRANCH  14  17
ATOM     17  N   UNL A   1      33.307  23.005  24.611  1.00  0.00    -0.280 N 
ATOM     18  H   UNL A   1      33.309  23.474  23.745  1.00  0.00     0.180 HD
BRANCH  17  19
ATOM     19  C   UNL A   1      33.372  21.574  24.662  1.00  0.00     0.049 A 
ATOM     20  C   UNL A   1      33.685  18.809  24.438  1.00  0.00     0.067 A 
ATOM     21  C   UNL A   1      34.744  19.594  24.903  1.00  0.00     0.022 A 
ATOM     22  C   UNL A   1      32.441  19.387  24.170  1.00  0.00     0.022 A 
ATOM     23  C   UNL A   1      34.574  20.972  25.040  1.00  0.00     0.028 A 
ATOM     24  C   UNL A   1      32.292  20.780  24.269  1.00  0.00     0.028 A 
BRANCH  20  25
ATOM     25  S   UNL A   1      34.012  17.095  24.087  1.00  0.00     0.175 S 
ATOM     26  C   UNL A   1      32.821  16.140  24.977  1.00  0.00     0.163 C 
ATOM     27  O   UNL A   1      35.312  16.792  24.656  1.00  0.00    -0.224 OA
ATOM     28  O   UNL A   1      33.758  16.929  22.669  1.00  0.00    -0.224 OA
ENDBRANCH  20  25
ENDBRANCH  17  19
ENDBRANCH  14  17
ENDBRANCH   8  14
ENDBRANCH   4   7
ENDBRANCH   2   3
ENDBRANCH   1   2
BRANCH   1  29
ATOM     29  C   UNL A   1      34.579  31.961  28.337  1.00  0.00     0.002 C 
BRANCH  29  30
ATOM     30  C   UNL A   1      34.510  33.259  29.144  1.00  0.00     0.002 C 
BRANCH  30  31
ATOM     31  C   UNL A   1      33.321  34.176  28.853  1.00  0.00     0.021 C 
BRANCH  31  32
ATOM     32  C   UNL A   1      33.523  35.647  29.195  1.00  0.00     0.116 C 
BRANCH  32  33
ATOM     33  N   UNL A   1      32.624  36.114  30.236  1.00  0.00    -0.352 N 
ATOM     34  C   UNL A   1      32.643  35.839  31.581  1.00  0.00     0.251 C 
ATOM     35  H   UNL A   1      31.901  36.712  29.936  1.00  0.00     0.163 HD
ATOM     36  O   UNL A   1      31.721  36.194  32.308  1.00  0.00    -0.269 OA
BRANCH  34  37
ATOM     37  C   UNL A   1      33.779  35.084  32.150  1.00  0.00     0.039 A 
ATOM     38  C   UNL A   1      33.555  33.808  32.674  1.00  0.00     0.014 A 
ATOM     39  C   UNL A   1      35.065  35.629  32.139  1.00  0.00     0.014 A 
ATOM     40  C   UNL A   1      34.636  33.047  33.124  1.00  0.00     0.010 A 
ATOM     41  C   UNL A   1      36.147  34.843  32.520  1.00  0.00     0.010 A 
ATOM     42  C   UNL A   1      35.943  33.544  33.015  1.00  0.00    -0.014 A 
BRANCH  42  43
ATOM     43  C   UNL A   1      37.125  32.741  33.419  1.00  0.00     0.031 A 
ATOM     44  C   UNL A   1      37.823  33.052  34.713  1.00  0.00     0.074 A 
ATOM     45  C   UNL A   1      37.627  31.812  32.584  1.00  0.00     0.049 A 
ATOM     46  N   UNL A   1      38.958  32.595  35.176  1.00  0.00    -0.248 NA
ATOM     47  C   UNL A   1      37.167  34.032  35.593  1.00  0.00     0.031 C 
ATOM     48  C   UNL A   1      37.053  31.438  31.291  1.00  0.00     0.029 A 
ATOM     49  N   UNL A   1      38.751  31.030  32.687  1.00  0.00    -0.354 N 
ATOM     50  C   UNL A   1      39.162  33.248  36.384  1.00  0.00     0.074 A 
ATOM     51  C   UNL A   1      38.061  34.168  36.561  1.00  0.00     0.031 C 
ATOM     52  C   UNL A   1      37.824  30.496  30.724  1.00  0.00     0.029 A 
ATOM     53  C   UNL A   1      38.973  30.237  31.587  1.00  0.00     0.049 A 
ATOM     54  H   UNL A   1      39.343  31.037  33.474  1.00  0.00     0.167 HD
ATOM     55  C   UNL A   1      40.172  33.082  37.271  1.00  0.00     0.037 A 
ATOM     56  C   UNL A   1      39.999  29.412  31.298  1.00  0.00     0.037 A 
ATOM     57  C   UNL A   1      41.252  32.148  37.096  1.00  0.00     0.049 A 
ATOM     58  C   UNL A   1      41.126  29.270  32.287  1.00  0.00     0.074 A 
ATOM     59  C   UNL A   1      42.296  31.867  37.960  1.00  0.00     0.029 A 
ATOM     60  N   UNL A   1      41.428  31.345  35.979  1.00  0.00    -0.354 N 
ATOM     61  N   UNL A   1      41.286  29.855  33.448  1.00  0.00    -0.248 NA
ATOM     62  C   UNL A   1      42.217  28.353  31.924  1.00  0.00     0.031 C 
ATOM     63  C   UNL A   1      43.134  30.934  37.341  1.00  0.00     0.029 A 
ATOM     64  C   UNL A   1      42.577  30.586  36.121  1.00  0.00     0.049 A 
ATOM     65  H   UNL A   1      40.825  31.319  35.201  1.00  0.00     0.167 HD
ATOM     66  C   UNL A   1      42.467  29.347  33.973  1.00  0.00     0.074 A 
ATOM     67  C   UNL A   1      42.986  28.408  33.003  1.00  0.00     0.031 C 
ATOM     68  C   UNL A   1      43.063  29.632  35.156  1.00  0.00     0.037 A 
BRANCH  55  69
ATOM     69  C   UNL A   1      40.159  33.933  38.508  1.00  0.00     0.064 A 
ATOM     70  C   UNL A   1      39.462  33.546  39.663  1.00  0.00     0.173 A 
ATOM     71  C   UNL A   1      40.886  35.132  38.553  1.00  0.00     0.173 A 
ATOM     72  F   UNL A   1      38.744  32.413  39.671  1.00  0.00    -0.203 F 
ATOM     73  C   UNL A   1      39.466  34.345  40.805  1.00  0.00     0.198 A 
ATOM     74  C   UNL A   1      40.916  35.911  39.707  1.00  0.00     0.198 A 
ATOM     75  F   UNL A   1      41.577  35.546  37.480  1.00  0.00    -0.203 F 
ATOM     76  F   UNL A   1      38.748  33.981  41.876  1.00  0.00    -0.200 F 
ATOM     77  C   UNL A   1      40.199  35.522  40.828  1.00  0.00     0.200 A 
ATOM     78  F   UNL A   1      41.638  37.040  39.734  1.00  0.00    -0.200 F 
ATOM     79  F   UNL A   1      40.209  36.284  41.930  1.00  0.00    -0.200 F 
ENDBRANCH  55  69
BRANCH  56  80
ATOM     80  C   UNL A   1      40.005  28.653  30.019  1.00  0.00     0.064 A 
ATOM     81  C   UNL A   1      39.428  27.378  29.938  1.00  0.00     0.173 A 
ATOM     82  C   UNL A   1      40.592  29.177  28.858  1.00  0.00     0.173 A 
ATOM     83  F   UNL A   1      38.874  26.824  31.027  1.00  0.00    -0.203 F 
ATOM     84  C   UNL A   1      39.456  26.649  28.750  1.00  0.00     0.198 A 
ATOM     85  C   UNL A   1      40.592  28.460  27.663  1.00  0.00     0.198 A 
ATOM     86  F   UNL A   1      41.155  30.395  28.879  1.00  0.00    -0.203 F 
ATOM     87  F   UNL A   1      38.940  25.412  28.715  1.00  0.00    -0.200 F 
ATOM     88  C   UNL A   1      40.032  27.192  27.613  1.00  0.00     0.200 A 
ATOM     89  F   UNL A   1      41.136  28.996  26.562  1.00  0.00    -0.200 F 
ATOM     90  F   UNL A   1      40.055  26.492  26.471  1.00  0.00    -0.200 F 
ENDBRANCH  56  80
BRANCH  68  91
ATOM     91  C   UNL A   1      44.312  28.878  35.511  1.00  0.00     0.064 A 
ATOM     92  C   UNL A   1      44.269  27.655  36.195  1.00  0.00     0.173 A 
ATOM     93  C   UNL A   1      45.562  29.345  35.073  1.00  0.00     0.173 A 
ATOM     94  F   UNL A   1      43.102  27.174  36.645  1.00  0.00    -0.203 F 
ATOM     95  C   UNL A   1      45.434  26.932  36.436  1.00  0.00     0.198 A 
ATOM     96  C   UNL A   1      46.719  28.604  35.288  1.00  0.00     0.198 A 
ATOM     97  F   UNL A   1      45.654  30.506  34.407  1.00  0.00    -0.203 F 
ATOM     98  F   UNL A   1      45.376  25.778  37.116  1.00  0.00    -0.200 F 
ATOM     99  C   UNL A   1      46.656  27.399  35.971  1.00  0.00     0.200 A 
ATOM    100  F   UNL A   1      47.894  29.050  34.824  1.00  0.00    -0.200 F 
ATOM    101  F   UNL A   1      47.772  26.688  36.181  1.00  0.00    -0.200 F 
ENDBRANCH  68  91
ENDBRANCH  42  43
ENDBRANCH  34  37
ENDBRANCH  32  33
ENDBRANCH  31  32
ENDBRANCH  30  31
ENDBRANCH  29  30
ENDBRANCH   1  29
TORSDOF 17
ENDMDL
MODEL 2
REMARK VINA RESULT:     -12.3      1.939      2.915
REMARK SMILES CS(=O)(=O)c1ccc(NS(=O)(=O)c2ccc(F)c(C(=O)NCCCCCCNC(=O)c3ccc(-c4c5nc(c(-c6c(F)c(F)c(F)c(F)c6F)c6ccc([nH]6)c(-c6c(F)c(F)c(F)c(F)c6F)c6nc(c(-c7c(F)c(F)c(F)c(F)c7F)c7ccc4[nH]7)C=C6)C=C5)cc3)c2)cc1
REMARK SMILES IDX 23 1 22 2 21 3 19 4 20 5 18 7 13 8 14 9 94 10 15 11 16 12
REMARK SMILES IDX 17 13 10 14 11 15 12 16 9 17 8 19 5 20 6 21 96 22 7 23 95 24
REMARK SMILES IDX 2 25 1 26 3 27 4 28 24 29 25 30 26 31 27 32 28 33 29 34
REMARK SMILES IDX 30 36 31 37 32 38 93 39 33 40 92 41 34 42 35 43 36 44 86 45
REMARK SMILES IDX 37 46 91 47 85 48 87 49 38 50 90 51 84 52 83 53 39 55 71 56
REMARK SMILES IDX 51 57 70 58 52 59 55 60 69 61 88 62 53 63 54 64 68 66 89 67
REMARK SMILES IDX 56 68 40 69 41 70 49 71 42 72 43 73 47 74 50 75 44 76 45 77
REMARK SMILES IDX 48 78 46 79 72 80 73 81 81 82 74 83 75 84 79 85 82 86 76 87
REMARK SMILES IDX 77 88 80 89 78 90 57 91 58 92 66 93 59 94 60 95 64 96 67 97
REMARK SMILES IDX 61 98 62 99 65 100 63 101
REMARK H PARENT 21 6 9 18 28 35 87 54 55 65
REMARK Flexibility Score: inf
ROOT
ATOM      1  C   UNL A   1      33.529  31.359  27.573  1.00  0.00     0.021 C 
ENDROOT
BRANCH   1   2
ATOM      2  C   UNL A   1      33.797  29.910  27.191  1.00  0.00     0.116 C 
BRANCH   2   3
ATOM      3  N   UNL A   1      33.937  29.687  25.768  1.00  0.00    -0.352 N 
ATOM      4  C   UNL A   1      33.681  28.601  24.961  1.00  0.00     0.254 C 
ATOM      5  O   UNL A   1      33.877  28.773  23.758  1.00  0.00    -0.269 OA
ATOM      6  H   UNL A   1      34.285  30.468  25.280  1.00  0.00     0.163 HD
BRANCH   4   7
ATOM      7  C   UNL A   1      33.204  27.271  25.454  1.00  0.00     0.076 A 
ATOM      8  C   UNL A   1      33.443  24.880  25.877  1.00  0.00     0.088 A 
ATOM      9  C   UNL A   1      32.170  24.821  26.437  1.00  0.00     0.025 A 
ATOM     10  C   UNL A   1      33.995  26.117  25.509  1.00  0.00     0.039 A 
ATOM     11  C   UNL A   1      31.377  25.965  26.426  1.00  0.00     0.041 A 
ATOM     12  C   UNL A   1      31.877  27.162  25.902  1.00  0.00     0.136 A 
ATOM     13  F   UNL A   1      31.024  28.194  25.837  1.00  0.00    -0.206 F 
BRANCH   8  14
ATOM     14  S   UNL A   1      34.375  23.383  25.611  1.00  0.00     0.261 S 
ATOM     15  O   UNL A   1      33.703  22.610  24.598  1.00  0.00    -0.201 OA
ATOM     16  O   UNL A   1      34.647  22.811  26.920  1.00  0.00    -0.201 OA
BRANCH  14  17
ATOM     17  N   UNL A   1      35.915  23.835  25.001  1.00  0.00    -0.280 N 
ATOM     18  H   UNL A   1      35.990  24.511  24.288  1.00  0.00     0.180 HD
BRANCH  17  19
ATOM     19  C   UNL A   1      37.089  23.218  25.543  1.00  0.00     0.049 A 
ATOM     20  C   UNL A   1      39.563  22.190  26.328  1.00  0.00     0.067 A 
ATOM     21  C   UNL A   1      39.208  23.495  26.680  1.00  0.00     0.022 A 
ATOM     22  C   UNL A   1      38.651  21.364  25.663  1.00  0.00     0.022 A 
ATOM     23  C   UNL A   1      37.959  23.995  26.310  1.00  0.00     0.028 A 
ATOM     24  C   UNL A   1      37.414  21.890  25.257  1.00  0.00     0.028 A 
BRANCH  20  25
ATOM     25  S   UNL A   1      41.236  21.669  26.642  1.00  0.00     0.175 S 
ATOM     26  C   UNL A   1      41.182  19.950  27.051  1.00  0.00     0.163 C 
ATOM     27  O   UNL A   1      41.679  22.376  27.829  1.00  0.00    -0.224 OA
ATOM     28  O   UNL A   1      41.935  21.813  25.379  1.00  0.00    -0.224 OA
ENDBRANCH  20  25
ENDBRANCH  17  19
ENDBRANCH  14  17
ENDBRANCH   8  14
ENDBRANCH   4   7
ENDBRANCH   2   3
ENDBRANCH   1   2
BRANCH   1  29
ATOM     29  C   UNL A   1      34.709  32.167  28.110  1.00  0.00     0.002 C 
BRANCH  29  30
ATOM     30  C   UNL A   1      34.403  33.185  29.209  1.00  0.00     0.002 C 
BRANCH  30  31
ATOM     31  C   UNL A   1      33.269  34.171  28.924  1.00  0.00     0.021 C 
BRANCH  31  32
ATOM     32  C   UNL A   1      33.556  35.626  29.274  1.00  0.00     0.116 C 
BRANCH  32  33
ATOM     33  N   UNL A   1      32.671  36.145  30.303  1.00  0.00    -0.352 N 
ATOM     34  C   UNL A   1      32.690  35.911  31.656  1.00  0.00     0.251 C 
ATOM     35  H   UNL A   1      31.960  36.749  29.987  1.00  0.00     0.163 HD
ATOM     36  O   UNL A   1      31.779  36.309  32.375  1.00  0.00    -0.269 OA
BRANCH  34  37
ATOM     37  C   UNL A   1      33.811  35.149  32.244  1.00  0.00     0.039 A 
ATOM     38  C   UNL A   1      33.590  33.841  32.682  1.00  0.00     0.014 A 
ATOM     39  C   UNL A   1      35.083  35.720  32.335  1.00  0.00     0.014 A 
ATOM     40  C   UNL A   1      34.663  33.078  33.148  1.00  0.00     0.010 A 
ATOM     41  C   UNL A   1      36.161  34.937  32.730  1.00  0.00     0.010 A 
ATOM     42  C   UNL A   1      35.962  33.608  33.141  1.00  0.00    -0.014 A 
BRANCH  42  43
ATOM     43  C   UNL A   1      37.139  32.809  33.564  1.00  0.00     0.031 A 
ATOM     44  C   UNL A   1      37.817  33.123  34.868  1.00  0.00     0.074 A 
ATOM     45  C   UNL A   1      37.656  31.879  32.738  1.00  0.00     0.049 A 
ATOM     46  N   UNL A   1      38.946  32.670  35.349  1.00  0.00    -0.248 NA
ATOM     47  C   UNL A   1      37.145  34.104  35.736  1.00  0.00     0.031 C 
ATOM     48  C   UNL A   1      37.102  31.500  31.438  1.00  0.00     0.029 A 
ATOM     49  N   UNL A   1      38.780  31.099  32.860  1.00  0.00    -0.354 N 
ATOM     50  C   UNL A   1      39.131  33.326  36.558  1.00  0.00     0.074 A 
ATOM     51  C   UNL A   1      38.025  34.244  36.716  1.00  0.00     0.031 C 
ATOM     52  C   UNL A   1      37.883  30.559  30.884  1.00  0.00     0.029 A 
ATOM     53  C   UNL A   1      39.019  30.304  31.765  1.00  0.00     0.049 A 
ATOM     54  H   UNL A   1      39.359  31.109  33.657  1.00  0.00     0.167 HD
ATOM     55  C   UNL A   1      40.127  33.164  37.461  1.00  0.00     0.037 A 
ATOM     56  C   UNL A   1      40.051  29.481  31.493  1.00  0.00     0.037 A 
ATOM     57  C   UNL A   1      41.211  32.231  37.305  1.00  0.00     0.049 A 
ATOM     58  C   UNL A   1      41.164  29.343  32.500  1.00  0.00     0.074 A 
ATOM     59  C   UNL A   1      42.242  31.954  38.184  1.00  0.00     0.029 A 
ATOM     60  N   UNL A   1      41.405  31.427  36.192  1.00  0.00    -0.354 N 
ATOM     61  N   UNL A   1      41.305  29.931  33.662  1.00  0.00    -0.248 NA
ATOM     62  C   UNL A   1      42.262  28.427  32.156  1.00  0.00     0.031 C 
ATOM     63  C   UNL A   1      43.092  31.022  37.580  1.00  0.00     0.029 A 
ATOM     64  C   UNL A   1      42.554  30.670  36.352  1.00  0.00     0.049 A 
ATOM     65  H   UNL A   1      40.814  31.398  35.404  1.00  0.00     0.167 HD
ATOM     66  C   UNL A   1      42.479  29.427  34.206  1.00  0.00     0.074 A 
ATOM     67  C   UNL A   1      43.015  28.486  33.245  1.00  0.00     0.031 C 
ATOM     68  C   UNL A   1      43.057  29.715  35.397  1.00  0.00     0.037 A 
BRANCH  55  69
ATOM     69  C   UNL A   1      40.094  34.017  38.696  1.00  0.00     0.064 A 
ATOM     70  C   UNL A   1      39.422  33.608  39.858  1.00  0.00     0.173 A 
ATOM     71  C   UNL A   1      40.776  35.243  38.731  1.00  0.00     0.173 A 
ATOM     72  F   UNL A   1      38.746  32.450  39.875  1.00  0.00    -0.203 F 
ATOM     73  C   UNL A   1      39.407  34.410  40.997  1.00  0.00     0.198 A 
ATOM     74  C   UNL A   1      40.787  36.026  39.882  1.00  0.00     0.198 A 
ATOM     75  F   UNL A   1      41.441  35.680  37.650  1.00  0.00    -0.203 F 
ATOM     76  F   UNL A   1      38.713  34.024  42.076  1.00  0.00    -0.200 F 
ATOM     77  C   UNL A   1      40.096  35.614  41.011  1.00  0.00     0.200 A 
ATOM     78  F   UNL A   1      41.468  37.181  39.899  1.00  0.00    -0.200 F 
ATOM     79  F   UNL A   1      40.087  36.379  42.110  1.00  0.00    -0.200 F 
ENDBRANCH  55  69
BRANCH  56  80
ATOM     80  C   UNL A   1      40.079  28.719  30.217  1.00  0.00     0.064 A 
ATOM     81  C   UNL A   1      40.727  29.234  29.086  1.00  0.00     0.173 A 
ATOM     82  C   UNL A   1      39.455  27.468  30.096  1.00  0.00     0.173 A 
ATOM     83  F   UNL A   1      41.320  30.436  29.145  1.00  0.00    -0.203 F 
ATOM     84  C   UNL A   1      40.733  28.538  27.878  1.00  0.00     0.198 A 
ATOM     85  C   UNL A   1      39.488  26.759  28.897  1.00  0.00     0.198 A 
ATOM     86  F   UNL A   1      38.823  26.927  31.149  1.00  0.00    -0.203 F 
ATOM     87  F   UNL A   1      41.319  29.078  26.800  1.00  0.00    -0.200 F 
ATOM     88  C   UNL A   1      40.119  27.299  27.786  1.00  0.00     0.200 A 
ATOM     89  F   UNL A   1      38.905  25.555  28.817  1.00  0.00    -0.200 F 
ATOM     90  F   UNL A   1      40.127  26.629  26.626  1.00  0.00    -0.200 F 
ENDBRANCH  56  80
BRANCH  68  91
ATOM     91  C   UNL A   1      44.302  28.964  35.772  1.00  0.00     0.064 A 
ATOM     92  C   UNL A   1      45.581  29.462  35.487  1.00  0.00     0.173 A 
ATOM     93  C   UNL A   1      44.207  27.774  36.512  1.00  0.00     0.173 A 
ATOM     94  F   UNL A   1      45.724  30.587  34.772  1.00  0.00    -0.203 F 
ATOM     95  C   UNL A   1      46.720  28.790  35.922  1.00  0.00     0.198 A 
ATOM     96  C   UNL A   1      45.347  27.123  36.970  1.00  0.00     0.198 A 
ATOM     97  F   UNL A   1      43.004  27.262  36.816  1.00  0.00    -0.203 F 
ATOM     98  F   UNL A   1      47.935  29.267  35.615  1.00  0.00    -0.200 F 
ATOM     99  C   UNL A   1      46.603  27.629  36.673  1.00  0.00     0.200 A 
ATOM    100  F   UNL A   1      45.230  26.012  37.710  1.00  0.00    -0.200 F 
ATOM    101  F   UNL A   1      47.701  26.999  37.112  1.00  0.00    -0.200 F 
ENDBRANCH  68  91
ENDBRANCH  42  43
ENDBRANCH  34  37
ENDBRANCH  32  33
ENDBRANCH  31  32
ENDBRANCH  30  31
ENDBRANCH  29  30
ENDBRANCH   1  29
TORSDOF 17
ENDMDL
MODEL 3
REMARK VINA RESULT:     -12.3      6.689     12.423
REMARK SMILES CS(=O)(=O)c1ccc(NS(=O)(=O)c2ccc(F)c(C(=O)NCCCCCCNC(=O)c3ccc(-c4c5nc(c(-c6c(F)c(F)c(F)c(F)c6F)c6ccc([nH]6)c(-c6c(F)c(F)c(F)c(F)c6F)c6nc(c(-c7c(F)c(F)c(F)c(F)c7F)c7ccc4[nH]7)C=C6)C=C5)cc3)c2)cc1
REMARK SMILES IDX 23 1 22 2 21 3 19 4 20 5 18 7 13 8 14 9 94 10 15 11 16 12
REMARK SMILES IDX 17 13 10 14 11 15 12 16 9 17 8 19 5 20 6 21 96 22 7 23 95 24
REMARK SMILES IDX 2 25 1 26 3 27 4 28 24 29 25 30 26 31 27 32 28 33 29 34
REMARK SMILES IDX 30 36 31 37 32 38 93 39 33 40 92 41 34 42 35 43 36 44 86 45
REMARK SMILES IDX 37 46 91 47 85 48 87 49 38 50 90 51 84 52 83 53 39 55 71 56
REMARK SMILES IDX 51 57 70 58 52 59 55 60 69 61 88 62 53 63 54 64 68 66 89 67
REMARK SMILES IDX 56 68 40 69 41 70 49 71 42 72 43 73 47 74 50 75 44 76 45 77
REMARK SMILES IDX 48 78 46 79 72 80 73 81 81 82 74 83 75 84 79 85 82 86 76 87
REMARK SMILES IDX 77 88 80 89 78 90 57 91 58 92 66 93 59 94 60 95 64 96 67 97
REMARK SMILES IDX 61 98 62 99 65 100 63 101
REMARK H PARENT 21 6 9 18 28 35 87 54 55 65
REMARK Flexibility Score: inf
ROOT
ATOM      1  C   UNL A   1      39.312  23.309  26.357  1.00  0.00     0.021 C 
ENDROOT
BRANCH   1   2
ATOM      2  C   UNL A   1      37.847  23.167  25.966  1.00  0.00     0.116 C 
BRANCH   2   3
ATOM      3  N   UNL A   1      37.612  23.152  24.538  1.00  0.00    -0.352 N 
ATOM      4  C   UNL A   1      36.522  22.803  23.773  1.00  0.00     0.254 C 
ATOM      5  O   UNL A   1      36.653  22.954  22.558  1.00  0.00    -0.269 OA
ATOM      6  H   UNL A   1      38.386  23.451  24.009  1.00  0.00     0.163 HD
BRANCH   4   7
ATOM      7  C   UNL A   1      35.240  22.259  24.320  1.00  0.00     0.076 A 
ATOM      8  C   UNL A   1      32.900  22.431  24.992  1.00  0.00     0.088 A 
ATOM      9  C   UNL A   1      32.879  21.090  25.369  1.00  0.00     0.025 A 
ATOM     10  C   UNL A   1      34.032  22.967  24.359  1.00  0.00     0.039 A 
ATOM     11  C   UNL A   1      34.060  20.356  25.307  1.00  0.00     0.041 A 
ATOM     12  C   UNL A   1      35.232  20.948  24.827  1.00  0.00     0.136 A 
ATOM     13  F   UNL A   1      36.349  20.211  24.887  1.00  0.00    -0.206 F 
BRANCH   8  14
ATOM     14  S   UNL A   1      31.495  23.477  25.324  1.00  0.00     0.261 S 
ATOM     15  O   UNL A   1      31.946  24.598  26.109  1.00  0.00    -0.201 OA
ATOM     16  O   UNL A   1      30.427  22.616  25.808  1.00  0.00    -0.201 OA
BRANCH  14  17
ATOM     17  N   UNL A   1      30.929  24.074  23.818  1.00  0.00    -0.280 N 
ATOM     18  H   UNL A   1      30.825  23.469  23.047  1.00  0.00     0.180 HD
BRANCH  17  19
ATOM     19  C   UNL A   1      30.609  25.466  23.695  1.00  0.00     0.049 A 
ATOM     20  C   UNL A   1      29.768  28.076  23.169  1.00  0.00     0.067 A 
ATOM     21  C   UNL A   1      28.935  27.205  23.877  1.00  0.00     0.022 A 
ATOM     22  C   UNL A   1      31.056  27.678  22.800  1.00  0.00     0.022 A 
ATOM     23  C   UNL A   1      29.371  25.911  24.162  1.00  0.00     0.028 A 
ATOM     24  C   UNL A   1      31.470  26.360  23.053  1.00  0.00     0.028 A 
BRANCH  20  25
ATOM     25  S   UNL A   1      29.092  29.639  22.654  1.00  0.00     0.175 S 
ATOM     26  C   UNL A   1      27.332  29.508  22.750  1.00  0.00     0.163 C 
ATOM     27  O   UNL A   1      29.430  29.800  21.252  1.00  0.00    -0.224 OA
ATOM     28  O   UNL A   1      29.530  30.602  23.646  1.00  0.00    -0.224 OA
ENDBRANCH  20  25
ENDBRANCH  17  19
ENDBRANCH  14  17
ENDBRANCH   8  14
ENDBRANCH   4   7
ENDBRANCH   2   3
ENDBRANCH   1   2
BRANCH   1  29
ATOM     29  C   UNL A   1      39.991  22.084  26.966  1.00  0.00     0.002 C 
BRANCH  29  30
ATOM     30  C   UNL A   1      41.237  21.561  26.250  1.00  0.00     0.002 C 
BRANCH  30  31
ATOM     31  C   UNL A   1      41.282  20.056  25.980  1.00  0.00     0.021 C 
BRANCH  31  32
ATOM     32  C   UNL A   1      42.500  19.324  26.532  1.00  0.00     0.116 C 
BRANCH  32  33
ATOM     33  N   UNL A   1      43.349  18.774  25.489  1.00  0.00    -0.352 N 
ATOM     34  C   UNL A   1      44.254  19.419  24.683  1.00  0.00     0.251 C 
ATOM     35  H   UNL A   1      43.264  17.804  25.339  1.00  0.00     0.163 HD
ATOM     36  O   UNL A   1      44.788  18.836  23.745  1.00  0.00    -0.269 OA
BRANCH  34  37
ATOM     37  C   UNL A   1      44.567  20.841  24.939  1.00  0.00     0.039 A 
ATOM     38  C   UNL A   1      44.200  21.800  23.991  1.00  0.00     0.014 A 
ATOM     39  C   UNL A   1      45.197  21.223  26.126  1.00  0.00     0.014 A 
ATOM     40  C   UNL A   1      44.402  23.154  24.267  1.00  0.00     0.010 A 
ATOM     41  C   UNL A   1      45.331  22.573  26.428  1.00  0.00     0.010 A 
ATOM     42  C   UNL A   1      44.935  23.552  25.502  1.00  0.00    -0.014 A 
BRANCH  42  43
ATOM     43  C   UNL A   1      45.103  24.983  25.861  1.00  0.00     0.031 A 
ATOM     44  C   UNL A   1      46.461  25.617  25.756  1.00  0.00     0.074 A 
ATOM     45  C   UNL A   1      44.069  25.677  26.373  1.00  0.00     0.049 A 
ATOM     46  N   UNL A   1      46.866  26.790  26.172  1.00  0.00    -0.248 NA
ATOM     47  C   UNL A   1      47.515  24.808  25.124  1.00  0.00     0.031 C 
ATOM     48  C   UNL A   1      42.709  25.164  26.545  1.00  0.00     0.029 A 
ATOM     49  N   UNL A   1      44.006  26.957  26.867  1.00  0.00    -0.354 N 
ATOM     50  C   UNL A   1      48.220  26.848  25.873  1.00  0.00     0.074 A 
ATOM     51  C   UNL A   1      48.581  25.577  25.287  1.00  0.00     0.031 C 
ATOM     52  C   UNL A   1      41.946  26.120  27.100  1.00  0.00     0.029 A 
ATOM     53  C   UNL A   1      42.772  27.293  27.369  1.00  0.00     0.049 A 
ATOM     54  H   UNL A   1      44.773  27.575  26.861  1.00  0.00     0.167 HD
ATOM     55  C   UNL A   1      49.080  27.878  26.059  1.00  0.00     0.037 A 
ATOM     56  C   UNL A   1      42.362  28.412  27.997  1.00  0.00     0.037 A 
ATOM     57  C   UNL A   1      48.706  29.148  26.623  1.00  0.00     0.049 A 
ATOM     58  C   UNL A   1      43.346  29.531  28.222  1.00  0.00     0.074 A 
ATOM     59  C   UNL A   1      49.489  30.273  26.807  1.00  0.00     0.029 A 
ATOM     60  N   UNL A   1      47.440  29.457  27.098  1.00  0.00    -0.354 N 
ATOM     61  N   UNL A   1      44.613  29.596  27.892  1.00  0.00    -0.248 NA
ATOM     62  C   UNL A   1      42.844  30.732  28.906  1.00  0.00     0.031 C 
ATOM     63  C   UNL A   1      48.713  31.245  27.444  1.00  0.00     0.029 A 
ATOM     64  C   UNL A   1      47.428  30.749  27.597  1.00  0.00     0.049 A 
ATOM     65  H   UNL A   1      46.665  28.850  27.083  1.00  0.00     0.167 HD
ATOM     66  C   UNL A   1      45.047  30.854  28.288  1.00  0.00     0.074 A 
ATOM     67  C   UNL A   1      43.909  31.520  28.885  1.00  0.00     0.031 C 
ATOM     68  C   UNL A   1      46.277  31.408  28.162  1.00  0.00     0.037 A 
BRANCH  55  69
ATOM     69  C   UNL A   1      50.511  27.673  25.654  1.00  0.00     0.064 A 
ATOM     70  C   UNL A   1      51.495  27.296  26.582  1.00  0.00     0.173 A 
ATOM     71  C   UNL A   1      50.898  27.818  24.314  1.00  0.00     0.173 A 
ATOM     72  F   UNL A   1      51.180  27.153  27.878  1.00  0.00    -0.203 F 
ATOM     73  C   UNL A   1      52.817  27.103  26.188  1.00  0.00     0.198 A 
ATOM     74  C   UNL A   1      52.213  27.592  23.916  1.00  0.00     0.198 A 
ATOM     75  F   UNL A   1      49.997  28.171  23.383  1.00  0.00    -0.203 F 
ATOM     76  F   UNL A   1      53.748  26.796  27.101  1.00  0.00    -0.200 F 
ATOM     77  C   UNL A   1      53.173  27.244  24.854  1.00  0.00     0.200 A 
ATOM     78  F   UNL A   1      52.553  27.711  22.625  1.00  0.00    -0.200 F 
ATOM     79  F   UNL A   1      54.443  27.050  24.476  1.00  0.00    -0.200 F 
ENDBRANCH  55  69
BRANCH  56  80
ATOM     80  C   UNL A   1      40.952  28.535  28.454  1.00  0.00     0.064 A 
ATOM     81  C   UNL A   1      40.588  28.189  29.763  1.00  0.00     0.173 A 
ATOM     82  C   UNL A   1      39.940  28.990  27.596  1.00  0.00     0.173 A 
ATOM     83  F   UNL A   1      41.515  27.727  30.615  1.00  0.00    -0.203 F 
ATOM     84  C   UNL A   1      39.263  28.274  30.189  1.00  0.00     0.198 A 
ATOM     85  C   UNL A   1      38.622  29.105  28.032  1.00  0.00     0.198 A 
ATOM     86  F   UNL A   1      40.234  29.338  26.334  1.00  0.00    -0.203 F 
ATOM     87  F   UNL A   1      38.937  27.889  31.431  1.00  0.00    -0.200 F 
ATOM     88  C   UNL A   1      38.283  28.737  29.326  1.00  0.00     0.200 A 
ATOM     89  F   UNL A   1      37.680  29.567  27.199  1.00  0.00    -0.200 F 
ATOM     90  F   UNL A   1      37.011  28.822  29.737  1.00  0.00    -0.200 F 
ENDBRANCH  56  80
BRANCH  68  91
ATOM     91  C   UNL A   1      46.456  32.828  28.616  1.00  0.00     0.064 A 
ATOM     92  C   UNL A   1      46.883  33.142  29.913  1.00  0.00     0.173 A 
ATOM     93  C   UNL A   1      46.287  33.882  27.704  1.00  0.00     0.173 A 
ATOM     94  F   UNL A   1      47.046  32.171  30.824  1.00  0.00    -0.203 F 
ATOM     95  C   UNL A   1      47.126  34.462  30.284  1.00  0.00     0.198 A 
ATOM     96  C   UNL A   1      46.559  35.196  28.069  1.00  0.00     0.198 A 
ATOM     97  F   UNL A   1      45.886  33.631  26.448  1.00  0.00    -0.203 F 
ATOM     98  F   UNL A   1      47.506  34.745  31.537  1.00  0.00    -0.200 F 
ATOM     99  C   UNL A   1      46.976  35.486  29.359  1.00  0.00     0.200 A 
ATOM    100  F   UNL A   1      46.431  36.180  27.169  1.00  0.00    -0.200 F 
ATOM    101  F   UNL A   1      47.236  36.753  29.711  1.00  0.00    -0.200 F 
ENDBRANCH  68  91
ENDBRANCH  42  43
ENDBRANCH  34  37
ENDBRANCH  32  33
ENDBRANCH  31  32
ENDBRANCH  30  31
ENDBRANCH  29  30
ENDBRANCH   1  29
TORSDOF 17
ENDMDL
