MODEL 1
REMARK VINA RESULT:     -11.4      0.000      0.000
REMARK SMILES CC(C)Cc1ccc([C@@H]2CC[NH2+][C@H]2C(=O)NCCCCCCNC(=O)c2ccc(-c3c4nc(c(-c5c(F)c(F)c(F)c(F)c5F)c5ccc([nH]5)c(-c5c(F)c(F)c(F)c(F)c5F)c5nc(c(-c6c(F)c(F)c(F)c(F)c6F)c6ccc3[nH]6)C=C5)C=C4)cc2)cc1
REMARK SMILES IDX 19 1 18 2 17 3 16 4 14 5 15 6 13 8 9 9 10 10 11 11 12 12
REMARK SMILES IDX 8 15 5 16 6 17 90 18 7 19 89 20 4 21 2 22 1 23 3 24 20 25
REMARK SMILES IDX 21 26 22 27 23 28 24 29 25 31 26 32 27 33 88 34 28 35 87 36
REMARK SMILES IDX 29 37 30 38 31 39 81 40 32 41 86 42 80 43 82 44 33 45 85 46
REMARK SMILES IDX 79 47 78 48 34 50 66 51 46 52 65 53 47 54 50 55 64 56 83 57
REMARK SMILES IDX 48 58 49 59 63 61 84 62 51 63 35 64 36 65 44 66 37 67 38 68
REMARK SMILES IDX 42 69 45 70 39 71 40 72 43 73 41 74 67 75 68 76 76 77 69 78
REMARK SMILES IDX 70 79 74 80 77 81 71 82 72 83 75 84 73 85 52 86 53 87 61 88
REMARK SMILES IDX 54 89 55 90 59 91 62 92 56 93 57 94 60 95 58 96
REMARK H PARENT 16 7 12 13 12 14 23 30 82 49 50 60
REMARK Flexibility Score: inf
ROOT
ATOM      1  C   UNL A   1      36.243  21.450  24.612  1.00  0.00     0.002 C 
ENDROOT
BRANCH   1   2
ATOM      2  C   UNL A   1      36.192  22.475  25.749  1.00  0.00     0.021 C 
BRANCH   2   3
ATOM      3  C   UNL A   1      36.653  23.869  25.337  1.00  0.00     0.116 C 
BRANCH   3   4
ATOM      4  N   UNL A   1      35.661  24.873  25.653  1.00  0.00    -0.351 N 
ATOM      5  C   UNL A   1      34.423  25.117  25.136  1.00  0.00     0.278 C 
ATOM      6  O   UNL A   1      33.847  26.133  25.538  1.00  0.00    -0.268 OA
ATOM      7  H   UNL A   1      35.929  25.492  26.370  1.00  0.00     0.163 HD
BRANCH   5   8
ATOM      8  C   UNL A   1      33.757  24.188  24.098  1.00  0.00     0.280 C 
ATOM      9  C   UNL A   1      32.462  23.524  24.597  1.00  0.00     0.093 C 
ATOM     10  C   UNL A   1      31.375  24.000  23.632  1.00  0.00     0.076 C 
ATOM     11  C   UNL A   1      32.116  24.516  22.408  1.00  0.00     0.262 C 
ATOM     12  N   UNL A   1      33.459  24.908  22.831  1.00  0.00    -0.335 N 
ATOM     13  H   UNL A   1      33.494  25.914  22.987  1.00  0.00     0.346 HD
ATOM     14  H   UNL A   1      34.144  24.671  22.115  1.00  0.00     0.346 HD
BRANCH   9  15
ATOM     15  C   UNL A   1      32.542  22.005  24.607  1.00  0.00    -0.038 A 
ATOM     16  C   UNL A   1      32.701  19.189  24.630  1.00  0.00    -0.048 A 
ATOM     17  C   UNL A   1      32.860  19.919  25.814  1.00  0.00     0.004 A 
ATOM     18  C   UNL A   1      32.436  19.873  23.442  1.00  0.00     0.004 A 
ATOM     19  C   UNL A   1      32.780  21.315  25.803  1.00  0.00     0.004 A 
ATOM     20  C   UNL A   1      32.368  21.263  23.429  1.00  0.00     0.004 A 
BRANCH  16  21
ATOM     21  C   UNL A   1      32.866  17.689  24.610  1.00  0.00     0.038 C 
BRANCH  21  22
ATOM     22  C   UNL A   1      34.278  17.255  24.168  1.00  0.00    -0.013 C 
ATOM     23  C   UNL A   1      34.895  16.246  25.141  1.00  0.00     0.008 C 
ATOM     24  C   UNL A   1      34.231  16.664  22.760  1.00  0.00     0.008 C 
ENDBRANCH  21  22
ENDBRANCH  16  21
ENDBRANCH   9  15
ENDBRANCH   5   8
ENDBRANCH   3   4
ENDBRANCH   2   3
ENDBRANCH   1   2
BRANCH   1  25
ATOM     25  C   UNL A   1      36.579  20.017  25.047  1.00  0.00     0.002 C 
BRANCH  25  26
ATOM     26  C   UNL A   1      38.006  19.559  24.737  1.00  0.00     0.021 C 
BRANCH  26  27
ATOM     27  C   UNL A   1      39.057  20.055  25.724  1.00  0.00     0.116 C 
BRANCH  27  28
ATOM     28  N   UNL A   1      40.120  19.083  25.916  1.00  0.00    -0.352 N 
ATOM     29  C   UNL A   1      41.457  19.291  26.128  1.00  0.00     0.251 C 
ATOM     30  H   UNL A   1      39.839  18.141  25.889  1.00  0.00     0.163 HD
ATOM     31  O   UNL A   1      42.247  18.349  26.055  1.00  0.00    -0.269 OA
BRANCH  29  32
ATOM     32  C   UNL A   1      41.959  20.646  26.435  1.00  0.00     0.039 A 
ATOM     33  C   UNL A   1      42.149  21.550  25.387  1.00  0.00     0.014 A 
ATOM     34  C   UNL A   1      42.271  21.014  27.747  1.00  0.00     0.014 A 
ATOM     35  C   UNL A   1      42.615  22.837  25.660  1.00  0.00     0.010 A 
ATOM     36  C   UNL A   1      42.668  22.318  28.026  1.00  0.00     0.010 A 
ATOM     37  C   UNL A   1      42.858  23.237  26.983  1.00  0.00    -0.014 A 
BRANCH  37  38
ATOM     38  C   UNL A   1      43.338  24.607  27.294  1.00  0.00     0.031 A 
ATOM     39  C   UNL A   1      42.388  25.625  27.861  1.00  0.00     0.074 A 
ATOM     40  C   UNL A   1      44.610  24.948  27.015  1.00  0.00     0.049 A 
ATOM     41  N   UNL A   1      42.594  26.888  28.138  1.00  0.00    -0.248 NA
ATOM     42  C   UNL A   1      41.015  25.170  28.127  1.00  0.00     0.031 C 
ATOM     43  C   UNL A   1      45.614  24.061  26.426  1.00  0.00     0.029 A 
ATOM     44  N   UNL A   1      45.274  26.137  27.183  1.00  0.00    -0.354 N 
ATOM     45  C   UNL A   1      41.378  27.379  28.593  1.00  0.00     0.074 A 
ATOM     46  C   UNL A   1      40.424  26.295  28.504  1.00  0.00     0.031 C 
ATOM     47  C   UNL A   1      46.771  24.729  26.300  1.00  0.00     0.029 A 
ATOM     48  C   UNL A   1      46.583  26.099  26.767  1.00  0.00     0.049 A 
ATOM     49  H   UNL A   1      44.852  26.941  27.565  1.00  0.00     0.167 HD
ATOM     50  C   UNL A   1      41.088  28.615  29.065  1.00  0.00     0.037 A 
ATOM     51  C   UNL A   1      47.521  27.064  26.762  1.00  0.00     0.037 A 
ATOM     52  C   UNL A   1      42.046  29.681  29.178  1.00  0.00     0.049 A 
ATOM     53  C   UNL A   1      47.174  28.429  27.294  1.00  0.00     0.074 A 
ATOM     54  C   UNL A   1      41.867  30.953  29.693  1.00  0.00     0.029 A 
ATOM     55  N   UNL A   1      43.370  29.599  28.769  1.00  0.00    -0.354 N 
ATOM     56  N   UNL A   1      46.037  28.863  27.779  1.00  0.00    -0.248 NA
ATOM     57  C   UNL A   1      48.246  29.434  27.285  1.00  0.00     0.031 C 
ATOM     58  C   UNL A   1      43.071  31.654  29.558  1.00  0.00     0.029 A 
ATOM     59  C   UNL A   1      44.015  30.803  29.005  1.00  0.00     0.049 A 
ATOM     60  H   UNL A   1      43.789  28.801  28.370  1.00  0.00     0.167 HD
ATOM     61  C   UNL A   1      46.263  30.178  28.164  1.00  0.00     0.074 A 
ATOM     62  C   UNL A   1      47.650  30.467  27.864  1.00  0.00     0.031 C 
ATOM     63  C   UNL A   1      45.400  31.067  28.715  1.00  0.00     0.037 A 
BRANCH  50  64
ATOM     64  C   UNL A   1      39.674  28.877  29.498  1.00  0.00     0.064 A 
ATOM     65  C   UNL A   1      38.712  29.381  28.609  1.00  0.00     0.173 A 
ATOM     66  C   UNL A   1      39.267  28.593  30.810  1.00  0.00     0.173 A 
ATOM     67  F   UNL A   1      39.054  29.681  27.346  1.00  0.00    -0.203 F 
ATOM     68  C   UNL A   1      37.406  29.621  29.024  1.00  0.00     0.198 A 
ATOM     69  C   UNL A   1      37.951  28.805  31.215  1.00  0.00     0.198 A 
ATOM     70  F   UNL A   1      40.143  28.105  31.701  1.00  0.00    -0.203 F 
ATOM     71  F   UNL A   1      36.520  30.152  28.171  1.00  0.00    -0.200 F 
ATOM     72  C   UNL A   1      37.025  29.326  30.325  1.00  0.00     0.200 A 
ATOM     73  F   UNL A   1      37.580  28.508  32.467  1.00  0.00    -0.200 F 
ATOM     74  F   UNL A   1      35.765  29.553  30.722  1.00  0.00    -0.200 F 
ENDBRANCH  50  64
BRANCH  51  75
ATOM     75  C   UNL A   1      48.890  26.766  26.267  1.00  0.00     0.064 A 
ATOM     76  C   UNL A   1      49.236  26.996  24.928  1.00  0.00     0.173 A 
ATOM     77  C   UNL A   1      49.877  26.241  27.115  1.00  0.00     0.173 A 
ATOM     78  F   UNL A   1      48.320  27.478  24.075  1.00  0.00    -0.203 F 
ATOM     79  C   UNL A   1      50.509  26.695  24.450  1.00  0.00     0.198 A 
ATOM     80  C   UNL A   1      51.158  25.966  26.642  1.00  0.00     0.198 A 
ATOM     81  F   UNL A   1      49.599  26.008  28.406  1.00  0.00    -0.203 F 
ATOM     82  F   UNL A   1      50.798  26.882  23.156  1.00  0.00    -0.200 F 
ATOM     83  C   UNL A   1      51.471  26.185  25.310  1.00  0.00     0.200 A 
ATOM     84  F   UNL A   1      52.090  25.487  27.479  1.00  0.00    -0.200 F 
ATOM     85  F   UNL A   1      52.697  25.898  24.850  1.00  0.00    -0.200 F 
ENDBRANCH  51  75
BRANCH  63  86
ATOM     86  C   UNL A   1      45.941  32.420  29.072  1.00  0.00     0.064 A 
ATOM     87  C   UNL A   1      45.869  33.502  28.183  1.00  0.00     0.173 A 
ATOM     88  C   UNL A   1      46.505  32.644  30.337  1.00  0.00     0.173 A 
ATOM     89  F   UNL A   1      45.353  33.336  26.957  1.00  0.00    -0.203 F 
ATOM     90  C   UNL A   1      46.366  34.753  28.539  1.00  0.00     0.198 A 
ATOM     91  C   UNL A   1      46.974  33.903  30.700  1.00  0.00     0.198 A 
ATOM     92  F   UNL A   1      46.592  31.643  31.226  1.00  0.00    -0.203 F 
ATOM     93  F   UNL A   1      46.331  35.762  27.656  1.00  0.00    -0.200 F 
ATOM     94  C   UNL A   1      46.911  34.955  29.799  1.00  0.00     0.200 A 
ATOM     95  F   UNL A   1      47.487  34.098  31.923  1.00  0.00    -0.200 F 
ATOM     96  F   UNL A   1      47.383  36.162  30.142  1.00  0.00    -0.200 F 
ENDBRANCH  63  86
ENDBRANCH  37  38
ENDBRANCH  29  32
ENDBRANCH  27  28
ENDBRANCH  26  27
ENDBRANCH  25  26
ENDBRANCH   1  25
TORSDOF 16
ENDMDL
MODEL 2
REMARK VINA RESULT:     -11.4      5.773     11.336
REMARK SMILES CC(C)Cc1ccc([C@@H]2CC[NH2+][C@H]2C(=O)NCCCCCCNC(=O)c2ccc(-c3c4nc(c(-c5c(F)c(F)c(F)c(F)c5F)c5ccc([nH]5)c(-c5c(F)c(F)c(F)c(F)c5F)c5nc(c(-c6c(F)c(F)c(F)c(F)c6F)c6ccc3[nH]6)C=C5)C=C4)cc2)cc1
REMARK SMILES IDX 19 1 18 2 17 3 16 4 14 5 15 6 13 8 9 9 10 10 11 11 12 12
REMARK SMILES IDX 8 15 5 16 6 17 90 18 7 19 89 20 4 21 2 22 1 23 3 24 20 25
REMARK SMILES IDX 21 26 22 27 23 28 24 29 25 31 26 32 27 33 88 34 28 35 87 36
REMARK SMILES IDX 29 37 30 38 31 39 81 40 32 41 86 42 80 43 82 44 33 45 85 46
REMARK SMILES IDX 79 47 78 48 34 50 66 51 46 52 65 53 47 54 50 55 64 56 83 57
REMARK SMILES IDX 48 58 49 59 63 61 84 62 51 63 35 64 36 65 44 66 37 67 38 68
REMARK SMILES IDX 42 69 45 70 39 71 40 72 43 73 41 74 67 75 68 76 76 77 69 78
REMARK SMILES IDX 70 79 74 80 77 81 71 82 72 83 75 84 73 85 52 86 53 87 61 88
REMARK SMILES IDX 54 89 55 90 59 91 62 92 56 93 57 94 60 95 58 96
REMARK H PARENT 16 7 12 13 12 14 23 30 82 49 50 60
REMARK Flexibility Score: inf
ROOT
ATOM      1  C   UNL A   1      32.335  29.949  26.757  1.00  0.00     0.002 C 
ENDROOT
BRANCH   1   2
ATOM      2  C   UNL A   1      31.994  28.533  27.230  1.00  0.00     0.021 C 
BRANCH   2   3
ATOM      3  C   UNL A   1      32.642  27.436  26.392  1.00  0.00     0.116 C 
BRANCH   3   4
ATOM      4  N   UNL A   1      32.370  26.122  26.933  1.00  0.00    -0.351 N 
ATOM      5  C   UNL A   1      31.546  25.122  26.508  1.00  0.00     0.278 C 
ATOM      6  O   UNL A   1      31.438  24.142  27.254  1.00  0.00    -0.268 OA
ATOM      7  H   UNL A   1      32.869  25.913  27.756  1.00  0.00     0.163 HD
BRANCH   5   8
ATOM      8  C   UNL A   1      30.776  25.188  25.172  1.00  0.00     0.280 C 
ATOM      9  C   UNL A   1      31.557  25.870  24.036  1.00  0.00     0.093 C 
ATOM     10  C   UNL A   1      31.688  24.803  22.948  1.00  0.00     0.076 C 
ATOM     11  C   UNL A   1      30.636  23.755  23.279  1.00  0.00     0.262 C 
ATOM     12  N   UNL A   1      30.361  23.836  24.713  1.00  0.00    -0.335 N 
ATOM     13  H   UNL A   1      30.893  23.122  25.209  1.00  0.00     0.346 HD
ATOM     14  H   UNL A   1      29.371  23.683  24.897  1.00  0.00     0.346 HD
BRANCH   9  15
ATOM     15  C   UNL A   1      30.855  27.105  23.494  1.00  0.00    -0.038 A 
ATOM     16  C   UNL A   1      29.560  29.404  22.495  1.00  0.00    -0.048 A 
ATOM     17  C   UNL A   1      30.953  29.290  22.433  1.00  0.00     0.004 A 
ATOM     18  C   UNL A   1      28.817  28.350  23.035  1.00  0.00     0.004 A 
ATOM     19  C   UNL A   1      31.596  28.151  22.927  1.00  0.00     0.004 A 
ATOM     20  C   UNL A   1      29.457  27.221  23.536  1.00  0.00     0.004 A 
BRANCH  16  21
ATOM     21  C   UNL A   1      28.857  30.660  22.043  1.00  0.00     0.038 C 
BRANCH  21  22
ATOM     22  C   UNL A   1      28.729  31.705  23.170  1.00  0.00    -0.013 C 
ATOM     23  C   UNL A   1      28.838  33.136  22.634  1.00  0.00     0.008 C 
ATOM     24  C   UNL A   1      27.406  31.521  23.910  1.00  0.00     0.008 C 
ENDBRANCH  21  22
ENDBRANCH  16  21
ENDBRANCH   9  15
ENDBRANCH   5   8
ENDBRANCH   3   4
ENDBRANCH   2   3
ENDBRANCH   1   2
BRANCH   1  25
ATOM     25  C   UNL A   1      31.138  30.771  26.260  1.00  0.00     0.002 C 
BRANCH  25  26
ATOM     26  C   UNL A   1      31.314  32.290  26.334  1.00  0.00     0.021 C 
BRANCH  26  27
ATOM     27  C   UNL A   1      32.452  32.750  27.239  1.00  0.00     0.116 C 
BRANCH  27  28
ATOM     28  N   UNL A   1      32.328  34.154  27.591  1.00  0.00    -0.352 N 
ATOM     29  C   UNL A   1      32.988  34.868  28.556  1.00  0.00     0.251 C 
ATOM     30  H   UNL A   1      31.675  34.666  27.061  1.00  0.00     0.163 HD
ATOM     31  O   UNL A   1      32.604  35.998  28.859  1.00  0.00    -0.269 OA
BRANCH  29  32
ATOM     32  C   UNL A   1      34.158  34.283  29.242  1.00  0.00     0.039 A 
ATOM     33  C   UNL A   1      33.955  33.533  30.404  1.00  0.00     0.014 A 
ATOM     34  C   UNL A   1      35.453  34.499  28.762  1.00  0.00     0.014 A 
ATOM     35  C   UNL A   1      35.048  32.967  31.061  1.00  0.00     0.010 A 
ATOM     36  C   UNL A   1      36.534  33.876  29.378  1.00  0.00     0.010 A 
ATOM     37  C   UNL A   1      36.343  33.116  30.542  1.00  0.00    -0.014 A 
BRANCH  37  38
ATOM     38  C   UNL A   1      37.515  32.508  31.218  1.00  0.00     0.031 A 
ATOM     39  C   UNL A   1      38.279  31.400  30.545  1.00  0.00     0.074 A 
ATOM     40  C   UNL A   1      37.857  32.912  32.455  1.00  0.00     0.049 A 
ATOM     41  N   UNL A   1      39.287  30.696  30.995  1.00  0.00    -0.248 NA
ATOM     42  C   UNL A   1      37.833  31.015  29.198  1.00  0.00     0.031 C 
ATOM     43  C   UNL A   1      37.169  33.947  33.227  1.00  0.00     0.029 A 
ATOM     44  N   UNL A   1      38.866  32.493  33.286  1.00  0.00    -0.354 N 
ATOM     45  C   UNL A   1      39.582  29.778  29.996  1.00  0.00     0.074 A 
ATOM     46  C   UNL A   1      38.614  29.976  28.939  1.00  0.00     0.031 C 
ATOM     47  C   UNL A   1      37.786  34.098  34.409  1.00  0.00     0.029 A 
ATOM     48  C   UNL A   1      38.892  33.149  34.493  1.00  0.00     0.049 A 
ATOM     49  H   UNL A   1      39.511  31.790  33.040  1.00  0.00     0.167 HD
ATOM     50  C   UNL A   1      40.584  28.868  29.953  1.00  0.00     0.037 A 
ATOM     51  C   UNL A   1      39.715  32.996  35.547  1.00  0.00     0.037 A 
ATOM     52  C   UNL A   1      41.562  28.694  30.994  1.00  0.00     0.049 A 
ATOM     53  C   UNL A   1      40.823  31.979  35.473  1.00  0.00     0.074 A 
ATOM     54  C   UNL A   1      42.650  27.838  31.023  1.00  0.00     0.029 A 
ATOM     55  N   UNL A   1      41.571  29.393  32.192  1.00  0.00    -0.354 N 
ATOM     56  N   UNL A   1      41.129  31.159  34.498  1.00  0.00    -0.248 NA
ATOM     57  C   UNL A   1      41.703  31.874  36.645  1.00  0.00     0.031 C 
ATOM     58  C   UNL A   1      43.292  27.990  32.257  1.00  0.00     0.029 A 
ATOM     59  C   UNL A   1      42.635  28.976  32.976  1.00  0.00     0.049 A 
ATOM     60  H   UNL A   1      40.917  30.084  32.448  1.00  0.00     0.167 HD
ATOM     61  C   UNL A   1      42.255  30.466  34.922  1.00  0.00     0.074 A 
ATOM     62  C   UNL A   1      42.583  30.970  36.240  1.00  0.00     0.031 C 
ATOM     63  C   UNL A   1      42.955  29.500  34.278  1.00  0.00     0.037 A 
BRANCH  50  64
ATOM     64  C   UNL A   1      40.675  27.993  28.736  1.00  0.00     0.064 A 
ATOM     65  C   UNL A   1      40.022  26.752  28.670  1.00  0.00     0.173 A 
ATOM     66  C   UNL A   1      41.396  28.412  27.609  1.00  0.00     0.173 A 
ATOM     67  F   UNL A   1      39.328  26.299  29.726  1.00  0.00    -0.203 F 
ATOM     68  C   UNL A   1      40.115  25.950  27.536  1.00  0.00     0.198 A 
ATOM     69  C   UNL A   1      41.462  27.622  26.463  1.00  0.00     0.198 A 
ATOM     70  F   UNL A   1      42.036  29.592  27.613  1.00  0.00    -0.203 F 
ATOM     71  F   UNL A   1      39.527  24.746  27.518  1.00  0.00    -0.200 F 
ATOM     72  C   UNL A   1      40.829  26.389  26.432  1.00  0.00     0.200 A 
ATOM     73  F   UNL A   1      42.142  28.052  25.392  1.00  0.00    -0.200 F 
ATOM     74  F   UNL A   1      40.914  25.618  25.339  1.00  0.00    -0.200 F 
ENDBRANCH  50  64
BRANCH  51  75
ATOM     75  C   UNL A   1      39.544  33.849  36.751  1.00  0.00     0.064 A 
ATOM     76  C   UNL A   1      40.146  35.113  36.828  1.00  0.00     0.173 A 
ATOM     77  C   UNL A   1      38.784  33.421  37.850  1.00  0.00     0.173 A 
ATOM     78  F   UNL A   1      40.898  35.558  35.811  1.00  0.00    -0.203 F 
ATOM     79  C   UNL A   1      40.011  35.907  37.965  1.00  0.00     0.198 A 
ATOM     80  C   UNL A   1      38.627  34.228  38.975  1.00  0.00     0.198 A 
ATOM     81  F   UNL A   1      38.182  32.222  37.824  1.00  0.00    -0.203 F 
ATOM     82  F   UNL A   1      40.635  37.091  38.030  1.00  0.00    -0.200 F 
ATOM     83  C   UNL A   1      39.247  35.466  39.035  1.00  0.00     0.200 A 
ATOM     84  F   UNL A   1      37.876  33.804  40.001  1.00  0.00    -0.200 F 
ATOM     85  F   UNL A   1      39.116  36.231  40.127  1.00  0.00    -0.200 F 
ENDBRANCH  51  75
BRANCH  63  86
ATOM     86  C   UNL A   1      44.171  28.954  34.970  1.00  0.00     0.064 A 
ATOM     87  C   UNL A   1      45.430  29.557  34.833  1.00  0.00     0.173 A 
ATOM     88  C   UNL A   1      44.064  27.837  35.811  1.00  0.00     0.173 A 
ATOM     89  F   UNL A   1      45.587  30.618  34.028  1.00  0.00    -0.203 F 
ATOM     90  C   UNL A   1      46.542  29.042  35.493  1.00  0.00     0.198 A 
ATOM     91  C   UNL A   1      45.172  27.344  36.493  1.00  0.00     0.198 A 
ATOM     92  F   UNL A   1      42.879  27.228  35.980  1.00  0.00    -0.203 F 
ATOM     93  F   UNL A   1      47.746  29.604  35.310  1.00  0.00    -0.200 F 
ATOM     94  C   UNL A   1      46.412  27.942  36.327  1.00  0.00     0.200 A 
ATOM     95  F   UNL A   1      45.041  26.289  37.309  1.00  0.00    -0.200 F 
ATOM     96  F   UNL A   1      47.484  27.453  36.967  1.00  0.00    -0.200 F 
ENDBRANCH  63  86
ENDBRANCH  37  38
ENDBRANCH  29  32
ENDBRANCH  27  28
ENDBRANCH  26  27
ENDBRANCH  25  26
ENDBRANCH   1  25
TORSDOF 16
ENDMDL
MODEL 3
REMARK VINA RESULT:     -11.3      3.991      7.409
REMARK SMILES CC(C)Cc1ccc([C@@H]2CC[NH2+][C@H]2C(=O)NCCCCCCNC(=O)c2ccc(-c3c4nc(c(-c5c(F)c(F)c(F)c(F)c5F)c5ccc([nH]5)c(-c5c(F)c(F)c(F)c(F)c5F)c5nc(c(-c6c(F)c(F)c(F)c(F)c6F)c6ccc3[nH]6)C=C5)C=C4)cc2)cc1
REMARK SMILES IDX 19 1 18 2 17 3 16 4 14 5 15 6 13 8 9 9 10 10 11 11 12 12
REMARK SMILES IDX 8 15 5 16 6 17 90 18 7 19 89 20 4 21 2 22 1 23 3 24 20 25
REMARK SMILES IDX 21 26 22 27 23 28 24 29 25 31 26 32 27 33 88 34 28 35 87 36
REMARK SMILES IDX 29 37 30 38 31 39 81 40 32 41 86 42 80 43 82 44 33 45 85 46
REMARK SMILES IDX 79 47 78 48 34 50 66 51 46 52 65 53 47 54 50 55 64 56 83 57
REMARK SMILES IDX 48 58 49 59 63 61 84 62 51 63 35 64 36 65 44 66 37 67 38 68
REMARK SMILES IDX 42 69 45 70 39 71 40 72 43 73 41 74 67 75 68 76 76 77 69 78
REMARK SMILES IDX 70 79 74 80 77 81 71 82 72 83 75 84 73 85 52 86 53 87 61 88
REMARK SMILES IDX 54 89 55 90 59 91 62 92 56 93 57 94 60 95 58 96
REMARK H PARENT 16 7 12 13 12 14 23 30 82 49 50 60
REMARK Flexibility Score: inf
ROOT
ATOM      1  C   UNL A   1      33.390  27.890  22.623  1.00  0.00     0.002 C 
ENDROOT
BRANCH   1   2
ATOM      2  C   UNL A   1      33.529  26.392  22.342  1.00  0.00     0.021 C 
BRANCH   2   3
ATOM      3  C   UNL A   1      32.226  25.727  21.910  1.00  0.00     0.116 C 
BRANCH   3   4
ATOM      4  N   UNL A   1      31.111  26.165  22.721  1.00  0.00    -0.351 N 
ATOM      5  C   UNL A   1      30.551  25.640  23.849  1.00  0.00     0.278 C 
ATOM      6  O   UNL A   1      29.519  26.184  24.256  1.00  0.00    -0.268 OA
ATOM      7  H   UNL A   1      30.677  26.989  22.400  1.00  0.00     0.163 HD
BRANCH   5   8
ATOM      8  C   UNL A   1      31.157  24.431  24.593  1.00  0.00     0.280 C 
ATOM      9  C   UNL A   1      32.338  24.790  25.509  1.00  0.00     0.093 C 
ATOM     10  C   UNL A   1      31.894  24.370  26.912  1.00  0.00     0.076 C 
ATOM     11  C   UNL A   1      30.731  23.413  26.700  1.00  0.00     0.262 C 
ATOM     12  N   UNL A   1      30.132  23.719  25.403  1.00  0.00    -0.335 N 
ATOM     13  H   UNL A   1      29.314  24.315  25.530  1.00  0.00     0.346 HD
ATOM     14  H   UNL A   1      29.834  22.864  24.935  1.00  0.00     0.346 HD
BRANCH   9  15
ATOM     15  C   UNL A   1      33.626  24.080  25.120  1.00  0.00    -0.038 A 
ATOM     16  C   UNL A   1      36.009  22.753  24.403  1.00  0.00    -0.048 A 
ATOM     17  C   UNL A   1      34.774  22.303  23.923  1.00  0.00     0.004 A 
ATOM     18  C   UNL A   1      36.048  23.885  25.220  1.00  0.00     0.004 A 
ATOM     19  C   UNL A   1      33.592  22.961  24.278  1.00  0.00     0.004 A 
ATOM     20  C   UNL A   1      34.871  24.533  25.582  1.00  0.00     0.004 A 
BRANCH  16  21
ATOM     21  C   UNL A   1      37.284  22.006  24.097  1.00  0.00     0.038 C 
BRANCH  21  22
ATOM     22  C   UNL A   1      37.797  21.192  25.302  1.00  0.00    -0.013 C 
ATOM     23  C   UNL A   1      38.158  19.757  24.908  1.00  0.00     0.008 C 
ATOM     24  C   UNL A   1      39.005  21.884  25.930  1.00  0.00     0.008 C 
ENDBRANCH  21  22
ENDBRANCH  16  21
ENDBRANCH   9  15
ENDBRANCH   5   8
ENDBRANCH   3   4
ENDBRANCH   2   3
ENDBRANCH   1   2
BRANCH   1  25
ATOM     25  C   UNL A   1      34.017  28.362  23.942  1.00  0.00     0.002 C 
BRANCH  25  26
ATOM     26  C   UNL A   1      33.328  27.852  25.211  1.00  0.00     0.021 C 
BRANCH  26  27
ATOM     27  C   UNL A   1      34.047  28.209  26.507  1.00  0.00     0.116 C 
BRANCH  27  28
ATOM     28  N   UNL A   1      33.754  29.568  26.931  1.00  0.00    -0.352 N 
ATOM     29  C   UNL A   1      34.474  30.394  27.752  1.00  0.00     0.251 C 
ATOM     30  H   UNL A   1      32.918  29.948  26.578  1.00  0.00     0.163 HD
ATOM     31  O   UNL A   1      33.969  31.435  28.175  1.00  0.00    -0.269 OA
BRANCH  29  32
ATOM     32  C   UNL A   1      35.853  30.039  28.139  1.00  0.00     0.039 A 
ATOM     33  C   UNL A   1      36.084  29.523  29.418  1.00  0.00     0.014 A 
ATOM     34  C   UNL A   1      36.920  30.242  27.260  1.00  0.00     0.014 A 
ATOM     35  C   UNL A   1      37.381  29.174  29.799  1.00  0.00     0.010 A 
ATOM     36  C   UNL A   1      38.201  29.829  27.615  1.00  0.00     0.010 A 
ATOM     37  C   UNL A   1      38.445  29.304  28.894  1.00  0.00    -0.014 A 
BRANCH  37  38
ATOM     38  C   UNL A   1      39.828  28.924  29.275  1.00  0.00     0.031 A 
ATOM     39  C   UNL A   1      40.653  29.847  30.128  1.00  0.00     0.074 A 
ATOM     40  C   UNL A   1      40.357  27.777  28.809  1.00  0.00     0.049 A 
ATOM     41  N   UNL A   1      41.899  29.729  30.513  1.00  0.00    -0.248 NA
ATOM     42  C   UNL A   1      40.000  31.082  30.586  1.00  0.00     0.031 C 
ATOM     43  C   UNL A   1      39.671  26.820  27.940  1.00  0.00     0.029 A 
ATOM     44  N   UNL A   1      41.601  27.226  28.993  1.00  0.00    -0.354 N 
ATOM     45  C   UNL A   1      42.180  30.877  31.241  1.00  0.00     0.074 A 
ATOM     46  C   UNL A   1      40.995  31.705  31.200  1.00  0.00     0.031 C 
ATOM     47  C   UNL A   1      40.493  25.791  27.684  1.00  0.00     0.029 A 
ATOM     48  C   UNL A   1      41.775  26.030  28.341  1.00  0.00     0.049 A 
ATOM     49  H   UNL A   1      42.301  27.649  29.542  1.00  0.00     0.167 HD
ATOM     50  C   UNL A   1      43.315  31.199  31.906  1.00  0.00     0.037 A 
ATOM     51  C   UNL A   1      42.849  25.222  28.280  1.00  0.00     0.037 A 
ATOM     52  C   UNL A   1      44.482  30.359  31.968  1.00  0.00     0.049 A 
ATOM     53  C   UNL A   1      44.099  25.603  29.028  1.00  0.00     0.074 A 
ATOM     54  C   UNL A   1      45.663  30.570  32.658  1.00  0.00     0.029 A 
ATOM     55  N   UNL A   1      44.612  29.142  31.314  1.00  0.00    -0.354 N 
ATOM     56  N   UNL A   1      44.331  26.662  29.765  1.00  0.00    -0.248 NA
ATOM     57  C   UNL A   1      45.231  24.670  28.943  1.00  0.00     0.031 C 
ATOM     58  C   UNL A   1      46.524  29.500  32.389  1.00  0.00     0.029 A 
ATOM     59  C   UNL A   1      45.861  28.599  31.571  1.00  0.00     0.049 A 
ATOM     60  H   UNL A   1      43.920  28.727  30.750  1.00  0.00     0.167 HD
ATOM     61  C   UNL A   1      45.620  26.508  30.258  1.00  0.00     0.074 A 
ATOM     62  C   UNL A   1      46.115  25.247  29.744  1.00  0.00     0.031 C 
ATOM     63  C   UNL A   1      46.330  27.336  31.063  1.00  0.00     0.037 A 
BRANCH  50  64
ATOM     64  C   UNL A   1      43.348  32.519  32.622  1.00  0.00     0.064 A 
ATOM     65  C   UNL A   1      43.751  33.698  31.977  1.00  0.00     0.173 A 
ATOM     66  C   UNL A   1      42.941  32.612  33.962  1.00  0.00     0.173 A 
ATOM     67  F   UNL A   1      44.161  33.661  30.699  1.00  0.00    -0.203 F 
ATOM     68  C   UNL A   1      43.778  34.914  32.654  1.00  0.00     0.198 A 
ATOM     69  C   UNL A   1      42.940  33.836  34.627  1.00  0.00     0.198 A 
ATOM     70  F   UNL A   1      42.541  31.517  34.627  1.00  0.00    -0.203 F 
ATOM     71  F   UNL A   1      44.217  36.016  32.031  1.00  0.00    -0.200 F 
ATOM     72  C   UNL A   1      43.366  34.983  33.976  1.00  0.00     0.200 A 
ATOM     73  F   UNL A   1      42.529  33.904  35.901  1.00  0.00    -0.200 F 
ATOM     74  F   UNL A   1      43.387  36.156  34.625  1.00  0.00    -0.200 F 
ENDBRANCH  50  64
BRANCH  51  75
ATOM     75  C   UNL A   1      42.782  23.955  27.506  1.00  0.00     0.064 A 
ATOM     76  C   UNL A   1      43.099  23.929  26.141  1.00  0.00     0.173 A 
ATOM     77  C   UNL A   1      42.397  22.749  28.110  1.00  0.00     0.173 A 
ATOM     78  F   UNL A   1      43.453  25.061  25.515  1.00  0.00    -0.203 F 
ATOM     79  C   UNL A   1      43.013  22.750  25.404  1.00  0.00     0.198 A 
ATOM     80  C   UNL A   1      42.338  21.565  27.378  1.00  0.00     0.198 A 
ATOM     81  F   UNL A   1      42.090  22.719  29.416  1.00  0.00    -0.203 F 
ATOM     82  F   UNL A   1      43.277  22.762  24.091  1.00  0.00    -0.200 F 
ATOM     83  C   UNL A   1      42.637  21.567  26.025  1.00  0.00     0.200 A 
ATOM     84  F   UNL A   1      41.989  20.421  27.985  1.00  0.00    -0.200 F 
ATOM     85  F   UNL A   1      42.557  20.433  25.316  1.00  0.00    -0.200 F 
ENDBRANCH  51  75
BRANCH  63  86
ATOM     86  C   UNL A   1      47.701  26.885  31.476  1.00  0.00     0.064 A 
ATOM     87  C   UNL A   1      48.850  27.278  30.775  1.00  0.00     0.173 A 
ATOM     88  C   UNL A   1      47.868  26.078  32.612  1.00  0.00     0.173 A 
ATOM     89  F   UNL A   1      48.743  28.036  29.673  1.00  0.00    -0.203 F 
ATOM     90  C   UNL A   1      50.113  26.858  31.181  1.00  0.00     0.198 A 
ATOM     91  C   UNL A   1      49.135  25.686  33.033  1.00  0.00     0.198 A 
ATOM     92  F   UNL A   1      46.800  25.680  33.321  1.00  0.00    -0.203 F 
ATOM     93  F   UNL A   1      51.195  27.206  30.468  1.00  0.00    -0.200 F 
ATOM     94  C   UNL A   1      50.256  26.069  32.314  1.00  0.00     0.200 A 
ATOM     95  F   UNL A   1      49.270  24.935  34.135  1.00  0.00    -0.200 F 
ATOM     96  F   UNL A   1      51.474  25.672  32.707  1.00  0.00    -0.200 F 
ENDBRANCH  63  86
ENDBRANCH  37  38
ENDBRANCH  29  32
ENDBRANCH  27  28
ENDBRANCH  26  27
ENDBRANCH  25  26
ENDBRANCH   1  25
TORSDOF 16
ENDMDL
