MODEL 1
REMARK VINA RESULT:     -12.7      0.000      0.000
REMARK SMILES Cc1cc(=O)cc(C)n1C[C@H]1CCCC[C@@H]1C(=O)NCCCCCCNC(=O)c1ccc(-c2c3nc(c(-c4c(F)c(F)c(F)c(F)c4F)c4ccc([nH]4)c(-c4c(F)c(F)c(F)c(F)c4F)c4nc(c(-c5c(F)c(F)c(F)c(F)c5F)c5ccc2[nH]5)C=C4)C=C3)cc1
REMARK SMILES IDX 22 1 21 2 20 3 19 4 17 5 18 6 16 8 11 9 12 10 13 11 15 12
REMARK SMILES IDX 14 13 10 14 9 15 1 16 2 17 3 18 4 19 7 20 5 21 6 22 8 23
REMARK SMILES IDX 23 24 24 25 25 26 26 27 27 28 28 30 29 31 30 32 91 33 31 34
REMARK SMILES IDX 90 35 32 36 33 37 34 38 84 39 35 40 89 41 83 42 85 43 36 44
REMARK SMILES IDX 88 45 82 46 81 47 37 49 69 50 49 51 68 52 50 53 53 54 67 55
REMARK SMILES IDX 86 56 51 57 52 58 66 60 87 61 54 62 38 63 39 64 47 65 40 66
REMARK SMILES IDX 41 67 45 68 48 69 42 70 43 71 46 72 44 73 70 74 71 75 79 76
REMARK SMILES IDX 72 77 73 78 77 79 80 80 74 81 75 82 78 83 76 84 55 85 56 86
REMARK SMILES IDX 64 87 57 88 58 89 62 90 65 91 59 92 60 93 63 94 61 95
REMARK H PARENT 19 7 26 29 85 48 53 59
REMARK Flexibility Score: inf
ROOT
ATOM      1  C   UNL A   1      32.430  29.338  27.178  1.00  0.00     0.002 C 
ENDROOT
BRANCH   1   2
ATOM      2  C   UNL A   1      31.564  28.138  27.577  1.00  0.00     0.021 C 
BRANCH   2   3
ATOM      3  C   UNL A   1      31.172  27.195  26.440  1.00  0.00     0.116 C 
BRANCH   3   4
ATOM      4  N   UNL A   1      31.043  25.815  26.871  1.00  0.00    -0.356 N 
ATOM      5  C   UNL A   1      31.496  24.616  26.440  1.00  0.00     0.223 C 
ATOM      6  O   UNL A   1      31.164  23.664  27.162  1.00  0.00    -0.275 OA
ATOM      7  H   UNL A   1      30.486  25.731  27.679  1.00  0.00     0.163 HD
BRANCH   5   8
ATOM      8  C   UNL A   1      32.311  24.321  25.157  1.00  0.00     0.083 C 
ATOM      9  C   UNL A   1      33.224  23.064  25.407  1.00  0.00     0.021 C 
ATOM     10  C   UNL A   1      34.357  23.509  26.350  1.00  0.00     0.006 C 
ATOM     11  C   UNL A   1      35.205  24.641  25.764  1.00  0.00     0.000 C 
ATOM     12  C   UNL A   1      33.139  25.423  24.494  1.00  0.00     0.014 C 
ATOM     13  C   UNL A   1      34.373  25.828  25.296  1.00  0.00     0.001 C 
BRANCH   9  14
ATOM     14  C   UNL A   1      33.736  22.439  24.073  1.00  0.00     0.126 C 
BRANCH  14  15
ATOM     15  N   UNL A   1      33.602  20.950  24.004  1.00  0.00    -0.349 N 
ATOM     16  C   UNL A   1      31.680  21.199  22.354  1.00  0.00     0.064 C 
ATOM     17  C   UNL A   1      32.538  20.357  23.267  1.00  0.00     0.018 A 
ATOM     18  C   UNL A   1      32.287  19.035  23.295  1.00  0.00     0.073 A 
ATOM     19  C   UNL A   1      33.140  18.145  24.097  1.00  0.00     0.182 A 
ATOM     20  C   UNL A   1      34.531  20.076  24.633  1.00  0.00     0.018 A 
ATOM     21  O   UNL A   1      32.905  16.947  24.198  1.00  0.00    -0.290 OA
ATOM     22  C   UNL A   1      34.329  18.747  24.715  1.00  0.00     0.073 A 
ATOM     23  C   UNL A   1      35.851  20.569  25.170  1.00  0.00     0.064 C 
ENDBRANCH  14  15
ENDBRANCH   9  14
ENDBRANCH   5   8
ENDBRANCH   3   4
ENDBRANCH   2   3
ENDBRANCH   1   2
BRANCH   1  24
ATOM     24  C   UNL A   1      31.844  30.274  26.116  1.00  0.00     0.002 C 
BRANCH  24  25
ATOM     25  C   UNL A   1      31.547  31.704  26.568  1.00  0.00     0.021 C 
BRANCH  25  26
ATOM     26  C   UNL A   1      32.720  32.465  27.178  1.00  0.00     0.116 C 
BRANCH  26  27
ATOM     27  N   UNL A   1      32.394  33.832  27.546  1.00  0.00    -0.352 N 
ATOM     28  C   UNL A   1      32.996  34.649  28.478  1.00  0.00     0.251 C 
ATOM     29  H   UNL A   1      31.635  34.232  27.061  1.00  0.00     0.163 HD
ATOM     30  O   UNL A   1      32.535  35.748  28.737  1.00  0.00    -0.269 OA
BRANCH  28  31
ATOM     31  C   UNL A   1      34.190  34.158  29.204  1.00  0.00     0.039 A 
ATOM     32  C   UNL A   1      34.004  33.333  30.315  1.00  0.00     0.014 A 
ATOM     33  C   UNL A   1      35.479  34.477  28.768  1.00  0.00     0.014 A 
ATOM     34  C   UNL A   1      35.113  32.759  30.940  1.00  0.00     0.010 A 
ATOM     35  C   UNL A   1      36.579  33.850  29.349  1.00  0.00     0.010 A 
ATOM     36  C   UNL A   1      36.406  32.980  30.435  1.00  0.00    -0.014 A 
BRANCH  36  37
ATOM     37  C   UNL A   1      37.575  32.279  31.022  1.00  0.00     0.031 A 
ATOM     38  C   UNL A   1      38.068  32.639  32.394  1.00  0.00     0.074 A 
ATOM     39  C   UNL A   1      38.213  31.336  30.301  1.00  0.00     0.049 A 
ATOM     40  N   UNL A   1      39.060  32.123  33.075  1.00  0.00    -0.248 NA
ATOM     41  C   UNL A   1      37.371  33.735  33.085  1.00  0.00     0.031 C 
ATOM     42  C   UNL A   1      37.862  30.937  28.938  1.00  0.00     0.029 A 
ATOM     43  N   UNL A   1      39.284  30.536  30.615  1.00  0.00    -0.354 N 
ATOM     44  C   UNL A   1      39.100  32.826  34.271  1.00  0.00     0.074 A 
ATOM     45  C   UNL A   1      38.079  33.847  34.200  1.00  0.00     0.031 C 
ATOM     46  C   UNL A   1      38.669  29.937  28.550  1.00  0.00     0.029 A 
ATOM     47  C   UNL A   1      39.614  29.643  29.624  1.00  0.00     0.049 A 
ATOM     48  H   UNL A   1      39.770  30.596  31.469  1.00  0.00     0.167 HD
ATOM     49  C   UNL A   1      39.896  32.615  35.346  1.00  0.00     0.037 A 
ATOM     50  C   UNL A   1      40.560  28.685  29.591  1.00  0.00     0.037 A 
ATOM     51  C   UNL A   1      40.896  31.584  35.424  1.00  0.00     0.049 A 
ATOM     52  C   UNL A   1      41.440  28.480  30.794  1.00  0.00     0.074 A 
ATOM     53  C   UNL A   1      41.720  31.263  36.488  1.00  0.00     0.029 A 
ATOM     54  N   UNL A   1      41.204  30.705  34.397  1.00  0.00    -0.354 N 
ATOM     55  N   UNL A   1      41.423  29.106  31.944  1.00  0.00    -0.248 NA
ATOM     56  C   UNL A   1      42.469  27.433  30.696  1.00  0.00     0.031 C 
ATOM     57  C   UNL A   1      42.553  30.212  36.092  1.00  0.00     0.029 A 
ATOM     58  C   UNL A   1      42.219  29.852  34.797  1.00  0.00     0.049 A 
ATOM     59  H   UNL A   1      40.766  30.690  33.515  1.00  0.00     0.167 HD
ATOM     60  C   UNL A   1      42.413  28.514  32.717  1.00  0.00     0.074 A 
ATOM     61  C   UNL A   1      43.011  27.474  31.907  1.00  0.00     0.031 C 
ATOM     62  C   UNL A   1      42.790  28.810  33.984  1.00  0.00     0.037 A 
BRANCH  49  63
ATOM     63  C   UNL A   1      39.699  33.498  36.542  1.00  0.00     0.064 A 
ATOM     64  C   UNL A   1      40.352  34.735  36.647  1.00  0.00     0.173 A 
ATOM     65  C   UNL A   1      38.802  33.139  37.558  1.00  0.00     0.173 A 
ATOM     66  F   UNL A   1      41.228  35.118  35.705  1.00  0.00    -0.203 F 
ATOM     67  C   UNL A   1      40.130  35.572  37.735  1.00  0.00     0.198 A 
ATOM     68  C   UNL A   1      38.561  33.991  38.633  1.00  0.00     0.198 A 
ATOM     69  F   UNL A   1      38.146  31.970  37.502  1.00  0.00    -0.203 F 
ATOM     70  F   UNL A   1      40.792  36.734  37.832  1.00  0.00    -0.200 F 
ATOM     71  C   UNL A   1      39.228  35.204  38.722  1.00  0.00     0.200 A 
ATOM     72  F   UNL A   1      37.680  33.641  39.580  1.00  0.00    -0.200 F 
ATOM     73  F   UNL A   1      39.003  36.018  39.763  1.00  0.00    -0.200 F 
ENDBRANCH  49  63
BRANCH  50  74
ATOM     74  C   UNL A   1      40.678  27.806  28.399  1.00  0.00     0.064 A 
ATOM     75  C   UNL A   1      39.978  26.594  28.334  1.00  0.00     0.173 A 
ATOM     76  C   UNL A   1      41.466  28.167  27.297  1.00  0.00     0.173 A 
ATOM     77  F   UNL A   1      39.226  26.201  29.372  1.00  0.00    -0.203 F 
ATOM     78  C   UNL A   1      40.066  25.770  27.215  1.00  0.00     0.198 A 
ATOM     79  C   UNL A   1      41.536  27.352  26.168  1.00  0.00     0.198 A 
ATOM     80  F   UNL A   1      42.151  29.320  27.308  1.00  0.00    -0.203 F 
ATOM     81  F   UNL A   1      39.409  24.603  27.191  1.00  0.00    -0.200 F 
ATOM     82  C   UNL A   1      40.840  26.154  26.129  1.00  0.00     0.200 A 
ATOM     83  F   UNL A   1      42.274  27.732  25.115  1.00  0.00    -0.200 F 
ATOM     84  F   UNL A   1      40.916  25.366  25.048  1.00  0.00    -0.200 F 
ENDBRANCH  50  74
BRANCH  62  85
ATOM     85  C   UNL A   1      43.883  27.989  34.598  1.00  0.00     0.064 A 
ATOM     86  C   UNL A   1      45.212  28.432  34.601  1.00  0.00     0.173 A 
ATOM     87  C   UNL A   1      43.578  26.806  35.288  1.00  0.00     0.173 A 
ATOM     88  F   UNL A   1      45.552  29.551  33.945  1.00  0.00    -0.203 F 
ATOM     89  C   UNL A   1      46.200  27.718  35.273  1.00  0.00     0.198 A 
ATOM     90  C   UNL A   1      44.564  26.106  35.979  1.00  0.00     0.198 A 
ATOM     91  F   UNL A   1      42.318  26.348  35.320  1.00  0.00    -0.203 F 
ATOM     92  F   UNL A   1      47.468  28.149  35.252  1.00  0.00    -0.200 F 
ATOM     93  C   UNL A   1      45.873  26.564  35.972  1.00  0.00     0.200 A 
ATOM     94  F   UNL A   1      44.243  25.001  36.665  1.00  0.00    -0.200 F 
ATOM     95  F   UNL A   1      46.820  25.893  36.640  1.00  0.00    -0.200 F 
ENDBRANCH  62  85
ENDBRANCH  36  37
ENDBRANCH  28  31
ENDBRANCH  26  27
ENDBRANCH  25  26
ENDBRANCH  24  25
ENDBRANCH   1  24
TORSDOF 15
ENDMDL
MODEL 2
REMARK VINA RESULT:     -12.5      0.559      1.731
REMARK SMILES Cc1cc(=O)cc(C)n1C[C@H]1CCCC[C@@H]1C(=O)NCCCCCCNC(=O)c1ccc(-c2c3nc(c(-c4c(F)c(F)c(F)c(F)c4F)c4ccc([nH]4)c(-c4c(F)c(F)c(F)c(F)c4F)c4nc(c(-c5c(F)c(F)c(F)c(F)c5F)c5ccc2[nH]5)C=C4)C=C3)cc1
REMARK SMILES IDX 22 1 21 2 20 3 19 4 17 5 18 6 16 8 11 9 12 10 13 11 15 12
REMARK SMILES IDX 14 13 10 14 9 15 1 16 2 17 3 18 4 19 7 20 5 21 6 22 8 23
REMARK SMILES IDX 23 24 24 25 25 26 26 27 27 28 28 30 29 31 30 32 91 33 31 34
REMARK SMILES IDX 90 35 32 36 33 37 34 38 84 39 35 40 89 41 83 42 85 43 36 44
REMARK SMILES IDX 88 45 82 46 81 47 37 49 69 50 49 51 68 52 50 53 53 54 67 55
REMARK SMILES IDX 86 56 51 57 52 58 66 60 87 61 54 62 38 63 39 64 47 65 40 66
REMARK SMILES IDX 41 67 45 68 48 69 42 70 43 71 46 72 44 73 70 74 71 75 79 76
REMARK SMILES IDX 72 77 73 78 77 79 80 80 74 81 75 82 78 83 76 84 55 85 56 86
REMARK SMILES IDX 64 87 57 88 58 89 62 90 65 91 59 92 60 93 63 94 61 95
REMARK H PARENT 19 7 26 29 85 48 53 59
REMARK Flexibility Score: inf
ROOT
ATOM      1  C   UNL A   1      32.651  29.686  26.937  1.00  0.00     0.002 C 
ENDROOT
BRANCH   1   2
ATOM      2  C   UNL A   1      31.968  28.434  27.498  1.00  0.00     0.021 C 
BRANCH   2   3
ATOM      3  C   UNL A   1      31.333  27.505  26.464  1.00  0.00     0.116 C 
BRANCH   3   4
ATOM      4  N   UNL A   1      31.176  26.145  26.949  1.00  0.00    -0.356 N 
ATOM      5  C   UNL A   1      31.431  24.907  26.469  1.00  0.00     0.223 C 
ATOM      6  O   UNL A   1      31.171  23.995  27.266  1.00  0.00    -0.275 OA
ATOM      7  H   UNL A   1      30.787  26.118  27.854  1.00  0.00     0.163 HD
BRANCH   5   8
ATOM      8  C   UNL A   1      31.946  24.530  25.058  1.00  0.00     0.083 C 
ATOM      9  C   UNL A   1      33.489  24.234  25.136  1.00  0.00     0.021 C 
ATOM     10  C   UNL A   1      34.199  25.587  25.329  1.00  0.00     0.006 C 
ATOM     11  C   UNL A   1      33.930  26.567  24.184  1.00  0.00     0.000 C 
ATOM     12  C   UNL A   1      31.666  25.442  23.861  1.00  0.00     0.014 C 
ATOM     13  C   UNL A   1      32.445  26.753  23.897  1.00  0.00     0.001 C 
BRANCH   9  14
ATOM     14  C   UNL A   1      33.996  23.439  23.894  1.00  0.00     0.126 C 
BRANCH  14  15
ATOM     15  N   UNL A   1      33.956  21.953  24.062  1.00  0.00    -0.349 N 
ATOM     16  C   UNL A   1      31.851  21.847  22.635  1.00  0.00     0.064 C 
ATOM     17  C   UNL A   1      32.861  21.201  23.553  1.00  0.00     0.018 A 
ATOM     18  C   UNL A   1      32.704  19.887  23.805  1.00  0.00     0.073 A 
ATOM     19  C   UNL A   1      33.699  19.176  24.622  1.00  0.00     0.182 A 
ATOM     20  C   UNL A   1      35.006  21.234  24.698  1.00  0.00     0.018 A 
ATOM     21  O   UNL A   1      33.558  17.998  24.925  1.00  0.00    -0.290 OA
ATOM     22  C   UNL A   1      34.905  19.925  24.998  1.00  0.00     0.073 A 
ATOM     23  C   UNL A   1      36.341  21.870  24.995  1.00  0.00     0.064 C 
ENDBRANCH  14  15
ENDBRANCH   9  14
ENDBRANCH   5   8
ENDBRANCH   3   4
ENDBRANCH   2   3
ENDBRANCH   1   2
BRANCH   1  24
ATOM     24  C   UNL A   1      31.770  30.623  26.105  1.00  0.00     0.002 C 
BRANCH  24  25
ATOM     25  C   UNL A   1      31.442  31.977  26.736  1.00  0.00     0.021 C 
BRANCH  25  26
ATOM     26  C   UNL A   1      32.627  32.745  27.311  1.00  0.00     0.116 C 
BRANCH  26  27
ATOM     27  N   UNL A   1      32.306  34.115  27.674  1.00  0.00    -0.352 N 
ATOM     28  C   UNL A   1      32.933  34.944  28.579  1.00  0.00     0.251 C 
ATOM     29  H   UNL A   1      31.533  34.507  27.207  1.00  0.00     0.163 HD
ATOM     30  O   UNL A   1      32.476  36.045  28.839  1.00  0.00    -0.269 OA
BRANCH  28  31
ATOM     31  C   UNL A   1      34.150  34.465  29.275  1.00  0.00     0.039 A 
ATOM     32  C   UNL A   1      34.012  33.881  30.535  1.00  0.00     0.014 A 
ATOM     33  C   UNL A   1      35.407  34.556  28.671  1.00  0.00     0.014 A 
ATOM     34  C   UNL A   1      35.126  33.313  31.156  1.00  0.00     0.010 A 
ATOM     35  C   UNL A   1      36.503  33.929  29.259  1.00  0.00     0.010 A 
ATOM     36  C   UNL A   1      36.371  33.295  30.503  1.00  0.00    -0.014 A 
BRANCH  36  37
ATOM     37  C   UNL A   1      37.529  32.588  31.106  1.00  0.00     0.031 A 
ATOM     38  C   UNL A   1      38.023  32.966  32.473  1.00  0.00     0.074 A 
ATOM     39  C   UNL A   1      38.155  31.623  30.404  1.00  0.00     0.049 A 
ATOM     40  N   UNL A   1      39.006  32.448  33.166  1.00  0.00    -0.248 NA
ATOM     41  C   UNL A   1      37.340  34.084  33.142  1.00  0.00     0.031 C 
ATOM     42  C   UNL A   1      37.801  31.205  29.047  1.00  0.00     0.029 A 
ATOM     43  N   UNL A   1      39.214  30.814  30.735  1.00  0.00    -0.354 N 
ATOM     44  C   UNL A   1      39.053  33.172  34.349  1.00  0.00     0.074 A 
ATOM     45  C   UNL A   1      38.046  34.206  34.257  1.00  0.00     0.031 C 
ATOM     46  C   UNL A   1      38.596  30.188  28.679  1.00  0.00     0.029 A 
ATOM     47  C   UNL A   1      39.533  29.899  29.760  1.00  0.00     0.049 A 
ATOM     48  H   UNL A   1      39.698  30.883  31.589  1.00  0.00     0.167 HD
ATOM     49  C   UNL A   1      39.844  32.969  35.430  1.00  0.00     0.037 A 
ATOM     50  C   UNL A   1      40.466  28.928  29.747  1.00  0.00     0.037 A 
ATOM     51  C   UNL A   1      40.829  31.926  35.528  1.00  0.00     0.049 A 
ATOM     52  C   UNL A   1      41.340  28.732  30.956  1.00  0.00     0.074 A 
ATOM     53  C   UNL A   1      41.646  31.612  36.600  1.00  0.00     0.029 A 
ATOM     54  N   UNL A   1      41.127  31.024  34.517  1.00  0.00    -0.354 N 
ATOM     55  N   UNL A   1      41.330  29.379  32.095  1.00  0.00    -0.248 NA
ATOM     56  C   UNL A   1      42.354  27.669  30.879  1.00  0.00     0.031 C 
ATOM     57  C   UNL A   1      42.465  30.543  36.225  1.00  0.00     0.029 A 
ATOM     58  C   UNL A   1      42.129  30.164  34.935  1.00  0.00     0.049 A 
ATOM     59  H   UNL A   1      40.691  30.999  33.635  1.00  0.00     0.167 HD
ATOM     60  C   UNL A   1      42.309  28.787  32.880  1.00  0.00     0.074 A 
ATOM     61  C   UNL A   1      42.894  27.724  32.091  1.00  0.00     0.031 C 
ATOM     62  C   UNL A   1      42.687  29.100  34.143  1.00  0.00     0.037 A 
BRANCH  49  63
ATOM     63  C   UNL A   1      39.656  33.876  36.609  1.00  0.00     0.064 A 
ATOM     64  C   UNL A   1      38.831  33.511  37.682  1.00  0.00     0.173 A 
ATOM     65  C   UNL A   1      40.357  35.087  36.700  1.00  0.00     0.173 A 
ATOM     66  F   UNL A   1      38.132  32.366  37.636  1.00  0.00    -0.203 F 
ATOM     67  C   UNL A   1      38.697  34.334  38.796  1.00  0.00     0.198 A 
ATOM     68  C   UNL A   1      40.243  35.896  37.828  1.00  0.00     0.198 A 
ATOM     69  F   UNL A   1      41.166  35.479  35.704  1.00  0.00    -0.203 F 
ATOM     70  F   UNL A   1      37.875  33.981  39.793  1.00  0.00    -0.200 F 
ATOM     71  C   UNL A   1      39.410  35.521  38.872  1.00  0.00     0.200 A 
ATOM     72  F   UNL A   1      40.941  37.037  37.906  1.00  0.00    -0.200 F 
ATOM     73  F   UNL A   1      39.292  36.306  39.951  1.00  0.00    -0.200 F 
ENDBRANCH  49  63
BRANCH  50  74
ATOM     74  C   UNL A   1      40.575  28.027  28.571  1.00  0.00     0.064 A 
ATOM     75  C   UNL A   1      39.888  26.806  28.543  1.00  0.00     0.173 A 
ATOM     76  C   UNL A   1      41.340  28.373  27.449  1.00  0.00     0.173 A 
ATOM     77  F   UNL A   1      39.159  26.424  29.601  1.00  0.00    -0.203 F 
ATOM     78  C   UNL A   1      39.968  25.960  27.439  1.00  0.00     0.198 A 
ATOM     79  C   UNL A   1      41.401  27.537  26.335  1.00  0.00     0.198 A 
ATOM     80  F   UNL A   1      42.011  29.534  27.425  1.00  0.00    -0.203 F 
ATOM     81  F   UNL A   1      39.324  24.785  27.449  1.00  0.00    -0.200 F 
ATOM     82  C   UNL A   1      40.718  26.330  26.332  1.00  0.00     0.200 A 
ATOM     83  F   UNL A   1      42.116  27.904  25.263  1.00  0.00    -0.200 F 
ATOM     84  F   UNL A   1      40.786  25.521  25.266  1.00  0.00    -0.200 F 
ENDBRANCH  50  74
BRANCH  62  85
ATOM     85  C   UNL A   1      43.767  28.275  34.774  1.00  0.00     0.064 A 
ATOM     86  C   UNL A   1      43.475  27.077  35.438  1.00  0.00     0.173 A 
ATOM     87  C   UNL A   1      45.115  28.631  34.614  1.00  0.00     0.173 A 
ATOM     88  F   UNL A   1      42.202  26.702  35.625  1.00  0.00    -0.203 F 
ATOM     89  C   UNL A   1      44.496  26.262  35.920  1.00  0.00     0.198 A 
ATOM     90  C   UNL A   1      46.134  27.804  35.076  1.00  0.00     0.198 A 
ATOM     91  F   UNL A   1      45.443  29.766  33.977  1.00  0.00    -0.203 F 
ATOM     92  F   UNL A   1      44.197  25.127  36.565  1.00  0.00    -0.200 F 
ATOM     93  C   UNL A   1      45.824  26.619  35.727  1.00  0.00     0.200 A 
ATOM     94  F   UNL A   1      47.414  28.143  34.876  1.00  0.00    -0.200 F 
ATOM     95  F   UNL A   1      46.804  25.821  36.169  1.00  0.00    -0.200 F 
ENDBRANCH  62  85
ENDBRANCH  36  37
ENDBRANCH  28  31
ENDBRANCH  26  27
ENDBRANCH  25  26
ENDBRANCH  24  25
ENDBRANCH   1  24
TORSDOF 15
ENDMDL
MODEL 3
REMARK VINA RESULT:     -12.4      1.737      3.695
REMARK SMILES Cc1cc(=O)cc(C)n1C[C@H]1CCCC[C@@H]1C(=O)NCCCCCCNC(=O)c1ccc(-c2c3nc(c(-c4c(F)c(F)c(F)c(F)c4F)c4ccc([nH]4)c(-c4c(F)c(F)c(F)c(F)c4F)c4nc(c(-c5c(F)c(F)c(F)c(F)c5F)c5ccc2[nH]5)C=C4)C=C3)cc1
REMARK SMILES IDX 22 1 21 2 20 3 19 4 17 5 18 6 16 8 11 9 12 10 13 11 15 12
REMARK SMILES IDX 14 13 10 14 9 15 1 16 2 17 3 18 4 19 7 20 5 21 6 22 8 23
REMARK SMILES IDX 23 24 24 25 25 26 26 27 27 28 28 30 29 31 30 32 91 33 31 34
REMARK SMILES IDX 90 35 32 36 33 37 34 38 84 39 35 40 89 41 83 42 85 43 36 44
REMARK SMILES IDX 88 45 82 46 81 47 37 49 69 50 49 51 68 52 50 53 53 54 67 55
REMARK SMILES IDX 86 56 51 57 52 58 66 60 87 61 54 62 38 63 39 64 47 65 40 66
REMARK SMILES IDX 41 67 45 68 48 69 42 70 43 71 46 72 44 73 70 74 71 75 79 76
REMARK SMILES IDX 72 77 73 78 77 79 80 80 74 81 75 82 78 83 76 84 55 85 56 86
REMARK SMILES IDX 64 87 57 88 58 89 62 90 65 91 59 92 60 93 63 94 61 95
REMARK H PARENT 19 7 26 29 85 48 53 59
REMARK Flexibility Score: inf
ROOT
ATOM      1  C   UNL A   1      31.776  29.323  26.863  1.00  0.00     0.002 C 
ENDROOT
BRANCH   1   2
ATOM      2  C   UNL A   1      33.154  28.719  27.154  1.00  0.00     0.021 C 
BRANCH   2   3
ATOM      3  C   UNL A   1      33.887  28.125  25.952  1.00  0.00     0.116 C 
BRANCH   3   4
ATOM      4  N   UNL A   1      34.180  26.713  26.112  1.00  0.00    -0.356 N 
ATOM      5  C   UNL A   1      33.961  25.588  25.394  1.00  0.00     0.223 C 
ATOM      6  O   UNL A   1      34.436  24.564  25.906  1.00  0.00    -0.275 OA
ATOM      7  H   UNL A   1      34.658  26.527  26.953  1.00  0.00     0.163 HD
BRANCH   5   8
ATOM      8  C   UNL A   1      33.159  25.451  24.076  1.00  0.00     0.083 C 
ATOM      9  C   UNL A   1      31.683  25.936  24.320  1.00  0.00     0.021 C 
ATOM     10  C   UNL A   1      30.987  24.858  25.171  1.00  0.00     0.006 C 
ATOM     11  C   UNL A   1      30.962  23.488  24.488  1.00  0.00     0.000 C 
ATOM     12  C   UNL A   1      33.135  24.122  23.318  1.00  0.00     0.014 C 
ATOM     13  C   UNL A   1      32.339  23.029  24.025  1.00  0.00     0.001 C 
BRANCH   9  14
ATOM     14  C   UNL A   1      30.941  26.246  22.983  1.00  0.00     0.126 C 
BRANCH  14  15
ATOM     15  N   UNL A   1      30.276  27.585  22.949  1.00  0.00    -0.349 N 
ATOM     16  C   UNL A   1      28.143  26.550  23.876  1.00  0.00     0.064 C 
ATOM     17  C   UNL A   1      28.895  27.711  23.269  1.00  0.00     0.018 A 
ATOM     18  C   UNL A   1      28.216  28.863  23.112  1.00  0.00     0.073 A 
ATOM     19  C   UNL A   1      28.910  30.057  22.607  1.00  0.00     0.182 A 
ATOM     20  C   UNL A   1      30.986  28.776  22.633  1.00  0.00     0.018 A 
ATOM     21  O   UNL A   1      28.314  31.105  22.390  1.00  0.00    -0.290 OA
ATOM     22  C   UNL A   1      30.366  29.956  22.440  1.00  0.00     0.073 A 
ATOM     23  C   UNL A   1      32.493  28.815  22.582  1.00  0.00     0.064 C 
ENDBRANCH  14  15
ENDBRANCH   9  14
ENDBRANCH   5   8
ENDBRANCH   3   4
ENDBRANCH   2   3
ENDBRANCH   1   2
BRANCH   1  24
ATOM     24  C   UNL A   1      31.756  30.566  25.967  1.00  0.00     0.002 C 
BRANCH  24  25
ATOM     25  C   UNL A   1      31.422  31.889  26.658  1.00  0.00     0.021 C 
BRANCH  25  26
ATOM     26  C   UNL A   1      32.606  32.639  27.261  1.00  0.00     0.116 C 
BRANCH  26  27
ATOM     27  N   UNL A   1      32.300  34.016  27.611  1.00  0.00    -0.352 N 
ATOM     28  C   UNL A   1      32.931  34.844  28.513  1.00  0.00     0.251 C 
ATOM     29  H   UNL A   1      31.534  34.413  27.137  1.00  0.00     0.163 HD
ATOM     30  O   UNL A   1      32.486  35.952  28.761  1.00  0.00    -0.269 OA
BRANCH  28  31
ATOM     31  C   UNL A   1      34.138  34.357  29.219  1.00  0.00     0.039 A 
ATOM     32  C   UNL A   1      33.973  33.630  30.400  1.00  0.00     0.014 A 
ATOM     33  C   UNL A   1      35.416  34.580  28.699  1.00  0.00     0.014 A 
ATOM     34  C   UNL A   1      35.086  33.056  31.017  1.00  0.00     0.010 A 
ATOM     35  C   UNL A   1      36.517  33.950  29.277  1.00  0.00     0.010 A 
ATOM     36  C   UNL A   1      36.361  33.177  30.436  1.00  0.00    -0.014 A 
BRANCH  36  37
ATOM     37  C   UNL A   1      37.527  32.470  31.023  1.00  0.00     0.031 A 
ATOM     38  C   UNL A   1      38.023  32.828  32.394  1.00  0.00     0.074 A 
ATOM     39  C   UNL A   1      38.158  31.522  30.302  1.00  0.00     0.049 A 
ATOM     40  N   UNL A   1      39.014  32.308  33.074  1.00  0.00    -0.248 NA
ATOM     41  C   UNL A   1      37.334  33.930  33.084  1.00  0.00     0.031 C 
ATOM     42  C   UNL A   1      37.803  31.123  28.939  1.00  0.00     0.029 A 
ATOM     43  N   UNL A   1      39.226  30.717  30.616  1.00  0.00    -0.354 N 
ATOM     44  C   UNL A   1      39.059  33.012  34.269  1.00  0.00     0.074 A 
ATOM     45  C   UNL A   1      38.043  34.039  34.198  1.00  0.00     0.031 C 
ATOM     46  C   UNL A   1      38.605  30.119  28.552  1.00  0.00     0.029 A 
ATOM     47  C   UNL A   1      39.549  29.821  29.625  1.00  0.00     0.049 A 
ATOM     48  H   UNL A   1      39.713  30.776  31.469  1.00  0.00     0.167 HD
ATOM     49  C   UNL A   1      39.856  32.798  35.343  1.00  0.00     0.037 A 
ATOM     50  C   UNL A   1      40.490  28.858  29.592  1.00  0.00     0.037 A 
ATOM     51  C   UNL A   1      40.850  31.762  35.421  1.00  0.00     0.049 A 
ATOM     52  C   UNL A   1      41.371  28.649  30.793  1.00  0.00     0.074 A 
ATOM     53  C   UNL A   1      41.674  31.438  36.484  1.00  0.00     0.029 A 
ATOM     54  N   UNL A   1      41.152  30.880  34.394  1.00  0.00    -0.354 N 
ATOM     55  N   UNL A   1      41.359  29.277  31.943  1.00  0.00    -0.248 NA
ATOM     56  C   UNL A   1      42.393  27.597  30.695  1.00  0.00     0.031 C 
ATOM     57  C   UNL A   1      42.500  30.382  36.088  1.00  0.00     0.029 A 
ATOM     58  C   UNL A   1      42.162  30.022  34.793  1.00  0.00     0.049 A 
ATOM     59  H   UNL A   1      40.713  30.866  33.513  1.00  0.00     0.167 HD
ATOM     60  C   UNL A   1      42.346  28.681  32.715  1.00  0.00     0.074 A 
ATOM     61  C   UNL A   1      42.937  27.636  31.906  1.00  0.00     0.031 C 
ATOM     62  C   UNL A   1      42.727  28.975  33.982  1.00  0.00     0.037 A 
BRANCH  49  63
ATOM     63  C   UNL A   1      39.665  33.684  36.538  1.00  0.00     0.064 A 
ATOM     64  C   UNL A   1      40.264  34.950  36.607  1.00  0.00     0.173 A 
ATOM     65  C   UNL A   1      38.826  33.294  37.592  1.00  0.00     0.173 A 
ATOM     66  F   UNL A   1      41.084  35.362  35.627  1.00  0.00    -0.203 F 
ATOM     67  C   UNL A   1      40.046  35.788  37.696  1.00  0.00     0.198 A 
ATOM     68  C   UNL A   1      38.588  34.146  38.668  1.00  0.00     0.198 A 
ATOM     69  F   UNL A   1      38.223  32.097  37.571  1.00  0.00    -0.203 F 
ATOM     70  F   UNL A   1      40.657  36.979  37.756  1.00  0.00    -0.200 F 
ATOM     71  C   UNL A   1      39.201  35.389  38.721  1.00  0.00     0.200 A 
ATOM     72  F   UNL A   1      37.762  33.766  39.652  1.00  0.00    -0.200 F 
ATOM     73  F   UNL A   1      38.980  36.203  39.762  1.00  0.00    -0.200 F 
ENDBRANCH  49  63
BRANCH  50  74
ATOM     74  C   UNL A   1      40.602  27.977  28.401  1.00  0.00     0.064 A 
ATOM     75  C   UNL A   1      41.372  28.366  27.296  1.00  0.00     0.173 A 
ATOM     76  C   UNL A   1      39.969  26.727  28.350  1.00  0.00     0.173 A 
ATOM     77  F   UNL A   1      41.981  29.561  27.293  1.00  0.00    -0.203 F 
ATOM     78  C   UNL A   1      41.499  27.542  26.181  1.00  0.00     0.198 A 
ATOM     79  C   UNL A   1      40.115  25.893  27.242  1.00  0.00     0.198 A 
ATOM     80  F   UNL A   1      39.226  26.307  29.384  1.00  0.00    -0.203 F 
ATOM     81  F   UNL A   1      42.217  27.950  25.126  1.00  0.00    -0.200 F 
ATOM     82  C   UNL A   1      40.876  26.302  26.158  1.00  0.00     0.200 A 
ATOM     83  F   UNL A   1      39.524  24.691  27.229  1.00  0.00    -0.200 F 
ATOM     84  F   UNL A   1      41.008  25.505  25.089  1.00  0.00    -0.200 F 
ENDBRANCH  50  74
BRANCH  62  85
ATOM     85  C   UNL A   1      43.816  28.150  34.595  1.00  0.00     0.064 A 
ATOM     86  C   UNL A   1      45.152  28.570  34.567  1.00  0.00     0.173 A 
ATOM     87  C   UNL A   1      43.504  26.986  35.314  1.00  0.00     0.173 A 
ATOM     88  F   UNL A   1      45.500  29.670  33.883  1.00  0.00    -0.203 F 
ATOM     89  C   UNL A   1      46.139  27.854  35.239  1.00  0.00     0.198 A 
ATOM     90  C   UNL A   1      44.488  26.284  36.003  1.00  0.00     0.198 A 
ATOM     91  F   UNL A   1      42.236  26.550  35.375  1.00  0.00    -0.203 F 
ATOM     92  F   UNL A   1      47.413  28.264  35.189  1.00  0.00    -0.200 F 
ATOM     93  C   UNL A   1      45.805  26.720  35.966  1.00  0.00     0.200 A 
ATOM     94  F   UNL A   1      44.161  25.199  36.717  1.00  0.00    -0.200 F 
ATOM     95  F   UNL A   1      46.752  26.047  36.633  1.00  0.00    -0.200 F 
ENDBRANCH  62  85
ENDBRANCH  36  37
ENDBRANCH  28  31
ENDBRANCH  26  27
ENDBRANCH  25  26
ENDBRANCH  24  25
ENDBRANCH   1  24
TORSDOF 15
ENDMDL
