MODEL 1
REMARK VINA RESULT:     -11.7      0.000      0.000
REMARK SMILES Cc1nn(C)c(OCC(C)(C)[NH+](C)C)c1C(=O)NCCCCCCNC(=O)c1ccc(-c2c3nc(c(-c4c(F)c(F)c(F)c(F)c4F)c4ccc([nH]4)c(-c4c(F)c(F)c(F)c(F)c4F)c4nc(c(-c5c(F)c(F)c(F)c(F)c5F)c5ccc2[nH]5)C=C4)C=C3)cc1
REMARK SMILES IDX 20 1 19 2 18 3 16 4 17 5 15 7 1 8 2 9 3 10 4 11 6 12 5 13
REMARK SMILES IDX 7 14 8 15 9 16 10 17 11 18 12 19 13 20 14 21 21 23 22 24
REMARK SMILES IDX 23 25 24 26 25 27 26 28 27 30 28 31 29 32 90 33 30 34 89 35
REMARK SMILES IDX 31 36 32 37 33 38 83 39 34 40 88 41 82 42 84 43 35 44 87 45
REMARK SMILES IDX 81 46 80 47 36 49 68 50 48 51 67 52 49 53 52 54 66 55 85 56
REMARK SMILES IDX 50 57 51 58 65 60 86 61 53 62 37 63 38 64 46 65 39 66 40 67
REMARK SMILES IDX 44 68 47 69 41 70 42 71 45 72 43 73 69 74 70 75 78 76 71 77
REMARK SMILES IDX 72 78 76 79 79 80 73 81 74 82 77 83 75 84 54 85 55 86 63 87
REMARK SMILES IDX 56 88 57 89 61 90 64 91 58 92 59 93 62 94 60 95
REMARK H PARENT 18 6 12 22 25 29 84 48 52 59
REMARK Flexibility Score: inf
ROOT
ATOM      1  C   UNL A   1      33.950  29.813  26.880  1.00  0.00     0.021 C 
ENDROOT
BRANCH   1   2
ATOM      2  C   UNL A   1      34.227  28.585  26.016  1.00  0.00     0.116 C 
BRANCH   2   3
ATOM      3  N   UNL A   1      33.993  28.984  24.649  1.00  0.00    -0.352 N 
ATOM      4  C   UNL A   1      33.184  28.448  23.690  1.00  0.00     0.258 C 
ATOM      5  O   UNL A   1      33.422  28.769  22.526  1.00  0.00    -0.269 OA
ATOM      6  H   UNL A   1      34.502  29.775  24.360  1.00  0.00     0.163 HD
BRANCH   4   7
ATOM      7  C   UNL A   1      32.030  27.644  24.037  1.00  0.00     0.124 A 
ATOM      8  C   UNL A   1      32.897  25.216  24.711  1.00  0.00     0.070 C 
ATOM      9  C   UNL A   1      31.893  26.267  24.410  1.00  0.00     0.076 A 
ATOM     10  N   UNL A   1      30.610  25.893  24.462  1.00  0.00    -0.174 NA
ATOM     11  N   UNL A   1      29.943  26.983  24.062  1.00  0.00    -0.236 N 
ATOM     12  C   UNL A   1      30.718  28.113  23.983  1.00  0.00     0.225 A 
ATOM     13  C   UNL A   1      28.543  26.858  23.732  1.00  0.00     0.178 C 
BRANCH  12  14
ATOM     14  O   UNL A   1      30.095  29.285  23.825  1.00  0.00    -0.471 OA
BRANCH  14  15
ATOM     15  C   UNL A   1      30.013  29.934  22.556  1.00  0.00     0.299 C 
BRANCH  15  16
ATOM     16  C   UNL A   1      28.726  30.798  22.227  1.00  0.00     0.126 C 
ATOM     17  C   UNL A   1      27.828  30.103  21.186  1.00  0.00     0.082 C 
ATOM     18  C   UNL A   1      27.926  30.800  23.565  1.00  0.00     0.082 C 
BRANCH  16  19
ATOM     19  N   UNL A   1      29.020  32.222  21.861  1.00  0.00    -0.333 N 
ATOM     20  C   UNL A   1      28.114  32.780  20.854  1.00  0.00     0.333 C 
ATOM     21  C   UNL A   1      29.078  33.149  22.997  1.00  0.00     0.333 C 
ATOM     22  H   UNL A   1      29.956  32.145  21.462  1.00  0.00     0.348 HD
ENDBRANCH  16  19
ENDBRANCH  15  16
ENDBRANCH  14  15
ENDBRANCH  12  14
ENDBRANCH   4   7
ENDBRANCH   2   3
ENDBRANCH   1   2
BRANCH   1  23
ATOM     23  C   UNL A   1      32.468  29.911  27.250  1.00  0.00     0.002 C 
BRANCH  23  24
ATOM     24  C   UNL A   1      31.678  30.825  26.310  1.00  0.00     0.002 C 
BRANCH  24  25
ATOM     25  C   UNL A   1      31.453  32.238  26.854  1.00  0.00     0.021 C 
BRANCH  25  26
ATOM     26  C   UNL A   1      32.733  32.932  27.302  1.00  0.00     0.116 C 
BRANCH  26  27
ATOM     27  N   UNL A   1      32.489  34.329  27.626  1.00  0.00    -0.352 N 
ATOM     28  C   UNL A   1      32.997  35.061  28.669  1.00  0.00     0.251 C 
ATOM     29  H   UNL A   1      31.882  34.810  27.019  1.00  0.00     0.163 HD
ATOM     30  O   UNL A   1      32.505  36.136  28.983  1.00  0.00    -0.269 OA
BRANCH  28  31
ATOM     31  C   UNL A   1      34.147  34.518  29.416  1.00  0.00     0.039 A 
ATOM     32  C   UNL A   1      33.925  33.862  30.627  1.00  0.00     0.014 A 
ATOM     33  C   UNL A   1      35.440  34.643  28.898  1.00  0.00     0.014 A 
ATOM     34  C   UNL A   1      35.002  33.287  31.299  1.00  0.00     0.010 A 
ATOM     35  C   UNL A   1      36.497  33.998  29.526  1.00  0.00     0.010 A 
ATOM     36  C   UNL A   1      36.290  33.324  30.739  1.00  0.00    -0.014 A 
BRANCH  36  37
ATOM     37  C   UNL A   1      37.440  32.674  31.414  1.00  0.00     0.031 A 
ATOM     38  C   UNL A   1      38.150  31.530  30.749  1.00  0.00     0.074 A 
ATOM     39  C   UNL A   1      37.800  33.076  32.648  1.00  0.00     0.049 A 
ATOM     40  N   UNL A   1      39.133  30.792  31.198  1.00  0.00    -0.248 NA
ATOM     41  C   UNL A   1      37.675  31.143  29.410  1.00  0.00     0.031 C 
ATOM     42  C   UNL A   1      37.153  34.143  33.413  1.00  0.00     0.029 A 
ATOM     43  N   UNL A   1      38.794  32.626  33.480  1.00  0.00    -0.354 N 
ATOM     44  C   UNL A   1      39.383  29.851  30.207  1.00  0.00     0.074 A 
ATOM     45  C   UNL A   1      38.410  30.070  29.160  1.00  0.00     0.031 C 
ATOM     46  C   UNL A   1      37.783  34.284  34.589  1.00  0.00     0.029 A 
ATOM     47  C   UNL A   1      38.847  33.290  34.681  1.00  0.00     0.049 A 
ATOM     48  H   UNL A   1      39.409  31.897  33.240  1.00  0.00     0.167 HD
ATOM     49  C   UNL A   1      40.354  28.909  30.164  1.00  0.00     0.037 A 
ATOM     50  C   UNL A   1      39.659  33.109  35.740  1.00  0.00     0.037 A 
ATOM     51  C   UNL A   1      41.328  28.711  31.203  1.00  0.00     0.049 A 
ATOM     52  C   UNL A   1      40.719  32.041  35.674  1.00  0.00     0.074 A 
ATOM     53  C   UNL A   1      42.388  27.821  31.233  1.00  0.00     0.029 A 
ATOM     54  N   UNL A   1      41.360  29.412  32.400  1.00  0.00    -0.354 N 
ATOM     55  N   UNL A   1      40.993  31.207  34.701  1.00  0.00    -0.248 NA
ATOM     56  C   UNL A   1      41.588  31.896  36.849  1.00  0.00     0.031 C 
ATOM     57  C   UNL A   1      43.024  27.941  32.471  1.00  0.00     0.029 A 
ATOM     58  C   UNL A   1      42.405  28.954  33.187  1.00  0.00     0.049 A 
ATOM     59  H   UNL A   1      40.733  30.127  32.653  1.00  0.00     0.167 HD
ATOM     60  C   UNL A   1      42.084  30.463  35.131  1.00  0.00     0.074 A 
ATOM     61  C   UNL A   1      42.429  30.955  36.449  1.00  0.00     0.031 C 
ATOM     62  C   UNL A   1      42.742  29.465  34.492  1.00  0.00     0.037 A 
BRANCH  49  63
ATOM     63  C   UNL A   1      40.408  28.019  28.953  1.00  0.00     0.064 A 
ATOM     64  C   UNL A   1      39.696  26.812  28.893  1.00  0.00     0.173 A 
ATOM     65  C   UNL A   1      41.152  28.396  27.826  1.00  0.00     0.173 A 
ATOM     66  F   UNL A   1      38.976  26.398  29.948  1.00  0.00    -0.203 F 
ATOM     67  C   UNL A   1      39.753  26.000  27.763  1.00  0.00     0.198 A 
ATOM     68  C   UNL A   1      41.179  27.599  26.684  1.00  0.00     0.198 A 
ATOM     69  F   UNL A   1      41.848  29.543  27.826  1.00  0.00    -0.203 F 
ATOM     70  F   UNL A   1      39.108  24.825  27.752  1.00  0.00    -0.200 F 
ATOM     71  C   UNL A   1      40.487  26.399  26.657  1.00  0.00     0.200 A 
ATOM     72  F   UNL A   1      41.877  27.994  25.610  1.00  0.00    -0.200 F 
ATOM     73  F   UNL A   1      40.533  25.621  25.566  1.00  0.00    -0.200 F 
ENDBRANCH  49  63
BRANCH  50  74
ATOM     74  C   UNL A   1      39.517  33.970  36.944  1.00  0.00     0.064 A 
ATOM     75  C   UNL A   1      40.137  35.227  37.009  1.00  0.00     0.173 A 
ATOM     76  C   UNL A   1      38.768  33.556  38.054  1.00  0.00     0.173 A 
ATOM     77  F   UNL A   1      40.878  35.661  35.979  1.00  0.00    -0.203 F 
ATOM     78  C   UNL A   1      40.035  36.022  38.148  1.00  0.00     0.198 A 
ATOM     79  C   UNL A   1      38.639  34.367  39.181  1.00  0.00     0.198 A 
ATOM     80  F   UNL A   1      38.148  32.367  38.042  1.00  0.00    -0.203 F 
ATOM     81  F   UNL A   1      40.681  37.195  38.203  1.00  0.00    -0.200 F 
ATOM     82  C   UNL A   1      39.281  35.595  39.230  1.00  0.00     0.200 A 
ATOM     83  F   UNL A   1      37.895  33.958  40.217  1.00  0.00    -0.200 F 
ATOM     84  F   UNL A   1      39.181  36.361  40.324  1.00  0.00    -0.200 F 
ENDBRANCH  50  74
BRANCH  62  85
ATOM     85  C   UNL A   1      43.935  28.869  35.184  1.00  0.00     0.064 A 
ATOM     86  C   UNL A   1      43.822  27.757  36.031  1.00  0.00     0.173 A 
ATOM     87  C   UNL A   1      45.218  29.392  34.955  1.00  0.00     0.173 A 
ATOM     88  F   UNL A   1      42.617  27.228  36.294  1.00  0.00    -0.203 F 
ATOM     89  C   UNL A   1      44.945  27.208  36.645  1.00  0.00     0.198 A 
ATOM     90  C   UNL A   1      46.342  28.819  35.542  1.00  0.00     0.198 A 
ATOM     91  F   UNL A   1      45.383  30.450  34.147  1.00  0.00    -0.203 F 
ATOM     92  F   UNL A   1      44.807  26.178  37.490  1.00  0.00    -0.200 F 
ATOM     93  C   UNL A   1      46.203  27.733  36.392  1.00  0.00     0.200 A 
ATOM     94  F   UNL A   1      47.559  29.316  35.282  1.00  0.00    -0.200 F 
ATOM     95  F   UNL A   1      47.284  27.195  36.975  1.00  0.00    -0.200 F 
ENDBRANCH  62  85
ENDBRANCH  36  37
ENDBRANCH  28  31
ENDBRANCH  26  27
ENDBRANCH  25  26
ENDBRANCH  24  25
ENDBRANCH  23  24
ENDBRANCH   1  23
TORSDOF 17
ENDMDL
MODEL 2
REMARK VINA RESULT:     -11.5      0.567      7.298
REMARK SMILES Cc1nn(C)c(OCC(C)(C)[NH+](C)C)c1C(=O)NCCCCCCNC(=O)c1ccc(-c2c3nc(c(-c4c(F)c(F)c(F)c(F)c4F)c4ccc([nH]4)c(-c4c(F)c(F)c(F)c(F)c4F)c4nc(c(-c5c(F)c(F)c(F)c(F)c5F)c5ccc2[nH]5)C=C4)C=C3)cc1
REMARK SMILES IDX 20 1 19 2 18 3 16 4 17 5 15 7 1 8 2 9 3 10 4 11 6 12 5 13
REMARK SMILES IDX 7 14 8 15 9 16 10 17 11 18 12 19 13 20 14 21 21 23 22 24
REMARK SMILES IDX 23 25 24 26 25 27 26 28 27 30 28 31 29 32 90 33 30 34 89 35
REMARK SMILES IDX 31 36 32 37 33 38 83 39 34 40 88 41 82 42 84 43 35 44 87 45
REMARK SMILES IDX 81 46 80 47 36 49 68 50 48 51 67 52 49 53 52 54 66 55 85 56
REMARK SMILES IDX 50 57 51 58 65 60 86 61 53 62 37 63 38 64 46 65 39 66 40 67
REMARK SMILES IDX 44 68 47 69 41 70 42 71 45 72 43 73 69 74 70 75 78 76 71 77
REMARK SMILES IDX 72 78 76 79 79 80 73 81 74 82 77 83 75 84 54 85 55 86 63 87
REMARK SMILES IDX 56 88 57 89 61 90 64 91 58 92 59 93 62 94 60 95
REMARK H PARENT 18 6 12 22 25 29 84 48 52 59
REMARK Flexibility Score: inf
ROOT
ATOM      1  C   UNL A   1      33.880  29.899  26.734  1.00  0.00     0.021 C 
ENDROOT
BRANCH   1   2
ATOM      2  C   UNL A   1      34.168  28.565  26.049  1.00  0.00     0.116 C 
BRANCH   2   3
ATOM      3  N   UNL A   1      33.936  28.768  24.640  1.00  0.00    -0.352 N 
ATOM      4  C   UNL A   1      33.030  28.198  23.793  1.00  0.00     0.258 C 
ATOM      5  O   UNL A   1      33.265  28.296  22.589  1.00  0.00    -0.269 OA
ATOM      6  H   UNL A   1      34.532  29.429  24.218  1.00  0.00     0.163 HD
BRANCH   4   7
ATOM      7  C   UNL A   1      31.797  27.620  24.284  1.00  0.00     0.124 A 
ATOM      8  C   UNL A   1      32.406  25.985  26.298  1.00  0.00     0.070 C 
ATOM      9  C   UNL A   1      31.528  26.643  25.298  1.00  0.00     0.076 A 
ATOM     10  N   UNL A   1      30.246  26.262  25.292  1.00  0.00    -0.174 NA
ATOM     11  N   UNL A   1      29.721  26.926  24.255  1.00  0.00    -0.236 N 
ATOM     12  C   UNL A   1      30.544  27.894  23.738  1.00  0.00     0.225 A 
ATOM     13  C   UNL A   1      28.412  26.545  23.779  1.00  0.00     0.178 C 
BRANCH  12  14
ATOM     14  O   UNL A   1      30.017  28.758  22.864  1.00  0.00    -0.471 OA
BRANCH  14  15
ATOM     15  C   UNL A   1      29.864  30.144  23.168  1.00  0.00     0.299 C 
BRANCH  15  16
ATOM     16  C   UNL A   1      28.634  30.927  22.546  1.00  0.00     0.126 C 
ATOM     17  C   UNL A   1      27.886  30.071  21.505  1.00  0.00     0.082 C 
ATOM     18  C   UNL A   1      27.659  31.105  23.749  1.00  0.00     0.082 C 
BRANCH  16  19
ATOM     19  N   UNL A   1      28.975  32.289  22.020  1.00  0.00    -0.333 N 
ATOM     20  C   UNL A   1      28.082  32.761  20.960  1.00  0.00     0.333 C 
ATOM     21  C   UNL A   1      29.074  33.335  23.044  1.00  0.00     0.333 C 
ATOM     22  H   UNL A   1      29.905  32.134  21.629  1.00  0.00     0.348 HD
ENDBRANCH  16  19
ENDBRANCH  15  16
ENDBRANCH  14  15
ENDBRANCH  12  14
ENDBRANCH   4   7
ENDBRANCH   2   3
ENDBRANCH   1   2
BRANCH   1  23
ATOM     23  C   UNL A   1      32.415  29.999  27.165  1.00  0.00     0.002 C 
BRANCH  23  24
ATOM     24  C   UNL A   1      31.593  30.932  26.272  1.00  0.00     0.002 C 
BRANCH  24  25
ATOM     25  C   UNL A   1      31.416  32.344  26.837  1.00  0.00     0.021 C 
BRANCH  25  26
ATOM     26  C   UNL A   1      32.729  33.024  27.207  1.00  0.00     0.116 C 
BRANCH  26  27
ATOM     27  N   UNL A   1      32.505  34.386  27.664  1.00  0.00    -0.352 N 
ATOM     28  C   UNL A   1      33.027  35.009  28.769  1.00  0.00     0.251 C 
ATOM     29  H   UNL A   1      31.903  34.931  27.109  1.00  0.00     0.163 HD
ATOM     30  O   UNL A   1      32.553  36.055  29.186  1.00  0.00    -0.269 OA
BRANCH  28  31
ATOM     31  C   UNL A   1      34.173  34.382  29.455  1.00  0.00     0.039 A 
ATOM     32  C   UNL A   1      33.940  33.543  30.545  1.00  0.00     0.014 A 
ATOM     33  C   UNL A   1      35.475  34.612  28.997  1.00  0.00     0.014 A 
ATOM     34  C   UNL A   1      35.015  32.894  31.149  1.00  0.00     0.010 A 
ATOM     35  C   UNL A   1      36.532  33.901  29.546  1.00  0.00     0.010 A 
ATOM     36  C   UNL A   1      36.315  33.044  30.636  1.00  0.00    -0.014 A 
BRANCH  36  37
ATOM     37  C   UNL A   1      37.464  32.323  31.234  1.00  0.00     0.031 A 
ATOM     38  C   UNL A   1      37.961  32.706  32.600  1.00  0.00     0.074 A 
ATOM     39  C   UNL A   1      38.094  31.370  30.522  1.00  0.00     0.049 A 
ATOM     40  N   UNL A   1      38.986  32.241  33.268  1.00  0.00    -0.248 NA
ATOM     41  C   UNL A   1      37.225  33.773  33.297  1.00  0.00     0.031 C 
ATOM     42  C   UNL A   1      37.732  30.948  29.167  1.00  0.00     0.029 A 
ATOM     43  N   UNL A   1      39.179  30.590  30.834  1.00  0.00    -0.354 N 
ATOM     44  C   UNL A   1      39.024  32.966  34.452  1.00  0.00     0.074 A 
ATOM     45  C   UNL A   1      37.959  33.943  34.386  1.00  0.00     0.031 C 
ATOM     46  C   UNL A   1      38.563  29.968  28.777  1.00  0.00     0.029 A 
ATOM     47  C   UNL A   1      39.540  29.723  29.831  1.00  0.00     0.049 A 
ATOM     48  H   UNL A   1      39.653  30.646  31.694  1.00  0.00     0.167 HD
ATOM     49  C   UNL A   1      39.854  32.811  35.510  1.00  0.00     0.037 A 
ATOM     50  C   UNL A   1      40.553  28.839  29.770  1.00  0.00     0.037 A 
ATOM     51  C   UNL A   1      40.898  31.824  35.574  1.00  0.00     0.049 A 
ATOM     52  C   UNL A   1      41.474  28.698  30.953  1.00  0.00     0.074 A 
ATOM     53  C   UNL A   1      41.760  31.547  36.620  1.00  0.00     0.029 A 
ATOM     54  N   UNL A   1      41.227  30.953  34.544  1.00  0.00    -0.354 N 
ATOM     55  N   UNL A   1      41.455  29.338  32.097  1.00  0.00    -0.248 NA
ATOM     56  C   UNL A   1      42.553  27.707  30.839  1.00  0.00     0.031 C 
ATOM     57  C   UNL A   1      42.648  30.551  36.203  1.00  0.00     0.029 A 
ATOM     58  C   UNL A   1      42.297  30.158  34.921  1.00  0.00     0.049 A 
ATOM     59  H   UNL A   1      40.768  30.909  33.674  1.00  0.00     0.167 HD
ATOM     60  C   UNL A   1      42.493  28.805  32.850  1.00  0.00     0.074 A 
ATOM     61  C   UNL A   1      43.113  27.779  32.036  1.00  0.00     0.031 C 
ATOM     62  C   UNL A   1      42.893  29.132  34.103  1.00  0.00     0.037 A 
BRANCH  49  63
ATOM     63  C   UNL A   1      39.667  33.731  36.683  1.00  0.00     0.064 A 
ATOM     64  C   UNL A   1      38.850  33.384  37.770  1.00  0.00     0.173 A 
ATOM     65  C   UNL A   1      40.342  34.959  36.739  1.00  0.00     0.173 A 
ATOM     66  F   UNL A   1      38.172  32.226  37.764  1.00  0.00    -0.203 F 
ATOM     67  C   UNL A   1      38.691  34.246  38.853  1.00  0.00     0.198 A 
ATOM     68  C   UNL A   1      40.208  35.803  37.839  1.00  0.00     0.198 A 
ATOM     69  F   UNL A   1      41.141  35.339  35.730  1.00  0.00    -0.203 F 
ATOM     70  F   UNL A   1      37.861  33.916  39.853  1.00  0.00    -0.200 F 
ATOM     71  C   UNL A   1      39.377  35.450  38.890  1.00  0.00     0.200 A 
ATOM     72  F   UNL A   1      40.884  36.960  37.880  1.00  0.00    -0.200 F 
ATOM     73  F   UNL A   1      39.230  36.274  39.936  1.00  0.00    -0.200 F 
ENDBRANCH  49  63
BRANCH  50  74
ATOM     74  C   UNL A   1      40.738  28.001  28.554  1.00  0.00     0.064 A 
ATOM     75  C   UNL A   1      41.516  28.452  27.479  1.00  0.00     0.173 A 
ATOM     76  C   UNL A   1      40.138  26.739  28.439  1.00  0.00     0.173 A 
ATOM     77  F   UNL A   1      42.097  29.660  27.534  1.00  0.00    -0.203 F 
ATOM     78  C   UNL A   1      41.664  27.686  26.325  1.00  0.00     0.198 A 
ATOM     79  C   UNL A   1      40.313  25.959  27.297  1.00  0.00     0.198 A 
ATOM     80  F   UNL A   1      39.390  26.255  29.442  1.00  0.00    -0.203 F 
ATOM     81  F   UNL A   1      42.369  28.165  25.291  1.00  0.00    -0.200 F 
ATOM     82  C   UNL A   1      41.067  26.438  26.238  1.00  0.00     0.200 A 
ATOM     83  F   UNL A   1      39.750  24.745  27.226  1.00  0.00    -0.200 F 
ATOM     84  F   UNL A   1      41.212  25.699  25.129  1.00  0.00    -0.200 F 
ENDBRANCH  50  74
BRANCH  62  85
ATOM     85  C   UNL A   1      44.026  28.342  34.696  1.00  0.00     0.064 A 
ATOM     86  C   UNL A   1      45.358  28.770  34.598  1.00  0.00     0.173 A 
ATOM     87  C   UNL A   1      43.765  27.164  35.413  1.00  0.00     0.173 A 
ATOM     88  F   UNL A   1      45.662  29.881  33.911  1.00  0.00    -0.203 F 
ATOM     89  C   UNL A   1      46.389  28.032  35.174  1.00  0.00     0.198 A 
ATOM     90  C   UNL A   1      44.794  26.449  36.017  1.00  0.00     0.198 A 
ATOM     91  F   UNL A   1      42.507  26.715  35.543  1.00  0.00    -0.203 F 
ATOM     92  F   UNL A   1      47.659  28.432  35.025  1.00  0.00    -0.200 F 
ATOM     93  C   UNL A   1      46.106  26.879  35.891  1.00  0.00     0.200 A 
ATOM     94  F   UNL A   1      44.516  25.345  36.724  1.00  0.00    -0.200 F 
ATOM     95  F   UNL A   1      47.099  26.178  36.454  1.00  0.00    -0.200 F 
ENDBRANCH  62  85
ENDBRANCH  36  37
ENDBRANCH  28  31
ENDBRANCH  26  27
ENDBRANCH  25  26
ENDBRANCH  24  25
ENDBRANCH  23  24
ENDBRANCH   1  23
TORSDOF 17
ENDMDL
MODEL 3
REMARK VINA RESULT:     -11.4      5.813     10.963
REMARK SMILES Cc1nn(C)c(OCC(C)(C)[NH+](C)C)c1C(=O)NCCCCCCNC(=O)c1ccc(-c2c3nc(c(-c4c(F)c(F)c(F)c(F)c4F)c4ccc([nH]4)c(-c4c(F)c(F)c(F)c(F)c4F)c4nc(c(-c5c(F)c(F)c(F)c(F)c5F)c5ccc2[nH]5)C=C4)C=C3)cc1
REMARK SMILES IDX 20 1 19 2 18 3 16 4 17 5 15 7 1 8 2 9 3 10 4 11 6 12 5 13
REMARK SMILES IDX 7 14 8 15 9 16 10 17 11 18 12 19 13 20 14 21 21 23 22 24
REMARK SMILES IDX 23 25 24 26 25 27 26 28 27 30 28 31 29 32 90 33 30 34 89 35
REMARK SMILES IDX 31 36 32 37 33 38 83 39 34 40 88 41 82 42 84 43 35 44 87 45
REMARK SMILES IDX 81 46 80 47 36 49 68 50 48 51 67 52 49 53 52 54 66 55 85 56
REMARK SMILES IDX 50 57 51 58 65 60 86 61 53 62 37 63 38 64 46 65 39 66 40 67
REMARK SMILES IDX 44 68 47 69 41 70 42 71 45 72 43 73 69 74 70 75 78 76 71 77
REMARK SMILES IDX 72 78 76 79 79 80 73 81 74 82 77 83 75 84 54 85 55 86 63 87
REMARK SMILES IDX 56 88 57 89 61 90 64 91 58 92 59 93 62 94 60 95
REMARK H PARENT 18 6 12 22 25 29 84 48 52 59
REMARK Flexibility Score: inf
ROOT
ATOM      1  C   UNL A   1      36.676  23.121  24.477  1.00  0.00     0.021 C 
ENDROOT
BRANCH   1   2
ATOM      2  C   UNL A   1      36.095  24.099  25.496  1.00  0.00     0.116 C 
BRANCH   2   3
ATOM      3  N   UNL A   1      35.510  23.300  26.545  1.00  0.00    -0.352 N 
ATOM      4  C   UNL A   1      34.208  22.984  26.806  1.00  0.00     0.258 C 
ATOM      5  O   UNL A   1      33.956  22.575  27.939  1.00  0.00    -0.269 OA
ATOM      6  H   UNL A   1      36.158  22.919  27.180  1.00  0.00     0.163 HD
BRANCH   4   7
ATOM      7  C   UNL A   1      33.201  23.011  25.765  1.00  0.00     0.124 A 
ATOM      8  C   UNL A   1      33.196  20.628  24.571  1.00  0.00     0.070 C 
ATOM      9  C   UNL A   1      32.809  22.046  24.780  1.00  0.00     0.076 A 
ATOM     10  N   UNL A   1      31.955  22.565  23.891  1.00  0.00    -0.174 NA
ATOM     11  N   UNL A   1      31.857  23.850  24.254  1.00  0.00    -0.236 N 
ATOM     12  C   UNL A   1      32.421  24.129  25.473  1.00  0.00     0.225 A 
ATOM     13  C   UNL A   1      31.230  24.782  23.347  1.00  0.00     0.178 C 
BRANCH  12  14
ATOM     14  O   UNL A   1      32.166  25.322  26.019  1.00  0.00    -0.471 OA
BRANCH  14  15
ATOM     15  C   UNL A   1      33.164  26.336  26.125  1.00  0.00     0.299 C 
BRANCH  15  16
ATOM     16  C   UNL A   1      32.702  27.848  26.241  1.00  0.00     0.126 C 
ATOM     17  C   UNL A   1      31.546  28.012  27.247  1.00  0.00     0.082 C 
ATOM     18  C   UNL A   1      33.935  28.566  26.868  1.00  0.00     0.082 C 
BRANCH  16  19
ATOM     19  N   UNL A   1      32.405  28.502  24.924  1.00  0.00    -0.333 N 
ATOM     20  C   UNL A   1      33.324  28.124  23.849  1.00  0.00     0.333 C 
ATOM     21  C   UNL A   1      31.030  28.319  24.444  1.00  0.00     0.333 C 
ATOM     22  H   UNL A   1      32.538  29.488  25.147  1.00  0.00     0.348 HD
ENDBRANCH  16  19
ENDBRANCH  15  16
ENDBRANCH  14  15
ENDBRANCH  12  14
ENDBRANCH   4   7
ENDBRANCH   2   3
ENDBRANCH   1   2
BRANCH   1  23
ATOM     23  C   UNL A   1      37.543  22.058  25.158  1.00  0.00     0.002 C 
BRANCH  23  24
ATOM     24  C   UNL A   1      37.091  20.630  24.846  1.00  0.00     0.002 C 
BRANCH  24  25
ATOM     25  C   UNL A   1      38.191  19.577  25.002  1.00  0.00     0.021 C 
BRANCH  25  26
ATOM     26  C   UNL A   1      39.418  20.080  25.752  1.00  0.00     0.116 C 
BRANCH  26  27
ATOM     27  N   UNL A   1      40.397  19.020  25.929  1.00  0.00    -0.352 N 
ATOM     28  C   UNL A   1      41.754  19.135  26.095  1.00  0.00     0.251 C 
ATOM     29  H   UNL A   1      40.041  18.103  25.931  1.00  0.00     0.163 HD
ATOM     30  O   UNL A   1      42.490  18.168  25.962  1.00  0.00    -0.269 OA
BRANCH  28  31
ATOM     31  C   UNL A   1      42.313  20.459  26.429  1.00  0.00     0.039 A 
ATOM     32  C   UNL A   1      42.851  21.247  25.412  1.00  0.00     0.014 A 
ATOM     33  C   UNL A   1      42.277  20.921  27.748  1.00  0.00     0.014 A 
ATOM     34  C   UNL A   1      43.315  22.527  25.713  1.00  0.00     0.010 A 
ATOM     35  C   UNL A   1      42.662  22.225  28.030  1.00  0.00     0.010 A 
ATOM     36  C   UNL A   1      43.196  23.037  27.017  1.00  0.00    -0.014 A 
BRANCH  36  37
ATOM     37  C   UNL A   1      43.637  24.414  27.347  1.00  0.00     0.031 A 
ATOM     38  C   UNL A   1      42.623  25.452  27.738  1.00  0.00     0.074 A 
ATOM     39  C   UNL A   1      44.938  24.739  27.234  1.00  0.00     0.049 A 
ATOM     40  N   UNL A   1      42.799  26.721  28.002  1.00  0.00    -0.248 NA
ATOM     41  C   UNL A   1      41.220  25.012  27.815  1.00  0.00     0.031 C 
ATOM     42  C   UNL A   1      46.006  23.829  26.816  1.00  0.00     0.029 A 
ATOM     43  N   UNL A   1      45.584  25.931  27.452  1.00  0.00    -0.354 N 
ATOM     44  C   UNL A   1      41.533  27.231  28.263  1.00  0.00     0.074 A 
ATOM     45  C   UNL A   1      40.592  26.150  28.064  1.00  0.00     0.031 C 
ATOM     46  C   UNL A   1      47.176  24.486  26.834  1.00  0.00     0.029 A 
ATOM     47  C   UNL A   1      46.937  25.873  27.220  1.00  0.00     0.049 A 
ATOM     48  H   UNL A   1      45.122  26.748  27.746  1.00  0.00     0.167 HD
ATOM     49  C   UNL A   1      41.191  28.479  28.659  1.00  0.00     0.037 A 
ATOM     50  C   UNL A   1      47.875  26.835  27.302  1.00  0.00     0.037 A 
ATOM     51  C   UNL A   1      42.137  29.542  28.871  1.00  0.00     0.049 A 
ATOM     52  C   UNL A   1      47.466  28.220  27.727  1.00  0.00     0.074 A 
ATOM     53  C   UNL A   1      41.901  30.828  29.324  1.00  0.00     0.029 A 
ATOM     54  N   UNL A   1      43.501  29.443  28.639  1.00  0.00    -0.354 N 
ATOM     55  N   UNL A   1      46.276  28.672  28.042  1.00  0.00    -0.248 NA
ATOM     56  C   UNL A   1      48.531  29.228  27.815  1.00  0.00     0.031 C 
ATOM     57  C   UNL A   1      43.113  31.525  29.310  1.00  0.00     0.029 A 
ATOM     58  C   UNL A   1      44.116  30.655  28.914  1.00  0.00     0.049 A 
ATOM     59  H   UNL A   1      43.964  28.633  28.325  1.00  0.00     0.167 HD
ATOM     60  C   UNL A   1      46.454  30.002  28.398  1.00  0.00     0.074 A 
ATOM     61  C   UNL A   1      47.870  30.280  28.272  1.00  0.00     0.031 C 
ATOM     62  C   UNL A   1      45.529  30.910  28.796  1.00  0.00     0.037 A 
BRANCH  49  63
ATOM     63  C   UNL A   1      39.733  28.764  28.886  1.00  0.00     0.064 A 
ATOM     64  C   UNL A   1      39.134  28.589  30.143  1.00  0.00     0.173 A 
ATOM     65  C   UNL A   1      38.932  29.251  27.842  1.00  0.00     0.173 A 
ATOM     66  F   UNL A   1      39.852  28.114  31.173  1.00  0.00    -0.203 F 
ATOM     67  C   UNL A   1      37.782  28.861  30.338  1.00  0.00     0.198 A 
ATOM     68  C   UNL A   1      37.589  29.555  28.050  1.00  0.00     0.198 A 
ATOM     69  F   UNL A   1      39.453  29.442  26.621  1.00  0.00    -0.203 F 
ATOM     70  F   UNL A   1      37.222  28.634  31.535  1.00  0.00    -0.200 F 
ATOM     71  C   UNL A   1      37.014  29.352  29.295  1.00  0.00     0.200 A 
ATOM     72  F   UNL A   1      36.851  30.045  27.044  1.00  0.00    -0.200 F 
ATOM     73  F   UNL A   1      35.715  29.623  29.487  1.00  0.00    -0.200 F 
ENDBRANCH  49  63
BRANCH  50  74
ATOM     74  C   UNL A   1      49.296  26.518  26.997  1.00  0.00     0.064 A 
ATOM     75  C   UNL A   1      49.758  26.480  25.674  1.00  0.00     0.173 A 
ATOM     76  C   UNL A   1      50.218  26.242  28.016  1.00  0.00     0.173 A 
ATOM     77  F   UNL A   1      48.911  26.721  24.662  1.00  0.00    -0.203 F 
ATOM     78  C   UNL A   1      51.079  26.150  25.381  1.00  0.00     0.198 A 
ATOM     79  C   UNL A   1      51.548  25.944  27.724  1.00  0.00     0.198 A 
ATOM     80  F   UNL A   1      49.831  26.273  29.300  1.00  0.00    -0.203 F 
ATOM     81  F   UNL A   1      51.480  26.069  24.105  1.00  0.00    -0.200 F 
ATOM     82  C   UNL A   1      51.974  25.888  26.407  1.00  0.00     0.200 A 
ATOM     83  F   UNL A   1      52.413  25.710  28.720  1.00  0.00    -0.200 F 
ATOM     84  F   UNL A   1      53.246  25.575  26.125  1.00  0.00    -0.200 F 
ENDBRANCH  50  74
BRANCH  62  85
ATOM     85  C   UNL A   1      46.021  32.278  29.174  1.00  0.00     0.064 A 
ATOM     86  C   UNL A   1      46.079  33.328  28.246  1.00  0.00     0.173 A 
ATOM     87  C   UNL A   1      46.396  32.552  30.499  1.00  0.00     0.173 A 
ATOM     88  F   UNL A   1      45.745  33.115  26.964  1.00  0.00    -0.203 F 
ATOM     89  C   UNL A   1      46.518  34.594  28.625  1.00  0.00     0.198 A 
ATOM     90  C   UNL A   1      46.801  33.827  30.882  1.00  0.00     0.198 A 
ATOM     91  F   UNL A   1      46.353  31.585  31.428  1.00  0.00    -0.203 F 
ATOM     92  F   UNL A   1      46.613  35.569  27.711  1.00  0.00    -0.200 F 
ATOM     93  C   UNL A   1      46.869  34.845  29.943  1.00  0.00     0.200 A 
ATOM     94  F   UNL A   1      47.122  34.071  32.160  1.00  0.00    -0.200 F 
ATOM     95  F   UNL A   1      47.280  36.067  30.307  1.00  0.00    -0.200 F 
ENDBRANCH  62  85
ENDBRANCH  36  37
ENDBRANCH  28  31
ENDBRANCH  26  27
ENDBRANCH  25  26
ENDBRANCH  24  25
ENDBRANCH  23  24
ENDBRANCH   1  23
TORSDOF 17
ENDMDL
