MODEL 1
REMARK VINA RESULT:     -11.8      0.000      0.000
REMARK SMILES CCc1ccc(C(=O)NCc2ccc(C(=O)NCCCCCCNC(=O)c3ccc(-c4c5nc(c(-c6c(F)c(F)c(F)c(F)c6F)c6ccc([nH]6)c(-c6c(F)c(F)c(F)c(F)c6F)c6nc(c(-c7c(F)c(F)c(F)c(F)c7F)c7ccc4[nH]7)C=C6)C=C5)cc3)cc2)cc1
REMARK SMILES IDX 19 1 18 2 17 3 15 4 16 5 14 7 11 8 12 9 91 10 13 11 90 12
REMARK SMILES IDX 10 13 9 14 7 15 8 16 6 18 3 19 4 20 93 21 5 22 92 23 2 24
REMARK SMILES IDX 1 25 20 26 21 27 22 28 23 29 24 30 25 31 26 33 27 34 28 35
REMARK SMILES IDX 89 36 29 37 88 38 30 39 31 40 32 41 82 42 33 43 87 44 81 45
REMARK SMILES IDX 83 46 34 47 86 48 80 49 79 50 35 52 67 53 47 54 66 55 48 56
REMARK SMILES IDX 51 57 65 58 84 59 49 60 50 61 64 63 85 64 52 65 36 66 37 67
REMARK SMILES IDX 45 68 38 69 39 70 43 71 46 72 40 73 41 74 44 75 42 76 68 77
REMARK SMILES IDX 69 78 77 79 70 80 71 81 75 82 78 83 72 84 73 85 76 86 74 87
REMARK SMILES IDX 53 88 54 89 62 90 55 91 56 92 60 93 63 94 57 95 58 96 61 97
REMARK SMILES IDX 59 98
REMARK H PARENT 17 6 9 17 24 32 83 51 51 62
REMARK Flexibility Score: inf
ROOT
ATOM      1  C   UNL A   1      35.872  31.943  28.037  1.00  0.00     0.021 C 
ENDROOT
BRANCH   1   2
ATOM      2  C   UNL A   1      34.830  30.823  28.102  1.00  0.00     0.116 C 
BRANCH   2   3
ATOM      3  N   UNL A   1      33.624  31.206  27.393  1.00  0.00    -0.352 N 
ATOM      4  C   UNL A   1      32.688  30.487  26.694  1.00  0.00     0.251 C 
ATOM      5  O   UNL A   1      31.724  31.100  26.238  1.00  0.00    -0.269 OA
ATOM      6  H   UNL A   1      33.441  32.174  27.418  1.00  0.00     0.163 HD
BRANCH   4   7
ATOM      7  C   UNL A   1      32.762  29.011  26.495  1.00  0.00     0.039 A 
ATOM      8  C   UNL A   1      32.728  26.188  26.176  1.00  0.00    -0.029 A 
ATOM      9  C   UNL A   1      31.655  26.851  26.782  1.00  0.00     0.006 A 
ATOM     10  C   UNL A   1      33.794  26.965  25.696  1.00  0.00     0.006 A 
ATOM     11  C   UNL A   1      31.677  28.243  26.946  1.00  0.00     0.014 A 
ATOM     12  C   UNL A   1      33.799  28.358  25.833  1.00  0.00     0.014 A 
BRANCH   8  13
ATOM     13  C   UNL A   1      32.673  24.689  25.962  1.00  0.00     0.152 C 
BRANCH  13  14
ATOM     14  N   UNL A   1      32.820  24.335  24.564  1.00  0.00    -0.348 N 
ATOM     15  C   UNL A   1      32.223  24.762  23.411  1.00  0.00     0.251 C 
ATOM     16  O   UNL A   1      32.518  24.165  22.374  1.00  0.00    -0.269 OA
ATOM     17  H   UNL A   1      33.496  23.636  24.411  1.00  0.00     0.164 HD
BRANCH  15  18
ATOM     18  C   UNL A   1      31.314  25.937  23.332  1.00  0.00     0.039 A 
ATOM     19  C   UNL A   1      29.381  27.997  23.167  1.00  0.00    -0.048 A 
ATOM     20  C   UNL A   1      29.066  26.771  23.763  1.00  0.00     0.004 A 
ATOM     21  C   UNL A   1      30.697  28.206  22.732  1.00  0.00     0.004 A 
ATOM     22  C   UNL A   1      30.019  25.753  23.838  1.00  0.00     0.014 A 
ATOM     23  C   UNL A   1      31.660  27.190  22.826  1.00  0.00     0.014 A 
BRANCH  19  24
ATOM     24  C   UNL A   1      28.318  29.066  23.074  1.00  0.00     0.032 C 
ATOM     25  C   UNL A   1      26.903  28.577  23.357  1.00  0.00     0.009 C 
ENDBRANCH  19  24
ENDBRANCH  15  18
ENDBRANCH  13  14
ENDBRANCH   8  13
ENDBRANCH   4   7
ENDBRANCH   2   3
ENDBRANCH   1   2
BRANCH   1  26
ATOM     26  C   UNL A   1      35.262  33.349  27.950  1.00  0.00     0.002 C 
BRANCH  26  27
ATOM     27  C   UNL A   1      34.676  33.885  29.262  1.00  0.00     0.002 C 
BRANCH  27  28
ATOM     28  C   UNL A   1      33.346  34.630  29.123  1.00  0.00     0.021 C 
BRANCH  28  29
ATOM     29  C   UNL A   1      33.380  36.080  29.597  1.00  0.00     0.116 C 
BRANCH  29  30
ATOM     30  N   UNL A   1      32.467  36.307  30.706  1.00  0.00    -0.352 N 
ATOM     31  C   UNL A   1      32.492  35.787  31.976  1.00  0.00     0.251 C 
ATOM     32  H   UNL A   1      31.722  36.923  30.518  1.00  0.00     0.163 HD
ATOM     33  O   UNL A   1      31.522  35.908  32.715  1.00  0.00    -0.269 OA
BRANCH  31  34
ATOM     34  C   UNL A   1      33.693  35.067  32.452  1.00  0.00     0.039 A 
ATOM     35  C   UNL A   1      33.566  33.741  32.873  1.00  0.00     0.014 A 
ATOM     36  C   UNL A   1      34.935  35.706  32.501  1.00  0.00     0.014 A 
ATOM     37  C   UNL A   1      34.696  33.037  33.293  1.00  0.00     0.010 A 
ATOM     38  C   UNL A   1      36.071  34.984  32.857  1.00  0.00     0.010 A 
ATOM     39  C   UNL A   1      35.962  33.644  33.259  1.00  0.00    -0.014 A 
BRANCH  39  40
ATOM     40  C   UNL A   1      37.186  32.895  33.638  1.00  0.00     0.031 A 
ATOM     41  C   UNL A   1      37.889  33.201  34.930  1.00  0.00     0.074 A 
ATOM     42  C   UNL A   1      37.702  31.991  32.783  1.00  0.00     0.049 A 
ATOM     43  N   UNL A   1      39.013  32.718  35.397  1.00  0.00    -0.248 NA
ATOM     44  C   UNL A   1      37.258  34.204  35.802  1.00  0.00     0.031 C 
ATOM     45  C   UNL A   1      37.135  31.640  31.481  1.00  0.00     0.029 A 
ATOM     46  N   UNL A   1      38.829  31.213  32.875  1.00  0.00    -0.354 N 
ATOM     47  C   UNL A   1      39.230  33.367  36.604  1.00  0.00     0.074 A 
ATOM     48  C   UNL A   1      38.149  34.314  36.776  1.00  0.00     0.031 C 
ATOM     49  C   UNL A   1      37.907  30.707  30.902  1.00  0.00     0.029 A 
ATOM     50  C   UNL A   1      39.042  30.420  31.775  1.00  0.00     0.049 A 
ATOM     51  H   UNL A   1      39.428  31.224  33.657  1.00  0.00     0.167 HD
ATOM     52  C   UNL A   1      40.230  33.175  37.498  1.00  0.00     0.037 A 
ATOM     53  C   UNL A   1      40.045  29.567  31.497  1.00  0.00     0.037 A 
ATOM     54  C   UNL A   1      41.289  32.216  37.333  1.00  0.00     0.049 A 
ATOM     55  C   UNL A   1      41.147  29.377  32.504  1.00  0.00     0.074 A 
ATOM     56  C   UNL A   1      42.314  31.902  38.208  1.00  0.00     0.029 A 
ATOM     57  N   UNL A   1      41.462  31.416  36.212  1.00  0.00    -0.354 N 
ATOM     58  N   UNL A   1      41.307  29.947  33.673  1.00  0.00    -0.248 NA
ATOM     59  C   UNL A   1      42.205  28.420  32.153  1.00  0.00     0.031 C 
ATOM     60  C   UNL A   1      43.132  30.944  37.598  1.00  0.00     0.029 A 
ATOM     61  C   UNL A   1      42.589  30.625  36.364  1.00  0.00     0.049 A 
ATOM     62  H   UNL A   1      40.870  31.411  35.425  1.00  0.00     0.167 HD
ATOM     63  C   UNL A   1      42.465  29.402  34.209  1.00  0.00     0.074 A 
ATOM     64  C   UNL A   1      42.960  28.443  33.243  1.00  0.00     0.031 C 
ATOM     65  C   UNL A   1      43.064  29.671  35.395  1.00  0.00     0.037 A 
BRANCH  52  66
ATOM     66  C   UNL A   1      40.224  34.023  38.738  1.00  0.00     0.064 A 
ATOM     67  C   UNL A   1      40.897  35.252  38.792  1.00  0.00     0.173 A 
ATOM     68  C   UNL A   1      39.507  33.619  39.874  1.00  0.00     0.173 A 
ATOM     69  F   UNL A   1      41.607  35.681  37.736  1.00  0.00    -0.203 F 
ATOM     70  C   UNL A   1      40.880  36.030  39.947  1.00  0.00     0.198 A 
ATOM     71  C   UNL A   1      39.466  34.413  41.017  1.00  0.00     0.198 A 
ATOM     72  F   UNL A   1      38.839  32.455  39.875  1.00  0.00    -0.203 F 
ATOM     73  F   UNL A   1      41.573  37.177  39.991  1.00  0.00    -0.200 F 
ATOM     74  C   UNL A   1      40.159  35.614  41.056  1.00  0.00     0.200 A 
ATOM     75  F   UNL A   1      38.757  34.016  42.083  1.00  0.00    -0.200 F 
ATOM     76  F   UNL A   1      40.137  36.366  42.164  1.00  0.00    -0.200 F 
ENDBRANCH  52  66
BRANCH  53  77
ATOM     77  C   UNL A   1      40.041  28.811  30.219  1.00  0.00     0.064 A 
ATOM     78  C   UNL A   1      40.640  29.342  29.067  1.00  0.00     0.173 A 
ATOM     79  C   UNL A   1      39.445  27.545  30.120  1.00  0.00     0.173 A 
ATOM     80  F   UNL A   1      41.205  30.557  29.108  1.00  0.00    -0.203 F 
ATOM     81  C   UNL A   1      40.625  28.645  27.861  1.00  0.00     0.198 A 
ATOM     82  C   UNL A   1      39.455  26.837  28.919  1.00  0.00     0.198 A 
ATOM     83  F   UNL A   1      38.863  26.990  31.193  1.00  0.00    -0.203 F 
ATOM     84  F   UNL A   1      41.166  29.195  26.766  1.00  0.00    -0.200 F 
ATOM     85  C   UNL A   1      40.038  27.390  27.790  1.00  0.00     0.200 A 
ATOM     86  F   UNL A   1      38.900  25.619  28.858  1.00  0.00    -0.200 F 
ATOM     87  F   UNL A   1      40.028  26.719  26.631  1.00  0.00    -0.200 F 
ENDBRANCH  53  77
BRANCH  65  88
ATOM     88  C   UNL A   1      44.304  28.894  35.728  1.00  0.00     0.064 A 
ATOM     89  C   UNL A   1      45.577  29.335  35.339  1.00  0.00     0.173 A 
ATOM     90  C   UNL A   1      44.220  27.712  36.480  1.00  0.00     0.173 A 
ATOM     91  F   UNL A   1      45.710  30.451  34.605  1.00  0.00    -0.203 F 
ATOM     92  C   UNL A   1      46.718  28.608  35.667  1.00  0.00     0.198 A 
ATOM     93  C   UNL A   1      45.365  27.003  36.833  1.00  0.00     0.198 A 
ATOM     94  F   UNL A   1      43.027  27.251  36.882  1.00  0.00    -0.203 F 
ATOM     95  F   UNL A   1      47.920  29.023  35.244  1.00  0.00    -0.200 F 
ATOM     96  C   UNL A   1      46.612  27.449  36.420  1.00  0.00     0.200 A 
ATOM     97  F   UNL A   1      45.262  25.890  37.571  1.00  0.00    -0.200 F 
ATOM     98  F   UNL A   1      47.712  26.754  36.742  1.00  0.00    -0.200 F 
ENDBRANCH  65  88
ENDBRANCH  39  40
ENDBRANCH  31  34
ENDBRANCH  29  30
ENDBRANCH  28  29
ENDBRANCH  27  28
ENDBRANCH  26  27
ENDBRANCH   1  26
TORSDOF 17
ENDMDL
MODEL 2
REMARK VINA RESULT:     -11.7      3.980      6.494
REMARK SMILES CCc1ccc(C(=O)NCc2ccc(C(=O)NCCCCCCNC(=O)c3ccc(-c4c5nc(c(-c6c(F)c(F)c(F)c(F)c6F)c6ccc([nH]6)c(-c6c(F)c(F)c(F)c(F)c6F)c6nc(c(-c7c(F)c(F)c(F)c(F)c7F)c7ccc4[nH]7)C=C6)C=C5)cc3)cc2)cc1
REMARK SMILES IDX 19 1 18 2 17 3 15 4 16 5 14 7 11 8 12 9 91 10 13 11 90 12
REMARK SMILES IDX 10 13 9 14 7 15 8 16 6 18 3 19 4 20 93 21 5 22 92 23 2 24
REMARK SMILES IDX 1 25 20 26 21 27 22 28 23 29 24 30 25 31 26 33 27 34 28 35
REMARK SMILES IDX 89 36 29 37 88 38 30 39 31 40 32 41 82 42 33 43 87 44 81 45
REMARK SMILES IDX 83 46 34 47 86 48 80 49 79 50 35 52 67 53 47 54 66 55 48 56
REMARK SMILES IDX 51 57 65 58 84 59 49 60 50 61 64 63 85 64 52 65 36 66 37 67
REMARK SMILES IDX 45 68 38 69 39 70 43 71 46 72 40 73 41 74 44 75 42 76 68 77
REMARK SMILES IDX 69 78 77 79 70 80 71 81 75 82 78 83 72 84 73 85 76 86 74 87
REMARK SMILES IDX 53 88 54 89 62 90 55 91 56 92 60 93 63 94 57 95 58 96 61 97
REMARK SMILES IDX 59 98
REMARK H PARENT 17 6 9 17 24 32 83 51 51 62
REMARK Flexibility Score: inf
ROOT
ATOM      1  C   UNL A   1      32.613  28.380  22.954  1.00  0.00     0.021 C 
ENDROOT
BRANCH   1   2
ATOM      2  C   UNL A   1      31.611  28.943  23.966  1.00  0.00     0.116 C 
BRANCH   2   3
ATOM      3  N   UNL A   1      30.252  28.635  23.564  1.00  0.00    -0.352 N 
ATOM      4  C   UNL A   1      29.498  27.492  23.638  1.00  0.00     0.251 C 
ATOM      5  O   UNL A   1      28.331  27.555  23.253  1.00  0.00    -0.269 OA
ATOM      6  H   UNL A   1      29.777  29.397  23.158  1.00  0.00     0.163 HD
BRANCH   4   7
ATOM      7  C   UNL A   1      30.006  26.202  24.188  1.00  0.00     0.039 A 
ATOM      8  C   UNL A   1      30.909  23.798  25.402  1.00  0.00    -0.029 A 
ATOM      9  C   UNL A   1      30.376  24.833  26.178  1.00  0.00     0.006 A 
ATOM     10  C   UNL A   1      30.942  23.971  24.009  1.00  0.00     0.006 A 
ATOM     11  C   UNL A   1      29.939  26.022  25.578  1.00  0.00     0.014 A 
ATOM     12  C   UNL A   1      30.476  25.147  23.410  1.00  0.00     0.014 A 
BRANCH   8  13
ATOM     13  C   UNL A   1      31.336  22.499  26.054  1.00  0.00     0.152 C 
BRANCH  13  14
ATOM     14  N   UNL A   1      31.774  21.520  25.079  1.00  0.00    -0.348 N 
ATOM     15  C   UNL A   1      32.948  21.306  24.414  1.00  0.00     0.251 C 
ATOM     16  O   UNL A   1      32.953  20.421  23.556  1.00  0.00    -0.269 OA
ATOM     17  H   UNL A   1      31.075  20.867  24.846  1.00  0.00     0.164 HD
BRANCH  15  18
ATOM     18  C   UNL A   1      34.218  22.019  24.719  1.00  0.00     0.039 A 
ATOM     19  C   UNL A   1      36.671  23.198  25.495  1.00  0.00    -0.048 A 
ATOM     20  C   UNL A   1      36.454  21.825  25.665  1.00  0.00     0.004 A 
ATOM     21  C   UNL A   1      35.677  23.953  24.857  1.00  0.00     0.004 A 
ATOM     22  C   UNL A   1      35.241  21.246  25.287  1.00  0.00     0.014 A 
ATOM     23  C   UNL A   1      34.466  23.366  24.459  1.00  0.00     0.014 A 
BRANCH  19  24
ATOM     24  C   UNL A   1      37.982  23.799  25.943  1.00  0.00     0.032 C 
ATOM     25  C   UNL A   1      39.016  22.782  26.413  1.00  0.00     0.009 C 
ENDBRANCH  19  24
ENDBRANCH  15  18
ENDBRANCH  13  14
ENDBRANCH   8  13
ENDBRANCH   4   7
ENDBRANCH   2   3
ENDBRANCH   1   2
BRANCH   1  26
ATOM     26  C   UNL A   1      33.646  27.429  23.573  1.00  0.00     0.002 C 
BRANCH  26  27
ATOM     27  C   UNL A   1      33.376  27.037  25.031  1.00  0.00     0.002 C 
BRANCH  27  28
ATOM     28  C   UNL A   1      34.251  27.747  26.068  1.00  0.00     0.021 C 
BRANCH  28  29
ATOM     29  C   UNL A   1      33.494  28.263  27.287  1.00  0.00     0.116 C 
BRANCH  29  30
ATOM     30  N   UNL A   1      33.447  29.717  27.318  1.00  0.00    -0.352 N 
ATOM     31  C   UNL A   1      34.353  30.606  27.837  1.00  0.00     0.251 C 
ATOM     32  H   UNL A   1      32.649  30.121  26.906  1.00  0.00     0.163 HD
ATOM     33  O   UNL A   1      34.053  31.786  27.978  1.00  0.00    -0.269 OA
BRANCH  31  34
ATOM     34  C   UNL A   1      35.697  30.137  28.239  1.00  0.00     0.039 A 
ATOM     35  C   UNL A   1      36.735  30.173  27.304  1.00  0.00     0.014 A 
ATOM     36  C   UNL A   1      35.925  29.645  29.527  1.00  0.00     0.014 A 
ATOM     37  C   UNL A   1      38.016  29.766  27.678  1.00  0.00     0.010 A 
ATOM     38  C   UNL A   1      37.216  29.301  29.918  1.00  0.00     0.010 A 
ATOM     39  C   UNL A   1      38.273  29.355  28.997  1.00  0.00    -0.014 A 
BRANCH  39  40
ATOM     40  C   UNL A   1      39.641  28.981  29.435  1.00  0.00     0.031 A 
ATOM     41  C   UNL A   1      40.432  29.906  30.315  1.00  0.00     0.074 A 
ATOM     42  C   UNL A   1      40.195  27.840  28.979  1.00  0.00     0.049 A 
ATOM     43  N   UNL A   1      41.668  29.798  30.733  1.00  0.00    -0.248 NA
ATOM     44  C   UNL A   1      39.751  31.131  30.762  1.00  0.00     0.031 C 
ATOM     45  C   UNL A   1      39.543  26.882  28.085  1.00  0.00     0.029 A 
ATOM     46  N   UNL A   1      41.438  27.300  29.195  1.00  0.00    -0.354 N 
ATOM     47  C   UNL A   1      41.917  30.943  31.477  1.00  0.00     0.074 A 
ATOM     48  C   UNL A   1      40.722  31.757  31.412  1.00  0.00     0.031 C 
ATOM     49  C   UNL A   1      40.385  25.866  27.841  1.00  0.00     0.029 A 
ATOM     50  C   UNL A   1      41.647  26.117  28.530  1.00  0.00     0.049 A 
ATOM     51  H   UNL A   1      42.115  27.722  29.772  1.00  0.00     0.167 HD
ATOM     52  C   UNL A   1      43.034  31.275  32.167  1.00  0.00     0.037 A 
ATOM     53  C   UNL A   1      42.738  25.331  28.473  1.00  0.00     0.037 A 
ATOM     54  C   UNL A   1      44.211  30.451  32.247  1.00  0.00     0.049 A 
ATOM     55  C   UNL A   1      43.968  25.726  29.245  1.00  0.00     0.074 A 
ATOM     56  C   UNL A   1      45.370  30.668  32.970  1.00  0.00     0.029 A 
ATOM     57  N   UNL A   1      44.379  29.249  31.574  1.00  0.00    -0.354 N 
ATOM     58  N   UNL A   1      44.169  26.778  30.000  1.00  0.00    -0.248 NA
ATOM     59  C   UNL A   1      45.121  24.819  29.160  1.00  0.00     0.031 C 
ATOM     60  C   UNL A   1      46.257  29.621  32.700  1.00  0.00     0.029 A 
ATOM     61  C   UNL A   1      45.632  28.724  31.848  1.00  0.00     0.049 A 
ATOM     62  H   UNL A   1      43.706  28.830  30.989  1.00  0.00     0.167 HD
ATOM     63  C   UNL A   1      45.457  26.649  30.500  1.00  0.00     0.074 A 
ATOM     64  C   UNL A   1      45.986  25.407  29.975  1.00  0.00     0.031 C 
ATOM     65  C   UNL A   1      46.140  27.484  31.321  1.00  0.00     0.037 A 
BRANCH  52  66
ATOM     66  C   UNL A   1      43.034  32.589  32.895  1.00  0.00     0.064 A 
ATOM     67  C   UNL A   1      43.460  33.773  32.273  1.00  0.00     0.173 A 
ATOM     68  C   UNL A   1      42.571  32.673  34.216  1.00  0.00     0.173 A 
ATOM     69  F   UNL A   1      43.924  33.747  31.014  1.00  0.00    -0.203 F 
ATOM     70  C   UNL A   1      43.452  34.986  32.959  1.00  0.00     0.198 A 
ATOM     71  C   UNL A   1      42.535  33.893  34.887  1.00  0.00     0.198 A 
ATOM     72  F   UNL A   1      42.145  31.573  34.855  1.00  0.00    -0.203 F 
ATOM     73  F   UNL A   1      43.911  36.094  32.361  1.00  0.00    -0.200 F 
ATOM     74  C   UNL A   1      42.983  35.046  34.262  1.00  0.00     0.200 A 
ATOM     75  F   UNL A   1      42.068  33.951  36.143  1.00  0.00    -0.200 F 
ATOM     76  F   UNL A   1      42.968  36.214  34.917  1.00  0.00    -0.200 F 
ENDBRANCH  52  66
BRANCH  53  77
ATOM     77  C   UNL A   1      42.708  24.079  27.675  1.00  0.00     0.064 A 
ATOM     78  C   UNL A   1      42.978  24.097  26.299  1.00  0.00     0.173 A 
ATOM     79  C   UNL A   1      42.413  22.842  28.266  1.00  0.00     0.173 A 
ATOM     80  F   UNL A   1      43.247  25.259  25.686  1.00  0.00    -0.203 F 
ATOM     81  C   UNL A   1      42.935  22.928  25.541  1.00  0.00     0.198 A 
ATOM     82  C   UNL A   1      42.397  21.669  27.512  1.00  0.00     0.198 A 
ATOM     83  F   UNL A   1      42.152  22.769  29.579  1.00  0.00    -0.203 F 
ATOM     84  F   UNL A   1      43.155  22.981  24.221  1.00  0.00    -0.200 F 
ATOM     85  C   UNL A   1      42.650  21.715  26.150  1.00  0.00     0.200 A 
ATOM     86  F   UNL A   1      42.136  20.497  28.106  1.00  0.00    -0.200 F 
ATOM     87  F   UNL A   1      42.614  20.592  25.421  1.00  0.00    -0.200 F 
ENDBRANCH  53  77
BRANCH  65  88
ATOM     88  C   UNL A   1      47.523  27.066  31.729  1.00  0.00     0.064 A 
ATOM     89  C   UNL A   1      47.743  26.221  32.826  1.00  0.00     0.173 A 
ATOM     90  C   UNL A   1      48.638  27.485  30.987  1.00  0.00     0.173 A 
ATOM     91  F   UNL A   1      46.712  25.806  33.577  1.00  0.00    -0.203 F 
ATOM     92  C   UNL A   1      49.032  25.833  33.183  1.00  0.00     0.198 A 
ATOM     93  C   UNL A   1      49.923  27.071  31.327  1.00  0.00     0.198 A 
ATOM     94  F   UNL A   1      48.480  28.288  29.925  1.00  0.00    -0.203 F 
ATOM     95  F   UNL A   1      49.224  25.064  34.264  1.00  0.00    -0.200 F 
ATOM     96  C   UNL A   1      50.119  26.251  32.429  1.00  0.00     0.200 A 
ATOM     97  F   UNL A   1      50.970  27.465  30.591  1.00  0.00    -0.200 F 
ATOM     98  F   UNL A   1      51.358  25.871  32.769  1.00  0.00    -0.200 F 
ENDBRANCH  65  88
ENDBRANCH  39  40
ENDBRANCH  31  34
ENDBRANCH  29  30
ENDBRANCH  28  29
ENDBRANCH  27  28
ENDBRANCH  26  27
ENDBRANCH   1  26
TORSDOF 17
ENDMDL
MODEL 3
REMARK VINA RESULT:     -11.7      6.966     12.684
REMARK SMILES CCc1ccc(C(=O)NCc2ccc(C(=O)NCCCCCCNC(=O)c3ccc(-c4c5nc(c(-c6c(F)c(F)c(F)c(F)c6F)c6ccc([nH]6)c(-c6c(F)c(F)c(F)c(F)c6F)c6nc(c(-c7c(F)c(F)c(F)c(F)c7F)c7ccc4[nH]7)C=C6)C=C5)cc3)cc2)cc1
REMARK SMILES IDX 19 1 18 2 17 3 15 4 16 5 14 7 11 8 12 9 91 10 13 11 90 12
REMARK SMILES IDX 10 13 9 14 7 15 8 16 6 18 3 19 4 20 93 21 5 22 92 23 2 24
REMARK SMILES IDX 1 25 20 26 21 27 22 28 23 29 24 30 25 31 26 33 27 34 28 35
REMARK SMILES IDX 89 36 29 37 88 38 30 39 31 40 32 41 82 42 33 43 87 44 81 45
REMARK SMILES IDX 83 46 34 47 86 48 80 49 79 50 35 52 67 53 47 54 66 55 48 56
REMARK SMILES IDX 51 57 65 58 84 59 49 60 50 61 64 63 85 64 52 65 36 66 37 67
REMARK SMILES IDX 45 68 38 69 39 70 43 71 46 72 40 73 41 74 44 75 42 76 68 77
REMARK SMILES IDX 69 78 77 79 70 80 71 81 75 82 78 83 72 84 73 85 76 86 74 87
REMARK SMILES IDX 53 88 54 89 62 90 55 91 56 92 60 93 63 94 57 95 58 96 61 97
REMARK SMILES IDX 59 98
REMARK H PARENT 17 6 9 17 24 32 83 51 51 62
REMARK Flexibility Score: inf
ROOT
ATOM      1  C   UNL A   1      40.511  22.492  27.542  1.00  0.00     0.021 C 
ENDROOT
BRANCH   1   2
ATOM      2  C   UNL A   1      39.464  22.823  26.475  1.00  0.00     0.116 C 
BRANCH   2   3
ATOM      3  N   UNL A   1      38.838  21.612  25.980  1.00  0.00    -0.352 N 
ATOM      4  C   UNL A   1      37.646  21.375  25.345  1.00  0.00     0.251 C 
ATOM      5  O   UNL A   1      37.410  20.219  24.992  1.00  0.00    -0.269 OA
ATOM      6  H   UNL A   1      39.375  20.799  26.131  1.00  0.00     0.163 HD
BRANCH   4   7
ATOM      7  C   UNL A   1      36.652  22.440  25.030  1.00  0.00     0.039 A 
ATOM      8  C   UNL A   1      34.749  24.403  24.259  1.00  0.00    -0.029 A 
ATOM      9  C   UNL A   1      35.299  23.531  23.313  1.00  0.00     0.006 A 
ATOM     10  C   UNL A   1      35.136  24.247  25.600  1.00  0.00     0.006 A 
ATOM     11  C   UNL A   1      36.244  22.569  23.694  1.00  0.00     0.014 A 
ATOM     12  C   UNL A   1      36.056  23.265  25.982  1.00  0.00     0.014 A 
BRANCH   8  13
ATOM     13  C   UNL A   1      33.694  25.409  23.845  1.00  0.00     0.152 C 
BRANCH  13  14
ATOM     14  N   UNL A   1      32.476  25.267  24.618  1.00  0.00    -0.348 N 
ATOM     15  C   UNL A   1      31.627  24.224  24.864  1.00  0.00     0.251 C 
ATOM     16  O   UNL A   1      30.601  24.475  25.499  1.00  0.00    -0.269 OA
ATOM     17  H   UNL A   1      32.199  26.101  25.061  1.00  0.00     0.164 HD
BRANCH  15  18
ATOM     18  C   UNL A   1      31.909  22.815  24.479  1.00  0.00     0.039 A 
ATOM     19  C   UNL A   1      32.614  20.124  23.954  1.00  0.00    -0.048 A 
ATOM     20  C   UNL A   1      32.633  20.624  25.261  1.00  0.00     0.004 A 
ATOM     21  C   UNL A   1      32.158  20.965  22.929  1.00  0.00     0.004 A 
ATOM     22  C   UNL A   1      32.291  21.953  25.518  1.00  0.00     0.014 A 
ATOM     23  C   UNL A   1      31.794  22.294  23.190  1.00  0.00     0.014 A 
BRANCH  19  24
ATOM     24  C   UNL A   1      33.020  18.691  23.706  1.00  0.00     0.032 C 
ATOM     25  C   UNL A   1      32.440  18.080  22.437  1.00  0.00     0.009 C 
ENDBRANCH  19  24
ENDBRANCH  15  18
ENDBRANCH  13  14
ENDBRANCH   8  13
ENDBRANCH   4   7
ENDBRANCH   2   3
ENDBRANCH   1   2
BRANCH   1  26
ATOM     26  C   UNL A   1      41.715  21.707  27.001  1.00  0.00     0.002 C 
BRANCH  26  27
ATOM     27  C   UNL A   1      41.655  20.190  27.224  1.00  0.00     0.002 C 
BRANCH  27  28
ATOM     28  C   UNL A   1      42.080  19.340  26.023  1.00  0.00     0.021 C 
BRANCH  28  29
ATOM     29  C   UNL A   1      43.460  18.704  26.156  1.00  0.00     0.116 C 
BRANCH  29  30
ATOM     30  N   UNL A   1      44.125  18.584  24.868  1.00  0.00    -0.352 N 
ATOM     31  C   UNL A   1      44.606  19.569  24.041  1.00  0.00     0.251 C 
ATOM     32  H   UNL A   1      44.248  17.664  24.542  1.00  0.00     0.163 HD
ATOM     33  O   UNL A   1      44.937  19.305  22.891  1.00  0.00    -0.269 OA
BRANCH  31  34
ATOM     34  C   UNL A   1      44.716  20.957  24.538  1.00  0.00     0.039 A 
ATOM     35  C   UNL A   1      45.367  21.193  25.751  1.00  0.00     0.014 A 
ATOM     36  C   UNL A   1      44.160  22.018  23.819  1.00  0.00     0.014 A 
ATOM     37  C   UNL A   1      45.510  22.501  26.216  1.00  0.00     0.010 A 
ATOM     38  C   UNL A   1      44.359  23.326  24.250  1.00  0.00     0.010 A 
ATOM     39  C   UNL A   1      45.033  23.581  25.455  1.00  0.00    -0.014 A 
BRANCH  39  40
ATOM     40  C   UNL A   1      45.231  24.983  25.897  1.00  0.00     0.031 A 
ATOM     41  C   UNL A   1      46.593  25.613  25.823  1.00  0.00     0.074 A 
ATOM     42  C   UNL A   1      44.198  25.663  26.431  1.00  0.00     0.049 A 
ATOM     43  N   UNL A   1      46.985  26.792  26.237  1.00  0.00    -0.248 NA
ATOM     44  C   UNL A   1      47.664  24.799  25.228  1.00  0.00     0.031 C 
ATOM     45  C   UNL A   1      42.840  25.143  26.597  1.00  0.00     0.029 A 
ATOM     46  N   UNL A   1      44.133  26.933  26.949  1.00  0.00    -0.354 N 
ATOM     47  C   UNL A   1      48.345  26.854  25.968  1.00  0.00     0.074 A 
ATOM     48  C   UNL A   1      48.723  25.577  25.401  1.00  0.00     0.031 C 
ATOM     49  C   UNL A   1      42.073  26.090  27.161  1.00  0.00     0.029 A 
ATOM     50  C   UNL A   1      42.892  27.268  27.430  1.00  0.00     0.049 A 
ATOM     51  H   UNL A   1      44.904  27.544  26.971  1.00  0.00     0.167 HD
ATOM     52  C   UNL A   1      49.197  27.890  26.158  1.00  0.00     0.037 A 
ATOM     53  C   UNL A   1      42.466  28.394  28.032  1.00  0.00     0.037 A 
ATOM     54  C   UNL A   1      48.811  29.166  26.701  1.00  0.00     0.049 A 
ATOM     55  C   UNL A   1      43.434  29.528  28.236  1.00  0.00     0.074 A 
ATOM     56  C   UNL A   1      49.584  30.299  26.876  1.00  0.00     0.029 A 
ATOM     57  N   UNL A   1      47.538  29.475  27.161  1.00  0.00    -0.354 N 
ATOM     58  N   UNL A   1      44.703  29.600  27.917  1.00  0.00    -0.248 NA
ATOM     59  C   UNL A   1      42.908  30.739  28.881  1.00  0.00     0.031 C 
ATOM     60  C   UNL A   1      48.793  31.280  27.483  1.00  0.00     0.029 A 
ATOM     61  C   UNL A   1      47.512  30.774  27.641  1.00  0.00     0.049 A 
ATOM     62  H   UNL A   1      46.768  28.861  27.148  1.00  0.00     0.167 HD
ATOM     63  C   UNL A   1      45.121  30.868  28.296  1.00  0.00     0.074 A 
ATOM     64  C   UNL A   1      43.965  31.538  28.856  1.00  0.00     0.031 C 
ATOM     65  C   UNL A   1      46.351  31.428  28.189  1.00  0.00     0.037 A 
BRANCH  52  66
ATOM     66  C   UNL A   1      50.634  27.685  25.774  1.00  0.00     0.064 A 
ATOM     67  C   UNL A   1      51.599  27.299  26.717  1.00  0.00     0.173 A 
ATOM     68  C   UNL A   1      51.046  27.841  24.443  1.00  0.00     0.173 A 
ATOM     69  F   UNL A   1      51.261  27.147  28.007  1.00  0.00    -0.203 F 
ATOM     70  C   UNL A   1      52.929  27.108  26.347  1.00  0.00     0.198 A 
ATOM     71  C   UNL A   1      52.369  27.620  24.070  1.00  0.00     0.198 A 
ATOM     72  F   UNL A   1      50.163  28.202  23.499  1.00  0.00    -0.203 F 
ATOM     73  F   UNL A   1      53.842  26.789  27.275  1.00  0.00    -0.200 F 
ATOM     74  C   UNL A   1      53.311  27.262  25.023  1.00  0.00     0.200 A 
ATOM     75  F   UNL A   1      52.734  27.755  22.787  1.00  0.00    -0.200 F 
ATOM     76  F   UNL A   1      54.588  27.071  24.667  1.00  0.00    -0.200 F 
ENDBRANCH  52  66
BRANCH  53  77
ATOM     77  C   UNL A   1      41.049  28.514  28.461  1.00  0.00     0.064 A 
ATOM     78  C   UNL A   1      40.661  28.169  29.764  1.00  0.00     0.173 A 
ATOM     79  C   UNL A   1      40.056  28.977  27.586  1.00  0.00     0.173 A 
ATOM     80  F   UNL A   1      41.573  27.702  30.631  1.00  0.00    -0.203 F 
ATOM     81  C   UNL A   1      39.332  28.263  30.168  1.00  0.00     0.198 A 
ATOM     82  C   UNL A   1      38.731  29.097  28.000  1.00  0.00     0.198 A 
ATOM     83  F   UNL A   1      40.376  29.326  26.331  1.00  0.00    -0.203 F 
ATOM     84  F   UNL A   1      38.982  27.885  31.405  1.00  0.00    -0.200 F 
ATOM     85  C   UNL A   1      38.369  28.732  29.288  1.00  0.00     0.200 A 
ATOM     86  F   UNL A   1      37.806  29.566  27.151  1.00  0.00    -0.200 F 
ATOM     87  F   UNL A   1      37.091  28.827  29.679  1.00  0.00    -0.200 F 
ENDBRANCH  53  77
BRANCH  65  88
ATOM     88  C   UNL A   1      46.503  32.845  28.659  1.00  0.00     0.064 A 
ATOM     89  C   UNL A   1      46.884  33.149  29.973  1.00  0.00     0.173 A 
ATOM     90  C   UNL A   1      46.300  33.912  27.769  1.00  0.00     0.173 A 
ATOM     91  F   UNL A   1      47.074  32.165  30.866  1.00  0.00    -0.203 F 
ATOM     92  C   UNL A   1      47.032  34.470  30.388  1.00  0.00     0.198 A 
ATOM     93  C   UNL A   1      46.479  35.230  28.179  1.00  0.00     0.198 A 
ATOM     94  F   UNL A   1      45.941  33.674  26.499  1.00  0.00    -0.203 F 
ATOM     95  F   UNL A   1      47.351  34.739  31.662  1.00  0.00    -0.200 F 
ATOM     96  C   UNL A   1      46.837  35.508  29.490  1.00  0.00     0.200 A 
ATOM     97  F   UNL A   1      46.303  36.232  27.306  1.00  0.00    -0.200 F 
ATOM     98  F   UNL A   1      46.987  36.778  29.889  1.00  0.00    -0.200 F 
ENDBRANCH  65  88
ENDBRANCH  39  40
ENDBRANCH  31  34
ENDBRANCH  29  30
ENDBRANCH  28  29
ENDBRANCH  27  28
ENDBRANCH  26  27
ENDBRANCH   1  26
TORSDOF 17
ENDMDL
