MODEL 1
REMARK VINA RESULT:     -10.9      0.000      0.000
REMARK SMILES CC[C@H](C)[NH2+]CCc1ccc(C(=O)NCCCCCCNC(=O)c2ccc(-c3c4nc(c(-c5c(F)c(F)c(F)c(F)c5F)c5ccc([nH]5)c(-c5c(F)c(F)c(F)c(F)c5F)c5nc(c(-c6c(F)c(F)c(F)c(F)c6F)c6ccc3[nH]6)C=C5)C=C4)cc2)cc1
REMARK SMILES IDX 16 1 15 2 14 3 12 4 13 5 11 7 8 8 9 9 88 10 10 11 87 12 7 13
REMARK SMILES IDX 6 14 5 15 3 18 4 19 2 20 1 21 17 22 18 23 19 24 20 25 21 26
REMARK SMILES IDX 22 27 23 29 24 30 25 31 86 32 26 33 85 34 27 35 28 36 29 37
REMARK SMILES IDX 79 38 30 39 84 40 78 41 80 42 31 43 83 44 77 45 76 46 32 48
REMARK SMILES IDX 64 49 44 50 63 51 45 52 48 53 62 54 81 55 46 56 47 57 61 59
REMARK SMILES IDX 82 60 49 61 33 62 34 63 42 64 35 65 36 66 40 67 43 68 37 69
REMARK SMILES IDX 38 70 41 71 39 72 65 73 66 74 74 75 67 76 68 77 72 78 75 79
REMARK SMILES IDX 69 80 70 81 73 82 71 83 50 84 51 85 59 86 52 87 53 88 57 89
REMARK SMILES IDX 60 90 54 91 55 92 58 93 56 94
REMARK H PARENT 14 6 5 16 5 17 21 28 80 47 48 58
REMARK Flexibility Score: inf
ROOT
ATOM      1  C   UNL A   1      32.841  28.933  25.321  1.00  0.00     0.021 C 
ENDROOT
BRANCH   1   2
ATOM      2  C   UNL A   1      33.194  29.126  23.841  1.00  0.00     0.116 C 
BRANCH   2   3
ATOM      3  N   UNL A   1      31.989  29.293  23.046  1.00  0.00    -0.352 N 
ATOM      4  C   UNL A   1      31.108  28.393  22.497  1.00  0.00     0.251 C 
ATOM      5  O   UNL A   1      30.121  28.836  21.910  1.00  0.00    -0.269 OA
ATOM      6  H   UNL A   1      31.759  30.234  22.865  1.00  0.00     0.163 HD
BRANCH   4   7
ATOM      7  C   UNL A   1      31.273  26.920  22.622  1.00  0.00     0.039 A 
ATOM      8  C   UNL A   1      31.557  24.124  23.008  1.00  0.00    -0.042 A 
ATOM      9  C   UNL A   1      30.516  24.830  23.626  1.00  0.00     0.005 A 
ATOM     10  C   UNL A   1      32.440  24.847  22.207  1.00  0.00     0.005 A 
ATOM     11  C   UNL A   1      30.383  26.214  23.443  1.00  0.00     0.014 A 
ATOM     12  C   UNL A   1      32.259  26.205  21.955  1.00  0.00     0.014 A 
BRANCH   8  13
ATOM     13  C   UNL A   1      31.767  22.652  23.293  1.00  0.00     0.097 C 
BRANCH  13  14
ATOM     14  C   UNL A   1      33.216  22.107  23.373  1.00  0.00     0.265 C 
BRANCH  14  15
ATOM     15  N   UNL A   1      34.079  22.438  24.500  1.00  0.00    -0.344 N 
ATOM     16  H   UNL A   1      34.759  21.681  24.583  1.00  0.00     0.346 HD
ATOM     17  H   UNL A   1      34.439  23.361  24.261  1.00  0.00     0.346 HD
BRANCH  15  18
ATOM     18  C   UNL A   1      33.496  22.632  25.827  1.00  0.00     0.178 C 
ATOM     19  C   UNL A   1      34.529  22.084  26.828  1.00  0.00     0.075 C 
BRANCH  18  20
ATOM     20  C   UNL A   1      33.131  24.078  26.220  1.00  0.00     0.061 C 
ATOM     21  C   UNL A   1      34.026  25.112  25.547  1.00  0.00     0.010 C 
ENDBRANCH  18  20
ENDBRANCH  15  18
ENDBRANCH  14  15
ENDBRANCH  13  14
ENDBRANCH   8  13
ENDBRANCH   4   7
ENDBRANCH   2   3
ENDBRANCH   1   2
BRANCH   1  22
ATOM     22  C   UNL A   1      32.784  30.248  26.107  1.00  0.00     0.002 C 
BRANCH  22  23
ATOM     23  C   UNL A   1      31.381  30.848  26.246  1.00  0.00     0.002 C 
BRANCH  23  24
ATOM     24  C   UNL A   1      31.345  32.355  26.516  1.00  0.00     0.021 C 
BRANCH  24  25
ATOM     25  C   UNL A   1      32.569  32.892  27.252  1.00  0.00     0.116 C 
BRANCH  25  26
ATOM     26  N   UNL A   1      32.401  34.287  27.631  1.00  0.00    -0.352 N 
ATOM     27  C   UNL A   1      33.007  34.993  28.636  1.00  0.00     0.251 C 
ATOM     28  H   UNL A   1      31.761  34.798  27.085  1.00  0.00     0.163 HD
ATOM     29  O   UNL A   1      32.582  36.103  28.958  1.00  0.00    -0.269 OA
BRANCH  27  30
ATOM     30  C   UNL A   1      34.168  34.421  29.346  1.00  0.00     0.039 A 
ATOM     31  C   UNL A   1      33.962  33.749  30.554  1.00  0.00     0.014 A 
ATOM     32  C   UNL A   1      35.460  34.570  28.833  1.00  0.00     0.014 A 
ATOM     33  C   UNL A   1      35.048  33.181  31.223  1.00  0.00     0.010 A 
ATOM     34  C   UNL A   1      36.532  33.946  29.466  1.00  0.00     0.010 A 
ATOM     35  C   UNL A   1      36.337  33.253  30.669  1.00  0.00    -0.014 A 
BRANCH  35  36
ATOM     36  C   UNL A   1      37.496  32.614  31.339  1.00  0.00     0.031 A 
ATOM     37  C   UNL A   1      38.202  31.460  30.686  1.00  0.00     0.074 A 
ATOM     38  C   UNL A   1      37.867  33.028  32.565  1.00  0.00     0.049 A 
ATOM     39  N   UNL A   1      39.184  30.723  31.142  1.00  0.00    -0.248 NA
ATOM     40  C   UNL A   1      37.721  31.061  29.353  1.00  0.00     0.031 C 
ATOM     41  C   UNL A   1      37.227  34.105  33.321  1.00  0.00     0.029 A 
ATOM     42  N   UNL A   1      38.862  32.581  33.397  1.00  0.00    -0.354 N 
ATOM     43  C   UNL A   1      39.423  29.768  30.164  1.00  0.00     0.074 A 
ATOM     44  C   UNL A   1      38.453  29.984  29.113  1.00  0.00     0.031 C 
ATOM     45  C   UNL A   1      37.856  34.248  34.498  1.00  0.00     0.029 A 
ATOM     46  C   UNL A   1      38.920  33.252  34.593  1.00  0.00     0.049 A 
ATOM     47  H   UNL A   1      39.477  31.851  33.158  1.00  0.00     0.167 HD
ATOM     48  C   UNL A   1      40.381  28.809  30.135  1.00  0.00     0.037 A 
ATOM     49  C   UNL A   1      39.734  33.078  35.651  1.00  0.00     0.037 A 
ATOM     50  C   UNL A   1      41.361  28.615  31.172  1.00  0.00     0.049 A 
ATOM     51  C   UNL A   1      40.795  32.014  35.593  1.00  0.00     0.074 A 
ATOM     52  C   UNL A   1      42.414  27.719  31.208  1.00  0.00     0.029 A 
ATOM     53  N   UNL A   1      41.404  29.332  32.360  1.00  0.00    -0.354 N 
ATOM     54  N   UNL A   1      41.059  31.160  34.633  1.00  0.00    -0.248 NA
ATOM     55  C   UNL A   1      41.676  31.893  36.763  1.00  0.00     0.031 C 
ATOM     56  C   UNL A   1      43.068  27.862  32.437  1.00  0.00     0.029 A 
ATOM     57  C   UNL A   1      42.453  28.881  33.146  1.00  0.00     0.049 A 
ATOM     58  H   UNL A   1      40.782  30.053  32.607  1.00  0.00     0.167 HD
ATOM     59  C   UNL A   1      42.148  30.420  35.070  1.00  0.00     0.074 A 
ATOM     60  C   UNL A   1      42.506  30.934  36.376  1.00  0.00     0.031 C 
ATOM     61  C   UNL A   1      42.795  29.406  34.444  1.00  0.00     0.037 A 
BRANCH  48  62
ATOM     62  C   UNL A   1      40.412  27.899  28.942  1.00  0.00     0.064 A 
ATOM     63  C   UNL A   1      41.177  28.200  27.805  1.00  0.00     0.173 A 
ATOM     64  C   UNL A   1      39.682  26.700  28.942  1.00  0.00     0.173 A 
ATOM     65  F   UNL A   1      41.884  29.339  27.748  1.00  0.00    -0.203 F 
ATOM     66  C   UNL A   1      41.181  27.354  26.698  1.00  0.00     0.198 A 
ATOM     67  C   UNL A   1      39.713  25.841  27.846  1.00  0.00     0.198 A 
ATOM     68  F   UNL A   1      38.939  26.360  30.005  1.00  0.00    -0.203 F 
ATOM     69  F   UNL A   1      41.874  27.691  25.602  1.00  0.00    -0.200 F 
ATOM     70  C   UNL A   1      40.454  26.174  26.721  1.00  0.00     0.200 A 
ATOM     71  F   UNL A   1      39.021  24.694  27.875  1.00  0.00    -0.200 F 
ATOM     72  F   UNL A   1      40.461  25.360  25.657  1.00  0.00    -0.200 F 
ENDBRANCH  48  62
BRANCH  49  73
ATOM     73  C   UNL A   1      39.594  33.957  36.840  1.00  0.00     0.064 A 
ATOM     74  C   UNL A   1      40.227  35.207  36.886  1.00  0.00     0.173 A 
ATOM     75  C   UNL A   1      38.813  33.578  37.940  1.00  0.00     0.173 A 
ATOM     76  F   UNL A   1      41.000  35.603  35.865  1.00  0.00    -0.203 F 
ATOM     77  C   UNL A   1      40.094  36.039  37.996  1.00  0.00     0.198 A 
ATOM     78  C   UNL A   1      38.659  34.422  39.038  1.00  0.00     0.198 A 
ATOM     79  F   UNL A   1      38.181  32.395  37.940  1.00  0.00    -0.203 F 
ATOM     80  F   UNL A   1      40.738  37.213  38.030  1.00  0.00    -0.200 F 
ATOM     81  C   UNL A   1      39.304  35.650  39.067  1.00  0.00     0.200 A 
ATOM     82  F   UNL A   1      37.883  34.049  40.064  1.00  0.00    -0.200 F 
ATOM     83  F   UNL A   1      39.169  36.454  40.130  1.00  0.00    -0.200 F 
ENDBRANCH  49  73
BRANCH  61  84
ATOM     84  C   UNL A   1      43.975  28.804  35.150  1.00  0.00     0.064 A 
ATOM     85  C   UNL A   1      43.827  27.737  36.048  1.00  0.00     0.173 A 
ATOM     86  C   UNL A   1      45.271  29.274  34.894  1.00  0.00     0.173 A 
ATOM     87  F   UNL A   1      42.606  27.263  36.339  1.00  0.00    -0.203 F 
ATOM     88  C   UNL A   1      44.935  27.178  36.681  1.00  0.00     0.198 A 
ATOM     89  C   UNL A   1      46.379  28.693  35.506  1.00  0.00     0.198 A 
ATOM     90  F   UNL A   1      45.466  30.289  34.039  1.00  0.00    -0.203 F 
ATOM     91  F   UNL A   1      44.766  26.188  37.569  1.00  0.00    -0.200 F 
ATOM     92  C   UNL A   1      46.208  27.650  36.404  1.00  0.00     0.200 A 
ATOM     93  F   UNL A   1      47.609  29.143  35.227  1.00  0.00    -0.200 F 
ATOM     94  F   UNL A   1      47.273  27.105  37.008  1.00  0.00    -0.200 F 
ENDBRANCH  61  84
ENDBRANCH  35  36
ENDBRANCH  27  30
ENDBRANCH  25  26
ENDBRANCH  24  25
ENDBRANCH  23  24
ENDBRANCH  22  23
ENDBRANCH   1  22
TORSDOF 18
ENDMDL
MODEL 2
REMARK VINA RESULT:     -10.9      0.521      2.080
REMARK SMILES CC[C@H](C)[NH2+]CCc1ccc(C(=O)NCCCCCCNC(=O)c2ccc(-c3c4nc(c(-c5c(F)c(F)c(F)c(F)c5F)c5ccc([nH]5)c(-c5c(F)c(F)c(F)c(F)c5F)c5nc(c(-c6c(F)c(F)c(F)c(F)c6F)c6ccc3[nH]6)C=C5)C=C4)cc2)cc1
REMARK SMILES IDX 16 1 15 2 14 3 12 4 13 5 11 7 8 8 9 9 88 10 10 11 87 12 7 13
REMARK SMILES IDX 6 14 5 15 3 18 4 19 2 20 1 21 17 22 18 23 19 24 20 25 21 26
REMARK SMILES IDX 22 27 23 29 24 30 25 31 86 32 26 33 85 34 27 35 28 36 29 37
REMARK SMILES IDX 79 38 30 39 84 40 78 41 80 42 31 43 83 44 77 45 76 46 32 48
REMARK SMILES IDX 64 49 44 50 63 51 45 52 48 53 62 54 81 55 46 56 47 57 61 59
REMARK SMILES IDX 82 60 49 61 33 62 34 63 42 64 35 65 36 66 40 67 43 68 37 69
REMARK SMILES IDX 38 70 41 71 39 72 65 73 66 74 74 75 67 76 68 77 72 78 75 79
REMARK SMILES IDX 69 80 70 81 73 82 71 83 50 84 51 85 59 86 52 87 53 88 57 89
REMARK SMILES IDX 60 90 54 91 55 92 58 93 56 94
REMARK H PARENT 14 6 5 16 5 17 21 28 80 47 48 58
REMARK Flexibility Score: inf
ROOT
ATOM      1  C   UNL A   1      32.944  28.939  25.263  1.00  0.00     0.021 C 
ENDROOT
BRANCH   1   2
ATOM      2  C   UNL A   1      33.263  29.180  23.782  1.00  0.00     0.116 C 
BRANCH   2   3
ATOM      3  N   UNL A   1      32.039  29.309  23.009  1.00  0.00    -0.352 N 
ATOM      4  C   UNL A   1      31.159  28.382  22.505  1.00  0.00     0.251 C 
ATOM      5  O   UNL A   1      30.155  28.795  21.928  1.00  0.00    -0.269 OA
ATOM      6  H   UNL A   1      31.793  30.241  22.807  1.00  0.00     0.163 HD
BRANCH   4   7
ATOM      7  C   UNL A   1      31.348  26.916  22.668  1.00  0.00     0.039 A 
ATOM      8  C   UNL A   1      31.709  24.140  23.128  1.00  0.00    -0.042 A 
ATOM      9  C   UNL A   1      30.830  24.889  23.921  1.00  0.00     0.005 A 
ATOM     10  C   UNL A   1      32.395  24.811  22.116  1.00  0.00     0.005 A 
ATOM     11  C   UNL A   1      30.660  26.263  23.700  1.00  0.00     0.014 A 
ATOM     12  C   UNL A   1      32.163  26.156  21.839  1.00  0.00     0.014 A 
BRANCH   8  13
ATOM     13  C   UNL A   1      31.976  22.682  23.436  1.00  0.00     0.097 C 
BRANCH  13  14
ATOM     14  C   UNL A   1      33.384  22.273  23.943  1.00  0.00     0.265 C 
BRANCH  14  15
ATOM     15  N   UNL A   1      33.937  22.847  25.162  1.00  0.00    -0.344 N 
ATOM     16  H   UNL A   1      33.151  23.213  25.700  1.00  0.00     0.346 HD
ATOM     17  H   UNL A   1      34.461  22.074  25.573  1.00  0.00     0.346 HD
BRANCH  15  18
ATOM     18  C   UNL A   1      34.927  23.920  25.073  1.00  0.00     0.178 C 
ATOM     19  C   UNL A   1      34.183  25.214  25.449  1.00  0.00     0.075 C 
BRANCH  18  20
ATOM     20  C   UNL A   1      36.180  23.784  25.960  1.00  0.00     0.061 C 
ATOM     21  C   UNL A   1      37.419  23.380  25.170  1.00  0.00     0.010 C 
ENDBRANCH  18  20
ENDBRANCH  15  18
ENDBRANCH  14  15
ENDBRANCH  13  14
ENDBRANCH   8  13
ENDBRANCH   4   7
ENDBRANCH   2   3
ENDBRANCH   1   2
BRANCH   1  22
ATOM     22  C   UNL A   1      32.784  30.234  26.067  1.00  0.00     0.002 C 
BRANCH  22  23
ATOM     23  C   UNL A   1      31.358  30.795  26.096  1.00  0.00     0.002 C 
BRANCH  23  24
ATOM     24  C   UNL A   1      31.246  32.255  26.545  1.00  0.00     0.021 C 
BRANCH  24  25
ATOM     25  C   UNL A   1      32.487  32.794  27.250  1.00  0.00     0.116 C 
BRANCH  25  26
ATOM     26  N   UNL A   1      32.345  34.201  27.591  1.00  0.00    -0.352 N 
ATOM     27  C   UNL A   1      32.975  34.927  28.566  1.00  0.00     0.251 C 
ATOM     28  H   UNL A   1      31.705  34.706  27.039  1.00  0.00     0.163 HD
ATOM     29  O   UNL A   1      32.571  36.052  28.862  1.00  0.00    -0.269 OA
BRANCH  27  30
ATOM     30  C   UNL A   1      34.138  34.359  29.277  1.00  0.00     0.039 A 
ATOM     31  C   UNL A   1      33.936  33.706  30.496  1.00  0.00     0.014 A 
ATOM     32  C   UNL A   1      35.427  34.492  28.753  1.00  0.00     0.014 A 
ATOM     33  C   UNL A   1      35.023  33.141  31.166  1.00  0.00     0.010 A 
ATOM     34  C   UNL A   1      36.499  33.870  29.387  1.00  0.00     0.010 A 
ATOM     35  C   UNL A   1      36.308  33.196  30.602  1.00  0.00    -0.014 A 
BRANCH  35  36
ATOM     36  C   UNL A   1      37.469  32.561  31.273  1.00  0.00     0.031 A 
ATOM     37  C   UNL A   1      38.171  31.400  30.627  1.00  0.00     0.074 A 
ATOM     38  C   UNL A   1      37.844  32.983  32.495  1.00  0.00     0.049 A 
ATOM     39  N   UNL A   1      39.152  30.665  31.085  1.00  0.00    -0.248 NA
ATOM     40  C   UNL A   1      37.685  30.993  29.299  1.00  0.00     0.031 C 
ATOM     41  C   UNL A   1      37.208  34.067  33.245  1.00  0.00     0.029 A 
ATOM     42  N   UNL A   1      38.840  32.541  33.327  1.00  0.00    -0.354 N 
ATOM     43  C   UNL A   1      39.387  29.702  30.114  1.00  0.00     0.074 A 
ATOM     44  C   UNL A   1      38.414  29.912  29.064  1.00  0.00     0.031 C 
ATOM     45  C   UNL A   1      37.841  34.217  34.419  1.00  0.00     0.029 A 
ATOM     46  C   UNL A   1      38.903  33.220  34.519  1.00  0.00     0.049 A 
ATOM     47  H   UNL A   1      39.453  31.807  33.092  1.00  0.00     0.167 HD
ATOM     48  C   UNL A   1      40.343  28.741  30.090  1.00  0.00     0.037 A 
ATOM     49  C   UNL A   1      39.720  33.052  35.575  1.00  0.00     0.037 A 
ATOM     50  C   UNL A   1      41.325  28.553  31.125  1.00  0.00     0.049 A 
ATOM     51  C   UNL A   1      40.779  31.986  35.522  1.00  0.00     0.074 A 
ATOM     52  C   UNL A   1      42.377  27.655  31.165  1.00  0.00     0.029 A 
ATOM     53  N   UNL A   1      41.374  29.278  32.307  1.00  0.00    -0.354 N 
ATOM     54  N   UNL A   1      41.038  31.124  34.568  1.00  0.00    -0.248 NA
ATOM     55  C   UNL A   1      41.663  31.872  36.690  1.00  0.00     0.031 C 
ATOM     56  C   UNL A   1      43.034  27.806  32.390  1.00  0.00     0.029 A 
ATOM     57  C   UNL A   1      42.424  28.832  33.094  1.00  0.00     0.049 A 
ATOM     58  H   UNL A   1      40.753  30.002  32.551  1.00  0.00     0.167 HD
ATOM     59  C   UNL A   1      42.127  30.385  35.007  1.00  0.00     0.074 A 
ATOM     60  C   UNL A   1      42.490  30.908  36.308  1.00  0.00     0.031 C 
ATOM     61  C   UNL A   1      42.771  29.366  34.387  1.00  0.00     0.037 A 
BRANCH  48  62
ATOM     62  C   UNL A   1      40.369  27.822  28.903  1.00  0.00     0.064 A 
ATOM     63  C   UNL A   1      39.659  26.612  28.893  1.00  0.00     0.173 A 
ATOM     64  C   UNL A   1      41.099  28.163  27.753  1.00  0.00     0.173 A 
ATOM     65  F   UNL A   1      38.954  26.233  29.970  1.00  0.00    -0.203 F 
ATOM     66  C   UNL A   1      39.707  25.761  27.791  1.00  0.00     0.198 A 
ATOM     67  C   UNL A   1      41.119  27.324  26.642  1.00  0.00     0.198 A 
ATOM     68  F   UNL A   1      41.790  29.311  27.707  1.00  0.00    -0.203 F 
ATOM     69  F   UNL A   1      39.067  24.584  27.828  1.00  0.00    -0.200 F 
ATOM     70  C   UNL A   1      40.433  26.119  26.666  1.00  0.00     0.200 A 
ATOM     71  F   UNL A   1      41.810  27.678  25.550  1.00  0.00    -0.200 F 
ATOM     72  F   UNL A   1      40.477  25.300  25.606  1.00  0.00    -0.200 F 
ENDBRANCH  48  62
BRANCH  49  73
ATOM     73  C   UNL A   1      39.585  33.941  36.758  1.00  0.00     0.064 A 
ATOM     74  C   UNL A   1      38.818  33.551  37.864  1.00  0.00     0.173 A 
ATOM     75  C   UNL A   1      40.233  35.183  36.815  1.00  0.00     0.173 A 
ATOM     76  F   UNL A   1      38.165  32.381  37.846  1.00  0.00    -0.203 F 
ATOM     77  C   UNL A   1      38.693  34.377  38.979  1.00  0.00     0.198 A 
ATOM     78  C   UNL A   1      40.128  35.996  37.941  1.00  0.00     0.198 A 
ATOM     79  F   UNL A   1      40.985  35.597  35.784  1.00  0.00    -0.203 F 
ATOM     80  F   UNL A   1      37.925  33.997  40.009  1.00  0.00    -0.200 F 
ATOM     81  C   UNL A   1      39.354  35.596  39.020  1.00  0.00     0.200 A 
ATOM     82  F   UNL A   1      40.781  37.166  37.983  1.00  0.00    -0.200 F 
ATOM     83  F   UNL A   1      39.241  36.386  40.096  1.00  0.00    -0.200 F 
ENDBRANCH  49  73
BRANCH  61  84
ATOM     84  C   UNL A   1      43.951  28.766  35.094  1.00  0.00     0.064 A 
ATOM     85  C   UNL A   1      45.246  29.277  34.925  1.00  0.00     0.173 A 
ATOM     86  C   UNL A   1      43.776  27.695  35.983  1.00  0.00     0.173 A 
ATOM     87  F   UNL A   1      45.467  30.289  34.073  1.00  0.00    -0.203 F 
ATOM     88  C   UNL A   1      46.327  28.719  35.603  1.00  0.00     0.198 A 
ATOM     89  C   UNL A   1      44.855  27.160  36.682  1.00  0.00     0.198 A 
ATOM     90  F   UNL A   1      42.556  27.175  36.183  1.00  0.00    -0.203 F 
ATOM     91  F   UNL A   1      47.563  29.194  35.393  1.00  0.00    -0.200 F 
ATOM     92  C   UNL A   1      46.130  27.669  36.486  1.00  0.00     0.200 A 
ATOM     93  F   UNL A   1      44.660  26.152  37.543  1.00  0.00    -0.200 F 
ATOM     94  F   UNL A   1      47.171  27.140  37.144  1.00  0.00    -0.200 F 
ENDBRANCH  61  84
ENDBRANCH  35  36
ENDBRANCH  27  30
ENDBRANCH  25  26
ENDBRANCH  24  25
ENDBRANCH  23  24
ENDBRANCH  22  23
ENDBRANCH   1  22
TORSDOF 18
ENDMDL
MODEL 3
REMARK VINA RESULT:     -10.8      1.457      3.295
REMARK SMILES CC[C@H](C)[NH2+]CCc1ccc(C(=O)NCCCCCCNC(=O)c2ccc(-c3c4nc(c(-c5c(F)c(F)c(F)c(F)c5F)c5ccc([nH]5)c(-c5c(F)c(F)c(F)c(F)c5F)c5nc(c(-c6c(F)c(F)c(F)c(F)c6F)c6ccc3[nH]6)C=C5)C=C4)cc2)cc1
REMARK SMILES IDX 16 1 15 2 14 3 12 4 13 5 11 7 8 8 9 9 88 10 10 11 87 12 7 13
REMARK SMILES IDX 6 14 5 15 3 18 4 19 2 20 1 21 17 22 18 23 19 24 20 25 21 26
REMARK SMILES IDX 22 27 23 29 24 30 25 31 86 32 26 33 85 34 27 35 28 36 29 37
REMARK SMILES IDX 79 38 30 39 84 40 78 41 80 42 31 43 83 44 77 45 76 46 32 48
REMARK SMILES IDX 64 49 44 50 63 51 45 52 48 53 62 54 81 55 46 56 47 57 61 59
REMARK SMILES IDX 82 60 49 61 33 62 34 63 42 64 35 65 36 66 40 67 43 68 37 69
REMARK SMILES IDX 38 70 41 71 39 72 65 73 66 74 74 75 67 76 68 77 72 78 75 79
REMARK SMILES IDX 69 80 70 81 73 82 71 83 50 84 51 85 59 86 52 87 53 88 57 89
REMARK SMILES IDX 60 90 54 91 55 92 58 93 56 94
REMARK H PARENT 14 6 5 16 5 17 21 28 80 47 48 58
REMARK Flexibility Score: inf
ROOT
ATOM      1  C   UNL A   1      33.549  28.999  26.424  1.00  0.00     0.021 C 
ENDROOT
BRANCH   1   2
ATOM      2  C   UNL A   1      33.289  27.490  26.504  1.00  0.00     0.116 C 
BRANCH   2   3
ATOM      3  N   UNL A   1      33.713  26.832  25.279  1.00  0.00    -0.352 N 
ATOM      4  C   UNL A   1      33.061  26.553  24.103  1.00  0.00     0.251 C 
ATOM      5  O   UNL A   1      33.706  26.026  23.197  1.00  0.00    -0.269 OA
ATOM      6  H   UNL A   1      34.650  26.527  25.296  1.00  0.00     0.163 HD
BRANCH   4   7
ATOM      7  C   UNL A   1      31.634  26.901  23.866  1.00  0.00     0.039 A 
ATOM      8  C   UNL A   1      28.936  27.691  23.493  1.00  0.00    -0.042 A 
ATOM      9  C   UNL A   1      29.978  28.619  23.365  1.00  0.00     0.005 A 
ATOM     10  C   UNL A   1      29.278  26.377  23.812  1.00  0.00     0.005 A 
ATOM     11  C   UNL A   1      31.311  28.230  23.560  1.00  0.00     0.014 A 
ATOM     12  C   UNL A   1      30.605  25.970  23.921  1.00  0.00     0.014 A 
BRANCH   8  13
ATOM     13  C   UNL A   1      27.491  28.133  23.391  1.00  0.00     0.097 C 
BRANCH  13  14
ATOM     14  C   UNL A   1      27.158  29.410  22.576  1.00  0.00     0.265 C 
BRANCH  14  15
ATOM     15  N   UNL A   1      28.067  29.902  21.549  1.00  0.00    -0.344 N 
ATOM     16  H   UNL A   1      28.917  29.340  21.612  1.00  0.00     0.346 HD
ATOM     17  H   UNL A   1      27.521  29.824  20.691  1.00  0.00     0.346 HD
BRANCH  15  18
ATOM     18  C   UNL A   1      28.484  31.304  21.561  1.00  0.00     0.178 C 
ATOM     19  C   UNL A   1      27.847  31.945  20.316  1.00  0.00     0.075 C 
BRANCH  18  20
ATOM     20  C   UNL A   1      28.102  32.130  22.806  1.00  0.00     0.061 C 
ATOM     21  C   UNL A   1      29.170  32.085  23.892  1.00  0.00     0.010 C 
ENDBRANCH  18  20
ENDBRANCH  15  18
ENDBRANCH  14  15
ENDBRANCH  13  14
ENDBRANCH   8  13
ENDBRANCH   4   7
ENDBRANCH   2   3
ENDBRANCH   1   2
BRANCH   1  22
ATOM     22  C   UNL A   1      32.512  29.834  27.185  1.00  0.00     0.002 C 
BRANCH  22  23
ATOM     23  C   UNL A   1      31.595  30.679  26.294  1.00  0.00     0.002 C 
BRANCH  23  24
ATOM     24  C   UNL A   1      31.410  32.130  26.745  1.00  0.00     0.021 C 
BRANCH  24  25
ATOM     25  C   UNL A   1      32.701  32.827  27.166  1.00  0.00     0.116 C 
BRANCH  25  26
ATOM     26  N   UNL A   1      32.458  34.193  27.603  1.00  0.00    -0.352 N 
ATOM     27  C   UNL A   1      33.001  34.878  28.658  1.00  0.00     0.251 C 
ATOM     28  H   UNL A   1      31.811  34.700  27.062  1.00  0.00     0.163 HD
ATOM     29  O   UNL A   1      32.516  35.951  29.017  1.00  0.00    -0.269 OA
BRANCH  27  30
ATOM     30  C   UNL A   1      34.167  34.326  29.376  1.00  0.00     0.039 A 
ATOM     31  C   UNL A   1      33.962  33.633  30.572  1.00  0.00     0.014 A 
ATOM     32  C   UNL A   1      35.462  34.515  28.884  1.00  0.00     0.014 A 
ATOM     33  C   UNL A   1      35.052  33.083  31.248  1.00  0.00     0.010 A 
ATOM     34  C   UNL A   1      36.540  33.910  29.523  1.00  0.00     0.010 A 
ATOM     35  C   UNL A   1      36.346  33.195  30.714  1.00  0.00    -0.014 A 
BRANCH  35  36
ATOM     36  C   UNL A   1      37.513  32.577  31.391  1.00  0.00     0.031 A 
ATOM     37  C   UNL A   1      38.250  31.442  30.738  1.00  0.00     0.074 A 
ATOM     38  C   UNL A   1      37.862  32.991  32.624  1.00  0.00     0.049 A 
ATOM     39  N   UNL A   1      39.242  30.724  31.199  1.00  0.00    -0.248 NA
ATOM     40  C   UNL A   1      37.790  31.043  29.399  1.00  0.00     0.031 C 
ATOM     41  C   UNL A   1      37.191  34.049  33.380  1.00  0.00     0.029 A 
ATOM     42  N   UNL A   1      38.858  32.560  33.463  1.00  0.00    -0.354 N 
ATOM     43  C   UNL A   1      39.512  29.780  30.218  1.00  0.00     0.074 A 
ATOM     44  C   UNL A   1      38.547  29.983  29.158  1.00  0.00     0.031 C 
ATOM     45  C   UNL A   1      37.806  34.197  34.564  1.00  0.00     0.029 A 
ATOM     46  C   UNL A   1      38.889  33.224  34.664  1.00  0.00     0.049 A 
ATOM     47  H   UNL A   1      39.491  31.844  33.226  1.00  0.00     0.167 HD
ATOM     48  C   UNL A   1      40.490  28.843  30.193  1.00  0.00     0.037 A 
ATOM     49  C   UNL A   1      39.697  33.060  35.729  1.00  0.00     0.037 A 
ATOM     50  C   UNL A   1      41.463  28.663  31.239  1.00  0.00     0.049 A 
ATOM     51  C   UNL A   1      40.781  32.020  35.675  1.00  0.00     0.074 A 
ATOM     52  C   UNL A   1      42.535  27.789  31.279  1.00  0.00     0.029 A 
ATOM     53  N   UNL A   1      41.480  29.373  32.431  1.00  0.00    -0.354 N 
ATOM     54  N   UNL A   1      41.072  31.178  34.713  1.00  0.00    -0.248 NA
ATOM     55  C   UNL A   1      41.653  31.910  36.853  1.00  0.00     0.031 C 
ATOM     56  C   UNL A   1      43.173  27.938  32.516  1.00  0.00     0.029 A 
ATOM     57  C   UNL A   1      42.530  28.939  33.225  1.00  0.00     0.049 A 
ATOM     58  H   UNL A   1      40.839  30.078  32.677  1.00  0.00     0.167 HD
ATOM     59  C   UNL A   1      42.173  30.458  35.156  1.00  0.00     0.074 A 
ATOM     60  C   UNL A   1      42.506  30.971  36.468  1.00  0.00     0.031 C 
ATOM     61  C   UNL A   1      42.848  29.463  34.530  1.00  0.00     0.037 A 
BRANCH  48  62
ATOM     62  C   UNL A   1      40.553  27.941  28.995  1.00  0.00     0.064 A 
ATOM     63  C   UNL A   1      41.373  28.232  27.894  1.00  0.00     0.173 A 
ATOM     64  C   UNL A   1      39.795  26.760  28.952  1.00  0.00     0.173 A 
ATOM     65  F   UNL A   1      42.109  29.355  27.879  1.00  0.00    -0.203 F 
ATOM     66  C   UNL A   1      41.407  27.395  26.782  1.00  0.00     0.198 A 
ATOM     67  C   UNL A   1      39.855  25.909  27.851  1.00  0.00     0.198 A 
ATOM     68  F   UNL A   1      38.999  26.430  29.979  1.00  0.00    -0.203 F 
ATOM     69  F   UNL A   1      42.155  27.725  25.720  1.00  0.00    -0.200 F 
ATOM     70  C   UNL A   1      40.653  26.233  26.763  1.00  0.00     0.200 A 
ATOM     71  F   UNL A   1      39.136  24.779  27.839  1.00  0.00    -0.200 F 
ATOM     72  F   UNL A   1      40.687  25.427  25.693  1.00  0.00    -0.200 F 
ENDBRANCH  48  62
BRANCH  49  73
ATOM     73  C   UNL A   1      39.526  33.929  36.922  1.00  0.00     0.064 A 
ATOM     74  C   UNL A   1      38.772  33.496  38.021  1.00  0.00     0.173 A 
ATOM     75  C   UNL A   1      40.125  35.194  36.995  1.00  0.00     0.173 A 
ATOM     76  F   UNL A   1      38.165  32.303  37.988  1.00  0.00    -0.203 F 
ATOM     77  C   UNL A   1      38.614  34.304  39.146  1.00  0.00     0.198 A 
ATOM     78  C   UNL A   1      39.988  35.989  38.131  1.00  0.00     0.198 A 
ATOM     79  F   UNL A   1      40.863  35.649  35.971  1.00  0.00    -0.203 F 
ATOM     80  F   UNL A   1      37.860  33.882  40.170  1.00  0.00    -0.200 F 
ATOM     81  C   UNL A   1      39.228  35.547  39.203  1.00  0.00     0.200 A 
ATOM     82  F   UNL A   1      40.595  37.183  38.188  1.00  0.00    -0.200 F 
ATOM     83  F   UNL A   1      39.083  36.319  40.288  1.00  0.00    -0.200 F 
ENDBRANCH  49  73
BRANCH  61  84
ATOM     84  C   UNL A   1      44.033  28.881  35.244  1.00  0.00     0.064 A 
ATOM     85  C   UNL A   1      43.909  27.764  36.082  1.00  0.00     0.173 A 
ATOM     86  C   UNL A   1      45.312  29.425  35.055  1.00  0.00     0.173 A 
ATOM     87  F   UNL A   1      42.705  27.218  36.308  1.00  0.00    -0.203 F 
ATOM     88  C   UNL A   1      45.023  27.226  36.723  1.00  0.00     0.198 A 
ATOM     89  C   UNL A   1      46.427  28.866  35.674  1.00  0.00     0.198 A 
ATOM     90  F   UNL A   1      45.483  30.491  34.259  1.00  0.00    -0.203 F 
ATOM     91  F   UNL A   1      44.875  26.184  37.555  1.00  0.00    -0.200 F 
ATOM     92  C   UNL A   1      46.280  27.771  36.513  1.00  0.00     0.200 A 
ATOM     93  F   UNL A   1      47.642  29.388  35.460  1.00  0.00    -0.200 F 
ATOM     94  F   UNL A   1      47.351  27.247  37.124  1.00  0.00    -0.200 F 
ENDBRANCH  61  84
ENDBRANCH  35  36
ENDBRANCH  27  30
ENDBRANCH  25  26
ENDBRANCH  24  25
ENDBRANCH  23  24
ENDBRANCH  22  23
ENDBRANCH   1  22
TORSDOF 18
ENDMDL
