MODEL 1
REMARK VINA RESULT:     -12.7      0.000      0.000
REMARK SMILES O=C(NCCCCCCNC(=O)[C@@H]1C=C[C@H](NC(=O)[C@@H]2Cc3ccccc3O2)C1)c1ccc(-c2c3nc(c(-c4c(F)c(F)c(F)c(F)c4F)c4ccc([nH]4)c(-c4c(F)c(F)c(F)c(F)c4F)c4nc(c(-c5c(F)c(F)c(F)c(F)c5F)c5ccc2[nH]5)C=C4)C=C3)cc1
REMARK SMILES IDX 6 1 5 2 4 3 3 4 1 5 2 6 30 8 31 9 92 10 32 11 91 12 33 13
REMARK SMILES IDX 34 14 35 15 85 16 36 17 90 18 84 19 86 20 37 21 89 22 83 23
REMARK SMILES IDX 82 24 38 26 70 27 50 28 69 29 51 30 54 31 68 32 87 33 52 34
REMARK SMILES IDX 53 35 67 37 88 38 55 39 39 40 40 41 48 42 41 43 42 44 46 45
REMARK SMILES IDX 49 46 43 47 44 48 47 49 45 50 71 51 72 52 80 53 73 54 74 55
REMARK SMILES IDX 78 56 81 57 75 58 76 59 79 60 77 61 56 62 57 63 65 64 58 65
REMARK SMILES IDX 59 66 63 67 66 68 60 69 61 70 64 71 62 72 7 73 8 74 9 75
REMARK SMILES IDX 10 76 11 77 12 79 13 80 14 81 29 82 15 83 16 84 17 85 18 86
REMARK SMILES IDX 19 88 20 89 21 90 28 91 22 92 27 93 23 94 26 95 24 96 25 97
REMARK H PARENT 3 7 86 25 54 36 10 78 17 87
REMARK Flexibility Score: inf
ROOT
ATOM      1  C   UNL A   1      32.498  30.883  27.243  1.00  0.00     0.002 C 
ENDROOT
BRANCH   1   2
ATOM      2  C   UNL A   1      31.940  32.305  27.249  1.00  0.00     0.021 C 
BRANCH   2   3
ATOM      3  C   UNL A   1      32.989  33.401  27.195  1.00  0.00     0.116 C 
BRANCH   3   4
ATOM      4  N   UNL A   1      32.560  34.616  27.862  1.00  0.00    -0.352 N 
ATOM      5  O   UNL A   1      32.471  36.110  29.556  1.00  0.00    -0.269 OA
ATOM      6  C   UNL A   1      33.033  35.153  29.031  1.00  0.00     0.251 C 
ATOM      7  H   UNL A   1      31.839  35.118  27.418  1.00  0.00     0.163 HD
BRANCH   6   8
ATOM      8  C   UNL A   1      34.213  34.542  29.670  1.00  0.00     0.039 A 
ATOM      9  C   UNL A   1      35.490  34.724  29.126  1.00  0.00     0.014 A 
ATOM     10  C   UNL A   1      34.032  33.754  30.807  1.00  0.00     0.014 A 
ATOM     11  C   UNL A   1      36.566  34.016  29.645  1.00  0.00     0.010 A 
ATOM     12  C   UNL A   1      35.130  33.113  31.380  1.00  0.00     0.010 A 
ATOM     13  C   UNL A   1      36.400  33.220  30.789  1.00  0.00    -0.014 A 
BRANCH  13  14
ATOM     14  C   UNL A   1      37.572  32.553  31.404  1.00  0.00     0.031 A 
ATOM     15  C   UNL A   1      38.276  31.429  30.703  1.00  0.00     0.074 A 
ATOM     16  C   UNL A   1      37.978  32.954  32.624  1.00  0.00     0.049 A 
ATOM     17  N   UNL A   1      39.259  30.676  31.127  1.00  0.00    -0.248 NA
ATOM     18  C   UNL A   1      37.808  31.099  29.349  1.00  0.00     0.031 C 
ATOM     19  C   UNL A   1      37.367  34.036  33.399  1.00  0.00     0.029 A 
ATOM     20  N   UNL A   1      38.988  32.496  33.429  1.00  0.00    -0.354 N 
ATOM     21  C   UNL A   1      39.511  29.768  30.107  1.00  0.00     0.074 A 
ATOM     22  C   UNL A   1      38.560  30.048  29.052  1.00  0.00     0.031 C 
ATOM     23  C   UNL A   1      38.024  34.171  34.558  1.00  0.00     0.029 A 
ATOM     24  C   UNL A   1      39.053  33.141  34.640  1.00  0.00     0.049 A 
ATOM     25  H   UNL A   1      39.606  31.777  33.166  1.00  0.00     0.167 HD
ATOM     26  C   UNL A   1      40.453  28.795  30.059  1.00  0.00     0.037 A 
ATOM     27  C   UNL A   1      39.831  32.906  35.712  1.00  0.00     0.037 A 
ATOM     28  C   UNL A   1      41.394  28.531  31.120  1.00  0.00     0.049 A 
ATOM     29  C   UNL A   1      40.834  31.790  35.653  1.00  0.00     0.074 A 
ATOM     30  C   UNL A   1      42.410  27.591  31.159  1.00  0.00     0.029 A 
ATOM     31  N   UNL A   1      41.423  29.198  32.338  1.00  0.00    -0.354 N 
ATOM     32  N   UNL A   1      41.089  30.959  34.672  1.00  0.00    -0.248 NA
ATOM     33  C   UNL A   1      41.658  31.581  36.849  1.00  0.00     0.031 C 
ATOM     34  C   UNL A   1      43.011  27.647  32.420  1.00  0.00     0.029 A 
ATOM     35  C   UNL A   1      42.420  28.672  33.144  1.00  0.00     0.049 A 
ATOM     36  H   UNL A   1      40.823  29.936  32.591  1.00  0.00     0.167 HD
ATOM     37  C   UNL A   1      42.122  30.148  35.118  1.00  0.00     0.074 A 
ATOM     38  C   UNL A   1      42.451  30.593  36.457  1.00  0.00     0.031 C 
ATOM     39  C   UNL A   1      42.743  29.132  34.473  1.00  0.00     0.037 A 
BRANCH  26  40
ATOM     40  C   UNL A   1      40.491  27.924  28.835  1.00  0.00     0.064 A 
ATOM     41  C   UNL A   1      39.757  26.731  28.748  1.00  0.00     0.173 A 
ATOM     42  C   UNL A   1      41.257  28.301  27.720  1.00  0.00     0.173 A 
ATOM     43  F   UNL A   1      39.015  26.318  29.786  1.00  0.00    -0.203 F 
ATOM     44  C   UNL A   1      39.822  25.929  27.610  1.00  0.00     0.198 A 
ATOM     45  C   UNL A   1      41.291  27.515  26.571  1.00  0.00     0.198 A 
ATOM     46  F   UNL A   1      41.971  29.437  27.742  1.00  0.00    -0.203 F 
ATOM     47  F   UNL A   1      39.160  24.764  27.575  1.00  0.00    -0.200 F 
ATOM     48  C   UNL A   1      40.584  26.324  26.521  1.00  0.00     0.200 A 
ATOM     49  F   UNL A   1      42.015  27.908  25.513  1.00  0.00    -0.200 F 
ATOM     50  F   UNL A   1      40.642  25.553  25.427  1.00  0.00    -0.200 F 
ENDBRANCH  26  40
BRANCH  27  51
ATOM     51  C   UNL A   1      39.673  33.748  36.925  1.00  0.00     0.064 A 
ATOM     52  C   UNL A   1      40.358  34.963  37.052  1.00  0.00     0.173 A 
ATOM     53  C   UNL A   1      38.805  33.373  37.963  1.00  0.00     0.173 A 
ATOM     54  F   UNL A   1      41.208  35.356  36.092  1.00  0.00    -0.203 F 
ATOM     55  C   UNL A   1      40.191  35.766  38.177  1.00  0.00     0.198 A 
ATOM     56  C   UNL A   1      38.616  34.193  39.072  1.00  0.00     0.198 A 
ATOM     57  F   UNL A   1      38.119  32.224  37.883  1.00  0.00    -0.203 F 
ATOM     58  F   UNL A   1      40.884  36.907  38.290  1.00  0.00    -0.200 F 
ATOM     59  C   UNL A   1      39.313  35.386  39.181  1.00  0.00     0.200 A 
ATOM     60  F   UNL A   1      37.751  33.831  40.029  1.00  0.00    -0.200 F 
ATOM     61  F   UNL A   1      39.142  36.168  40.256  1.00  0.00    -0.200 F 
ENDBRANCH  27  51
BRANCH  39  62
ATOM     62  C   UNL A   1      43.884  28.460  35.182  1.00  0.00     0.064 A 
ATOM     63  C   UNL A   1      45.202  28.932  35.083  1.00  0.00     0.173 A 
ATOM     64  C   UNL A   1      43.643  27.355  36.012  1.00  0.00     0.173 A 
ATOM     65  F   UNL A   1      45.488  29.975  34.290  1.00  0.00    -0.203 F 
ATOM     66  C   UNL A   1      46.238  28.308  35.773  1.00  0.00     0.198 A 
ATOM     67  C   UNL A   1      44.675  26.754  36.726  1.00  0.00     0.198 A 
ATOM     68  F   UNL A   1      42.400  26.866  36.144  1.00  0.00    -0.203 F 
ATOM     69  F   UNL A   1      47.496  28.747  35.629  1.00  0.00    -0.200 F 
ATOM     70  C   UNL A   1      45.973  27.227  36.601  1.00  0.00     0.200 A 
ATOM     71  F   UNL A   1      44.414  25.720  37.537  1.00  0.00    -0.200 F 
ATOM     72  F   UNL A   1      46.970  26.637  37.275  1.00  0.00    -0.200 F 
ENDBRANCH  39  62
ENDBRANCH  13  14
ENDBRANCH   6   8
ENDBRANCH   3   4
ENDBRANCH   2   3
ENDBRANCH   1   2
BRANCH   1  73
ATOM     73  C   UNL A   1      34.015  30.765  27.429  1.00  0.00     0.002 C 
BRANCH  73  74
ATOM     74  C   UNL A   1      34.596  29.349  27.362  1.00  0.00     0.021 C 
BRANCH  74  75
ATOM     75  C   UNL A   1      33.645  28.283  26.854  1.00  0.00     0.116 C 
BRANCH  75  76
ATOM     76  N   UNL A   1      33.967  27.863  25.518  1.00  0.00    -0.356 N 
ATOM     77  C   UNL A   1      33.272  28.219  24.408  1.00  0.00     0.227 C 
ATOM     78  H   UNL A   1      34.748  27.275  25.400  1.00  0.00     0.163 HD
ATOM     79  O   UNL A   1      33.936  28.474  23.409  1.00  0.00    -0.274 OA
BRANCH  77  80
ATOM     80  C   UNL A   1      31.759  28.394  24.478  1.00  0.00     0.103 C 
ATOM     81  C   UNL A   1      30.959  27.165  24.792  1.00  0.00    -0.016 C 
ATOM     82  C   UNL A   1      31.269  28.733  23.070  1.00  0.00     0.047 C 
ATOM     83  C   UNL A   1      30.363  26.662  23.705  1.00  0.00    -0.006 C 
ATOM     84  C   UNL A   1      30.746  27.408  22.493  1.00  0.00     0.106 C 
BRANCH  84  85
ATOM     85  N   UNL A   1      31.673  26.708  21.612  1.00  0.00    -0.347 N 
ATOM     86  C   UNL A   1      32.590  25.715  21.578  1.00  0.00     0.261 C 
ATOM     87  H   UNL A   1      31.607  27.101  20.712  1.00  0.00     0.164 HD
ATOM     88  O   UNL A   1      33.268  25.752  20.530  1.00  0.00    -0.271 OA
BRANCH  86  89
ATOM     89  C   UNL A   1      32.886  24.540  22.563  1.00  0.00     0.266 C 
ATOM     90  C   UNL A   1      32.994  24.740  24.075  1.00  0.00     0.095 C 
ATOM     91  O   UNL A   1      33.906  23.610  22.134  1.00  0.00    -0.480 OA
ATOM     92  C   UNL A   1      34.363  24.219  24.310  1.00  0.00    -0.002 A 
ATOM     93  C   UNL A   1      34.798  23.564  23.172  1.00  0.00     0.123 A 
ATOM     94  C   UNL A   1      35.169  24.279  25.435  1.00  0.00     0.008 A 
ATOM     95  C   UNL A   1      36.038  22.958  23.098  1.00  0.00     0.047 A 
ATOM     96  C   UNL A   1      36.443  23.699  25.373  1.00  0.00     0.001 A 
ATOM     97  C   UNL A   1      36.875  23.043  24.210  1.00  0.00     0.004 A 
ENDBRANCH  86  89
ENDBRANCH  84  85
ENDBRANCH  77  80
ENDBRANCH  75  76
ENDBRANCH  74  75
ENDBRANCH  73  74
ENDBRANCH   1  73
TORSDOF 15
ENDMDL
MODEL 2
REMARK VINA RESULT:     -12.6      0.526      7.300
REMARK SMILES O=C(NCCCCCCNC(=O)[C@@H]1C=C[C@H](NC(=O)[C@@H]2Cc3ccccc3O2)C1)c1ccc(-c2c3nc(c(-c4c(F)c(F)c(F)c(F)c4F)c4ccc([nH]4)c(-c4c(F)c(F)c(F)c(F)c4F)c4nc(c(-c5c(F)c(F)c(F)c(F)c5F)c5ccc2[nH]5)C=C4)C=C3)cc1
REMARK SMILES IDX 6 1 5 2 4 3 3 4 1 5 2 6 30 8 31 9 92 10 32 11 91 12 33 13
REMARK SMILES IDX 34 14 35 15 85 16 36 17 90 18 84 19 86 20 37 21 89 22 83 23
REMARK SMILES IDX 82 24 38 26 70 27 50 28 69 29 51 30 54 31 68 32 87 33 52 34
REMARK SMILES IDX 53 35 67 37 88 38 55 39 39 40 40 41 48 42 41 43 42 44 46 45
REMARK SMILES IDX 49 46 43 47 44 48 47 49 45 50 71 51 72 52 80 53 73 54 74 55
REMARK SMILES IDX 78 56 81 57 75 58 76 59 79 60 77 61 56 62 57 63 65 64 58 65
REMARK SMILES IDX 59 66 63 67 66 68 60 69 61 70 64 71 62 72 7 73 8 74 9 75
REMARK SMILES IDX 10 76 11 77 12 79 13 80 14 81 29 82 15 83 16 84 17 85 18 86
REMARK SMILES IDX 19 88 20 89 21 90 28 91 22 92 27 93 23 94 26 95 24 96 25 97
REMARK H PARENT 3 7 86 25 54 36 10 78 17 87
REMARK Flexibility Score: inf
ROOT
ATOM      1  C   UNL A   1      32.306  30.642  27.208  1.00  0.00     0.002 C 
ENDROOT
BRANCH   1   2
ATOM      2  C   UNL A   1      31.793  32.080  27.179  1.00  0.00     0.021 C 
BRANCH   2   3
ATOM      3  C   UNL A   1      32.867  33.136  26.988  1.00  0.00     0.116 C 
BRANCH   3   4
ATOM      4  N   UNL A   1      32.530  34.395  27.624  1.00  0.00    -0.352 N 
ATOM      5  O   UNL A   1      32.543  35.929  29.285  1.00  0.00    -0.269 OA
ATOM      6  C   UNL A   1      33.033  34.919  28.786  1.00  0.00     0.251 C 
ATOM      7  H   UNL A   1      31.854  34.942  27.161  1.00  0.00     0.163 HD
BRANCH   6   8
ATOM      8  C   UNL A   1      34.156  34.232  29.451  1.00  0.00     0.039 A 
ATOM      9  C   UNL A   1      35.478  34.570  29.142  1.00  0.00     0.014 A 
ATOM     10  C   UNL A   1      33.877  33.218  30.368  1.00  0.00     0.014 A 
ATOM     11  C   UNL A   1      36.520  33.808  29.656  1.00  0.00     0.010 A 
ATOM     12  C   UNL A   1      34.930  32.512  30.951  1.00  0.00     0.010 A 
ATOM     13  C   UNL A   1      36.257  32.787  30.581  1.00  0.00    -0.014 A 
BRANCH  13  14
ATOM     14  C   UNL A   1      37.378  32.049  31.210  1.00  0.00     0.031 A 
ATOM     15  C   UNL A   1      37.872  32.415  32.578  1.00  0.00     0.074 A 
ATOM     16  C   UNL A   1      37.970  31.058  30.515  1.00  0.00     0.049 A 
ATOM     17  N   UNL A   1      38.893  31.938  33.244  1.00  0.00    -0.248 NA
ATOM     18  C   UNL A   1      37.127  33.464  33.290  1.00  0.00     0.031 C 
ATOM     19  C   UNL A   1      37.573  30.618  29.176  1.00  0.00     0.029 A 
ATOM     20  N   UNL A   1      39.032  30.252  30.831  1.00  0.00    -0.354 N 
ATOM     21  C   UNL A   1      38.930  32.643  34.440  1.00  0.00     0.074 A 
ATOM     22  C   UNL A   1      37.845  33.599  34.397  1.00  0.00     0.031 C 
ATOM     23  C   UNL A   1      38.369  29.611  28.792  1.00  0.00     0.029 A 
ATOM     24  C   UNL A   1      39.374  29.384  29.824  1.00  0.00     0.049 A 
ATOM     25  H   UNL A   1      39.504  30.291  31.694  1.00  0.00     0.167 HD
ATOM     26  C   UNL A   1      39.792  32.498  35.476  1.00  0.00     0.037 A 
ATOM     27  C   UNL A   1      40.404  28.525  29.726  1.00  0.00     0.037 A 
ATOM     28  C   UNL A   1      40.868  31.539  35.502  1.00  0.00     0.049 A 
ATOM     29  C   UNL A   1      41.374  28.417  30.867  1.00  0.00     0.074 A 
ATOM     30  C   UNL A   1      41.777  31.288  36.516  1.00  0.00     0.029 A 
ATOM     31  N   UNL A   1      41.191  30.682  34.458  1.00  0.00    -0.354 N 
ATOM     32  N   UNL A   1      41.382  29.063  32.008  1.00  0.00    -0.248 NA
ATOM     33  C   UNL A   1      42.477  27.461  30.708  1.00  0.00     0.031 C 
ATOM     34  C   UNL A   1      42.685  30.326  36.063  1.00  0.00     0.029 A 
ATOM     35  C   UNL A   1      42.301  29.922  34.793  1.00  0.00     0.049 A 
ATOM     36  H   UNL A   1      40.703  30.623  33.605  1.00  0.00     0.167 HD
ATOM     37  C   UNL A   1      42.469  28.572  32.715  1.00  0.00     0.074 A 
ATOM     38  C   UNL A   1      43.093  27.568  31.877  1.00  0.00     0.031 C 
ATOM     39  C   UNL A   1      42.906  28.919  33.951  1.00  0.00     0.037 A 
BRANCH  26  40
ATOM     40  C   UNL A   1      39.626  33.420  36.652  1.00  0.00     0.064 A 
ATOM     41  C   UNL A   1      40.277  34.661  36.721  1.00  0.00     0.173 A 
ATOM     42  C   UNL A   1      38.783  33.066  37.717  1.00  0.00     0.173 A 
ATOM     43  F   UNL A   1      41.101  35.048  35.735  1.00  0.00    -0.203 F 
ATOM     44  C   UNL A   1      40.123  35.492  37.829  1.00  0.00     0.198 A 
ATOM     45  C   UNL A   1      38.604  33.915  38.807  1.00  0.00     0.198 A 
ATOM     46  F   UNL A   1      38.126  31.896  37.701  1.00  0.00    -0.203 F 
ATOM     47  F   UNL A   1      40.803  36.646  37.899  1.00  0.00    -0.200 F 
ATOM     48  C   UNL A   1      39.284  35.122  38.868  1.00  0.00     0.200 A 
ATOM     49  F   UNL A   1      37.778  33.561  39.802  1.00  0.00    -0.200 F 
ATOM     50  F   UNL A   1      39.135  35.923  39.931  1.00  0.00    -0.200 F 
ENDBRANCH  26  40
BRANCH  27  51
ATOM     51  C   UNL A   1      40.560  27.711  28.493  1.00  0.00     0.064 A 
ATOM     52  C   UNL A   1      39.925  26.469  28.364  1.00  0.00     0.173 A 
ATOM     53  C   UNL A   1      41.314  28.178  27.404  1.00  0.00     0.173 A 
ATOM     54  F   UNL A   1      39.206  25.977  29.383  1.00  0.00    -0.203 F 
ATOM     55  C   UNL A   1      40.049  25.718  27.198  1.00  0.00     0.198 A 
ATOM     56  C   UNL A   1      41.411  27.440  26.228  1.00  0.00     0.198 A 
ATOM     57  F   UNL A   1      41.932  29.365  27.475  1.00  0.00    -0.203 F 
ATOM     58  F   UNL A   1      39.460  24.518  27.113  1.00  0.00    -0.200 F 
ATOM     59  C   UNL A   1      40.783  26.207  26.128  1.00  0.00     0.200 A 
ATOM     60  F   UNL A   1      42.103  27.926  25.189  1.00  0.00    -0.200 F 
ATOM     61  F   UNL A   1      40.888  25.490  25.001  1.00  0.00    -0.200 F 
ENDBRANCH  27  51
BRANCH  39  62
ATOM     62  C   UNL A   1      44.086  28.170  34.500  1.00  0.00     0.064 A 
ATOM     63  C   UNL A   1      45.398  28.647  34.364  1.00  0.00     0.173 A 
ATOM     64  C   UNL A   1      43.891  26.978  35.216  1.00  0.00     0.173 A 
ATOM     65  F   UNL A   1      45.639  29.771  33.674  1.00  0.00    -0.203 F 
ATOM     66  C   UNL A   1      46.472  27.947  34.907  1.00  0.00     0.198 A 
ATOM     67  C   UNL A   1      44.964  26.299  35.786  1.00  0.00     0.198 A 
ATOM     68  F   UNL A   1      42.655  26.481  35.378  1.00  0.00    -0.203 F 
ATOM     69  F   UNL A   1      47.722  28.396  34.725  1.00  0.00    -0.200 F 
ATOM     70  C   UNL A   1      46.254  26.780  35.624  1.00  0.00     0.200 A 
ATOM     71  F   UNL A   1      44.748  25.181  36.491  1.00  0.00    -0.200 F 
ATOM     72  F   UNL A   1      47.289  26.116  36.158  1.00  0.00    -0.200 F 
ENDBRANCH  39  62
ENDBRANCH  13  14
ENDBRANCH   6   8
ENDBRANCH   3   4
ENDBRANCH   2   3
ENDBRANCH   1   2
BRANCH   1  73
ATOM     73  C   UNL A   1      33.830  30.482  27.265  1.00  0.00     0.002 C 
BRANCH  73  74
ATOM     74  C   UNL A   1      34.360  29.044  27.265  1.00  0.00     0.021 C 
BRANCH  74  75
ATOM     75  C   UNL A   1      33.531  28.050  26.475  1.00  0.00     0.116 C 
BRANCH  75  76
ATOM     76  N   UNL A   1      33.866  28.058  25.078  1.00  0.00    -0.356 N 
ATOM     77  C   UNL A   1      33.131  28.663  24.111  1.00  0.00     0.227 C 
ATOM     78  H   UNL A   1      34.687  27.590  24.802  1.00  0.00     0.163 HD
ATOM     79  O   UNL A   1      33.759  29.245  23.232  1.00  0.00    -0.274 OA
BRANCH  77  80
ATOM     80  C   UNL A   1      31.610  28.694  24.216  1.00  0.00     0.103 C 
ATOM     81  C   UNL A   1      30.947  27.434  24.688  1.00  0.00    -0.016 C 
ATOM     82  C   UNL A   1      31.053  28.826  22.797  1.00  0.00     0.047 C 
ATOM     83  C   UNL A   1      30.379  26.758  23.683  1.00  0.00    -0.006 C 
ATOM     84  C   UNL A   1      30.654  27.400  22.384  1.00  0.00     0.106 C 
BRANCH  84  85
ATOM     85  N   UNL A   1      31.626  26.702  21.551  1.00  0.00    -0.347 N 
ATOM     86  C   UNL A   1      32.566  25.730  21.572  1.00  0.00     0.261 C 
ATOM     87  H   UNL A   1      31.581  27.073  20.641  1.00  0.00     0.164 HD
ATOM     88  O   UNL A   1      33.278  25.759  20.546  1.00  0.00    -0.271 OA
BRANCH  86  89
ATOM     89  C   UNL A   1      32.855  24.585  22.593  1.00  0.00     0.266 C 
ATOM     90  C   UNL A   1      32.997  24.837  24.094  1.00  0.00     0.095 C 
ATOM     91  O   UNL A   1      33.846  23.617  22.179  1.00  0.00    -0.480 OA
ATOM     92  C   UNL A   1      34.358  24.294  24.323  1.00  0.00    -0.002 A 
ATOM     93  C   UNL A   1      34.757  23.589  23.201  1.00  0.00     0.123 A 
ATOM     94  C   UNL A   1      35.187  24.376  25.429  1.00  0.00     0.008 A 
ATOM     95  C   UNL A   1      35.982  22.953  23.126  1.00  0.00     0.047 A 
ATOM     96  C   UNL A   1      36.446  23.766  25.365  1.00  0.00     0.001 A 
ATOM     97  C   UNL A   1      36.842  23.058  24.219  1.00  0.00     0.004 A 
ENDBRANCH  86  89
ENDBRANCH  84  85
ENDBRANCH  77  80
ENDBRANCH  75  76
ENDBRANCH  74  75
ENDBRANCH  73  74
ENDBRANCH   1  73
TORSDOF 15
ENDMDL
MODEL 3
REMARK VINA RESULT:     -12.6      5.611     11.016
REMARK SMILES O=C(NCCCCCCNC(=O)[C@@H]1C=C[C@H](NC(=O)[C@@H]2Cc3ccccc3O2)C1)c1ccc(-c2c3nc(c(-c4c(F)c(F)c(F)c(F)c4F)c4ccc([nH]4)c(-c4c(F)c(F)c(F)c(F)c4F)c4nc(c(-c5c(F)c(F)c(F)c(F)c5F)c5ccc2[nH]5)C=C4)C=C3)cc1
REMARK SMILES IDX 6 1 5 2 4 3 3 4 1 5 2 6 30 8 31 9 92 10 32 11 91 12 33 13
REMARK SMILES IDX 34 14 35 15 85 16 36 17 90 18 84 19 86 20 37 21 89 22 83 23
REMARK SMILES IDX 82 24 38 26 70 27 50 28 69 29 51 30 54 31 68 32 87 33 52 34
REMARK SMILES IDX 53 35 67 37 88 38 55 39 39 40 40 41 48 42 41 43 42 44 46 45
REMARK SMILES IDX 49 46 43 47 44 48 47 49 45 50 71 51 72 52 80 53 73 54 74 55
REMARK SMILES IDX 78 56 81 57 75 58 76 59 79 60 77 61 56 62 57 63 65 64 58 65
REMARK SMILES IDX 59 66 63 67 66 68 60 69 61 70 64 71 62 72 7 73 8 74 9 75
REMARK SMILES IDX 10 76 11 77 12 79 13 80 14 81 29 82 15 83 16 84 17 85 18 86
REMARK SMILES IDX 19 88 20 89 21 90 28 91 22 92 27 93 23 94 26 95 24 96 25 97
REMARK H PARENT 3 7 86 25 54 36 10 78 17 87
REMARK Flexibility Score: inf
ROOT
ATOM      1  C   UNL A   1      38.027  21.202  25.066  1.00  0.00     0.002 C 
ENDROOT
BRANCH   1   2
ATOM      2  C   UNL A   1      38.701  19.834  25.133  1.00  0.00     0.021 C 
BRANCH   2   3
ATOM      3  C   UNL A   1      39.591  19.621  26.345  1.00  0.00     0.116 C 
BRANCH   3   4
ATOM      4  N   UNL A   1      40.759  18.815  26.043  1.00  0.00    -0.352 N 
ATOM      5  O   UNL A   1      42.930  18.454  25.524  1.00  0.00    -0.269 OA
ATOM      6  C   UNL A   1      42.063  19.222  25.934  1.00  0.00     0.251 C 
ATOM      7  H   UNL A   1      40.594  17.855  25.899  1.00  0.00     0.163 HD
BRANCH   6   8
ATOM      8  C   UNL A   1      42.409  20.612  26.285  1.00  0.00     0.039 A 
ATOM      9  C   UNL A   1      42.591  21.573  25.286  1.00  0.00     0.014 A 
ATOM     10  C   UNL A   1      42.585  20.943  27.630  1.00  0.00     0.014 A 
ATOM     11  C   UNL A   1      43.071  22.833  25.622  1.00  0.00     0.010 A 
ATOM     12  C   UNL A   1      42.982  22.236  27.972  1.00  0.00     0.010 A 
ATOM     13  C   UNL A   1      43.251  23.182  26.969  1.00  0.00    -0.014 A 
BRANCH  13  14
ATOM     14  C   UNL A   1      43.658  24.561  27.329  1.00  0.00     0.031 A 
ATOM     15  C   UNL A   1      42.656  25.552  27.843  1.00  0.00     0.074 A 
ATOM     16  C   UNL A   1      44.944  24.920  27.158  1.00  0.00     0.049 A 
ATOM     17  N   UNL A   1      42.816  26.821  28.125  1.00  0.00    -0.248 NA
ATOM     18  C   UNL A   1      41.289  25.057  28.061  1.00  0.00     0.031 C 
ATOM     19  C   UNL A   1      46.004  24.039  26.663  1.00  0.00     0.029 A 
ATOM     20  N   UNL A   1      45.577  26.118  27.368  1.00  0.00    -0.354 N 
ATOM     21  C   UNL A   1      41.570  27.282  28.527  1.00  0.00     0.074 A 
ATOM     22  C   UNL A   1      40.657  26.163  28.429  1.00  0.00     0.031 C 
ATOM     23  C   UNL A   1      47.158  24.719  26.625  1.00  0.00     0.029 A 
ATOM     24  C   UNL A   1      46.905  26.100  27.022  1.00  0.00     0.049 A 
ATOM     25  H   UNL A   1      45.124  26.913  27.732  1.00  0.00     0.167 HD
ATOM     26  C   UNL A   1      41.227  28.525  28.943  1.00  0.00     0.037 A 
ATOM     27  C   UNL A   1      47.812  27.092  26.991  1.00  0.00     0.037 A 
ATOM     28  C   UNL A   1      42.150  29.629  29.035  1.00  0.00     0.049 A 
ATOM     29  C   UNL A   1      47.395  28.472  27.410  1.00  0.00     0.074 A 
ATOM     30  C   UNL A   1      41.913  30.919  29.476  1.00  0.00     0.029 A 
ATOM     31  N   UNL A   1      43.488  29.575  28.665  1.00  0.00    -0.354 N 
ATOM     32  N   UNL A   1      46.224  28.892  27.821  1.00  0.00    -0.248 NA
ATOM     33  C   UNL A   1      48.426  29.516  27.361  1.00  0.00     0.031 C 
ATOM     34  C   UNL A   1      43.087  31.661  29.313  1.00  0.00     0.029 A 
ATOM     35  C   UNL A   1      44.080  30.817  28.840  1.00  0.00     0.049 A 
ATOM     36  H   UNL A   1      43.948  28.773  28.327  1.00  0.00     0.167 HD
ATOM     37  C   UNL A   1      46.382  30.240  28.110  1.00  0.00     0.074 A 
ATOM     38  C   UNL A   1      47.766  30.565  27.832  1.00  0.00     0.031 C 
ATOM     39  C   UNL A   1      45.463  31.124  28.569  1.00  0.00     0.037 A 
BRANCH  26  40
ATOM     40  C   UNL A   1      39.786  28.766  29.297  1.00  0.00     0.064 A 
ATOM     41  C   UNL A   1      39.300  28.586  30.601  1.00  0.00     0.173 A 
ATOM     42  C   UNL A   1      38.880  29.209  28.319  1.00  0.00     0.173 A 
ATOM     43  F   UNL A   1      40.119  28.157  31.573  1.00  0.00    -0.203 F 
ATOM     44  C   UNL A   1      37.956  28.797  30.902  1.00  0.00     0.198 A 
ATOM     45  C   UNL A   1      37.545  29.454  28.632  1.00  0.00     0.198 A 
ATOM     46  F   UNL A   1      39.291  29.409  27.057  1.00  0.00    -0.203 F 
ATOM     47  F   UNL A   1      37.504  28.558  32.142  1.00  0.00    -0.200 F 
ATOM     48  C   UNL A   1      37.081  29.236  29.920  1.00  0.00     0.200 A 
ATOM     49  F   UNL A   1      36.706  29.894  27.684  1.00  0.00    -0.200 F 
ATOM     50  F   UNL A   1      35.791  29.441  30.213  1.00  0.00    -0.200 F 
ENDBRANCH  26  40
BRANCH  27  51
ATOM     51  C   UNL A   1      49.197  26.801  26.540  1.00  0.00     0.064 A 
ATOM     52  C   UNL A   1      50.164  26.333  27.438  1.00  0.00     0.173 A 
ATOM     53  C   UNL A   1      49.569  26.947  25.194  1.00  0.00     0.173 A 
ATOM     54  F   UNL A   1      49.859  26.190  28.736  1.00  0.00    -0.203 F 
ATOM     55  C   UNL A   1      51.455  26.034  27.011  1.00  0.00     0.198 A 
ATOM     56  C   UNL A   1      50.851  26.618  24.763  1.00  0.00     0.198 A 
ATOM     57  F   UNL A   1      48.676  27.382  24.294  1.00  0.00    -0.203 F 
ATOM     58  F   UNL A   1      52.372  25.620  27.896  1.00  0.00    -0.200 F 
ATOM     59  C   UNL A   1      51.795  26.167  25.673  1.00  0.00     0.200 A 
ATOM     60  F   UNL A   1      51.169  26.728  23.466  1.00  0.00    -0.200 F 
ATOM     61  F   UNL A   1      53.033  25.864  25.261  1.00  0.00    -0.200 F 
ENDBRANCH  27  51
BRANCH  39  62
ATOM     62  C   UNL A   1      45.934  32.521  28.855  1.00  0.00     0.064 A 
ATOM     63  C   UNL A   1      46.478  32.882  30.097  1.00  0.00     0.173 A 
ATOM     64  C   UNL A   1      45.881  33.500  27.851  1.00  0.00     0.173 A 
ATOM     65  F   UNL A   1      46.535  31.988  31.095  1.00  0.00    -0.203 F 
ATOM     66  C   UNL A   1      46.933  34.178  30.328  1.00  0.00     0.198 A 
ATOM     67  C   UNL A   1      46.367  34.784  28.075  1.00  0.00     0.198 A 
ATOM     68  F   UNL A   1      45.373  33.205  26.645  1.00  0.00    -0.203 F 
ATOM     69  F   UNL A   1      47.407  34.513  31.535  1.00  0.00    -0.200 F 
ATOM     70  C   UNL A   1      46.886  35.124  29.315  1.00  0.00     0.200 A 
ATOM     71  F   UNL A   1      46.335  35.692  27.090  1.00  0.00    -0.200 F 
ATOM     72  F   UNL A   1      47.338  36.367  29.535  1.00  0.00    -0.200 F 
ENDBRANCH  39  62
ENDBRANCH  13  14
ENDBRANCH   6   8
ENDBRANCH   3   4
ENDBRANCH   2   3
ENDBRANCH   1   2
BRANCH   1  73
ATOM     73  C   UNL A   1      38.718  22.322  25.851  1.00  0.00     0.002 C 
BRANCH  73  74
ATOM     74  C   UNL A   1      37.913  23.611  26.042  1.00  0.00     0.021 C 
BRANCH  74  75
ATOM     75  C   UNL A   1      36.654  23.717  25.204  1.00  0.00     0.116 C 
BRANCH  75  76
ATOM     76  N   UNL A   1      35.471  23.811  26.013  1.00  0.00    -0.356 N 
ATOM     77  C   UNL A   1      34.600  22.793  26.228  1.00  0.00     0.227 C 
ATOM     78  H   UNL A   1      35.278  24.676  26.443  1.00  0.00     0.163 HD
ATOM     79  O   UNL A   1      34.151  22.691  27.366  1.00  0.00    -0.274 OA
BRANCH  77  80
ATOM     80  C   UNL A   1      34.315  21.785  25.120  1.00  0.00     0.103 C 
ATOM     81  C   UNL A   1      33.601  22.308  23.909  1.00  0.00    -0.016 C 
ATOM     82  C   UNL A   1      33.305  20.775  25.665  1.00  0.00     0.047 C 
ATOM     83  C   UNL A   1      32.310  21.956  23.896  1.00  0.00    -0.006 C 
ATOM     84  C   UNL A   1      31.941  21.236  25.128  1.00  0.00     0.106 C 
BRANCH  84  85
ATOM     85  N   UNL A   1      31.133  22.006  26.067  1.00  0.00    -0.347 N 
ATOM     86  C   UNL A   1      30.819  23.267  26.440  1.00  0.00     0.261 C 
ATOM     87  H   UNL A   1      30.634  21.378  26.638  1.00  0.00     0.164 HD
ATOM     88  O   UNL A   1      30.221  23.286  27.537  1.00  0.00    -0.271 OA
BRANCH  86  89
ATOM     89  C   UNL A   1      31.015  24.641  25.726  1.00  0.00     0.266 C 
ATOM     90  C   UNL A   1      32.334  25.047  25.067  1.00  0.00     0.095 C 
ATOM     91  O   UNL A   1      30.457  25.785  26.412  1.00  0.00    -0.480 OA
ATOM     92  C   UNL A   1      32.622  26.299  25.808  1.00  0.00    -0.002 A 
ATOM     93  C   UNL A   1      31.497  26.669  26.523  1.00  0.00     0.123 A 
ATOM     94  C   UNL A   1      33.763  27.083  25.843  1.00  0.00     0.008 A 
ATOM     95  C   UNL A   1      31.460  27.811  27.301  1.00  0.00     0.047 A 
ATOM     96  C   UNL A   1      33.760  28.228  26.650  1.00  0.00     0.001 A 
ATOM     97  C   UNL A   1      32.614  28.590  27.376  1.00  0.00     0.004 A 
ENDBRANCH  86  89
ENDBRANCH  84  85
ENDBRANCH  77  80
ENDBRANCH  75  76
ENDBRANCH  74  75
ENDBRANCH  73  74
ENDBRANCH   1  73
TORSDOF 15
ENDMDL
