MODEL 1
REMARK VINA RESULT:     -11.5      0.000      0.000
REMARK SMILES C[C@@](NC(=O)CCOC1CC[NH2+]CC1)(C(=O)NCCCCCCNC(=O)c1ccc(-c2c3nc(c(-c4c(F)c(F)c(F)c(F)c4F)c4ccc([nH]4)c(-c4c(F)c(F)c(F)c(F)c4F)c4nc(c(-c5c(F)c(F)c(F)c(F)c5F)c5ccc2[nH]5)C=C4)C=C3)cc1)C(F)(F)F
REMARK SMILES IDX 19 1 18 2 17 3 15 4 16 5 2 7 1 8 3 9 4 10 5 12 6 13 7 14
REMARK SMILES IDX 8 15 9 16 10 17 14 18 11 19 13 20 12 21 90 24 91 25 92 26
REMARK SMILES IDX 93 27 20 28 21 29 22 30 23 31 24 32 25 33 26 35 27 36 28 37
REMARK SMILES IDX 89 38 29 39 88 40 30 41 31 42 32 43 82 44 33 45 87 46 81 47
REMARK SMILES IDX 83 48 34 49 86 50 80 51 79 52 35 54 67 55 47 56 66 57 48 58
REMARK SMILES IDX 51 59 65 60 84 61 49 62 50 63 64 65 85 66 52 67 36 68 37 69
REMARK SMILES IDX 45 70 38 71 39 72 43 73 46 74 40 75 41 76 44 77 42 78 68 79
REMARK SMILES IDX 69 80 77 81 70 82 71 83 75 84 78 85 72 86 73 87 76 88 74 89
REMARK SMILES IDX 53 90 54 91 62 92 55 93 56 94 60 95 63 96 57 97 58 98 61 99
REMARK SMILES IDX 59 100
REMARK H PARENT 17 6 3 11 12 22 12 23 24 34 83 53 51 64
REMARK Flexibility Score: inf
ROOT
ATOM      1  C   UNL A   1      32.738  28.908  27.272  1.00  0.00     0.021 C 
ENDROOT
BRANCH   1   2
ATOM      2  C   UNL A   1      32.707  27.589  26.504  1.00  0.00     0.116 C 
BRANCH   2   3
ATOM      3  N   UNL A   1      31.436  26.878  26.544  1.00  0.00    -0.354 N 
ATOM      4  C   UNL A   1      31.003  25.715  25.958  1.00  0.00     0.254 C 
ATOM      5  O   UNL A   1      30.109  25.139  26.590  1.00  0.00    -0.272 OA
ATOM      6  H   UNL A   1      30.754  27.319  27.100  1.00  0.00     0.163 HD
BRANCH   4   7
ATOM      7  C   UNL A   1      31.618  25.077  24.681  1.00  0.00     0.212 C 
ATOM      8  C   UNL A   1      30.664  24.152  23.926  1.00  0.00     0.056 C 
BRANCH   7   9
ATOM      9  N   UNL A   1      32.367  25.998  23.747  1.00  0.00    -0.334 N 
ATOM     10  C   UNL A   1      32.053  26.912  22.804  1.00  0.00     0.223 C 
ATOM     11  H   UNL A   1      33.341  25.908  23.854  1.00  0.00     0.164 HD
ATOM     12  O   UNL A   1      32.964  27.329  22.085  1.00  0.00    -0.275 OA
BRANCH  10  13
ATOM     13  C   UNL A   1      30.658  27.430  22.628  1.00  0.00     0.128 C 
BRANCH  13  14
ATOM     14  C   UNL A   1      30.447  28.572  23.605  1.00  0.00     0.170 C 
BRANCH  14  15
ATOM     15  O   UNL A   1      30.116  29.762  22.879  1.00  0.00    -0.377 OA
BRANCH  15  16
ATOM     16  C   UNL A   1      28.772  30.215  23.102  1.00  0.00     0.129 C 
ATOM     17  C   UNL A   1      28.017  30.132  21.782  1.00  0.00     0.093 C 
ATOM     18  C   UNL A   1      28.790  31.628  23.704  1.00  0.00     0.093 C 
ATOM     19  C   UNL A   1      28.345  31.299  20.862  1.00  0.00     0.263 C 
ATOM     20  C   UNL A   1      28.827  32.778  22.695  1.00  0.00     0.263 C 
ATOM     21  N   UNL A   1      27.995  32.556  21.517  1.00  0.00    -0.346 N 
ATOM     22  H   UNL A   1      27.016  32.522  21.801  1.00  0.00     0.346 HD
ATOM     23  H   UNL A   1      28.149  33.320  20.860  1.00  0.00     0.346 HD
ENDBRANCH  15  16
ENDBRANCH  14  15
ENDBRANCH  13  14
ENDBRANCH  10  13
ENDBRANCH   7   9
BRANCH   7  24
ATOM     24  C   UNL A   1      32.700  24.113  25.274  1.00  0.00     0.420 C 
ATOM     25  F   UNL A   1      32.946  24.339  26.582  1.00  0.00    -0.168 F 
ATOM     26  F   UNL A   1      32.253  22.825  25.181  1.00  0.00    -0.168 F 
ATOM     27  F   UNL A   1      33.871  24.133  24.601  1.00  0.00    -0.168 F 
ENDBRANCH   7  24
ENDBRANCH   4   7
ENDBRANCH   2   3
ENDBRANCH   1   2
BRANCH   1  28
ATOM     28  C   UNL A   1      32.738  30.187  26.431  1.00  0.00     0.002 C 
BRANCH  28  29
ATOM     29  C   UNL A   1      31.388  30.880  26.228  1.00  0.00     0.002 C 
BRANCH  29  30
ATOM     30  C   UNL A   1      31.328  32.380  26.533  1.00  0.00     0.021 C 
BRANCH  30  31
ATOM     31  C   UNL A   1      32.582  33.003  27.144  1.00  0.00     0.116 C 
BRANCH  31  32
ATOM     32  N   UNL A   1      32.363  34.336  27.681  1.00  0.00    -0.352 N 
ATOM     33  C   UNL A   1      33.016  35.020  28.676  1.00  0.00     0.251 C 
ATOM     34  H   UNL A   1      31.623  34.830  27.262  1.00  0.00     0.163 HD
ATOM     35  O   UNL A   1      32.597  36.120  29.027  1.00  0.00    -0.269 OA
BRANCH  33  36
ATOM     36  C   UNL A   1      34.202  34.447  29.352  1.00  0.00     0.039 A 
ATOM     37  C   UNL A   1      34.009  33.746  30.549  1.00  0.00     0.014 A 
ATOM     38  C   UNL A   1      35.496  34.629  28.858  1.00  0.00     0.014 A 
ATOM     39  C   UNL A   1      35.100  33.183  31.216  1.00  0.00     0.010 A 
ATOM     40  C   UNL A   1      36.577  34.016  29.491  1.00  0.00     0.010 A 
ATOM     41  C   UNL A   1      36.390  33.291  30.678  1.00  0.00    -0.014 A 
BRANCH  41  42
ATOM     42  C   UNL A   1      37.558  32.662  31.348  1.00  0.00     0.031 A 
ATOM     43  C   UNL A   1      38.301  31.541  30.673  1.00  0.00     0.074 A 
ATOM     44  C   UNL A   1      37.911  33.055  32.587  1.00  0.00     0.049 A 
ATOM     45  N   UNL A   1      39.283  30.805  31.129  1.00  0.00    -0.248 NA
ATOM     46  C   UNL A   1      37.864  31.185  29.315  1.00  0.00     0.031 C 
ATOM     47  C   UNL A   1      37.248  34.106  33.360  1.00  0.00     0.029 A 
ATOM     48  N   UNL A   1      38.906  32.607  33.420  1.00  0.00    -0.354 N 
ATOM     49  C   UNL A   1      39.565  29.889  30.124  1.00  0.00     0.074 A 
ATOM     50  C   UNL A   1      38.626  30.133  29.051  1.00  0.00     0.031 C 
ATOM     51  C   UNL A   1      37.860  34.231  34.548  1.00  0.00     0.029 A 
ATOM     52  C   UNL A   1      38.935  33.247  34.636  1.00  0.00     0.049 A 
ATOM     53  H   UNL A   1      39.538  31.896  33.169  1.00  0.00     0.167 HD
ATOM     54  C   UNL A   1      40.535  28.942  30.093  1.00  0.00     0.037 A 
ATOM     55  C   UNL A   1      39.733  33.053  35.703  1.00  0.00     0.037 A 
ATOM     56  C   UNL A   1      41.490  28.725  31.147  1.00  0.00     0.049 A 
ATOM     57  C   UNL A   1      40.806  32.000  35.638  1.00  0.00     0.074 A 
ATOM     58  C   UNL A   1      42.545  27.828  31.184  1.00  0.00     0.029 A 
ATOM     59  N   UNL A   1      41.508  29.415  32.349  1.00  0.00    -0.354 N 
ATOM     60  N   UNL A   1      41.100  31.177  34.661  1.00  0.00    -0.248 NA
ATOM     61  C   UNL A   1      41.663  31.852  36.823  1.00  0.00     0.031 C 
ATOM     62  C   UNL A   1      43.179  27.951  32.425  1.00  0.00     0.029 A 
ATOM     63  C   UNL A   1      42.546  28.954  33.143  1.00  0.00     0.049 A 
ATOM     64  H   UNL A   1      40.876  30.127  32.602  1.00  0.00     0.167 HD
ATOM     65  C   UNL A   1      42.191  30.440  35.096  1.00  0.00     0.074 A 
ATOM     66  C   UNL A   1      42.516  30.917  36.424  1.00  0.00     0.031 C 
ATOM     67  C   UNL A   1      42.865  29.455  34.455  1.00  0.00     0.037 A 
BRANCH  54  68
ATOM     68  C   UNL A   1      40.615  28.070  28.874  1.00  0.00     0.064 A 
ATOM     69  C   UNL A   1      39.887  26.875  28.775  1.00  0.00     0.173 A 
ATOM     70  C   UNL A   1      41.396  28.454  27.773  1.00  0.00     0.173 A 
ATOM     71  F   UNL A   1      39.135  26.456  29.805  1.00  0.00    -0.203 F 
ATOM     72  C   UNL A   1      39.957  26.084  27.631  1.00  0.00     0.198 A 
ATOM     73  C   UNL A   1      41.442  27.675  26.620  1.00  0.00     0.198 A 
ATOM     74  F   UNL A   1      42.108  29.590  27.812  1.00  0.00    -0.203 F 
ATOM     75  F   UNL A   1      39.288  24.924  27.578  1.00  0.00    -0.200 F 
ATOM     76  C   UNL A   1      40.729  26.488  26.552  1.00  0.00     0.200 A 
ATOM     77  F   UNL A   1      42.178  28.073  25.573  1.00  0.00    -0.200 F 
ATOM     78  F   UNL A   1      40.789  25.730  25.449  1.00  0.00    -0.200 F 
ENDBRANCH  54  68
BRANCH  55  79
ATOM     79  C   UNL A   1      39.564  33.890  36.920  1.00  0.00     0.064 A 
ATOM     80  C   UNL A   1      40.156  35.157  37.008  1.00  0.00     0.173 A 
ATOM     81  C   UNL A   1      38.820  33.438  38.019  1.00  0.00     0.173 A 
ATOM     82  F   UNL A   1      40.895  35.623  35.991  1.00  0.00    -0.203 F 
ATOM     83  C   UNL A   1      40.029  35.933  38.159  1.00  0.00     0.198 A 
ATOM     84  C   UNL A   1      38.671  34.227  39.160  1.00  0.00     0.198 A 
ATOM     85  F   UNL A   1      38.230  32.235  37.983  1.00  0.00    -0.203 F 
ATOM     86  F   UNL A   1      40.646  37.120  38.234  1.00  0.00    -0.200 F 
ATOM     87  C   UNL A   1      39.283  35.469  39.231  1.00  0.00     0.200 A 
ATOM     88  F   UNL A   1      37.938  33.780  40.189  1.00  0.00    -0.200 F 
ATOM     89  F   UNL A   1      39.160  36.215  40.337  1.00  0.00    -0.200 F 
ENDBRANCH  55  79
BRANCH  67  90
ATOM     90  C   UNL A   1      44.048  28.857  35.159  1.00  0.00     0.064 A 
ATOM     91  C   UNL A   1      45.332  29.404  35.036  1.00  0.00     0.173 A 
ATOM     92  C   UNL A   1      43.881  27.749  36.004  1.00  0.00     0.173 A 
ATOM     93  F   UNL A   1      45.544  30.455  34.228  1.00  0.00    -0.203 F 
ATOM     94  C   UNL A   1      46.413  28.851  35.718  1.00  0.00     0.198 A 
ATOM     95  C   UNL A   1      44.958  27.215  36.706  1.00  0.00     0.198 A 
ATOM     96  F   UNL A   1      42.670  27.193  36.160  1.00  0.00    -0.203 F 
ATOM     97  F   UNL A   1      47.640  29.364  35.554  1.00  0.00    -0.200 F 
ATOM     98  C   UNL A   1      46.224  27.763  36.557  1.00  0.00     0.200 A 
ATOM     99  F   UNL A   1      44.771  26.172  37.526  1.00  0.00    -0.200 F 
ATOM    100  F   UNL A   1      47.263  27.236  37.219  1.00  0.00    -0.200 F 
ENDBRANCH  67  90
ENDBRANCH  41  42
ENDBRANCH  33  36
ENDBRANCH  31  32
ENDBRANCH  30  31
ENDBRANCH  29  30
ENDBRANCH  28  29
ENDBRANCH   1  28
TORSDOF 19
ENDMDL
MODEL 2
REMARK VINA RESULT:     -11.4      1.776      3.714
REMARK SMILES C[C@@](NC(=O)CCOC1CC[NH2+]CC1)(C(=O)NCCCCCCNC(=O)c1ccc(-c2c3nc(c(-c4c(F)c(F)c(F)c(F)c4F)c4ccc([nH]4)c(-c4c(F)c(F)c(F)c(F)c4F)c4nc(c(-c5c(F)c(F)c(F)c(F)c5F)c5ccc2[nH]5)C=C4)C=C3)cc1)C(F)(F)F
REMARK SMILES IDX 19 1 18 2 17 3 15 4 16 5 2 7 1 8 3 9 4 10 5 12 6 13 7 14
REMARK SMILES IDX 8 15 9 16 10 17 14 18 11 19 13 20 12 21 90 24 91 25 92 26
REMARK SMILES IDX 93 27 20 28 21 29 22 30 23 31 24 32 25 33 26 35 27 36 28 37
REMARK SMILES IDX 89 38 29 39 88 40 30 41 31 42 32 43 82 44 33 45 87 46 81 47
REMARK SMILES IDX 83 48 34 49 86 50 80 51 79 52 35 54 67 55 47 56 66 57 48 58
REMARK SMILES IDX 51 59 65 60 84 61 49 62 50 63 64 65 85 66 52 67 36 68 37 69
REMARK SMILES IDX 45 70 38 71 39 72 43 73 46 74 40 75 41 76 44 77 42 78 68 79
REMARK SMILES IDX 69 80 77 81 70 82 71 83 75 84 78 85 72 86 73 87 76 88 74 89
REMARK SMILES IDX 53 90 54 91 62 92 55 93 56 94 60 95 63 96 57 97 58 98 61 99
REMARK SMILES IDX 59 100
REMARK H PARENT 17 6 3 11 12 22 12 23 24 34 83 53 51 64
REMARK Flexibility Score: inf
ROOT
ATOM      1  C   UNL A   1      33.565  29.284  26.371  1.00  0.00     0.021 C 
ENDROOT
BRANCH   1   2
ATOM      2  C   UNL A   1      33.445  27.825  25.936  1.00  0.00     0.116 C 
BRANCH   2   3
ATOM      3  N   UNL A   1      32.099  27.392  25.583  1.00  0.00    -0.354 N 
ATOM      4  C   UNL A   1      31.465  27.220  24.378  1.00  0.00     0.254 C 
ATOM      5  O   UNL A   1      30.562  26.375  24.404  1.00  0.00    -0.272 OA
ATOM      6  H   UNL A   1      31.534  27.183  26.361  1.00  0.00     0.163 HD
BRANCH   4   7
ATOM      7  C   UNL A   1      31.874  27.913  23.048  1.00  0.00     0.212 C 
ATOM      8  C   UNL A   1      32.954  28.983  23.210  1.00  0.00     0.056 C 
BRANCH   7   9
ATOM      9  N   UNL A   1      32.141  27.018  21.862  1.00  0.00    -0.334 N 
ATOM     10  C   UNL A   1      32.960  25.984  21.573  1.00  0.00     0.223 C 
ATOM     11  H   UNL A   1      31.566  27.249  21.097  1.00  0.00     0.164 HD
ATOM     12  O   UNL A   1      33.039  25.627  20.395  1.00  0.00    -0.275 OA
BRANCH  10  13
ATOM     13  C   UNL A   1      33.744  25.268  22.631  1.00  0.00     0.128 C 
BRANCH  13  14
ATOM     14  C   UNL A   1      33.277  23.824  22.674  1.00  0.00     0.170 C 
BRANCH  14  15
ATOM     15  O   UNL A   1      33.317  23.352  24.026  1.00  0.00    -0.377 OA
BRANCH  15  16
ATOM     16  C   UNL A   1      34.611  23.466  24.635  1.00  0.00     0.129 C 
ATOM     17  C   UNL A   1      35.373  22.171  24.381  1.00  0.00     0.093 C 
ATOM     18  C   UNL A   1      34.460  23.798  26.126  1.00  0.00     0.093 C 
ATOM     19  C   UNL A   1      34.937  21.059  25.322  1.00  0.00     0.263 C 
ATOM     20  C   UNL A   1      34.315  22.596  27.063  1.00  0.00     0.263 C 
ATOM     21  N   UNL A   1      35.166  21.466  26.705  1.00  0.00    -0.346 N 
ATOM     22  H   UNL A   1      36.143  21.736  26.816  1.00  0.00     0.346 HD
ATOM     23  H   UNL A   1      34.941  20.682  27.317  1.00  0.00     0.346 HD
ENDBRANCH  15  16
ENDBRANCH  14  15
ENDBRANCH  13  14
ENDBRANCH  10  13
ENDBRANCH   7   9
BRANCH   7  24
ATOM     24  C   UNL A   1      30.584  28.722  22.680  1.00  0.00     0.420 C 
ATOM     25  F   UNL A   1      29.570  27.934  22.265  1.00  0.00    -0.168 F 
ATOM     26  F   UNL A   1      30.135  29.381  23.790  1.00  0.00    -0.168 F 
ATOM     27  F   UNL A   1      30.794  29.684  21.756  1.00  0.00    -0.168 F 
ENDBRANCH   7  24
ENDBRANCH   4   7
ENDBRANCH   2   3
ENDBRANCH   1   2
BRANCH   1  28
ATOM     28  C   UNL A   1      32.324  29.907  27.015  1.00  0.00     0.002 C 
BRANCH  28  29
ATOM     29  C   UNL A   1      31.459  30.803  26.125  1.00  0.00     0.002 C 
BRANCH  29  30
ATOM     30  C   UNL A   1      31.362  32.281  26.516  1.00  0.00     0.021 C 
BRANCH  30  31
ATOM     31  C   UNL A   1      32.597  32.896  27.173  1.00  0.00     0.116 C 
BRANCH  31  32
ATOM     32  N   UNL A   1      32.370  34.231  27.698  1.00  0.00    -0.352 N 
ATOM     33  C   UNL A   1      33.014  34.927  28.689  1.00  0.00     0.251 C 
ATOM     34  H   UNL A   1      31.629  34.718  27.271  1.00  0.00     0.163 HD
ATOM     35  O   UNL A   1      32.589  36.027  29.029  1.00  0.00    -0.269 OA
BRANCH  33  36
ATOM     36  C   UNL A   1      34.201  34.365  29.375  1.00  0.00     0.039 A 
ATOM     37  C   UNL A   1      34.009  33.697  30.591  1.00  0.00     0.014 A 
ATOM     38  C   UNL A   1      35.493  34.528  28.871  1.00  0.00     0.014 A 
ATOM     39  C   UNL A   1      35.100  33.146  31.268  1.00  0.00     0.010 A 
ATOM     40  C   UNL A   1      36.574  33.927  29.516  1.00  0.00     0.010 A 
ATOM     41  C   UNL A   1      36.389  33.233  30.721  1.00  0.00    -0.014 A 
BRANCH  41  42
ATOM     42  C   UNL A   1      37.557  32.616  31.403  1.00  0.00     0.031 A 
ATOM     43  C   UNL A   1      38.295  31.479  30.751  1.00  0.00     0.074 A 
ATOM     44  C   UNL A   1      37.913  33.035  32.632  1.00  0.00     0.049 A 
ATOM     45  N   UNL A   1      39.276  30.750  31.221  1.00  0.00    -0.248 NA
ATOM     46  C   UNL A   1      37.855  31.095  29.401  1.00  0.00     0.031 C 
ATOM     47  C   UNL A   1      37.254  34.104  33.384  1.00  0.00     0.029 A 
ATOM     48  N   UNL A   1      38.908  32.603  33.472  1.00  0.00    -0.354 N 
ATOM     49  C   UNL A   1      39.554  29.812  30.236  1.00  0.00     0.074 A 
ATOM     50  C   UNL A   1      38.613  30.035  29.159  1.00  0.00     0.031 C 
ATOM     51  C   UNL A   1      37.869  34.253  34.568  1.00  0.00     0.029 A 
ATOM     52  C   UNL A   1      38.942  33.268  34.675  1.00  0.00     0.049 A 
ATOM     53  H   UNL A   1      39.538  31.884  33.237  1.00  0.00     0.167 HD
ATOM     54  C   UNL A   1      40.521  28.862  30.223  1.00  0.00     0.037 A 
ATOM     55  C   UNL A   1      39.741  33.096  35.744  1.00  0.00     0.037 A 
ATOM     56  C   UNL A   1      41.478  28.665  31.279  1.00  0.00     0.049 A 
ATOM     57  C   UNL A   1      40.811  32.038  35.700  1.00  0.00     0.074 A 
ATOM     58  C   UNL A   1      42.530  27.767  31.334  1.00  0.00     0.029 A 
ATOM     59  N   UNL A   1      41.500  29.381  32.467  1.00  0.00    -0.354 N 
ATOM     60  N   UNL A   1      41.101  31.194  34.740  1.00  0.00    -0.248 NA
ATOM     61  C   UNL A   1      41.670  31.914  36.886  1.00  0.00     0.031 C 
ATOM     62  C   UNL A   1      43.167  27.915  32.571  1.00  0.00     0.029 A 
ATOM     63  C   UNL A   1      42.539  28.935  33.268  1.00  0.00     0.049 A 
ATOM     64  H   UNL A   1      40.870  30.100  32.705  1.00  0.00     0.167 HD
ATOM     65  C   UNL A   1      42.192  30.463  35.189  1.00  0.00     0.074 A 
ATOM     66  C   UNL A   1      42.520  30.968  36.506  1.00  0.00     0.031 C 
ATOM     67  C   UNL A   1      42.862  29.463  34.568  1.00  0.00     0.037 A 
BRANCH  54  68
ATOM     68  C   UNL A   1      40.597  27.963  29.023  1.00  0.00     0.064 A 
ATOM     69  C   UNL A   1      39.823  26.797  28.928  1.00  0.00     0.173 A 
ATOM     70  C   UNL A   1      41.421  28.294  27.936  1.00  0.00     0.173 A 
ATOM     71  F   UNL A   1      39.028  26.429  29.944  1.00  0.00    -0.203 F 
ATOM     72  C   UNL A   1      39.890  25.981  27.801  1.00  0.00     0.198 A 
ATOM     73  C   UNL A   1      41.465  27.492  26.799  1.00  0.00     0.198 A 
ATOM     74  F   UNL A   1      42.177  29.401  27.973  1.00  0.00    -0.203 F 
ATOM     75  F   UNL A   1      39.176  24.849  27.752  1.00  0.00    -0.200 F 
ATOM     76  C   UNL A   1      40.705  26.333  26.735  1.00  0.00     0.200 A 
ATOM     77  F   UNL A   1      42.242  27.839  25.765  1.00  0.00    -0.200 F 
ATOM     78  F   UNL A   1      40.762  25.551  25.648  1.00  0.00    -0.200 F 
ENDBRANCH  54  68
BRANCH  55  79
ATOM     79  C   UNL A   1      39.576  33.959  36.943  1.00  0.00     0.064 A 
ATOM     80  C   UNL A   1      40.185  35.220  37.009  1.00  0.00     0.173 A 
ATOM     81  C   UNL A   1      38.820  33.540  38.047  1.00  0.00     0.173 A 
ATOM     82  F   UNL A   1      40.937  35.654  35.987  1.00  0.00    -0.203 F 
ATOM     83  C   UNL A   1      40.063  36.020  38.144  1.00  0.00     0.198 A 
ATOM     84  C   UNL A   1      38.675  34.353  39.170  1.00  0.00     0.198 A 
ATOM     85  F   UNL A   1      38.214  32.344  38.031  1.00  0.00    -0.203 F 
ATOM     86  F   UNL A   1      40.695  37.200  38.199  1.00  0.00    -0.200 F 
ATOM     87  C   UNL A   1      39.304  35.588  39.220  1.00  0.00     0.200 A 
ATOM     88  F   UNL A   1      37.930  33.938  40.203  1.00  0.00    -0.200 F 
ATOM     89  F   UNL A   1      39.184  36.358  40.310  1.00  0.00    -0.200 F 
ENDBRANCH  55  79
BRANCH  67  90
ATOM     90  C   UNL A   1      44.044  28.878  35.283  1.00  0.00     0.064 A 
ATOM     91  C   UNL A   1      43.905  27.819  36.191  1.00  0.00     0.173 A 
ATOM     92  C   UNL A   1      45.337  29.355  35.019  1.00  0.00     0.173 A 
ATOM     93  F   UNL A   1      42.687  27.339  36.487  1.00  0.00    -0.203 F 
ATOM     94  C   UNL A   1      45.017  27.271  36.825  1.00  0.00     0.198 A 
ATOM     95  C   UNL A   1      46.449  28.787  35.634  1.00  0.00     0.198 A 
ATOM     96  F   UNL A   1      45.523  30.362  34.153  1.00  0.00    -0.203 F 
ATOM     97  F   UNL A   1      44.857  26.287  37.721  1.00  0.00    -0.200 F 
ATOM     98  C   UNL A   1      46.287  27.750  36.541  1.00  0.00     0.200 A 
ATOM     99  F   UNL A   1      47.676  29.242  35.348  1.00  0.00    -0.200 F 
ATOM    100  F   UNL A   1      47.357  27.217  37.147  1.00  0.00    -0.200 F 
ENDBRANCH  67  90
ENDBRANCH  41  42
ENDBRANCH  33  36
ENDBRANCH  31  32
ENDBRANCH  30  31
ENDBRANCH  29  30
ENDBRANCH  28  29
ENDBRANCH   1  28
TORSDOF 19
ENDMDL
MODEL 3
REMARK VINA RESULT:     -11.4      5.614     10.896
REMARK SMILES C[C@@](NC(=O)CCOC1CC[NH2+]CC1)(C(=O)NCCCCCCNC(=O)c1ccc(-c2c3nc(c(-c4c(F)c(F)c(F)c(F)c4F)c4ccc([nH]4)c(-c4c(F)c(F)c(F)c(F)c4F)c4nc(c(-c5c(F)c(F)c(F)c(F)c5F)c5ccc2[nH]5)C=C4)C=C3)cc1)C(F)(F)F
REMARK SMILES IDX 19 1 18 2 17 3 15 4 16 5 2 7 1 8 3 9 4 10 5 12 6 13 7 14
REMARK SMILES IDX 8 15 9 16 10 17 14 18 11 19 13 20 12 21 90 24 91 25 92 26
REMARK SMILES IDX 93 27 20 28 21 29 22 30 23 31 24 32 25 33 26 35 27 36 28 37
REMARK SMILES IDX 89 38 29 39 88 40 30 41 31 42 32 43 82 44 33 45 87 46 81 47
REMARK SMILES IDX 83 48 34 49 86 50 80 51 79 52 35 54 67 55 47 56 66 57 48 58
REMARK SMILES IDX 51 59 65 60 84 61 49 62 50 63 64 65 85 66 52 67 36 68 37 69
REMARK SMILES IDX 45 70 38 71 39 72 43 73 46 74 40 75 41 76 44 77 42 78 68 79
REMARK SMILES IDX 69 80 77 81 70 82 71 83 75 84 78 85 72 86 73 87 76 88 74 89
REMARK SMILES IDX 53 90 54 91 62 92 55 93 56 94 60 95 63 96 57 97 58 98 61 99
REMARK SMILES IDX 59 100
REMARK H PARENT 17 6 3 11 12 22 12 23 24 34 83 53 51 64
REMARK Flexibility Score: inf
ROOT
ATOM      1  C   UNL A   1      35.949  22.833  23.419  1.00  0.00     0.021 C 
ENDROOT
BRANCH   1   2
ATOM      2  C   UNL A   1      34.965  23.733  24.162  1.00  0.00     0.116 C 
BRANCH   2   3
ATOM      3  N   UNL A   1      33.780  24.114  23.403  1.00  0.00    -0.354 N 
ATOM      4  C   UNL A   1      32.756  24.991  23.659  1.00  0.00     0.254 C 
ATOM      5  O   UNL A   1      32.232  25.459  22.641  1.00  0.00    -0.272 OA
ATOM      6  H   UNL A   1      33.699  23.652  22.538  1.00  0.00     0.163 HD
BRANCH   4   7
ATOM      7  C   UNL A   1      32.326  25.471  25.073  1.00  0.00     0.212 C 
ATOM      8  C   UNL A   1      30.944  26.126  25.115  1.00  0.00     0.056 C 
BRANCH   7   9
ATOM      9  N   UNL A   1      32.525  24.505  26.216  1.00  0.00    -0.334 N 
ATOM     10  C   UNL A   1      31.963  23.353  26.643  1.00  0.00     0.223 C 
ATOM     11  H   UNL A   1      33.260  24.790  26.806  1.00  0.00     0.164 HD
ATOM     12  O   UNL A   1      32.270  22.948  27.766  1.00  0.00    -0.275 OA
BRANCH  10  13
ATOM     13  C   UNL A   1      31.009  22.569  25.793  1.00  0.00     0.128 C 
BRANCH  13  14
ATOM     14  C   UNL A   1      31.818  21.666  24.880  1.00  0.00     0.170 C 
BRANCH  14  15
ATOM     15  O   UNL A   1      31.771  20.323  25.377  1.00  0.00    -0.377 OA
BRANCH  15  16
ATOM     16  C   UNL A   1      32.982  19.587  25.153  1.00  0.00     0.129 C 
ATOM     17  C   UNL A   1      33.195  19.464  23.650  1.00  0.00     0.093 C 
ATOM     18  C   UNL A   1      32.908  18.230  25.869  1.00  0.00     0.093 C 
ATOM     19  C   UNL A   1      32.323  18.377  23.038  1.00  0.00     0.263 C 
ATOM     20  C   UNL A   1      32.271  17.092  25.069  1.00  0.00     0.263 C 
ATOM     21  N   UNL A   1      32.634  17.091  23.655  1.00  0.00    -0.346 N 
ATOM     22  H   UNL A   1      33.634  16.912  23.567  1.00  0.00     0.346 HD
ATOM     23  H   UNL A   1      32.098  16.365  23.181  1.00  0.00     0.346 HD
ENDBRANCH  15  16
ENDBRANCH  14  15
ENDBRANCH  13  14
ENDBRANCH  10  13
ENDBRANCH   7   9
BRANCH   7  24
ATOM     24  C   UNL A   1      33.318  26.652  25.344  1.00  0.00     0.420 C 
ATOM     25  F   UNL A   1      32.753  27.667  26.034  1.00  0.00    -0.168 F 
ATOM     26  F   UNL A   1      34.359  26.198  26.105  1.00  0.00    -0.168 F 
ATOM     27  F   UNL A   1      33.886  27.150  24.225  1.00  0.00    -0.168 F 
ENDBRANCH   7  24
ENDBRANCH   4   7
ENDBRANCH   2   3
ENDBRANCH   1   2
BRANCH   1  28
ATOM     28  C   UNL A   1      37.053  22.189  24.263  1.00  0.00     0.002 C 
BRANCH  28  29
ATOM     29  C   UNL A   1      36.774  20.788  24.813  1.00  0.00     0.002 C 
BRANCH  29  30
ATOM     30  C   UNL A   1      37.955  19.815  24.859  1.00  0.00     0.021 C 
BRANCH  30  31
ATOM     31  C   UNL A   1      39.021  20.083  25.920  1.00  0.00     0.116 C 
BRANCH  31  32
ATOM     32  N   UNL A   1      40.156  19.180  25.843  1.00  0.00    -0.352 N 
ATOM     33  C   UNL A   1      41.494  19.400  26.056  1.00  0.00     0.251 C 
ATOM     34  H   UNL A   1      39.928  18.256  25.596  1.00  0.00     0.163 HD
ATOM     35  O   UNL A   1      42.296  18.495  25.846  1.00  0.00    -0.269 OA
BRANCH  33  36
ATOM     36  C   UNL A   1      41.992  20.719  26.511  1.00  0.00     0.039 A 
ATOM     37  C   UNL A   1      42.351  21.663  25.541  1.00  0.00     0.014 A 
ATOM     38  C   UNL A   1      42.159  21.020  27.864  1.00  0.00     0.014 A 
ATOM     39  C   UNL A   1      42.819  22.921  25.926  1.00  0.00     0.010 A 
ATOM     40  C   UNL A   1      42.569  22.296  28.250  1.00  0.00     0.010 A 
ATOM     41  C   UNL A   1      42.907  23.258  27.285  1.00  0.00    -0.014 A 
BRANCH  41  42
ATOM     42  C   UNL A   1      43.360  24.606  27.716  1.00  0.00     0.031 A 
ATOM     43  C   UNL A   1      42.351  25.665  28.062  1.00  0.00     0.074 A 
ATOM     44  C   UNL A   1      44.676  24.894  27.737  1.00  0.00     0.049 A 
ATOM     45  N   UNL A   1      42.542  26.924  28.370  1.00  0.00    -0.248 NA
ATOM     46  C   UNL A   1      40.936  25.264  28.033  1.00  0.00     0.031 C 
ATOM     47  C   UNL A   1      45.750  23.963  27.390  1.00  0.00     0.029 A 
ATOM     48  N   UNL A   1      45.333  26.058  28.050  1.00  0.00    -0.354 N 
ATOM     49  C   UNL A   1      41.276  27.465  28.549  1.00  0.00     0.074 A 
ATOM     50  C   UNL A   1      40.322  26.412  28.277  1.00  0.00     0.031 C 
ATOM     51  C   UNL A   1      46.932  24.587  27.520  1.00  0.00     0.029 A 
ATOM     52  C   UNL A   1      46.699  25.970  27.925  1.00  0.00     0.049 A 
ATOM     53  H   UNL A   1      44.869  26.878  28.336  1.00  0.00     0.167 HD
ATOM     54  C   UNL A   1      40.941  28.723  28.927  1.00  0.00     0.037 A 
ATOM     55  C   UNL A   1      47.652  26.904  28.107  1.00  0.00     0.037 A 
ATOM     56  C   UNL A   1      41.893  29.759  29.232  1.00  0.00     0.049 A 
ATOM     57  C   UNL A   1      47.252  28.291  28.533  1.00  0.00     0.074 A 
ATOM     58  C   UNL A   1      41.653  31.047  29.677  1.00  0.00     0.029 A 
ATOM     59  N   UNL A   1      43.269  29.621  29.125  1.00  0.00    -0.354 N 
ATOM     60  N   UNL A   1      46.055  28.775  28.754  1.00  0.00    -0.248 NA
ATOM     61  C   UNL A   1      48.338  29.259  28.742  1.00  0.00     0.031 C 
ATOM     62  C   UNL A   1      42.883  31.702  29.805  1.00  0.00     0.029 A 
ATOM     63  C   UNL A   1      43.891  30.807  29.482  1.00  0.00     0.049 A 
ATOM     64  H   UNL A   1      43.734  28.802  28.838  1.00  0.00     0.167 HD
ATOM     65  C   UNL A   1      46.242  30.089  29.159  1.00  0.00     0.074 A 
ATOM     66  C   UNL A   1      47.671  30.326  29.162  1.00  0.00     0.031 C 
ATOM     67  C   UNL A   1      45.315  31.017  29.497  1.00  0.00     0.037 A 
BRANCH  54  68
ATOM     68  C   UNL A   1      39.481  29.050  29.038  1.00  0.00     0.064 A 
ATOM     69  C   UNL A   1      38.730  29.453  27.923  1.00  0.00     0.173 A 
ATOM     70  C   UNL A   1      38.812  28.918  30.265  1.00  0.00     0.173 A 
ATOM     71  F   UNL A   1      39.324  29.606  26.730  1.00  0.00    -0.203 F 
ATOM     72  C   UNL A   1      37.371  29.736  28.037  1.00  0.00     0.198 A 
ATOM     73  C   UNL A   1      37.448  29.174  30.370  1.00  0.00     0.198 A 
ATOM     74  F   UNL A   1      39.481  28.531  31.362  1.00  0.00    -0.203 F 
ATOM     75  F   UNL A   1      36.685  30.162  26.968  1.00  0.00    -0.200 F 
ATOM     76  C   UNL A   1      36.730  29.590  29.258  1.00  0.00     0.200 A 
ATOM     77  F   UNL A   1      36.826  29.020  31.547  1.00  0.00    -0.200 F 
ATOM     78  F   UNL A   1      35.421  29.855  29.364  1.00  0.00    -0.200 F 
ENDBRANCH  54  68
BRANCH  55  79
ATOM     79  C   UNL A   1      49.083  26.554  27.907  1.00  0.00     0.064 A 
ATOM     80  C   UNL A   1      49.906  26.249  29.000  1.00  0.00     0.173 A 
ATOM     81  C   UNL A   1      49.657  26.528  26.629  1.00  0.00     0.173 A 
ATOM     82  F   UNL A   1      49.407  26.284  30.244  1.00  0.00    -0.203 F 
ATOM     83  C   UNL A   1      51.257  25.954  28.824  1.00  0.00     0.198 A 
ATOM     84  C   UNL A   1      51.002  26.204  26.451  1.00  0.00     0.198 A 
ATOM     85  F   UNL A   1      48.911  26.806  25.550  1.00  0.00    -0.203 F 
ATOM     86  F   UNL A   1      52.032  25.714  29.890  1.00  0.00    -0.200 F 
ATOM     87  C   UNL A   1      51.802  25.926  27.550  1.00  0.00     0.200 A 
ATOM     88  F   UNL A   1      51.522  26.166  25.217  1.00  0.00    -0.200 F 
ATOM     89  F   UNL A   1      53.100  25.640  27.380  1.00  0.00    -0.200 F 
ENDBRANCH  55  79
BRANCH  67  90
ATOM     90  C   UNL A   1      45.815  32.361  29.942  1.00  0.00     0.064 A 
ATOM     91  C   UNL A   1      45.986  33.419  29.038  1.00  0.00     0.173 A 
ATOM     92  C   UNL A   1      46.082  32.602  31.298  1.00  0.00     0.173 A 
ATOM     93  F   UNL A   1      45.758  33.232  27.729  1.00  0.00    -0.203 F 
ATOM     94  C   UNL A   1      46.426  34.666  29.474  1.00  0.00     0.198 A 
ATOM     95  C   UNL A   1      46.496  33.857  31.734  1.00  0.00     0.198 A 
ATOM     96  F   UNL A   1      45.928  31.623  32.203  1.00  0.00    -0.203 F 
ATOM     97  F   UNL A   1      46.623  35.651  28.588  1.00  0.00    -0.200 F 
ATOM     98  C   UNL A   1      46.674  34.886  30.821  1.00  0.00     0.200 A 
ATOM     99  F   UNL A   1      46.722  34.071  33.037  1.00  0.00    -0.200 F 
ATOM    100  F   UNL A   1      47.090  36.089  31.239  1.00  0.00    -0.200 F 
ENDBRANCH  67  90
ENDBRANCH  41  42
ENDBRANCH  33  36
ENDBRANCH  31  32
ENDBRANCH  30  31
ENDBRANCH  29  30
ENDBRANCH  28  29
ENDBRANCH   1  28
TORSDOF 19
ENDMDL
