MODEL 1
REMARK VINA RESULT:     -12.2      0.000      0.000
REMARK SMILES O=C(Cc1ccc(NC(=O)Nc2ccc(Br)cc2)cc1)NCCCCCCNC(=O)c1ccc(-c2c3nc(c(-c4c(F)c(F)c(F)c(F)c4F)c4ccc([nH]4)c(-c4c(F)c(F)c(F)c(F)c4F)c4nc(c(-c5c(F)c(F)c(F)c(F)c5F)c5ccc2[nH]5)C=C4)C=C3)cc1
REMARK SMILES IDX 24 1 23 2 22 3 21 4 1 5 2 6 3 8 4 9 5 10 20 11 6 12 19 13
REMARK SMILES IDX 7 14 8 15 9 16 10 18 11 19 12 21 13 22 18 23 14 24 17 25
REMARK SMILES IDX 15 26 16 27 25 28 26 29 27 30 28 31 29 32 30 34 31 35 32 36
REMARK SMILES IDX 93 37 33 38 92 39 34 40 35 41 36 42 86 43 37 44 91 45 85 46
REMARK SMILES IDX 87 47 38 48 90 49 84 50 83 51 39 53 71 54 51 55 70 56 52 57
REMARK SMILES IDX 55 58 69 59 88 60 53 61 54 62 68 64 89 65 56 66 40 67 41 68
REMARK SMILES IDX 49 69 42 70 43 71 47 72 50 73 44 74 45 75 48 76 46 77 72 78
REMARK SMILES IDX 73 79 81 80 74 81 75 82 79 83 82 84 76 85 77 86 80 87 78 88
REMARK SMILES IDX 57 89 58 90 66 91 59 92 60 93 64 94 67 95 61 96 62 97 65 98
REMARK SMILES IDX 63 99
REMARK H PARENT 21 7 8 17 11 20 28 33 87 52 55 63
REMARK Flexibility Score: inf
ROOT
ATOM      1  C   UNL A   1      41.872  21.863  26.743  1.00  0.00     0.002 C 
ENDROOT
BRANCH   1   2
ATOM      2  C   UNL A   1      40.479  22.499  26.696  1.00  0.00     0.021 C 
BRANCH   2   3
ATOM      3  C   UNL A   1      39.369  21.592  26.169  1.00  0.00     0.116 C 
BRANCH   3   4
ATOM      4  N   UNL A   1      38.397  22.290  25.351  1.00  0.00    -0.356 N 
ATOM      5  O   UNL A   1      37.337  20.379  24.630  1.00  0.00    -0.275 OA
ATOM      6  C   UNL A   1      37.375  21.602  24.715  1.00  0.00     0.224 C 
ATOM      7  H   UNL A   1      38.463  23.266  25.245  1.00  0.00     0.163 HD
BRANCH   6   8
ATOM      8  C   UNL A   1      36.255  22.489  24.195  1.00  0.00     0.135 C 
BRANCH   8   9
ATOM      9  C   UNL A   1      34.877  22.132  24.720  1.00  0.00    -0.039 A 
ATOM     10  C   UNL A   1      34.634  21.910  26.081  1.00  0.00     0.006 A 
ATOM     11  C   UNL A   1      33.779  22.130  23.845  1.00  0.00     0.006 A 
ATOM     12  C   UNL A   1      33.333  21.801  26.565  1.00  0.00     0.026 A 
ATOM     13  C   UNL A   1      32.470  22.023  24.335  1.00  0.00     0.026 A 
ATOM     14  C   UNL A   1      32.244  21.964  25.710  1.00  0.00     0.042 A 
BRANCH  14  15
ATOM     15  N   UNL A   1      30.932  22.135  26.191  1.00  0.00    -0.308 N 
ATOM     16  C   UNL A   1      30.403  23.155  26.931  1.00  0.00     0.323 C 
ATOM     17  H   UNL A   1      30.303  21.414  25.960  1.00  0.00     0.171 HD
ATOM     18  O   UNL A   1      29.423  22.940  27.647  1.00  0.00    -0.248 OA
ATOM     19  N   UNL A   1      30.947  24.408  26.900  1.00  0.00    -0.308 N 
ATOM     20  H   UNL A   1      30.841  24.932  27.726  1.00  0.00     0.171 HD
BRANCH  19  21
ATOM     21  C   UNL A   1      31.638  25.058  25.859  1.00  0.00     0.042 A 
ATOM     22  C   UNL A   1      30.931  25.381  24.697  1.00  0.00     0.027 A 
ATOM     23  C   UNL A   1      32.981  25.432  25.971  1.00  0.00     0.027 A 
ATOM     24  C   UNL A   1      31.528  26.177  23.716  1.00  0.00     0.018 A 
ATOM     25  C   UNL A   1      33.583  26.218  24.985  1.00  0.00     0.018 A 
ATOM     26  C   UNL A   1      32.843  26.611  23.875  1.00  0.00     0.018 A 
ATOM     27  Br  UNL A   1      33.629  27.757  22.594  1.00  0.00    -0.051 Br
ENDBRANCH  19  21
ENDBRANCH  14  15
ENDBRANCH   8   9
ENDBRANCH   6   8
ENDBRANCH   3   4
ENDBRANCH   2   3
ENDBRANCH   1   2
BRANCH   1  28
ATOM     28  C   UNL A   1      41.997  20.579  27.571  1.00  0.00     0.002 C 
BRANCH  28  29
ATOM     29  C   UNL A   1      42.543  19.362  26.827  1.00  0.00     0.021 C 
BRANCH  29  30
ATOM     30  C   UNL A   1      42.493  19.463  25.307  1.00  0.00     0.116 C 
BRANCH  30  31
ATOM     31  N   UNL A   1      43.671  18.908  24.655  1.00  0.00    -0.352 N 
ATOM     32  C   UNL A   1      44.848  19.532  24.303  1.00  0.00     0.251 C 
ATOM     33  H   UNL A   1      43.618  17.950  24.433  1.00  0.00     0.163 HD
ATOM     34  O   UNL A   1      45.688  18.942  23.643  1.00  0.00    -0.269 OA
BRANCH  32  35
ATOM     35  C   UNL A   1      45.074  20.938  24.709  1.00  0.00     0.039 A 
ATOM     36  C   UNL A   1      44.732  21.962  23.823  1.00  0.00     0.014 A 
ATOM     37  C   UNL A   1      45.606  21.244  25.963  1.00  0.00     0.014 A 
ATOM     38  C   UNL A   1      44.862  23.294  24.223  1.00  0.00     0.010 A 
ATOM     39  C   UNL A   1      45.647  22.565  26.394  1.00  0.00     0.010 A 
ATOM     40  C   UNL A   1      45.288  23.606  25.525  1.00  0.00    -0.014 A 
BRANCH  40  41
ATOM     41  C   UNL A   1      45.408  25.013  25.986  1.00  0.00     0.031 A 
ATOM     42  C   UNL A   1      46.746  25.702  25.940  1.00  0.00     0.074 A 
ATOM     43  C   UNL A   1      44.336  25.652  26.495  1.00  0.00     0.049 A 
ATOM     44  N   UNL A   1      47.085  26.890  26.374  1.00  0.00    -0.248 NA
ATOM     45  C   UNL A   1      47.864  24.937  25.360  1.00  0.00     0.031 C 
ATOM     46  C   UNL A   1      42.997  25.079  26.642  1.00  0.00     0.029 A 
ATOM     47  N   UNL A   1      44.207  26.925  26.995  1.00  0.00    -0.354 N 
ATOM     48  C   UNL A   1      48.446  27.008  26.125  1.00  0.00     0.074 A 
ATOM     49  C   UNL A   1      48.889  25.747  25.574  1.00  0.00     0.031 C 
ATOM     50  C   UNL A   1      42.179  26.000  27.176  1.00  0.00     0.029 A 
ATOM     51  C   UNL A   1      42.941  27.217  27.441  1.00  0.00     0.049 A 
ATOM     52  H   UNL A   1      44.952  27.568  27.029  1.00  0.00     0.167 HD
ATOM     53  C   UNL A   1      49.250  28.085  26.301  1.00  0.00     0.037 A 
ATOM     54  C   UNL A   1      42.453  28.339  28.004  1.00  0.00     0.037 A 
ATOM     55  C   UNL A   1      48.804  29.346  26.828  1.00  0.00     0.049 A 
ATOM     56  C   UNL A   1      43.369  29.522  28.188  1.00  0.00     0.074 A 
ATOM     57  C   UNL A   1      49.534  30.504  27.035  1.00  0.00     0.029 A 
ATOM     58  N   UNL A   1      47.502  29.619  27.220  1.00  0.00    -0.354 N 
ATOM     59  N   UNL A   1      44.644  29.637  27.902  1.00  0.00    -0.248 NA
ATOM     60  C   UNL A   1      42.773  30.740  28.755  1.00  0.00     0.031 C 
ATOM     61  C   UNL A   1      48.680  31.467  27.581  1.00  0.00     0.029 A 
ATOM     62  C   UNL A   1      47.408  30.927  27.665  1.00  0.00     0.049 A 
ATOM     63  H   UNL A   1      46.756  28.977  27.188  1.00  0.00     0.167 HD
ATOM     64  C   UNL A   1      44.990  30.945  28.214  1.00  0.00     0.074 A 
ATOM     65  C   UNL A   1      43.787  31.590  28.697  1.00  0.00     0.031 C 
ATOM     66  C   UNL A   1      46.194  31.559  28.113  1.00  0.00     0.037 A 
BRANCH  53  67
ATOM     67  C   UNL A   1      50.689  27.949  25.895  1.00  0.00     0.064 A 
ATOM     68  C   UNL A   1      51.083  28.085  24.554  1.00  0.00     0.173 A 
ATOM     69  C   UNL A   1      51.688  27.718  26.851  1.00  0.00     0.173 A 
ATOM     70  F   UNL A   1      50.165  28.290  23.598  1.00  0.00    -0.203 F 
ATOM     71  C   UNL A   1      52.420  27.970  24.183  1.00  0.00     0.198 A 
ATOM     72  C   UNL A   1      53.028  27.636  26.481  1.00  0.00     0.198 A 
ATOM     73  F   UNL A   1      51.368  27.583  28.146  1.00  0.00    -0.203 F 
ATOM     74  F   UNL A   1      52.765  28.055  22.891  1.00  0.00    -0.200 F 
ATOM     75  C   UNL A   1      53.392  27.755  25.148  1.00  0.00     0.200 A 
ATOM     76  F   UNL A   1      53.970  27.442  27.415  1.00  0.00    -0.200 F 
ATOM     77  F   UNL A   1      54.680  27.656  24.792  1.00  0.00    -0.200 F 
ENDBRANCH  53  67
BRANCH  54  78
ATOM     78  C   UNL A   1      41.027  28.417  28.420  1.00  0.00     0.064 A 
ATOM     79  C   UNL A   1      40.051  28.945  27.561  1.00  0.00     0.173 A 
ATOM     80  C   UNL A   1      40.615  28.004  29.695  1.00  0.00     0.173 A 
ATOM     81  F   UNL A   1      40.397  29.371  26.338  1.00  0.00    -0.203 F 
ATOM     82  C   UNL A   1      38.730  29.096  27.977  1.00  0.00     0.198 A 
ATOM     83  C   UNL A   1      39.287  28.124  30.098  1.00  0.00     0.198 A 
ATOM     84  F   UNL A   1      41.505  27.483  30.553  1.00  0.00    -0.203 F 
ATOM     85  F   UNL A   1      37.835  29.667  27.160  1.00  0.00    -0.200 F 
ATOM     86  C   UNL A   1      38.348  28.684  29.244  1.00  0.00     0.200 A 
ATOM     87  F   UNL A   1      38.918  27.709  31.317  1.00  0.00    -0.200 F 
ATOM     88  F   UNL A   1      37.079  28.835  29.646  1.00  0.00    -0.200 F 
ENDBRANCH  54  78
BRANCH  66  89
ATOM     89  C   UNL A   1      46.255  33.018  28.461  1.00  0.00     0.064 A 
ATOM     90  C   UNL A   1      46.028  34.019  27.506  1.00  0.00     0.173 A 
ATOM     91  C   UNL A   1      46.515  33.416  29.782  1.00  0.00     0.173 A 
ATOM     92  F   UNL A   1      45.786  33.692  26.228  1.00  0.00    -0.203 F 
ATOM     93  C   UNL A   1      46.096  35.366  27.853  1.00  0.00     0.198 A 
ATOM     94  C   UNL A   1      46.550  34.762  30.132  1.00  0.00     0.198 A 
ATOM     95  F   UNL A   1      46.730  32.497  30.736  1.00  0.00    -0.203 F 
ATOM     96  F   UNL A   1      45.933  36.308  26.913  1.00  0.00    -0.200 F 
ATOM     97  C   UNL A   1      46.350  35.736  29.166  1.00  0.00     0.200 A 
ATOM     98  F   UNL A   1      46.779  35.117  31.404  1.00  0.00    -0.200 F 
ATOM     99  F   UNL A   1      46.411  37.033  29.497  1.00  0.00    -0.200 F 
ENDBRANCH  66  89
ENDBRANCH  40  41
ENDBRANCH  32  35
ENDBRANCH  30  31
ENDBRANCH  29  30
ENDBRANCH  28  29
ENDBRANCH   1  28
TORSDOF 16
ENDMDL
MODEL 2
REMARK VINA RESULT:     -12.1      6.874     12.415
REMARK SMILES O=C(Cc1ccc(NC(=O)Nc2ccc(Br)cc2)cc1)NCCCCCCNC(=O)c1ccc(-c2c3nc(c(-c4c(F)c(F)c(F)c(F)c4F)c4ccc([nH]4)c(-c4c(F)c(F)c(F)c(F)c4F)c4nc(c(-c5c(F)c(F)c(F)c(F)c5F)c5ccc2[nH]5)C=C4)C=C3)cc1
REMARK SMILES IDX 24 1 23 2 22 3 21 4 1 5 2 6 3 8 4 9 5 10 20 11 6 12 19 13
REMARK SMILES IDX 7 14 8 15 9 16 10 18 11 19 12 21 13 22 18 23 14 24 17 25
REMARK SMILES IDX 15 26 16 27 25 28 26 29 27 30 28 31 29 32 30 34 31 35 32 36
REMARK SMILES IDX 93 37 33 38 92 39 34 40 35 41 36 42 86 43 37 44 91 45 85 46
REMARK SMILES IDX 87 47 38 48 90 49 84 50 83 51 39 53 71 54 51 55 70 56 52 57
REMARK SMILES IDX 55 58 69 59 88 60 53 61 54 62 68 64 89 65 56 66 40 67 41 68
REMARK SMILES IDX 49 69 42 70 43 71 47 72 50 73 44 74 45 75 48 76 46 77 72 78
REMARK SMILES IDX 73 79 81 80 74 81 75 82 79 83 82 84 76 85 77 86 80 87 78 88
REMARK SMILES IDX 57 89 58 90 66 91 59 92 60 93 64 94 67 95 61 96 62 97 65 98
REMARK SMILES IDX 63 99
REMARK H PARENT 21 7 8 17 11 20 28 33 87 52 55 63
REMARK Flexibility Score: inf
ROOT
ATOM      1  C   UNL A   1      35.350  33.399  28.161  1.00  0.00     0.002 C 
ENDROOT
BRANCH   1   2
ATOM      2  C   UNL A   1      35.397  31.931  27.729  1.00  0.00     0.021 C 
BRANCH   2   3
ATOM      3  C   UNL A   1      34.037  31.247  27.608  1.00  0.00     0.116 C 
BRANCH   3   4
ATOM      4  N   UNL A   1      34.065  30.051  26.789  1.00  0.00    -0.356 N 
ATOM      5  O   UNL A   1      32.055  30.475  25.751  1.00  0.00    -0.275 OA
ATOM      6  C   UNL A   1      33.089  29.818  25.833  1.00  0.00     0.224 C 
ATOM      7  H   UNL A   1      34.788  29.395  26.913  1.00  0.00     0.163 HD
BRANCH   6   8
ATOM      8  C   UNL A   1      33.440  28.726  24.836  1.00  0.00     0.135 C 
BRANCH   8   9
ATOM      9  C   UNL A   1      32.847  27.367  25.159  1.00  0.00    -0.039 A 
ATOM     10  C   UNL A   1      33.581  26.373  25.818  1.00  0.00     0.006 A 
ATOM     11  C   UNL A   1      31.490  27.120  24.897  1.00  0.00     0.006 A 
ATOM     12  C   UNL A   1      32.957  25.224  26.296  1.00  0.00     0.026 A 
ATOM     13  C   UNL A   1      30.863  25.964  25.382  1.00  0.00     0.026 A 
ATOM     14  C   UNL A   1      31.577  25.066  26.175  1.00  0.00     0.042 A 
BRANCH  14  15
ATOM     15  N   UNL A   1      30.872  24.068  26.875  1.00  0.00    -0.308 N 
ATOM     16  C   UNL A   1      30.348  22.892  26.419  1.00  0.00     0.323 C 
ATOM     17  H   UNL A   1      30.737  24.245  27.834  1.00  0.00     0.171 HD
ATOM     18  O   UNL A   1      29.392  22.384  27.010  1.00  0.00    -0.248 OA
ATOM     19  N   UNL A   1      30.857  22.272  25.313  1.00  0.00    -0.308 N 
ATOM     20  H   UNL A   1      30.212  21.737  24.796  1.00  0.00     0.171 HD
BRANCH  19  21
ATOM     21  C   UNL A   1      32.171  22.286  24.805  1.00  0.00     0.042 A 
ATOM     22  C   UNL A   1      32.399  22.920  23.580  1.00  0.00     0.027 A 
ATOM     23  C   UNL A   1      33.251  21.738  25.506  1.00  0.00     0.027 A 
ATOM     24  C   UNL A   1      33.708  23.110  23.127  1.00  0.00     0.018 A 
ATOM     25  C   UNL A   1      34.558  21.917  25.048  1.00  0.00     0.018 A 
ATOM     26  C   UNL A   1      34.782  22.627  23.874  1.00  0.00     0.018 A 
ATOM     27  Br  UNL A   1      36.555  22.954  23.310  1.00  0.00    -0.051 Br
ENDBRANCH  19  21
ENDBRANCH  14  15
ENDBRANCH   8   9
ENDBRANCH   6   8
ENDBRANCH   3   4
ENDBRANCH   2   3
ENDBRANCH   1   2
BRANCH   1  28
ATOM     28  C   UNL A   1      34.375  33.736  29.294  1.00  0.00     0.002 C 
BRANCH  28  29
ATOM     29  C   UNL A   1      33.244  34.696  28.931  1.00  0.00     0.021 C 
BRANCH  29  30
ATOM     30  C   UNL A   1      33.359  36.086  29.546  1.00  0.00     0.116 C 
BRANCH  30  31
ATOM     31  N   UNL A   1      32.427  36.309  30.641  1.00  0.00    -0.352 N 
ATOM     32  C   UNL A   1      32.483  35.855  31.941  1.00  0.00     0.251 C 
ATOM     33  H   UNL A   1      31.644  36.864  30.422  1.00  0.00     0.163 HD
ATOM     34  O   UNL A   1      31.545  36.031  32.700  1.00  0.00    -0.269 OA
BRANCH  32  35
ATOM     35  C   UNL A   1      33.684  35.121  32.403  1.00  0.00     0.039 A 
ATOM     36  C   UNL A   1      33.540  33.815  32.875  1.00  0.00     0.014 A 
ATOM     37  C   UNL A   1      34.947  35.714  32.354  1.00  0.00     0.014 A 
ATOM     38  C   UNL A   1      34.673  33.081  33.236  1.00  0.00     0.010 A 
ATOM     39  C   UNL A   1      36.080  34.953  32.623  1.00  0.00     0.010 A 
ATOM     40  C   UNL A   1      35.955  33.633  33.080  1.00  0.00    -0.014 A 
BRANCH  40  41
ATOM     41  C   UNL A   1      37.178  32.864  33.429  1.00  0.00     0.031 A 
ATOM     42  C   UNL A   1      37.900  33.156  34.718  1.00  0.00     0.074 A 
ATOM     43  C   UNL A   1      37.671  31.950  32.570  1.00  0.00     0.049 A 
ATOM     44  N   UNL A   1      39.027  32.666  35.169  1.00  0.00    -0.248 NA
ATOM     45  C   UNL A   1      37.290  34.162  35.604  1.00  0.00     0.031 C 
ATOM     46  C   UNL A   1      37.095  31.612  31.267  1.00  0.00     0.029 A 
ATOM     47  N   UNL A   1      38.778  31.144  32.660  1.00  0.00    -0.354 N 
ATOM     48  C   UNL A   1      39.259  33.305  36.379  1.00  0.00     0.074 A 
ATOM     49  C   UNL A   1      38.201  34.273  36.558  1.00  0.00     0.031 C 
ATOM     50  C   UNL A   1      37.840  30.657  30.690  1.00  0.00     0.029 A 
ATOM     51  C   UNL A   1      38.966  30.338  31.563  1.00  0.00     0.049 A 
ATOM     52  H   UNL A   1      39.381  31.142  33.439  1.00  0.00     0.167 HD
ATOM     53  C   UNL A   1      40.244  33.080  37.282  1.00  0.00     0.037 A 
ATOM     54  C   UNL A   1      39.940  29.448  31.292  1.00  0.00     0.037 A 
ATOM     55  C   UNL A   1      41.284  32.101  37.113  1.00  0.00     0.049 A 
ATOM     56  C   UNL A   1      41.023  29.216  32.315  1.00  0.00     0.074 A 
ATOM     57  C   UNL A   1      42.322  31.785  37.972  1.00  0.00     0.029 A 
ATOM     58  N   UNL A   1      41.410  31.269  36.011  1.00  0.00    -0.354 N 
ATOM     59  N   UNL A   1      41.203  29.794  33.478  1.00  0.00    -0.248 NA
ATOM     60  C   UNL A   1      42.028  28.193  31.994  1.00  0.00     0.031 C 
ATOM     61  C   UNL A   1      43.093  30.783  37.376  1.00  0.00     0.029 A 
ATOM     62  C   UNL A   1      42.506  30.438  36.170  1.00  0.00     0.049 A 
ATOM     63  H   UNL A   1      40.809  31.270  35.230  1.00  0.00     0.167 HD
ATOM     64  C   UNL A   1      42.311  29.178  34.043  1.00  0.00     0.074 A 
ATOM     65  C   UNL A   1      42.754  28.171  33.102  1.00  0.00     0.031 C 
ATOM     66  C   UNL A   1      42.912  29.422  35.235  1.00  0.00     0.037 A 
BRANCH  53  67
ATOM     67  C   UNL A   1      40.225  33.891  38.545  1.00  0.00     0.064 A 
ATOM     68  C   UNL A   1      39.471  33.486  39.659  1.00  0.00     0.173 A 
ATOM     69  C   UNL A   1      40.989  35.060  38.662  1.00  0.00     0.173 A 
ATOM     70  F   UNL A   1      38.710  32.384  39.595  1.00  0.00    -0.203 F 
ATOM     71  C   UNL A   1      39.466  34.235  40.832  1.00  0.00     0.198 A 
ATOM     72  C   UNL A   1      41.008  35.789  39.848  1.00  0.00     0.198 A 
ATOM     73  F   UNL A   1      41.730  35.491  37.630  1.00  0.00    -0.203 F 
ATOM     74  F   UNL A   1      38.701  33.854  41.864  1.00  0.00    -0.200 F 
ATOM     75  C   UNL A   1      40.241  35.380  40.929  1.00  0.00     0.200 A 
ATOM     76  F   UNL A   1      41.768  36.889  39.946  1.00  0.00    -0.200 F 
ATOM     77  F   UNL A   1      40.244  36.094  42.063  1.00  0.00    -0.200 F 
ENDBRANCH  53  67
BRANCH  54  78
ATOM     78  C   UNL A   1      39.934  28.689  30.013  1.00  0.00     0.064 A 
ATOM     79  C   UNL A   1      39.346  27.418  29.928  1.00  0.00     0.173 A 
ATOM     80  C   UNL A   1      40.550  29.198  28.861  1.00  0.00     0.173 A 
ATOM     81  F   UNL A   1      38.760  26.879  31.006  1.00  0.00    -0.203 F 
ATOM     82  C   UNL A   1      39.412  26.670  28.754  1.00  0.00     0.198 A 
ATOM     83  C   UNL A   1      40.586  28.463  27.677  1.00  0.00     0.198 A 
ATOM     84  F   UNL A   1      41.120  30.412  28.883  1.00  0.00    -0.203 F 
ATOM     85  F   UNL A   1      38.903  25.432  28.723  1.00  0.00    -0.200 F 
ATOM     86  C   UNL A   1      40.030  27.194  27.629  1.00  0.00     0.200 A 
ATOM     87  F   UNL A   1      41.169  28.980  26.587  1.00  0.00    -0.200 F 
ATOM     88  F   UNL A   1      40.099  26.472  26.502  1.00  0.00    -0.200 F 
ENDBRANCH  54  78
BRANCH  66  89
ATOM     89  C   UNL A   1      44.065  28.541  35.618  1.00  0.00     0.064 A 
ATOM     90  C   UNL A   1      43.885  27.361  36.355  1.00  0.00     0.173 A 
ATOM     91  C   UNL A   1      45.368  28.871  35.212  1.00  0.00     0.173 A 
ATOM     92  F   UNL A   1      42.662  27.007  36.776  1.00  0.00    -0.203 F 
ATOM     93  C   UNL A   1      44.972  26.564  36.703  1.00  0.00     0.198 A 
ATOM     94  C   UNL A   1      46.448  28.054  35.534  1.00  0.00     0.198 A 
ATOM     95  F   UNL A   1      45.593  29.983  34.497  1.00  0.00    -0.203 F 
ATOM     96  F   UNL A   1      44.785  25.471  37.458  1.00  0.00    -0.200 F 
ATOM     97  C   UNL A   1      46.250  26.907  36.288  1.00  0.00     0.200 A 
ATOM     98  F   UNL A   1      47.679  28.379  35.118  1.00  0.00    -0.200 F 
ATOM     99  F   UNL A   1      47.294  26.135  36.622  1.00  0.00    -0.200 F 
ENDBRANCH  66  89
ENDBRANCH  40  41
ENDBRANCH  32  35
ENDBRANCH  30  31
ENDBRANCH  29  30
ENDBRANCH  28  29
ENDBRANCH   1  28
TORSDOF 16
ENDMDL
MODEL 3
REMARK VINA RESULT:     -12.0      6.972     12.555
REMARK SMILES O=C(Cc1ccc(NC(=O)Nc2ccc(Br)cc2)cc1)NCCCCCCNC(=O)c1ccc(-c2c3nc(c(-c4c(F)c(F)c(F)c(F)c4F)c4ccc([nH]4)c(-c4c(F)c(F)c(F)c(F)c4F)c4nc(c(-c5c(F)c(F)c(F)c(F)c5F)c5ccc2[nH]5)C=C4)C=C3)cc1
REMARK SMILES IDX 24 1 23 2 22 3 21 4 1 5 2 6 3 8 4 9 5 10 20 11 6 12 19 13
REMARK SMILES IDX 7 14 8 15 9 16 10 18 11 19 12 21 13 22 18 23 14 24 17 25
REMARK SMILES IDX 15 26 16 27 25 28 26 29 27 30 28 31 29 32 30 34 31 35 32 36
REMARK SMILES IDX 93 37 33 38 92 39 34 40 35 41 36 42 86 43 37 44 91 45 85 46
REMARK SMILES IDX 87 47 38 48 90 49 84 50 83 51 39 53 71 54 51 55 70 56 52 57
REMARK SMILES IDX 55 58 69 59 88 60 53 61 54 62 68 64 89 65 56 66 40 67 41 68
REMARK SMILES IDX 49 69 42 70 43 71 47 72 50 73 44 74 45 75 48 76 46 77 72 78
REMARK SMILES IDX 73 79 81 80 74 81 75 82 79 83 82 84 76 85 77 86 80 87 78 88
REMARK SMILES IDX 57 89 58 90 66 91 59 92 60 93 64 94 67 95 61 96 62 97 65 98
REMARK SMILES IDX 63 99
REMARK H PARENT 21 7 8 17 11 20 28 33 87 52 55 63
REMARK Flexibility Score: inf
ROOT
ATOM      1  C   UNL A   1      34.575  33.679  28.762  1.00  0.00     0.002 C 
ENDROOT
BRANCH   1   2
ATOM      2  C   UNL A   1      34.489  32.163  28.958  1.00  0.00     0.021 C 
BRANCH   2   3
ATOM      3  C   UNL A   1      34.654  31.334  27.685  1.00  0.00     0.116 C 
BRANCH   3   4
ATOM      4  N   UNL A   1      33.856  30.125  27.679  1.00  0.00    -0.356 N 
ATOM      5  O   UNL A   1      31.964  31.140  26.852  1.00  0.00    -0.275 OA
ATOM      6  C   UNL A   1      32.574  30.118  27.152  1.00  0.00     0.224 C 
ATOM      7  H   UNL A   1      34.229  29.294  28.054  1.00  0.00     0.163 HD
BRANCH   6   8
ATOM      8  C   UNL A   1      32.008  28.730  26.901  1.00  0.00     0.135 C 
BRANCH   8   9
ATOM      9  C   UNL A   1      31.817  28.386  25.435  1.00  0.00    -0.039 A 
ATOM     10  C   UNL A   1      32.672  28.873  24.440  1.00  0.00     0.006 A 
ATOM     11  C   UNL A   1      30.826  27.465  25.062  1.00  0.00     0.006 A 
ATOM     12  C   UNL A   1      32.611  28.375  23.141  1.00  0.00     0.026 A 
ATOM     13  C   UNL A   1      30.769  26.961  23.754  1.00  0.00     0.026 A 
ATOM     14  C   UNL A   1      31.733  27.341  22.820  1.00  0.00     0.042 A 
BRANCH  14  15
ATOM     15  N   UNL A   1      31.826  26.625  21.611  1.00  0.00    -0.308 N 
ATOM     16  C   UNL A   1      32.813  25.790  21.169  1.00  0.00     0.323 C 
ATOM     17  H   UNL A   1      31.068  26.744  20.994  1.00  0.00     0.171 HD
ATOM     18  O   UNL A   1      32.975  25.631  19.957  1.00  0.00    -0.248 OA
ATOM     19  N   UNL A   1      33.631  25.135  22.045  1.00  0.00    -0.308 N 
ATOM     20  H   UNL A   1      34.537  24.943  21.711  1.00  0.00     0.171 HD
BRANCH  19  21
ATOM     21  C   UNL A   1      33.368  24.696  23.358  1.00  0.00     0.042 A 
ATOM     22  C   UNL A   1      32.436  23.668  23.536  1.00  0.00     0.027 A 
ATOM     23  C   UNL A   1      34.040  25.213  24.470  1.00  0.00     0.027 A 
ATOM     24  C   UNL A   1      32.275  23.085  24.796  1.00  0.00     0.018 A 
ATOM     25  C   UNL A   1      33.871  24.639  25.731  1.00  0.00     0.018 A 
ATOM     26  C   UNL A   1      33.009  23.558  25.882  1.00  0.00     0.018 A 
ATOM     27  Br  UNL A   1      32.859  22.719  27.569  1.00  0.00    -0.051 Br
ENDBRANCH  19  21
ENDBRANCH  14  15
ENDBRANCH   8   9
ENDBRANCH   6   8
ENDBRANCH   3   4
ENDBRANCH   2   3
ENDBRANCH   1   2
BRANCH   1  28
ATOM     28  C   UNL A   1      33.247  34.441  28.827  1.00  0.00     0.002 C 
BRANCH  28  29
ATOM     29  C   UNL A   1      33.349  35.961  28.717  1.00  0.00     0.021 C 
BRANCH  29  30
ATOM     30  C   UNL A   1      33.555  36.689  30.041  1.00  0.00     0.116 C 
BRANCH  30  31
ATOM     31  N   UNL A   1      32.467  36.484  30.985  1.00  0.00    -0.352 N 
ATOM     32  C   UNL A   1      32.421  35.678  32.101  1.00  0.00     0.251 C 
ATOM     33  H   UNL A   1      31.645  36.994  30.799  1.00  0.00     0.163 HD
ATOM     34  O   UNL A   1      31.377  35.526  32.713  1.00  0.00    -0.269 OA
BRANCH  32  35
ATOM     35  C   UNL A   1      33.647  34.971  32.537  1.00  0.00     0.039 A 
ATOM     36  C   UNL A   1      33.552  33.637  32.942  1.00  0.00     0.014 A 
ATOM     37  C   UNL A   1      34.885  35.615  32.531  1.00  0.00     0.014 A 
ATOM     38  C   UNL A   1      34.710  32.932  33.276  1.00  0.00     0.010 A 
ATOM     39  C   UNL A   1      36.045  34.888  32.773  1.00  0.00     0.010 A 
ATOM     40  C   UNL A   1      35.970  33.542  33.161  1.00  0.00    -0.014 A 
BRANCH  40  41
ATOM     41  C   UNL A   1      37.221  32.806  33.483  1.00  0.00     0.031 A 
ATOM     42  C   UNL A   1      37.956  33.109  34.761  1.00  0.00     0.074 A 
ATOM     43  C   UNL A   1      37.725  31.913  32.608  1.00  0.00     0.049 A 
ATOM     44  N   UNL A   1      39.105  32.647  35.189  1.00  0.00    -0.248 NA
ATOM     45  C   UNL A   1      37.333  34.089  35.667  1.00  0.00     0.031 C 
ATOM     46  C   UNL A   1      37.136  31.569  31.313  1.00  0.00     0.029 A 
ATOM     47  N   UNL A   1      38.856  31.138  32.673  1.00  0.00    -0.354 N 
ATOM     48  C   UNL A   1      39.339  33.284  36.400  1.00  0.00     0.074 A 
ATOM     49  C   UNL A   1      38.257  34.220  36.606  1.00  0.00     0.031 C 
ATOM     50  C   UNL A   1      37.899  30.640  30.715  1.00  0.00     0.029 A 
ATOM     51  C   UNL A   1      39.048  30.347  31.566  1.00  0.00     0.049 A 
ATOM     52  H   UNL A   1      39.472  31.147  33.441  1.00  0.00     0.167 HD
ATOM     53  C   UNL A   1      40.345  33.080  37.284  1.00  0.00     0.037 A 
ATOM     54  C   UNL A   1      40.042  29.487  31.272  1.00  0.00     0.037 A 
ATOM     55  C   UNL A   1      41.410  32.133  37.090  1.00  0.00     0.049 A 
ATOM     56  C   UNL A   1      41.148  29.278  32.274  1.00  0.00     0.074 A 
ATOM     57  C   UNL A   1      42.471  31.840  37.928  1.00  0.00     0.029 A 
ATOM     58  N   UNL A   1      41.541  31.314  35.979  1.00  0.00    -0.354 N 
ATOM     59  N   UNL A   1      41.332  29.852  33.439  1.00  0.00    -0.248 NA
ATOM     60  C   UNL A   1      42.177  28.288  31.927  1.00  0.00     0.031 C 
ATOM     61  C   UNL A   1      43.260  30.865  37.311  1.00  0.00     0.029 A 
ATOM     62  C   UNL A   1      42.663  30.513  36.113  1.00  0.00     0.049 A 
ATOM     63  H   UNL A   1      40.927  31.303  35.209  1.00  0.00     0.167 HD
ATOM     64  C   UNL A   1      42.467  29.264  33.980  1.00  0.00     0.074 A 
ATOM     65  C   UNL A   1      42.923  28.278  33.022  1.00  0.00     0.031 C 
ATOM     66  C   UNL A   1      43.081  29.516  35.162  1.00  0.00     0.037 A 
BRANCH  53  67
ATOM     67  C   UNL A   1      40.325  33.880  38.554  1.00  0.00     0.064 A 
ATOM     68  C   UNL A   1      39.579  33.461  39.668  1.00  0.00     0.173 A 
ATOM     69  C   UNL A   1      41.082  35.054  38.678  1.00  0.00     0.173 A 
ATOM     70  F   UNL A   1      38.824  32.354  39.597  1.00  0.00    -0.203 F 
ATOM     71  C   UNL A   1      39.571  34.200  40.847  1.00  0.00     0.198 A 
ATOM     72  C   UNL A   1      41.099  35.773  39.871  1.00  0.00     0.198 A 
ATOM     73  F   UNL A   1      41.816  35.499  37.647  1.00  0.00    -0.203 F 
ATOM     74  F   UNL A   1      38.813  33.805  41.879  1.00  0.00    -0.200 F 
ATOM     75  C   UNL A   1      40.339  35.350  40.951  1.00  0.00     0.200 A 
ATOM     76  F   UNL A   1      41.851  36.878  39.975  1.00  0.00    -0.200 F 
ATOM     77  F   UNL A   1      40.341  36.055  42.091  1.00  0.00    -0.200 F 
ENDBRANCH  53  67
BRANCH  54  78
ATOM     78  C   UNL A   1      40.036  28.738  29.986  1.00  0.00     0.064 A 
ATOM     79  C   UNL A   1      39.426  27.479  29.885  1.00  0.00     0.173 A 
ATOM     80  C   UNL A   1      40.673  29.245  28.844  1.00  0.00     0.173 A 
ATOM     81  F   UNL A   1      38.820  26.942  30.954  1.00  0.00    -0.203 F 
ATOM     82  C   UNL A   1      39.490  26.739  28.706  1.00  0.00     0.198 A 
ATOM     83  C   UNL A   1      40.707  28.518  27.656  1.00  0.00     0.198 A 
ATOM     84  F   UNL A   1      41.264  30.448  28.882  1.00  0.00    -0.203 F 
ATOM     85  F   UNL A   1      38.960  25.510  28.661  1.00  0.00    -0.200 F 
ATOM     86  C   UNL A   1      40.129  27.260  27.592  1.00  0.00     0.200 A 
ATOM     87  F   UNL A   1      41.311  29.033  26.576  1.00  0.00    -0.200 F 
ATOM     88  F   UNL A   1      40.197  26.545  26.460  1.00  0.00    -0.200 F 
ENDBRANCH  54  78
BRANCH  66  89
ATOM     89  C   UNL A   1      44.265  28.665  35.518  1.00  0.00     0.064 A 
ATOM     90  C   UNL A   1      45.568  29.005  35.127  1.00  0.00     0.173 A 
ATOM     91  C   UNL A   1      44.092  27.505  36.290  1.00  0.00     0.173 A 
ATOM     92  F   UNL A   1      45.786  30.097  34.379  1.00  0.00    -0.203 F 
ATOM     93  C   UNL A   1      46.650  28.196  35.465  1.00  0.00     0.198 A 
ATOM     94  C   UNL A   1      45.180  26.717  36.654  1.00  0.00     0.198 A 
ATOM     95  F   UNL A   1      42.867  27.141  36.698  1.00  0.00    -0.203 F 
ATOM     96  F   UNL A   1      47.880  28.509  35.031  1.00  0.00    -0.200 F 
ATOM     97  C   UNL A   1      46.456  27.057  36.232  1.00  0.00     0.200 A 
ATOM     98  F   UNL A   1      44.992  25.626  37.409  1.00  0.00    -0.200 F 
ATOM     99  F   UNL A   1      47.500  26.282  36.558  1.00  0.00    -0.200 F 
ENDBRANCH  66  89
ENDBRANCH  40  41
ENDBRANCH  32  35
ENDBRANCH  30  31
ENDBRANCH  29  30
ENDBRANCH  28  29
ENDBRANCH   1  28
TORSDOF 16
ENDMDL
