MODEL 1
REMARK VINA RESULT:     -12.7      0.000      0.000
REMARK SMILES CC(C)CN(C)c1cc2c(cc1Cl)C=C(C(=O)NCCCCCCNC(=O)c1ccc(-c3c4nc(c(-c5c(F)c(F)c(F)c(F)c5F)c5ccc([nH]5)c(-c5c(F)c(F)c(F)c(F)c5F)c5nc(c(-c6c(F)c(F)c(F)c(F)c6F)c6ccc3[nH]6)C=C5)C=C4)cc1)[C@H](C(F)(F)F)O2
REMARK SMILES IDX 21 1 20 2 19 3 18 4 16 5 17 6 15 8 7 9 8 10 12 11 9 12 11 13
REMARK SMILES IDX 13 14 10 15 96 16 14 17 91 18 5 19 6 20 4 21 2 22 1 23 3 24
REMARK SMILES IDX 92 25 93 26 94 27 95 28 22 29 23 30 24 31 25 32 26 33 27 35
REMARK SMILES IDX 28 36 29 37 90 38 30 39 89 40 31 41 32 42 33 43 83 44 34 45
REMARK SMILES IDX 88 46 82 47 84 48 35 49 87 50 81 51 80 52 36 54 68 55 48 56
REMARK SMILES IDX 67 57 49 58 52 59 66 60 85 61 50 62 51 63 65 65 86 66 53 67
REMARK SMILES IDX 37 68 38 69 46 70 39 71 40 72 44 73 47 74 41 75 42 76 45 77
REMARK SMILES IDX 43 78 69 79 70 80 78 81 71 82 72 83 76 84 79 85 73 86 74 87
REMARK SMILES IDX 77 88 75 89 54 90 55 91 63 92 56 93 57 94 61 95 64 96 58 97
REMARK SMILES IDX 59 98 62 99 60 100
REMARK H PARENT 18 7 25 34 84 53 52 64
REMARK Flexibility Score: inf
ROOT
ATOM      1  C   UNL A   1      37.127  21.863  24.284  1.00  0.00     0.002 C 
ENDROOT
BRANCH   1   2
ATOM      2  C   UNL A   1      37.581  23.061  25.127  1.00  0.00     0.021 C 
BRANCH   2   3
ATOM      3  C   UNL A   1      36.432  23.888  25.702  1.00  0.00     0.116 C 
BRANCH   3   4
ATOM      4  N   UNL A   1      35.622  23.071  26.582  1.00  0.00    -0.352 N 
ATOM      5  C   UNL A   1      34.304  22.952  26.854  1.00  0.00     0.251 C 
ATOM      6  O   UNL A   1      34.012  22.145  27.742  1.00  0.00    -0.270 OA
ATOM      7  H   UNL A   1      36.168  22.448  27.113  1.00  0.00     0.163 HD
BRANCH   5   8
ATOM      8  C   UNL A   1      33.224  23.680  26.131  1.00  0.00     0.067 C 
ATOM      9  C   UNL A   1      30.443  27.489  24.270  1.00  0.00     0.059 A 
ATOM     10  C   UNL A   1      30.437  26.091  24.122  1.00  0.00     0.074 A 
ATOM     11  C   UNL A   1      31.390  28.040  25.160  1.00  0.00     0.065 A 
ATOM     12  C   UNL A   1      31.357  25.284  24.796  1.00  0.00     0.130 A 
ATOM     13  C   UNL A   1      32.355  27.237  25.777  1.00  0.00     0.034 A 
ATOM     14  Cl  UNL A   1      31.390  29.716  25.593  1.00  0.00    -0.082 Cl
ATOM     15  C   UNL A   1      32.341  25.856  25.590  1.00  0.00     0.019 A 
ATOM     16  O   UNL A   1      31.228  23.942  24.613  1.00  0.00    -0.475 OA
ATOM     17  C   UNL A   1      33.337  25.015  26.224  1.00  0.00     0.025 C 
ATOM     18  C   UNL A   1      32.107  23.039  25.344  1.00  0.00     0.314 C 
BRANCH   9  19
ATOM     19  N   UNL A   1      29.547  28.284  23.537  1.00  0.00    -0.373 N 
ATOM     20  C   UNL A   1      28.225  27.696  23.330  1.00  0.00     0.143 C 
BRANCH  19  21
ATOM     21  C   UNL A   1      30.109  29.033  22.391  1.00  0.00     0.119 C 
BRANCH  21  22
ATOM     22  C   UNL A   1      29.463  30.422  22.202  1.00  0.00     0.002 C 
ATOM     23  C   UNL A   1      28.257  30.373  21.259  1.00  0.00     0.009 C 
ATOM     24  C   UNL A   1      29.022  31.018  23.542  1.00  0.00     0.009 C 
ENDBRANCH  21  22
ENDBRANCH  19  21
ENDBRANCH   9  19
BRANCH  18  25
ATOM     25  C   UNL A   1      32.550  21.947  24.350  1.00  0.00     0.429 C 
ATOM     26  F   UNL A   1      33.758  22.205  23.794  1.00  0.00    -0.167 F 
ATOM     27  F   UNL A   1      32.634  20.717  24.899  1.00  0.00    -0.167 F 
ATOM     28  F   UNL A   1      31.659  21.861  23.326  1.00  0.00    -0.167 F 
ENDBRANCH  18  25
ENDBRANCH   5   8
ENDBRANCH   3   4
ENDBRANCH   2   3
ENDBRANCH   1   2
BRANCH   1  29
ATOM     29  C   UNL A   1      37.009  20.539  25.046  1.00  0.00     0.002 C 
BRANCH  29  30
ATOM     30  C   UNL A   1      38.220  19.613  24.930  1.00  0.00     0.021 C 
BRANCH  30  31
ATOM     31  C   UNL A   1      39.414  20.022  25.783  1.00  0.00     0.116 C 
BRANCH  31  32
ATOM     32  N   UNL A   1      40.405  18.963  25.893  1.00  0.00    -0.352 N 
ATOM     33  C   UNL A   1      41.762  19.063  26.107  1.00  0.00     0.251 C 
ATOM     34  H   UNL A   1      40.057  18.048  25.802  1.00  0.00     0.163 HD
ATOM     35  O   UNL A   1      42.484  18.085  26.002  1.00  0.00    -0.269 OA
BRANCH  33  36
ATOM     36  C   UNL A   1      42.341  20.384  26.432  1.00  0.00     0.039 A 
ATOM     37  C   UNL A   1      42.299  20.870  27.741  1.00  0.00     0.014 A 
ATOM     38  C   UNL A   1      42.896  21.156  25.410  1.00  0.00     0.014 A 
ATOM     39  C   UNL A   1      42.656  22.190  27.993  1.00  0.00     0.010 A 
ATOM     40  C   UNL A   1      43.336  22.454  25.684  1.00  0.00     0.010 A 
ATOM     41  C   UNL A   1      43.173  22.998  26.969  1.00  0.00    -0.014 A 
BRANCH  41  42
ATOM     42  C   UNL A   1      43.531  24.410  27.265  1.00  0.00     0.031 A 
ATOM     43  C   UNL A   1      44.915  24.930  26.982  1.00  0.00     0.074 A 
ATOM     44  C   UNL A   1      42.582  25.240  27.740  1.00  0.00     0.049 A 
ATOM     45  N   UNL A   1      45.399  26.132  27.172  1.00  0.00    -0.248 NA
ATOM     46  C   UNL A   1      45.888  23.981  26.416  1.00  0.00     0.031 C 
ATOM     47  C   UNL A   1      41.204  24.854  28.048  1.00  0.00     0.029 A 
ATOM     48  N   UNL A   1      42.623  26.580  28.031  1.00  0.00    -0.354 N 
ATOM     49  C   UNL A   1      46.727  26.079  26.771  1.00  0.00     0.074 A 
ATOM     50  C   UNL A   1      46.987  24.720  26.346  1.00  0.00     0.031 C 
ATOM     51  C   UNL A   1      40.520  25.938  28.440  1.00  0.00     0.029 A 
ATOM     52  C   UNL A   1      41.423  27.083  28.475  1.00  0.00     0.049 A 
ATOM     53  H   UNL A   1      43.433  27.130  27.931  1.00  0.00     0.167 HD
ATOM     54  C   UNL A   1      47.642  27.077  26.746  1.00  0.00     0.037 A 
ATOM     55  C   UNL A   1      41.091  28.321  28.883  1.00  0.00     0.037 A 
ATOM     56  C   UNL A   1      47.369  28.437  27.133  1.00  0.00     0.049 A 
ATOM     57  C   UNL A   1      42.136  29.401  28.871  1.00  0.00     0.074 A 
ATOM     58  C   UNL A   1      48.223  29.526  27.103  1.00  0.00     0.029 A 
ATOM     59  N   UNL A   1      46.151  28.896  27.612  1.00  0.00    -0.354 N 
ATOM     60  N   UNL A   1      43.382  29.339  28.469  1.00  0.00    -0.248 NA
ATOM     61  C   UNL A   1      41.734  30.721  29.376  1.00  0.00     0.031 C 
ATOM     62  C   UNL A   1      47.537  30.634  27.606  1.00  0.00     0.029 A 
ATOM     63  C   UNL A   1      46.241  30.248  27.904  1.00  0.00     0.049 A 
ATOM     64  H   UNL A   1      45.345  28.344  27.729  1.00  0.00     0.167 HD
ATOM     65  C   UNL A   1      43.908  30.609  28.661  1.00  0.00     0.074 A 
ATOM     66  C   UNL A   1      42.840  31.429  29.191  1.00  0.00     0.031 C 
ATOM     67  C   UNL A   1      45.166  31.051  28.425  1.00  0.00     0.037 A 
BRANCH  54  68
ATOM     68  C   UNL A   1      49.032  26.761  26.282  1.00  0.00     0.064 A 
ATOM     69  C   UNL A   1      49.965  26.148  27.130  1.00  0.00     0.173 A 
ATOM     70  C   UNL A   1      49.394  26.962  24.940  1.00  0.00     0.173 A 
ATOM     71  F   UNL A   1      49.671  25.943  28.423  1.00  0.00    -0.203 F 
ATOM     72  C   UNL A   1      51.210  25.745  26.651  1.00  0.00     0.198 A 
ATOM     73  C   UNL A   1      50.629  26.537  24.460  1.00  0.00     0.198 A 
ATOM     74  F   UNL A   1      48.533  27.537  24.088  1.00  0.00    -0.203 F 
ATOM     75  F   UNL A   1      52.092  25.173  27.481  1.00  0.00    -0.200 F 
ATOM     76  C   UNL A   1      51.535  25.928  25.315  1.00  0.00     0.200 A 
ATOM     77  F   UNL A   1      50.936  26.700  23.165  1.00  0.00    -0.200 F 
ATOM     78  F   UNL A   1      52.723  25.514  24.850  1.00  0.00    -0.200 F 
ENDBRANCH  54  68
BRANCH  55  79
ATOM     79  C   UNL A   1      39.708  28.599  29.351  1.00  0.00     0.064 A 
ATOM     80  C   UNL A   1      38.733  29.095  28.475  1.00  0.00     0.173 A 
ATOM     81  C   UNL A   1      39.332  28.368  30.683  1.00  0.00     0.173 A 
ATOM     82  F   UNL A   1      39.049  29.351  27.197  1.00  0.00    -0.203 F 
ATOM     83  C   UNL A   1      37.439  29.362  28.918  1.00  0.00     0.198 A 
ATOM     84  C   UNL A   1      38.031  28.605  31.117  1.00  0.00     0.198 A 
ATOM     85  F   UNL A   1      40.228  27.892  31.561  1.00  0.00    -0.203 F 
ATOM     86  F   UNL A   1      36.537  29.877  28.070  1.00  0.00    -0.200 F 
ATOM     87  C   UNL A   1      37.086  29.111  30.235  1.00  0.00     0.200 A 
ATOM     88  F   UNL A   1      37.691  28.344  32.386  1.00  0.00    -0.200 F 
ATOM     89  F   UNL A   1      35.840  29.360  30.658  1.00  0.00    -0.200 F 
ENDBRANCH  55  79
BRANCH  67  90
ATOM     90  C   UNL A   1      45.462  32.490  28.726  1.00  0.00     0.064 A 
ATOM     91  C   UNL A   1      46.028  32.878  29.949  1.00  0.00     0.173 A 
ATOM     92  C   UNL A   1      45.248  33.479  27.754  1.00  0.00     0.173 A 
ATOM     93  F   UNL A   1      46.238  31.969  30.913  1.00  0.00    -0.203 F 
ATOM     94  C   UNL A   1      46.358  34.208  30.193  1.00  0.00     0.198 A 
ATOM     95  C   UNL A   1      45.606  34.803  27.991  1.00  0.00     0.198 A 
ATOM     96  F   UNL A   1      44.717  33.156  26.566  1.00  0.00    -0.203 F 
ATOM     97  F   UNL A   1      46.869  34.562  31.380  1.00  0.00    -0.200 F 
ATOM     98  C   UNL A   1      46.157  35.167  29.211  1.00  0.00     0.200 A 
ATOM     99  F   UNL A   1      45.425  35.726  27.035  1.00  0.00    -0.200 F 
ATOM    100  F   UNL A   1      46.492  36.443  29.441  1.00  0.00    -0.200 F 
ENDBRANCH  67  90
ENDBRANCH  41  42
ENDBRANCH  33  36
ENDBRANCH  31  32
ENDBRANCH  30  31
ENDBRANCH  29  30
ENDBRANCH   1  29
TORSDOF 17
ENDMDL
MODEL 2
REMARK VINA RESULT:     -12.6      0.275      7.050
REMARK SMILES CC(C)CN(C)c1cc2c(cc1Cl)C=C(C(=O)NCCCCCCNC(=O)c1ccc(-c3c4nc(c(-c5c(F)c(F)c(F)c(F)c5F)c5ccc([nH]5)c(-c5c(F)c(F)c(F)c(F)c5F)c5nc(c(-c6c(F)c(F)c(F)c(F)c6F)c6ccc3[nH]6)C=C5)C=C4)cc1)[C@H](C(F)(F)F)O2
REMARK SMILES IDX 21 1 20 2 19 3 18 4 16 5 17 6 15 8 7 9 8 10 12 11 9 12 11 13
REMARK SMILES IDX 13 14 10 15 96 16 14 17 91 18 5 19 6 20 4 21 2 22 1 23 3 24
REMARK SMILES IDX 92 25 93 26 94 27 95 28 22 29 23 30 24 31 25 32 26 33 27 35
REMARK SMILES IDX 28 36 29 37 90 38 30 39 89 40 31 41 32 42 33 43 83 44 34 45
REMARK SMILES IDX 88 46 82 47 84 48 35 49 87 50 81 51 80 52 36 54 68 55 48 56
REMARK SMILES IDX 67 57 49 58 52 59 66 60 85 61 50 62 51 63 65 65 86 66 53 67
REMARK SMILES IDX 37 68 38 69 46 70 39 71 40 72 44 73 47 74 41 75 42 76 45 77
REMARK SMILES IDX 43 78 69 79 70 80 78 81 71 82 72 83 76 84 79 85 73 86 74 87
REMARK SMILES IDX 77 88 75 89 54 90 55 91 63 92 56 93 57 94 61 95 64 96 58 97
REMARK SMILES IDX 59 98 62 99 60 100
REMARK H PARENT 18 7 25 34 84 53 52 64
REMARK Flexibility Score: inf
ROOT
ATOM      1  C   UNL A   1      37.280  21.823  24.323  1.00  0.00     0.002 C 
ENDROOT
BRANCH   1   2
ATOM      2  C   UNL A   1      37.584  22.991  25.270  1.00  0.00     0.021 C 
BRANCH   2   3
ATOM      3  C   UNL A   1      36.344  23.757  25.730  1.00  0.00     0.116 C 
BRANCH   3   4
ATOM      4  N   UNL A   1      35.514  22.909  26.560  1.00  0.00    -0.352 N 
ATOM      5  C   UNL A   1      34.190  22.782  26.799  1.00  0.00     0.251 C 
ATOM      6  O   UNL A   1      33.878  21.942  27.648  1.00  0.00    -0.270 OA
ATOM      7  H   UNL A   1      36.047  22.263  27.078  1.00  0.00     0.163 HD
BRANCH   5   8
ATOM      8  C   UNL A   1      33.128  23.541  26.082  1.00  0.00     0.067 C 
ATOM      9  C   UNL A   1      30.427  27.429  24.266  1.00  0.00     0.059 A 
ATOM     10  C   UNL A   1      30.395  26.033  24.097  1.00  0.00     0.074 A 
ATOM     11  C   UNL A   1      31.379  27.949  25.169  1.00  0.00     0.065 A 
ATOM     12  C   UNL A   1      31.297  25.199  24.763  1.00  0.00     0.130 A 
ATOM     13  C   UNL A   1      32.326  27.118  25.778  1.00  0.00     0.034 A 
ATOM     14  Cl  UNL A   1      31.407  29.618  25.627  1.00  0.00    -0.082 Cl
ATOM     15  C   UNL A   1      32.287  25.741  25.570  1.00  0.00     0.019 A 
ATOM     16  O   UNL A   1      31.144  23.863  24.558  1.00  0.00    -0.475 OA
ATOM     17  C   UNL A   1      33.264  24.872  26.196  1.00  0.00     0.025 C 
ATOM     18  C   UNL A   1      32.003  22.933  25.280  1.00  0.00     0.314 C 
BRANCH   9  19
ATOM     19  N   UNL A   1      29.549  28.251  23.541  1.00  0.00    -0.373 N 
ATOM     20  C   UNL A   1      28.200  27.714  23.366  1.00  0.00     0.143 C 
BRANCH  19  21
ATOM     21  C   UNL A   1      30.118  28.965  22.376  1.00  0.00     0.119 C 
BRANCH  21  22
ATOM     22  C   UNL A   1      29.569  30.398  22.219  1.00  0.00     0.002 C 
ATOM     23  C   UNL A   1      28.382  30.457  21.252  1.00  0.00     0.009 C 
ATOM     24  C   UNL A   1      29.140  30.982  23.568  1.00  0.00     0.009 C 
ENDBRANCH  21  22
ENDBRANCH  19  21
ENDBRANCH   9  19
BRANCH  18  25
ATOM     25  C   UNL A   1      32.431  21.848  24.272  1.00  0.00     0.429 C 
ATOM     26  F   UNL A   1      31.752  21.923  23.103  1.00  0.00    -0.167 F 
ATOM     27  F   UNL A   1      33.743  21.887  23.958  1.00  0.00    -0.167 F 
ATOM     28  F   UNL A   1      32.186  20.613  24.787  1.00  0.00    -0.167 F 
ENDBRANCH  18  25
ENDBRANCH   5   8
ENDBRANCH   3   4
ENDBRANCH   2   3
ENDBRANCH   1   2
BRANCH   1  29
ATOM     29  C   UNL A   1      37.031  20.476  25.010  1.00  0.00     0.002 C 
BRANCH  29  30
ATOM     30  C   UNL A   1      38.209  19.503  24.978  1.00  0.00     0.021 C 
BRANCH  30  31
ATOM     31  C   UNL A   1      39.429  19.959  25.768  1.00  0.00     0.116 C 
BRANCH  31  32
ATOM     32  N   UNL A   1      40.415  18.902  25.924  1.00  0.00    -0.352 N 
ATOM     33  C   UNL A   1      41.774  19.004  26.125  1.00  0.00     0.251 C 
ATOM     34  H   UNL A   1      40.062  17.985  25.882  1.00  0.00     0.163 HD
ATOM     35  O   UNL A   1      42.490  18.018  26.065  1.00  0.00    -0.269 OA
BRANCH  33  36
ATOM     36  C   UNL A   1      42.362  20.337  26.380  1.00  0.00     0.039 A 
ATOM     37  C   UNL A   1      42.280  20.914  27.650  1.00  0.00     0.014 A 
ATOM     38  C   UNL A   1      42.967  21.029  25.328  1.00  0.00     0.014 A 
ATOM     39  C   UNL A   1      42.649  22.242  27.824  1.00  0.00     0.010 A 
ATOM     40  C   UNL A   1      43.417  22.336  25.530  1.00  0.00     0.010 A 
ATOM     41  C   UNL A   1      43.217  22.970  26.767  1.00  0.00    -0.014 A 
BRANCH  41  42
ATOM     42  C   UNL A   1      43.586  24.395  26.977  1.00  0.00     0.031 A 
ATOM     43  C   UNL A   1      42.589  25.375  27.535  1.00  0.00     0.074 A 
ATOM     44  C   UNL A   1      44.847  24.790  26.714  1.00  0.00     0.049 A 
ATOM     45  N   UNL A   1      42.742  26.651  27.788  1.00  0.00    -0.248 NA
ATOM     46  C   UNL A   1      41.245  24.864  27.847  1.00  0.00     0.031 C 
ATOM     47  C   UNL A   1      45.904  23.929  26.177  1.00  0.00     0.029 A 
ATOM     48  N   UNL A   1      45.462  26.005  26.877  1.00  0.00    -0.354 N 
ATOM     49  C   UNL A   1      41.516  27.096  28.266  1.00  0.00     0.074 A 
ATOM     50  C   UNL A   1      40.618  25.961  28.249  1.00  0.00     0.031 C 
ATOM     51  C   UNL A   1      47.044  24.629  26.098  1.00  0.00     0.029 A 
ATOM     52  C   UNL A   1      46.788  26.003  26.515  1.00  0.00     0.049 A 
ATOM     53  H   UNL A   1      44.998  26.802  27.221  1.00  0.00     0.167 HD
ATOM     54  C   UNL A   1      41.178  28.335  28.694  1.00  0.00     0.037 A 
ATOM     55  C   UNL A   1      47.692  27.000  26.503  1.00  0.00     0.037 A 
ATOM     56  C   UNL A   1      42.085  29.452  28.746  1.00  0.00     0.049 A 
ATOM     57  C   UNL A   1      47.277  28.371  26.957  1.00  0.00     0.074 A 
ATOM     58  C   UNL A   1      41.840  30.736  29.202  1.00  0.00     0.029 A 
ATOM     59  N   UNL A   1      43.408  29.418  28.335  1.00  0.00    -0.354 N 
ATOM     60  N   UNL A   1      46.120  28.770  27.426  1.00  0.00    -0.248 NA
ATOM     61  C   UNL A   1      48.289  29.433  26.872  1.00  0.00     0.031 C 
ATOM     62  C   UNL A   1      43.002  31.491  29.026  1.00  0.00     0.029 A 
ATOM     63  C   UNL A   1      43.986  30.666  28.506  1.00  0.00     0.049 A 
ATOM     64  H   UNL A   1      43.869  28.626  27.975  1.00  0.00     0.167 HD
ATOM     65  C   UNL A   1      46.267  30.121  27.703  1.00  0.00     0.074 A 
ATOM     66  C   UNL A   1      47.633  30.471  27.374  1.00  0.00     0.031 C 
ATOM     67  C   UNL A   1      45.348  30.995  28.179  1.00  0.00     0.037 A 
BRANCH  54  68
ATOM     68  C   UNL A   1      39.769  28.572  29.152  1.00  0.00     0.064 A 
ATOM     69  C   UNL A   1      39.387  28.364  30.484  1.00  0.00     0.173 A 
ATOM     70  C   UNL A   1      38.825  29.130  28.275  1.00  0.00     0.173 A 
ATOM     71  F   UNL A   1      40.250  27.824  31.358  1.00  0.00    -0.203 F 
ATOM     72  C   UNL A   1      38.111  28.707  30.924  1.00  0.00     0.198 A 
ATOM     73  C   UNL A   1      37.558  29.493  28.724  1.00  0.00     0.198 A 
ATOM     74  F   UNL A   1      39.145  29.357  26.993  1.00  0.00    -0.203 F 
ATOM     75  F   UNL A   1      37.762  28.487  32.199  1.00  0.00    -0.200 F 
ATOM     76  C   UNL A   1      37.203  29.283  30.048  1.00  0.00     0.200 A 
ATOM     77  F   UNL A   1      36.687  30.065  27.880  1.00  0.00    -0.200 F 
ATOM     78  F   UNL A   1      35.985  29.640  30.480  1.00  0.00    -0.200 F 
ENDBRANCH  54  68
BRANCH  55  79
ATOM     79  C   UNL A   1      49.076  26.736  26.030  1.00  0.00     0.064 A 
ATOM     80  C   UNL A   1      49.441  26.966  24.697  1.00  0.00     0.173 A 
ATOM     81  C   UNL A   1      50.063  26.254  26.903  1.00  0.00     0.173 A 
ATOM     82  F   UNL A   1      48.528  27.406  23.819  1.00  0.00    -0.203 F 
ATOM     83  C   UNL A   1      50.738  26.710  24.252  1.00  0.00     0.198 A 
ATOM     84  C   UNL A   1      51.365  26.029  26.466  1.00  0.00     0.198 A 
ATOM     85  F   UNL A   1      49.765  26.019  28.190  1.00  0.00    -0.203 F 
ATOM     86  F   UNL A   1      51.049  26.897  22.962  1.00  0.00    -0.200 F 
ATOM     87  C   UNL A   1      51.700  26.249  25.138  1.00  0.00     0.200 A 
ATOM     88  F   UNL A   1      52.296  25.600  27.330  1.00  0.00    -0.200 F 
ATOM     89  F   UNL A   1      52.948  26.011  24.712  1.00  0.00    -0.200 F 
ENDBRANCH  55  79
BRANCH  67  90
ATOM     90  C   UNL A   1      45.785  32.414  28.389  1.00  0.00     0.064 A 
ATOM     91  C   UNL A   1      45.618  33.383  27.389  1.00  0.00     0.173 A 
ATOM     92  C   UNL A   1      46.306  32.825  29.625  1.00  0.00     0.173 A 
ATOM     93  F   UNL A   1      45.136  33.036  26.186  1.00  0.00    -0.203 F 
ATOM     94  C   UNL A   1      45.968  34.711  27.617  1.00  0.00     0.198 A 
ATOM     95  C   UNL A   1      46.628  34.158  29.858  1.00  0.00     0.198 A 
ATOM     96  F   UNL A   1      46.477  31.936  30.615  1.00  0.00    -0.203 F 
ATOM     97  F   UNL A   1      45.828  35.615  26.638  1.00  0.00    -0.200 F 
ATOM     98  C   UNL A   1      46.462  35.100  28.854  1.00  0.00     0.200 A 
ATOM     99  F   UNL A   1      47.091  34.534  31.059  1.00  0.00    -0.200 F 
ATOM    100  F   UNL A   1      46.782  36.381  29.077  1.00  0.00    -0.200 F 
ENDBRANCH  67  90
ENDBRANCH  41  42
ENDBRANCH  33  36
ENDBRANCH  31  32
ENDBRANCH  30  31
ENDBRANCH  29  30
ENDBRANCH   1  29
TORSDOF 17
ENDMDL
MODEL 3
REMARK VINA RESULT:     -12.6      0.547      1.682
REMARK SMILES CC(C)CN(C)c1cc2c(cc1Cl)C=C(C(=O)NCCCCCCNC(=O)c1ccc(-c3c4nc(c(-c5c(F)c(F)c(F)c(F)c5F)c5ccc([nH]5)c(-c5c(F)c(F)c(F)c(F)c5F)c5nc(c(-c6c(F)c(F)c(F)c(F)c6F)c6ccc3[nH]6)C=C5)C=C4)cc1)[C@H](C(F)(F)F)O2
REMARK SMILES IDX 21 1 20 2 19 3 18 4 16 5 17 6 15 8 7 9 8 10 12 11 9 12 11 13
REMARK SMILES IDX 13 14 10 15 96 16 14 17 91 18 5 19 6 20 4 21 2 22 1 23 3 24
REMARK SMILES IDX 92 25 93 26 94 27 95 28 22 29 23 30 24 31 25 32 26 33 27 35
REMARK SMILES IDX 28 36 29 37 90 38 30 39 89 40 31 41 32 42 33 43 83 44 34 45
REMARK SMILES IDX 88 46 82 47 84 48 35 49 87 50 81 51 80 52 36 54 68 55 48 56
REMARK SMILES IDX 67 57 49 58 52 59 66 60 85 61 50 62 51 63 65 65 86 66 53 67
REMARK SMILES IDX 37 68 38 69 46 70 39 71 40 72 44 73 47 74 41 75 42 76 45 77
REMARK SMILES IDX 43 78 69 79 70 80 78 81 71 82 72 83 76 84 79 85 73 86 74 87
REMARK SMILES IDX 77 88 75 89 54 90 55 91 63 92 56 93 57 94 61 95 64 96 58 97
REMARK SMILES IDX 59 98 62 99 60 100
REMARK H PARENT 18 7 25 34 84 53 52 64
REMARK Flexibility Score: inf
ROOT
ATOM      1  C   UNL A   1      37.121  22.094  24.211  1.00  0.00     0.002 C 
ENDROOT
BRANCH   1   2
ATOM      2  C   UNL A   1      37.102  23.399  25.017  1.00  0.00     0.021 C 
BRANCH   2   3
ATOM      3  C   UNL A   1      35.737  24.084  25.058  1.00  0.00     0.116 C 
BRANCH   3   4
ATOM      4  N   UNL A   1      34.918  23.502  26.102  1.00  0.00    -0.352 N 
ATOM      5  C   UNL A   1      33.630  23.604  26.494  1.00  0.00     0.251 C 
ATOM      6  O   UNL A   1      33.324  22.959  27.502  1.00  0.00    -0.270 OA
ATOM      7  H   UNL A   1      35.428  22.876  26.665  1.00  0.00     0.163 HD
BRANCH   5   8
ATOM      8  C   UNL A   1      32.587  24.384  25.770  1.00  0.00     0.067 C 
ATOM      9  C   UNL A   1      30.001  28.325  23.901  1.00  0.00     0.059 A 
ATOM     10  C   UNL A   1      29.923  26.928  23.758  1.00  0.00     0.074 A 
ATOM     11  C   UNL A   1      30.977  28.829  24.788  1.00  0.00     0.065 A 
ATOM     12  C   UNL A   1      30.801  26.077  24.433  1.00  0.00     0.130 A 
ATOM     13  C   UNL A   1      31.900  27.979  25.406  1.00  0.00     0.034 A 
ATOM     14  Cl  UNL A   1      31.063  30.504  25.216  1.00  0.00    -0.082 Cl
ATOM     15  C   UNL A   1      31.815  26.601  25.224  1.00  0.00     0.019 A 
ATOM     16  O   UNL A   1      30.604  24.743  24.254  1.00  0.00    -0.475 OA
ATOM     17  C   UNL A   1      32.768  25.712  25.859  1.00  0.00     0.025 C 
ATOM     18  C   UNL A   1      31.437  23.799  24.987  1.00  0.00     0.314 C 
BRANCH   9  19
ATOM     19  N   UNL A   1      29.146  29.162  23.168  1.00  0.00    -0.373 N 
ATOM     20  C   UNL A   1      27.825  28.602  22.884  1.00  0.00     0.143 C 
BRANCH  19  21
ATOM     21  C   UNL A   1      29.763  29.950  22.077  1.00  0.00     0.119 C 
BRANCH  21  22
ATOM     22  C   UNL A   1      29.162  31.364  21.940  1.00  0.00     0.002 C 
ATOM     23  C   UNL A   1      28.092  31.432  20.846  1.00  0.00     0.009 C 
ATOM     24  C   UNL A   1      28.553  31.843  23.261  1.00  0.00     0.009 C 
ENDBRANCH  21  22
ENDBRANCH  19  21
ENDBRANCH   9  19
BRANCH  18  25
ATOM     25  C   UNL A   1      31.822  22.682  23.996  1.00  0.00     0.429 C 
ATOM     26  F   UNL A   1      30.978  22.606  22.940  1.00  0.00    -0.167 F 
ATOM     27  F   UNL A   1      33.065  22.813  23.487  1.00  0.00    -0.167 F 
ATOM     28  F   UNL A   1      31.777  21.473  24.619  1.00  0.00    -0.167 F 
ENDBRANCH  18  25
ENDBRANCH   5   8
ENDBRANCH   3   4
ENDBRANCH   2   3
ENDBRANCH   1   2
BRANCH   1  29
ATOM     29  C   UNL A   1      36.938  20.816  25.036  1.00  0.00     0.002 C 
BRANCH  29  30
ATOM     30  C   UNL A   1      38.102  19.829  24.970  1.00  0.00     0.021 C 
BRANCH  30  31
ATOM     31  C   UNL A   1      39.304  20.206  25.827  1.00  0.00     0.116 C 
BRANCH  31  32
ATOM     32  N   UNL A   1      40.295  19.145  25.892  1.00  0.00    -0.352 N 
ATOM     33  C   UNL A   1      41.656  19.238  26.076  1.00  0.00     0.251 C 
ATOM     34  H   UNL A   1      39.943  18.232  25.791  1.00  0.00     0.163 HD
ATOM     35  O   UNL A   1      42.375  18.261  25.934  1.00  0.00    -0.269 OA
BRANCH  33  36
ATOM     36  C   UNL A   1      42.246  20.552  26.415  1.00  0.00     0.039 A 
ATOM     37  C   UNL A   1      42.303  20.978  27.744  1.00  0.00     0.014 A 
ATOM     38  C   UNL A   1      42.709  21.377  25.389  1.00  0.00     0.014 A 
ATOM     39  C   UNL A   1      42.664  22.289  28.028  1.00  0.00     0.010 A 
ATOM     40  C   UNL A   1      43.155  22.667  25.687  1.00  0.00     0.010 A 
ATOM     41  C   UNL A   1      43.090  23.150  27.004  1.00  0.00    -0.014 A 
BRANCH  41  42
ATOM     42  C   UNL A   1      43.455  24.553  27.336  1.00  0.00     0.031 A 
ATOM     43  C   UNL A   1      44.840  25.074  27.059  1.00  0.00     0.074 A 
ATOM     44  C   UNL A   1      42.512  25.373  27.838  1.00  0.00     0.049 A 
ATOM     45  N   UNL A   1      45.329  26.269  27.279  1.00  0.00    -0.248 NA
ATOM     46  C   UNL A   1      45.805  24.137  26.463  1.00  0.00     0.031 C 
ATOM     47  C   UNL A   1      41.133  24.984  28.142  1.00  0.00     0.029 A 
ATOM     48  N   UNL A   1      42.559  26.705  28.164  1.00  0.00    -0.354 N 
ATOM     49  C   UNL A   1      46.655  26.221  26.870  1.00  0.00     0.074 A 
ATOM     50  C   UNL A   1      46.907  24.873  26.408  1.00  0.00     0.031 C 
ATOM     51  C   UNL A   1      40.455  26.060  28.567  1.00  0.00     0.029 A 
ATOM     52  C   UNL A   1      41.364  27.200  28.628  1.00  0.00     0.049 A 
ATOM     53  H   UNL A   1      43.371  27.254  28.075  1.00  0.00     0.167 HD
ATOM     54  C   UNL A   1      47.573  27.216  26.866  1.00  0.00     0.037 A 
ATOM     55  C   UNL A   1      41.039  28.429  29.070  1.00  0.00     0.037 A 
ATOM     56  C   UNL A   1      47.308  28.567  27.291  1.00  0.00     0.049 A 
ATOM     57  C   UNL A   1      42.088  29.504  29.081  1.00  0.00     0.074 A 
ATOM     58  C   UNL A   1      48.166  29.653  27.285  1.00  0.00     0.029 A 
ATOM     59  N   UNL A   1      46.095  29.017  27.788  1.00  0.00    -0.354 N 
ATOM     60  N   UNL A   1      43.332  29.448  28.671  1.00  0.00    -0.248 NA
ATOM     61  C   UNL A   1      41.693  30.812  29.624  1.00  0.00     0.031 C 
ATOM     62  C   UNL A   1      47.487  30.750  27.822  1.00  0.00     0.029 A 
ATOM     63  C   UNL A   1      46.191  30.361  28.116  1.00  0.00     0.049 A 
ATOM     64  H   UNL A   1      45.286  28.465  27.895  1.00  0.00     0.167 HD
ATOM     65  C   UNL A   1      43.864  30.710  28.894  1.00  0.00     0.074 A 
ATOM     66  C   UNL A   1      42.802  31.520  29.452  1.00  0.00     0.031 C 
ATOM     67  C   UNL A   1      45.123  31.154  28.664  1.00  0.00     0.037 A 
BRANCH  54  68
ATOM     68  C   UNL A   1      48.960  26.907  26.387  1.00  0.00     0.064 A 
ATOM     69  C   UNL A   1      49.924  26.355  27.242  1.00  0.00     0.173 A 
ATOM     70  C   UNL A   1      49.288  27.052  25.029  1.00  0.00     0.173 A 
ATOM     71  F   UNL A   1      49.662  26.205  28.549  1.00  0.00    -0.203 F 
ATOM     72  C   UNL A   1      51.166  25.956  26.754  1.00  0.00     0.198 A 
ATOM     73  C   UNL A   1      50.522  26.631  24.542  1.00  0.00     0.198 A 
ATOM     74  F   UNL A   1      48.397  27.568  24.170  1.00  0.00    -0.203 F 
ATOM     75  F   UNL A   1      52.078  25.441  27.591  1.00  0.00    -0.200 F 
ATOM     76  C   UNL A   1      51.459  26.081  25.404  1.00  0.00     0.200 A 
ATOM     77  F   UNL A   1      50.798  26.737  23.235  1.00  0.00    -0.200 F 
ATOM     78  F   UNL A   1      52.645  25.670  24.933  1.00  0.00    -0.200 F 
ENDBRANCH  54  68
BRANCH  55  79
ATOM     79  C   UNL A   1      39.659  28.699  29.553  1.00  0.00     0.064 A 
ATOM     80  C   UNL A   1      39.309  28.500  30.895  1.00  0.00     0.173 A 
ATOM     81  C   UNL A   1      38.664  29.169  28.681  1.00  0.00     0.173 A 
ATOM     82  F   UNL A   1      40.220  28.032  31.761  1.00  0.00    -0.203 F 
ATOM     83  C   UNL A   1      38.013  28.746  31.344  1.00  0.00     0.198 A 
ATOM     84  C   UNL A   1      37.378  29.445  29.138  1.00  0.00     0.198 A 
ATOM     85  F   UNL A   1      38.948  29.378  27.387  1.00  0.00    -0.203 F 
ATOM     86  F   UNL A   1      37.694  28.506  32.623  1.00  0.00    -0.200 F 
ATOM     87  C   UNL A   1      37.051  29.225  30.468  1.00  0.00     0.200 A 
ATOM     88  F   UNL A   1      36.457  29.924  28.291  1.00  0.00    -0.200 F 
ATOM     89  F   UNL A   1      35.807  29.470  30.902  1.00  0.00    -0.200 F 
ENDBRANCH  55  79
BRANCH  67  90
ATOM     90  C   UNL A   1      45.426  32.583  29.001  1.00  0.00     0.064 A 
ATOM     91  C   UNL A   1      45.183  33.615  28.083  1.00  0.00     0.173 A 
ATOM     92  C   UNL A   1      45.893  32.931  30.277  1.00  0.00     0.173 A 
ATOM     93  F   UNL A   1      44.749  33.330  26.846  1.00  0.00    -0.203 F 
ATOM     94  C   UNL A   1      45.408  34.945  28.429  1.00  0.00     0.198 A 
ATOM     95  C   UNL A   1      46.089  34.263  30.628  1.00  0.00     0.198 A 
ATOM     96  F   UNL A   1      46.132  31.979  31.192  1.00  0.00    -0.203 F 
ATOM     97  F   UNL A   1      45.199  35.913  27.527  1.00  0.00    -0.200 F 
ATOM     98  C   UNL A   1      45.850  35.268  29.704  1.00  0.00     0.200 A 
ATOM     99  F   UNL A   1      46.502  34.574  31.865  1.00  0.00    -0.200 F 
ATOM    100  F   UNL A   1      46.049  36.549  30.040  1.00  0.00    -0.200 F 
ENDBRANCH  67  90
ENDBRANCH  41  42
ENDBRANCH  33  36
ENDBRANCH  31  32
ENDBRANCH  30  31
ENDBRANCH  29  30
ENDBRANCH   1  29
TORSDOF 17
ENDMDL
