MODEL 1
REMARK VINA RESULT:     -12.5      0.000      0.000
REMARK SMILES O=C(NCCCCCCNC(=O)c1ccccc1Nc1cccc(C(F)(F)F)c1)c1ccc(-c2c3nc(c(-c4c(F)c(F)c(F)c(F)c4F)c4ccc([nH]4)c(-c4c(F)c(F)c(F)c(F)c4F)c4nc(c(-c5c(F)c(F)c(F)c(F)c5F)c5ccc2[nH]5)C=C4)C=C3)cc1
REMARK SMILES IDX 7 1 6 2 5 3 4 4 3 5 1 6 2 7 30 9 31 10 92 11 32 12 91 13
REMARK SMILES IDX 33 14 34 15 35 16 85 17 36 18 90 19 84 20 86 21 37 22 89 23
REMARK SMILES IDX 83 24 82 25 38 27 70 28 50 29 69 30 51 31 54 32 68 33 87 34
REMARK SMILES IDX 52 35 53 36 67 38 88 39 55 40 39 41 40 42 48 43 41 44 42 45
REMARK SMILES IDX 46 46 49 47 43 48 44 49 47 50 45 51 71 52 72 53 80 54 73 55
REMARK SMILES IDX 74 56 78 57 81 58 75 59 76 60 79 61 77 62 56 63 57 64 65 65
REMARK SMILES IDX 58 66 59 67 63 68 66 69 60 70 61 71 64 72 62 73 8 74 9 75
REMARK SMILES IDX 10 76 11 77 12 79 13 80 14 81 18 82 15 83 17 84 16 85 19 86
REMARK SMILES IDX 20 88 21 89 29 90 22 91 24 92 23 93 25 94 26 95 27 96 28 97
REMARK H PARENT 3 8 86 26 54 37 10 78 19 87
REMARK Flexibility Score: inf
ROOT
ATOM      1  C   UNL A   1      32.060  29.869  27.106  1.00  0.00     0.002 C 
ENDROOT
BRANCH   1   2
ATOM      2  C   UNL A   1      31.433  30.806  26.070  1.00  0.00     0.002 C 
BRANCH   2   3
ATOM      3  C   UNL A   1      31.307  32.266  26.501  1.00  0.00     0.021 C 
BRANCH   3   4
ATOM      4  C   UNL A   1      32.521  32.820  27.234  1.00  0.00     0.116 C 
BRANCH   4   5
ATOM      5  N   UNL A   1      32.346  34.207  27.633  1.00  0.00    -0.352 N 
ATOM      6  O   UNL A   1      32.633  36.034  28.930  1.00  0.00    -0.269 OA
ATOM      7  C   UNL A   1      33.012  34.913  28.603  1.00  0.00     0.251 C 
ATOM      8  H   UNL A   1      31.657  34.707  27.141  1.00  0.00     0.163 HD
BRANCH   7   9
ATOM      9  C   UNL A   1      34.184  34.306  29.267  1.00  0.00     0.039 A 
ATOM     10  C   UNL A   1      34.014  33.447  30.356  1.00  0.00     0.014 A 
ATOM     11  C   UNL A   1      35.464  34.594  28.787  1.00  0.00     0.014 A 
ATOM     12  C   UNL A   1      35.126  32.971  31.039  1.00  0.00     0.010 A 
ATOM     13  C   UNL A   1      36.579  34.043  29.422  1.00  0.00     0.010 A 
ATOM     14  C   UNL A   1      36.419  33.238  30.561  1.00  0.00    -0.014 A 
BRANCH  14  15
ATOM     15  C   UNL A   1      37.581  32.573  31.199  1.00  0.00     0.031 A 
ATOM     16  C   UNL A   1      38.308  31.448  30.521  1.00  0.00     0.074 A 
ATOM     17  C   UNL A   1      37.965  32.997  32.419  1.00  0.00     0.049 A 
ATOM     18  N   UNL A   1      39.312  30.735  30.962  1.00  0.00    -0.248 NA
ATOM     19  C   UNL A   1      37.844  31.067  29.179  1.00  0.00     0.031 C 
ATOM     20  C   UNL A   1      37.319  34.074  33.175  1.00  0.00     0.029 A 
ATOM     21  N   UNL A   1      38.980  32.580  33.239  1.00  0.00    -0.354 N 
ATOM     22  C   UNL A   1      39.588  29.808  29.966  1.00  0.00     0.074 A 
ATOM     23  C   UNL A   1      38.634  30.037  28.902  1.00  0.00     0.031 C 
ATOM     24  C   UNL A   1      37.967  34.249  34.333  1.00  0.00     0.029 A 
ATOM     25  C   UNL A   1      39.025  33.253  34.437  1.00  0.00     0.049 A 
ATOM     26  H   UNL A   1      39.615  31.869  32.996  1.00  0.00     0.167 HD
ATOM     27  C   UNL A   1      40.555  28.859  29.948  1.00  0.00     0.037 A 
ATOM     28  C   UNL A   1      39.804  33.061  35.517  1.00  0.00     0.037 A 
ATOM     29  C   UNL A   1      41.509  28.655  31.009  1.00  0.00     0.049 A 
ATOM     30  C   UNL A   1      40.837  31.972  35.481  1.00  0.00     0.074 A 
ATOM     31  C   UNL A   1      42.568  27.764  31.057  1.00  0.00     0.029 A 
ATOM     32  N   UNL A   1      41.509  29.339  32.217  1.00  0.00    -0.354 N 
ATOM     33  N   UNL A   1      41.131  31.145  34.507  1.00  0.00    -0.248 NA
ATOM     34  C   UNL A   1      41.642  31.785  36.694  1.00  0.00     0.031 C 
ATOM     35  C   UNL A   1      43.165  27.862  32.317  1.00  0.00     0.029 A 
ATOM     36  C   UNL A   1      42.522  28.859  33.033  1.00  0.00     0.049 A 
ATOM     37  H   UNL A   1      40.883  30.060  32.459  1.00  0.00     0.167 HD
ATOM     38  C   UNL A   1      42.165  30.352  34.982  1.00  0.00     0.074 A 
ATOM     39  C   UNL A   1      42.463  30.813  36.322  1.00  0.00     0.031 C 
ATOM     40  C   UNL A   1      42.807  29.330  34.366  1.00  0.00     0.037 A 
BRANCH  27  41
ATOM     41  C   UNL A   1      40.626  27.942  28.760  1.00  0.00     0.064 A 
ATOM     42  C   UNL A   1      39.897  26.746  28.701  1.00  0.00     0.173 A 
ATOM     43  C   UNL A   1      41.380  28.306  27.633  1.00  0.00     0.173 A 
ATOM     44  F   UNL A   1      39.165  26.347  29.752  1.00  0.00    -0.203 F 
ATOM     45  C   UNL A   1      39.933  25.940  27.564  1.00  0.00     0.198 A 
ATOM     46  C   UNL A   1      41.392  27.513  26.488  1.00  0.00     0.198 A 
ATOM     47  F   UNL A   1      42.090  29.444  27.633  1.00  0.00    -0.203 F 
ATOM     48  F   UNL A   1      39.257  24.783  27.542  1.00  0.00    -0.200 F 
ATOM     49  C   UNL A   1      40.673  26.328  26.456  1.00  0.00     0.200 A 
ATOM     50  F   UNL A   1      42.094  27.900  25.413  1.00  0.00    -0.200 F 
ATOM     51  F   UNL A   1      40.693  25.559  25.359  1.00  0.00    -0.200 F 
ENDBRANCH  27  41
BRANCH  28  52
ATOM     52  C   UNL A   1      39.608  33.899  36.728  1.00  0.00     0.064 A 
ATOM     53  C   UNL A   1      38.816  33.457  37.795  1.00  0.00     0.173 A 
ATOM     54  C   UNL A   1      40.209  35.163  36.841  1.00  0.00     0.173 A 
ATOM     55  F   UNL A   1      38.208  32.264  37.728  1.00  0.00    -0.203 F 
ATOM     56  C   UNL A   1      38.611  34.257  38.919  1.00  0.00     0.198 A 
ATOM     57  C   UNL A   1      40.034  35.945  37.980  1.00  0.00     0.198 A 
ATOM     58  F   UNL A   1      40.983  35.632  35.852  1.00  0.00    -0.203 F 
ATOM     59  F   UNL A   1      37.806  33.832  39.901  1.00  0.00    -0.200 F 
ATOM     60  C   UNL A   1      39.225  35.496  39.013  1.00  0.00     0.200 A 
ATOM     61  F   UNL A   1      40.646  37.134  38.074  1.00  0.00    -0.200 F 
ATOM     62  F   UNL A   1      39.032  36.262  40.095  1.00  0.00    -0.200 F 
ENDBRANCH  28  52
BRANCH  40  63
ATOM     63  C   UNL A   1      43.911  28.655  35.125  1.00  0.00     0.064 A 
ATOM     64  C   UNL A   1      45.229  29.137  35.089  1.00  0.00     0.173 A 
ATOM     65  C   UNL A   1      43.640  27.540  35.932  1.00  0.00     0.173 A 
ATOM     66  F   UNL A   1      45.542  30.188  34.317  1.00  0.00    -0.203 F 
ATOM     67  C   UNL A   1      46.237  28.514  35.818  1.00  0.00     0.198 A 
ATOM     68  C   UNL A   1      44.645  26.941  36.685  1.00  0.00     0.198 A 
ATOM     69  F   UNL A   1      42.396  27.043  36.004  1.00  0.00    -0.203 F 
ATOM     70  F   UNL A   1      47.497  28.962  35.732  1.00  0.00    -0.200 F 
ATOM     71  C   UNL A   1      45.943  27.422  36.623  1.00  0.00     0.200 A 
ATOM     72  F   UNL A   1      44.356  25.896  37.474  1.00  0.00    -0.200 F 
ATOM     73  F   UNL A   1      46.914  26.832  37.333  1.00  0.00    -0.200 F 
ENDBRANCH  40  63
ENDBRANCH  14  15
ENDBRANCH   7   9
ENDBRANCH   4   5
ENDBRANCH   3   4
ENDBRANCH   2   3
ENDBRANCH   1   2
BRANCH   1  74
ATOM     74  C   UNL A   1      32.075  28.382  26.735  1.00  0.00     0.021 C 
BRANCH  74  75
ATOM     75  C   UNL A   1      33.416  27.852  26.234  1.00  0.00     0.116 C 
BRANCH  75  76
ATOM     76  N   UNL A   1      33.888  28.574  25.066  1.00  0.00    -0.352 N 
ATOM     77  C   UNL A   1      33.948  28.156  23.762  1.00  0.00     0.253 C 
ATOM     78  H   UNL A   1      34.209  29.490  25.234  1.00  0.00     0.163 HD
ATOM     79  O   UNL A   1      34.480  28.870  22.916  1.00  0.00    -0.269 OA
BRANCH  77  80
ATOM     80  C   UNL A   1      33.400  26.841  23.369  1.00  0.00     0.063 A 
ATOM     81  C   UNL A   1      34.111  25.716  23.816  1.00  0.00     0.016 A 
ATOM     82  C   UNL A   1      32.259  26.703  22.553  1.00  0.00     0.051 A 
ATOM     83  C   UNL A   1      33.667  24.435  23.497  1.00  0.00     0.001 A 
ATOM     84  C   UNL A   1      31.826  25.398  22.263  1.00  0.00     0.027 A 
ATOM     85  C   UNL A   1      32.520  24.277  22.727  1.00  0.00     0.002 A 
BRANCH  82  86
ATOM     86  N   UNL A   1      31.551  27.821  22.063  1.00  0.00    -0.355 N 
ATOM     87  H   UNL A   1      31.996  28.303  21.329  1.00  0.00     0.167 HD
BRANCH  86  88
ATOM     88  C   UNL A   1      30.313  28.359  22.453  1.00  0.00     0.039 A 
ATOM     89  C   UNL A   1      29.314  27.506  22.931  1.00  0.00     0.026 A 
ATOM     90  C   UNL A   1      30.072  29.739  22.459  1.00  0.00     0.039 A 
ATOM     91  C   UNL A   1      28.109  28.017  23.420  1.00  0.00     0.003 A 
ATOM     92  C   UNL A   1      28.861  30.270  22.933  1.00  0.00     0.058 A 
ATOM     93  C   UNL A   1      27.885  29.393  23.425  1.00  0.00     0.013 A 
BRANCH  92  94
ATOM     94  C   UNL A   1      28.619  31.758  22.942  1.00  0.00     0.416 C 
ATOM     95  F   UNL A   1      29.312  32.392  23.929  1.00  0.00    -0.166 F 
ATOM     96  F   UNL A   1      28.994  32.354  21.778  1.00  0.00    -0.166 F 
ATOM     97  F   UNL A   1      27.313  32.097  23.133  1.00  0.00    -0.166 F 
ENDBRANCH  92  94
ENDBRANCH  86  88
ENDBRANCH  82  86
ENDBRANCH  77  80
ENDBRANCH  75  76
ENDBRANCH  74  75
ENDBRANCH   1  74
TORSDOF 16
ENDMDL
MODEL 2
REMARK VINA RESULT:     -12.4      2.506      3.934
REMARK SMILES O=C(NCCCCCCNC(=O)c1ccccc1Nc1cccc(C(F)(F)F)c1)c1ccc(-c2c3nc(c(-c4c(F)c(F)c(F)c(F)c4F)c4ccc([nH]4)c(-c4c(F)c(F)c(F)c(F)c4F)c4nc(c(-c5c(F)c(F)c(F)c(F)c5F)c5ccc2[nH]5)C=C4)C=C3)cc1
REMARK SMILES IDX 7 1 6 2 5 3 4 4 3 5 1 6 2 7 30 9 31 10 92 11 32 12 91 13
REMARK SMILES IDX 33 14 34 15 35 16 85 17 36 18 90 19 84 20 86 21 37 22 89 23
REMARK SMILES IDX 83 24 82 25 38 27 70 28 50 29 69 30 51 31 54 32 68 33 87 34
REMARK SMILES IDX 52 35 53 36 67 38 88 39 55 40 39 41 40 42 48 43 41 44 42 45
REMARK SMILES IDX 46 46 49 47 43 48 44 49 47 50 45 51 71 52 72 53 80 54 73 55
REMARK SMILES IDX 74 56 78 57 81 58 75 59 76 60 79 61 77 62 56 63 57 64 65 65
REMARK SMILES IDX 58 66 59 67 63 68 66 69 60 70 61 71 64 72 62 73 8 74 9 75
REMARK SMILES IDX 10 76 11 77 12 79 13 80 14 81 18 82 15 83 17 84 16 85 19 86
REMARK SMILES IDX 20 88 21 89 29 90 22 91 24 92 23 93 25 94 26 95 27 96 28 97
REMARK H PARENT 3 8 86 26 54 37 10 78 19 87
REMARK Flexibility Score: inf
ROOT
ATOM      1  C   UNL A   1      32.854  30.109  26.501  1.00  0.00     0.002 C 
ENDROOT
BRANCH   1   2
ATOM      2  C   UNL A   1      31.498  30.750  26.196  1.00  0.00     0.002 C 
BRANCH   2   3
ATOM      3  C   UNL A   1      31.398  32.244  26.501  1.00  0.00     0.021 C 
BRANCH   3   4
ATOM      4  C   UNL A   1      32.626  32.839  27.176  1.00  0.00     0.116 C 
BRANCH   4   5
ATOM      5  N   UNL A   1      32.408  34.203  27.629  1.00  0.00    -0.352 N 
ATOM      6  O   UNL A   1      32.618  35.980  29.008  1.00  0.00    -0.269 OA
ATOM      7  C   UNL A   1      33.031  34.883  28.644  1.00  0.00     0.251 C 
ATOM      8  H   UNL A   1      31.719  34.708  27.140  1.00  0.00     0.163 HD
BRANCH   7   9
ATOM      9  C   UNL A   1      34.202  34.275  29.313  1.00  0.00     0.039 A 
ATOM     10  C   UNL A   1      34.028  33.425  30.408  1.00  0.00     0.014 A 
ATOM     11  C   UNL A   1      35.483  34.553  28.830  1.00  0.00     0.014 A 
ATOM     12  C   UNL A   1      35.138  32.950  31.095  1.00  0.00     0.010 A 
ATOM     13  C   UNL A   1      36.595  34.002  29.469  1.00  0.00     0.010 A 
ATOM     14  C   UNL A   1      36.432  33.206  30.614  1.00  0.00    -0.014 A 
BRANCH  14  15
ATOM     15  C   UNL A   1      37.591  32.541  31.256  1.00  0.00     0.031 A 
ATOM     16  C   UNL A   1      38.327  31.424  30.576  1.00  0.00     0.074 A 
ATOM     17  C   UNL A   1      37.963  32.957  32.483  1.00  0.00     0.049 A 
ATOM     18  N   UNL A   1      39.331  30.711  31.021  1.00  0.00    -0.248 NA
ATOM     19  C   UNL A   1      37.876  31.051  29.228  1.00  0.00     0.031 C 
ATOM     20  C   UNL A   1      37.307  34.026  33.241  1.00  0.00     0.029 A 
ATOM     21  N   UNL A   1      38.973  32.538  33.309  1.00  0.00    -0.354 N 
ATOM     22  C   UNL A   1      39.619  29.793  30.020  1.00  0.00     0.074 A 
ATOM     23  C   UNL A   1      38.672  30.026  28.950  1.00  0.00     0.031 C 
ATOM     24  C   UNL A   1      37.945  34.195  34.407  1.00  0.00     0.029 A 
ATOM     25  C   UNL A   1      39.005  33.201  34.512  1.00  0.00     0.049 A 
ATOM     26  H   UNL A   1      39.613  31.831  33.065  1.00  0.00     0.167 HD
ATOM     27  C   UNL A   1      40.589  28.847  30.003  1.00  0.00     0.037 A 
ATOM     28  C   UNL A   1      39.776  33.005  35.596  1.00  0.00     0.037 A 
ATOM     29  C   UNL A   1      41.535  28.639  31.070  1.00  0.00     0.049 A 
ATOM     30  C   UNL A   1      40.814  31.920  35.561  1.00  0.00     0.074 A 
ATOM     31  C   UNL A   1      42.597  27.752  31.120  1.00  0.00     0.029 A 
ATOM     32  N   UNL A   1      41.522  29.313  32.283  1.00  0.00    -0.354 N 
ATOM     33  N   UNL A   1      41.118  31.101  34.584  1.00  0.00    -0.248 NA
ATOM     34  C   UNL A   1      41.609  31.727  36.780  1.00  0.00     0.031 C 
ATOM     35  C   UNL A   1      43.183  27.842  32.386  1.00  0.00     0.029 A 
ATOM     36  C   UNL A   1      42.530  28.831  33.104  1.00  0.00     0.049 A 
ATOM     37  H   UNL A   1      40.892  30.030  32.525  1.00  0.00     0.167 HD
ATOM     38  C   UNL A   1      42.151  30.308  35.061  1.00  0.00     0.074 A 
ATOM     39  C   UNL A   1      42.437  30.760  36.407  1.00  0.00     0.031 C 
ATOM     40  C   UNL A   1      42.802  29.293  34.442  1.00  0.00     0.037 A 
BRANCH  27  41
ATOM     41  C   UNL A   1      40.673  27.939  28.809  1.00  0.00     0.064 A 
ATOM     42  C   UNL A   1      39.960  26.735  28.740  1.00  0.00     0.173 A 
ATOM     43  C   UNL A   1      41.424  28.321  27.685  1.00  0.00     0.173 A 
ATOM     44  F   UNL A   1      39.231  26.319  29.788  1.00  0.00    -0.203 F 
ATOM     45  C   UNL A   1      40.008  25.937  27.598  1.00  0.00     0.198 A 
ATOM     46  C   UNL A   1      41.447  27.536  26.535  1.00  0.00     0.198 A 
ATOM     47  F   UNL A   1      42.119  29.468  27.694  1.00  0.00    -0.203 F 
ATOM     48  F   UNL A   1      39.346  24.772  27.567  1.00  0.00    -0.200 F 
ATOM     49  C   UNL A   1      40.743  26.342  26.493  1.00  0.00     0.200 A 
ATOM     50  F   UNL A   1      42.145  27.939  25.464  1.00  0.00    -0.200 F 
ATOM     51  F   UNL A   1      40.775  25.581  25.391  1.00  0.00    -0.200 F 
ENDBRANCH  27  41
BRANCH  28  52
ATOM     52  C   UNL A   1      39.567  33.833  36.812  1.00  0.00     0.064 A 
ATOM     53  C   UNL A   1      40.167  35.091  36.944  1.00  0.00     0.173 A 
ATOM     54  C   UNL A   1      38.765  33.379  37.870  1.00  0.00     0.173 A 
ATOM     55  F   UNL A   1      40.955  35.563  35.967  1.00  0.00    -0.203 F 
ATOM     56  C   UNL A   1      39.992  35.855  38.097  1.00  0.00     0.198 A 
ATOM     57  C   UNL A   1      38.561  34.158  39.006  1.00  0.00     0.198 A 
ATOM     58  F   UNL A   1      38.161  32.183  37.793  1.00  0.00    -0.203 F 
ATOM     59  F   UNL A   1      40.620  37.032  38.219  1.00  0.00    -0.200 F 
ATOM     60  C   UNL A   1      39.184  35.390  39.124  1.00  0.00     0.200 A 
ATOM     61  F   UNL A   1      37.763  33.713  39.987  1.00  0.00    -0.200 F 
ATOM     62  F   UNL A   1      39.013  36.127  40.230  1.00  0.00    -0.200 F 
ENDBRANCH  28  52
BRANCH  40  63
ATOM     63  C   UNL A   1      43.903  28.617  35.206  1.00  0.00     0.064 A 
ATOM     64  C   UNL A   1      43.657  27.491  36.007  1.00  0.00     0.173 A 
ATOM     65  C   UNL A   1      45.225  29.075  35.103  1.00  0.00     0.173 A 
ATOM     66  F   UNL A   1      42.408  27.027  36.155  1.00  0.00    -0.203 F 
ATOM     67  C   UNL A   1      44.693  26.862  36.691  1.00  0.00     0.198 A 
ATOM     68  C   UNL A   1      46.262  28.423  35.762  1.00  0.00     0.198 A 
ATOM     69  F   UNL A   1      45.513  30.145  34.347  1.00  0.00    -0.203 F 
ATOM     70  F   UNL A   1      44.429  25.817  37.488  1.00  0.00    -0.200 F 
ATOM     71  C   UNL A   1      45.995  27.322  36.560  1.00  0.00     0.200 A 
ATOM     72  F   UNL A   1      47.522  28.859  35.621  1.00  0.00    -0.200 F 
ATOM     73  F   UNL A   1      46.992  26.707  37.211  1.00  0.00    -0.200 F 
ENDBRANCH  40  63
ENDBRANCH  14  15
ENDBRANCH   7   9
ENDBRANCH   4   5
ENDBRANCH   3   4
ENDBRANCH   2   3
ENDBRANCH   1   2
BRANCH   1  74
ATOM     74  C   UNL A   1      32.805  28.768  27.242  1.00  0.00     0.021 C 
BRANCH  74  75
ATOM     75  C   UNL A   1      31.403  28.233  27.521  1.00  0.00     0.116 C 
BRANCH  75  76
ATOM     76  N   UNL A   1      31.250  26.852  27.099  1.00  0.00    -0.352 N 
ATOM     77  C   UNL A   1      31.137  26.348  25.829  1.00  0.00     0.253 C 
ATOM     78  H   UNL A   1      31.224  26.186  27.824  1.00  0.00     0.163 HD
ATOM     79  O   UNL A   1      30.906  25.154  25.664  1.00  0.00    -0.269 OA
BRANCH  77  80
ATOM     80  C   UNL A   1      31.266  27.236  24.655  1.00  0.00     0.063 A 
ATOM     81  C   UNL A   1      30.096  27.895  24.246  1.00  0.00     0.016 A 
ATOM     82  C   UNL A   1      32.473  27.391  23.943  1.00  0.00     0.051 A 
ATOM     83  C   UNL A   1      30.122  28.755  23.150  1.00  0.00     0.001 A 
ATOM     84  C   UNL A   1      32.473  28.279  22.854  1.00  0.00     0.027 A 
ATOM     85  C   UNL A   1      31.313  28.952  22.459  1.00  0.00     0.002 A 
BRANCH  82  86
ATOM     86  N   UNL A   1      33.652  26.711  24.316  1.00  0.00    -0.355 N 
ATOM     87  H   UNL A   1      34.317  27.263  24.788  1.00  0.00     0.167 HD
BRANCH  86  88
ATOM     88  C   UNL A   1      34.034  25.373  24.120  1.00  0.00     0.039 A 
ATOM     89  C   UNL A   1      33.483  24.651  23.057  1.00  0.00     0.026 A 
ATOM     90  C   UNL A   1      35.016  24.757  24.908  1.00  0.00     0.039 A 
ATOM     91  C   UNL A   1      33.913  23.352  22.774  1.00  0.00     0.003 A 
ATOM     92  C   UNL A   1      35.450  23.448  24.648  1.00  0.00     0.058 A 
ATOM     93  C   UNL A   1      34.896  22.754  23.563  1.00  0.00     0.013 A 
BRANCH  92  94
ATOM     94  C   UNL A   1      36.514  22.802  25.498  1.00  0.00     0.416 C 
ATOM     95  F   UNL A   1      36.077  21.664  26.106  1.00  0.00    -0.166 F 
ATOM     96  F   UNL A   1      37.611  22.445  24.777  1.00  0.00    -0.166 F 
ATOM     97  F   UNL A   1      36.971  23.603  26.501  1.00  0.00    -0.166 F 
ENDBRANCH  92  94
ENDBRANCH  86  88
ENDBRANCH  82  86
ENDBRANCH  77  80
ENDBRANCH  75  76
ENDBRANCH  74  75
ENDBRANCH   1  74
TORSDOF 16
ENDMDL
MODEL 3
REMARK VINA RESULT:     -12.4      6.011     11.423
REMARK SMILES O=C(NCCCCCCNC(=O)c1ccccc1Nc1cccc(C(F)(F)F)c1)c1ccc(-c2c3nc(c(-c4c(F)c(F)c(F)c(F)c4F)c4ccc([nH]4)c(-c4c(F)c(F)c(F)c(F)c4F)c4nc(c(-c5c(F)c(F)c(F)c(F)c5F)c5ccc2[nH]5)C=C4)C=C3)cc1
REMARK SMILES IDX 7 1 6 2 5 3 4 4 3 5 1 6 2 7 30 9 31 10 92 11 32 12 91 13
REMARK SMILES IDX 33 14 34 15 35 16 85 17 36 18 90 19 84 20 86 21 37 22 89 23
REMARK SMILES IDX 83 24 82 25 38 27 70 28 50 29 69 30 51 31 54 32 68 33 87 34
REMARK SMILES IDX 52 35 53 36 67 38 88 39 55 40 39 41 40 42 48 43 41 44 42 45
REMARK SMILES IDX 46 46 49 47 43 48 44 49 47 50 45 51 71 52 72 53 80 54 73 55
REMARK SMILES IDX 74 56 78 57 81 58 75 59 76 60 79 61 77 62 56 63 57 64 65 65
REMARK SMILES IDX 58 66 59 67 63 68 66 69 60 70 61 71 64 72 62 73 8 74 9 75
REMARK SMILES IDX 10 76 11 77 12 79 13 80 14 81 18 82 15 83 17 84 16 85 19 86
REMARK SMILES IDX 20 88 21 89 29 90 22 91 24 92 23 93 25 94 26 95 27 96 28 97
REMARK H PARENT 3 8 86 26 54 37 10 78 19 87
REMARK Flexibility Score: inf
ROOT
ATOM      1  C   UNL A   1      36.368  21.474  24.589  1.00  0.00     0.002 C 
ENDROOT
BRANCH   1   2
ATOM      2  C   UNL A   1      36.693  20.038  25.008  1.00  0.00     0.002 C 
BRANCH   2   3
ATOM      3  C   UNL A   1      38.123  19.582  24.723  1.00  0.00     0.021 C 
BRANCH   3   4
ATOM      4  C   UNL A   1      39.128  19.920  25.815  1.00  0.00     0.116 C 
BRANCH   4   5
ATOM      5  N   UNL A   1      40.215  18.958  25.892  1.00  0.00    -0.352 N 
ATOM      6  O   UNL A   1      42.367  18.273  25.953  1.00  0.00    -0.269 OA
ATOM      7  C   UNL A   1      41.555  19.185  26.076  1.00  0.00     0.251 C 
ATOM      8  H   UNL A   1      39.953  18.014  25.798  1.00  0.00     0.163 HD
BRANCH   7   9
ATOM      9  C   UNL A   1      42.020  20.549  26.409  1.00  0.00     0.039 A 
ATOM     10  C   UNL A   1      42.282  21.474  25.395  1.00  0.00     0.014 A 
ATOM     11  C   UNL A   1      42.186  20.904  27.749  1.00  0.00     0.014 A 
ATOM     12  C   UNL A   1      42.823  22.713  25.714  1.00  0.00     0.010 A 
ATOM     13  C   UNL A   1      42.647  22.182  28.072  1.00  0.00     0.010 A 
ATOM     14  C   UNL A   1      42.981  23.091  27.057  1.00  0.00    -0.014 A 
BRANCH  14  15
ATOM     15  C   UNL A   1      43.389  24.481  27.377  1.00  0.00     0.031 A 
ATOM     16  C   UNL A   1      42.410  25.477  27.925  1.00  0.00     0.074 A 
ATOM     17  C   UNL A   1      44.669  24.836  27.148  1.00  0.00     0.049 A 
ATOM     18  N   UNL A   1      42.597  26.740  28.215  1.00  0.00    -0.248 NA
ATOM     19  C   UNL A   1      41.041  25.001  28.173  1.00  0.00     0.031 C 
ATOM     20  C   UNL A   1      45.701  23.949  26.603  1.00  0.00     0.029 A 
ATOM     21  N   UNL A   1      45.322  26.025  27.339  1.00  0.00    -0.354 N 
ATOM     22  C   UNL A   1      41.371  27.215  28.658  1.00  0.00     0.074 A 
ATOM     23  C   UNL A   1      40.439  26.110  28.583  1.00  0.00     0.031 C 
ATOM     24  C   UNL A   1      46.860  24.617  26.527  1.00  0.00     0.029 A 
ATOM     25  C   UNL A   1      46.638  25.994  26.946  1.00  0.00     0.049 A 
ATOM     26  H   UNL A   1      44.891  26.824  27.720  1.00  0.00     0.167 HD
ATOM     27  C   UNL A   1      41.061  28.461  29.090  1.00  0.00     0.037 A 
ATOM     28  C   UNL A   1      47.556  26.976  26.890  1.00  0.00     0.037 A 
ATOM     29  C   UNL A   1      42.005  29.547  29.174  1.00  0.00     0.049 A 
ATOM     30  C   UNL A   1      47.167  28.357  27.336  1.00  0.00     0.074 A 
ATOM     31  C   UNL A   1      41.804  30.828  29.661  1.00  0.00     0.029 A 
ATOM     32  N   UNL A   1      43.323  29.486  28.745  1.00  0.00    -0.354 N 
ATOM     33  N   UNL A   1      46.022  28.778  27.814  1.00  0.00    -0.248 NA
ATOM     34  C   UNL A   1      48.195  29.399  27.228  1.00  0.00     0.031 C 
ATOM     35  C   UNL A   1      42.980  31.559  29.464  1.00  0.00     0.029 A 
ATOM     36  C   UNL A   1      43.934  30.719  28.916  1.00  0.00     0.049 A 
ATOM     37  H   UNL A   1      43.761  28.684  28.376  1.00  0.00     0.167 HD
ATOM     38  C   UNL A   1      46.195  30.128  28.081  1.00  0.00     0.074 A 
ATOM     39  C   UNL A   1      47.564  30.449  27.734  1.00  0.00     0.031 C 
ATOM     40  C   UNL A   1      45.300  31.022  28.566  1.00  0.00     0.037 A 
BRANCH  27  41
ATOM     41  C   UNL A   1      39.638  28.741  29.484  1.00  0.00     0.064 A 
ATOM     42  C   UNL A   1      39.170  28.520  30.786  1.00  0.00     0.173 A 
ATOM     43  C   UNL A   1      38.749  29.311  28.557  1.00  0.00     0.173 A 
ATOM     44  F   UNL A   1      39.975  27.972  31.710  1.00  0.00    -0.203 F 
ATOM     45  C   UNL A   1      37.862  28.843  31.143  1.00  0.00     0.198 A 
ATOM     46  C   UNL A   1      37.452  29.659  28.925  1.00  0.00     0.198 A 
ATOM     47  F   UNL A   1      39.147  29.552  27.299  1.00  0.00    -0.203 F 
ATOM     48  F   UNL A   1      37.426  28.590  32.385  1.00  0.00    -0.200 F 
ATOM     49  C   UNL A   1      37.007  29.420  30.215  1.00  0.00     0.200 A 
ATOM     50  F   UNL A   1      36.634  30.232  28.030  1.00  0.00    -0.200 F 
ATOM     51  F   UNL A   1      35.755  29.743  30.565  1.00  0.00    -0.200 F 
ENDBRANCH  27  41
BRANCH  28  52
ATOM     52  C   UNL A   1      48.915  26.690  26.361  1.00  0.00     0.064 A 
ATOM     53  C   UNL A   1      49.232  26.920  25.017  1.00  0.00     0.173 A 
ATOM     54  C   UNL A   1      49.924  26.178  27.192  1.00  0.00     0.173 A 
ATOM     55  F   UNL A   1      48.298  27.393  24.180  1.00  0.00    -0.203 F 
ATOM     56  C   UNL A   1      50.499  26.625  24.516  1.00  0.00     0.198 A 
ATOM     57  C   UNL A   1      51.200  25.918  26.700  1.00  0.00     0.198 A 
ATOM     58  F   UNL A   1      49.675  25.947  28.489  1.00  0.00    -0.203 F 
ATOM     59  F   UNL A   1      50.760  26.803  23.215  1.00  0.00    -0.200 F 
ATOM     60  C   UNL A   1      51.483  26.131  25.359  1.00  0.00     0.200 A 
ATOM     61  F   UNL A   1      52.153  25.460  27.523  1.00  0.00    -0.200 F 
ATOM     62  F   UNL A   1      52.702  25.852  24.878  1.00  0.00    -0.200 F 
ENDBRANCH  28  52
BRANCH  40  63
ATOM     63  C   UNL A   1      45.778  32.430  28.771  1.00  0.00     0.064 A 
ATOM     64  C   UNL A   1      46.410  32.825  29.960  1.00  0.00     0.173 A 
ATOM     65  C   UNL A   1      45.642  33.383  27.751  1.00  0.00     0.173 A 
ATOM     66  F   UNL A   1      46.546  31.956  30.973  1.00  0.00    -0.203 F 
ATOM     67  C   UNL A   1      46.869  34.128  30.127  1.00  0.00     0.198 A 
ATOM     68  C   UNL A   1      46.132  34.675  27.909  1.00  0.00     0.198 A 
ATOM     69  F   UNL A   1      45.049  33.054  26.593  1.00  0.00    -0.203 F 
ATOM     70  F   UNL A   1      47.426  34.496  31.288  1.00  0.00    -0.200 F 
ATOM     71  C   UNL A   1      46.738  35.049  29.097  1.00  0.00     0.200 A 
ATOM     72  F   UNL A   1      46.019  35.559  26.907  1.00  0.00    -0.200 F 
ATOM     73  F   UNL A   1      47.192  36.300  29.256  1.00  0.00    -0.200 F 
ENDBRANCH  40  63
ENDBRANCH  14  15
ENDBRANCH   7   9
ENDBRANCH   4   5
ENDBRANCH   3   4
ENDBRANCH   2   3
ENDBRANCH   1   2
BRANCH   1  74
ATOM     74  C   UNL A   1      36.377  22.514  25.715  1.00  0.00     0.021 C 
BRANCH  74  75
ATOM     75  C   UNL A   1      35.519  23.751  25.463  1.00  0.00     0.116 C 
BRANCH  75  76
ATOM     76  N   UNL A   1      35.296  23.983  24.048  1.00  0.00    -0.352 N 
ATOM     77  C   UNL A   1      34.143  24.360  23.408  1.00  0.00     0.253 C 
ATOM     78  H   UNL A   1      36.080  23.852  23.466  1.00  0.00     0.163 HD
ATOM     79  O   UNL A   1      34.112  24.406  22.182  1.00  0.00    -0.269 OA
BRANCH  77  80
ATOM     80  C   UNL A   1      32.928  24.687  24.183  1.00  0.00     0.063 A 
ATOM     81  C   UNL A   1      32.911  25.945  24.806  1.00  0.00     0.016 A 
ATOM     82  C   UNL A   1      31.856  23.784  24.339  1.00  0.00     0.051 A 
ATOM     83  C   UNL A   1      31.806  26.341  25.555  1.00  0.00     0.001 A 
ATOM     84  C   UNL A   1      30.748  24.220  25.085  1.00  0.00     0.027 A 
ATOM     85  C   UNL A   1      30.721  25.481  25.688  1.00  0.00     0.002 A 
BRANCH  82  86
ATOM     86  N   UNL A   1      31.868  22.501  23.751  1.00  0.00    -0.355 N 
ATOM     87  H   UNL A   1      31.451  22.451  22.860  1.00  0.00     0.167 HD
BRANCH  86  88
ATOM     88  C   UNL A   1      32.377  21.283  24.231  1.00  0.00     0.039 A 
ATOM     89  C   UNL A   1      32.769  21.182  25.569  1.00  0.00     0.026 A 
ATOM     90  C   UNL A   1      32.428  20.133  23.432  1.00  0.00     0.039 A 
ATOM     91  C   UNL A   1      33.186  19.961  26.104  1.00  0.00     0.003 A 
ATOM     92  C   UNL A   1      32.857  18.900  23.948  1.00  0.00     0.058 A 
ATOM     93  C   UNL A   1      33.225  18.823  25.299  1.00  0.00     0.013 A 
BRANCH  92  94
ATOM     94  C   UNL A   1      32.897  17.668  23.079  1.00  0.00     0.416 C 
ATOM     95  F   UNL A   1      32.131  17.795  21.960  1.00  0.00    -0.166 F 
ATOM     96  F   UNL A   1      34.153  17.378  22.644  1.00  0.00    -0.166 F 
ATOM     97  F   UNL A   1      32.450  16.544  23.706  1.00  0.00    -0.166 F 
ENDBRANCH  92  94
ENDBRANCH  86  88
ENDBRANCH  82  86
ENDBRANCH  77  80
ENDBRANCH  75  76
ENDBRANCH  74  75
ENDBRANCH   1  74
TORSDOF 16
ENDMDL
