MODEL 1
REMARK VINA RESULT:     -13.3      0.000      0.000
REMARK SMILES O=C(NCCCCCCNC(=O)[C@@H]1CCCN1S(=O)(=O)c1ccc2c3c(cccc13)C(=O)N2)c1ccc(-c2c3nc(c(-c4c(F)c(F)c(F)c(F)c4F)c4ccc([nH]4)c(-c4c(F)c(F)c(F)c(F)c4F)c4nc(c(-c5c(F)c(F)c(F)c(F)c5F)c5ccc2[nH]5)C=C4)C=C3)cc1
REMARK SMILES IDX 6 1 5 2 4 3 3 4 1 5 2 6 34 8 35 9 96 10 36 11 95 12 37 13
REMARK SMILES IDX 38 14 39 15 89 16 40 17 94 18 88 19 90 20 41 21 93 22 87 23
REMARK SMILES IDX 86 24 42 26 74 27 54 28 73 29 55 30 58 31 72 32 91 33 56 34
REMARK SMILES IDX 57 35 71 37 92 38 59 39 43 40 44 41 52 42 45 43 46 44 50 45
REMARK SMILES IDX 53 46 47 47 48 48 51 49 49 50 75 51 76 52 84 53 77 54 78 55
REMARK SMILES IDX 82 56 85 57 79 58 80 59 83 60 81 61 60 62 61 63 69 64 62 65
REMARK SMILES IDX 63 66 67 67 70 68 64 69 65 70 68 71 66 72 7 73 8 74 9 75
REMARK SMILES IDX 10 76 11 77 12 79 13 80 14 81 17 82 15 83 16 84 18 85 19 86
REMARK SMILES IDX 20 87 21 88 22 89 30 90 23 91 25 92 29 93 24 94 26 95 28 96
REMARK SMILES IDX 33 97 27 98 31 99 32 101
REMARK H PARENT 3 7 90 25 58 36 10 78 33 100
REMARK Flexibility Score: inf
ROOT
ATOM      1  C   UNL A   1      31.280  31.241  25.748  1.00  0.00     0.002 C 
ENDROOT
BRANCH   1   2
ATOM      2  C   UNL A   1      31.400  32.046  27.043  1.00  0.00     0.021 C 
BRANCH   2   3
ATOM      3  C   UNL A   1      32.693  32.845  27.166  1.00  0.00     0.116 C 
BRANCH   3   4
ATOM      4  N   UNL A   1      32.446  34.213  27.594  1.00  0.00    -0.352 N 
ATOM      5  O   UNL A   1      32.603  35.986  28.991  1.00  0.00    -0.269 OA
ATOM      6  C   UNL A   1      33.041  34.904  28.618  1.00  0.00     0.251 C 
ATOM      7  H   UNL A   1      31.764  34.706  27.083  1.00  0.00     0.163 HD
BRANCH   6   8
ATOM      8  C   UNL A   1      34.215  34.309  29.284  1.00  0.00     0.039 A 
ATOM      9  C   UNL A   1      35.499  34.538  28.777  1.00  0.00     0.014 A 
ATOM     10  C   UNL A   1      34.023  33.493  30.400  1.00  0.00     0.014 A 
ATOM     11  C   UNL A   1      36.584  33.864  29.327  1.00  0.00     0.010 A 
ATOM     12  C   UNL A   1      35.120  32.856  30.980  1.00  0.00     0.010 A 
ATOM     13  C   UNL A   1      36.402  33.015  30.430  1.00  0.00    -0.014 A 
BRANCH  13  14
ATOM     14  C   UNL A   1      37.564  32.300  31.009  1.00  0.00     0.031 A 
ATOM     15  C   UNL A   1      38.055  32.638  32.387  1.00  0.00     0.074 A 
ATOM     16  C   UNL A   1      38.152  31.322  30.295  1.00  0.00     0.049 A 
ATOM     17  N   UNL A   1      39.064  32.133  33.051  1.00  0.00    -0.248 NA
ATOM     18  C   UNL A   1      37.311  33.673  33.124  1.00  0.00     0.031 C 
ATOM     19  C   UNL A   1      37.736  30.887  28.961  1.00  0.00     0.029 A 
ATOM     20  N   UNL A   1      39.217  30.511  30.594  1.00  0.00    -0.354 N 
ATOM     21  C   UNL A   1      39.070  32.775  34.282  1.00  0.00     0.074 A 
ATOM     22  C   UNL A   1      37.990  33.740  34.261  1.00  0.00     0.031 C 
ATOM     23  C   UNL A   1      38.522  29.872  28.567  1.00  0.00     0.029 A 
ATOM     24  C   UNL A   1      39.525  29.621  29.597  1.00  0.00     0.049 A 
ATOM     25  H   UNL A   1      39.712  30.564  31.444  1.00  0.00     0.167 HD
ATOM     26  C   UNL A   1      39.890  32.562  35.337  1.00  0.00     0.037 A 
ATOM     27  C   UNL A   1      40.517  28.714  29.518  1.00  0.00     0.037 A 
ATOM     28  C   UNL A   1      40.971  31.610  35.347  1.00  0.00     0.049 A 
ATOM     29  C   UNL A   1      41.479  28.584  30.667  1.00  0.00     0.074 A 
ATOM     30  C   UNL A   1      41.872  31.338  36.363  1.00  0.00     0.029 A 
ATOM     31  N   UNL A   1      41.295  30.770  34.292  1.00  0.00    -0.354 N 
ATOM     32  N   UNL A   1      41.473  29.191  31.829  1.00  0.00    -0.248 NA
ATOM     33  C   UNL A   1      42.593  27.642  30.490  1.00  0.00     0.031 C 
ATOM     34  C   UNL A   1      42.766  30.365  35.909  1.00  0.00     0.029 A 
ATOM     35  C   UNL A   1      42.392  29.992  34.628  1.00  0.00     0.049 A 
ATOM     36  H   UNL A   1      40.818  30.733  33.433  1.00  0.00     0.167 HD
ATOM     37  C   UNL A   1      42.557  28.683  32.530  1.00  0.00     0.074 A 
ATOM     38  C   UNL A   1      43.187  27.701  31.672  1.00  0.00     0.031 C 
ATOM     39  C   UNL A   1      42.996  29.006  33.771  1.00  0.00     0.037 A 
BRANCH  26  40
ATOM     40  C   UNL A   1      39.653  33.355  36.588  1.00  0.00     0.064 A 
ATOM     41  C   UNL A   1      40.309  34.576  36.806  1.00  0.00     0.173 A 
ATOM     42  C   UNL A   1      38.686  32.953  37.522  1.00  0.00     0.173 A 
ATOM     43  F   UNL A   1      41.251  35.000  35.950  1.00  0.00    -0.203 F 
ATOM     44  C   UNL A   1      40.003  35.366  37.911  1.00  0.00     0.198 A 
ATOM     45  C   UNL A   1      38.366  33.757  38.612  1.00  0.00     0.198 A 
ATOM     46  F   UNL A   1      38.027  31.796  37.357  1.00  0.00    -0.203 F 
ATOM     47  F   UNL A   1      40.653  36.522  38.106  1.00  0.00    -0.200 F 
ATOM     48  C   UNL A   1      39.022  34.963  38.805  1.00  0.00     0.200 A 
ATOM     49  F   UNL A   1      37.408  33.373  39.468  1.00  0.00    -0.200 F 
ATOM     50  F   UNL A   1      38.710  35.738  39.853  1.00  0.00    -0.200 F 
ENDBRANCH  26  40
BRANCH  27  51
ATOM     51  C   UNL A   1      40.652  27.851  28.316  1.00  0.00     0.064 A 
ATOM     52  C   UNL A   1      40.063  26.579  28.277  1.00  0.00     0.173 A 
ATOM     53  C   UNL A   1      41.397  28.257  27.200  1.00  0.00     0.173 A 
ATOM     54  F   UNL A   1      39.358  26.137  29.330  1.00  0.00    -0.203 F 
ATOM     55  C   UNL A   1      40.235  25.738  27.181  1.00  0.00     0.198 A 
ATOM     56  C   UNL A   1      41.542  27.429  26.090  1.00  0.00     0.198 A 
ATOM     57  F   UNL A   1      41.984  29.464  27.185  1.00  0.00    -0.203 F 
ATOM     58  F   UNL A   1      39.709  24.506  27.197  1.00  0.00    -0.200 F 
ATOM     59  C   UNL A   1      40.971  26.165  26.086  1.00  0.00     0.200 A 
ATOM     60  F   UNL A   1      42.244  27.849  25.028  1.00  0.00    -0.200 F 
ATOM     61  F   UNL A   1      41.141  25.354  25.033  1.00  0.00    -0.200 F 
ENDBRANCH  27  51
BRANCH  39  62
ATOM     62  C   UNL A   1      44.195  28.265  34.293  1.00  0.00     0.064 A 
ATOM     63  C   UNL A   1      44.070  27.022  34.928  1.00  0.00     0.173 A 
ATOM     64  C   UNL A   1      45.486  28.785  34.113  1.00  0.00     0.173 A 
ATOM     65  F   UNL A   1      42.856  26.488  35.137  1.00  0.00    -0.203 F 
ATOM     66  C   UNL A   1      45.191  26.338  35.392  1.00  0.00     0.198 A 
ATOM     67  C   UNL A   1      46.607  28.084  34.547  1.00  0.00     0.198 A 
ATOM     68  F   UNL A   1      45.662  29.967  33.502  1.00  0.00    -0.203 F 
ATOM     69  F   UNL A   1      45.043  25.176  36.043  1.00  0.00    -0.200 F 
ATOM     70  C   UNL A   1      46.458  26.866  35.193  1.00  0.00     0.200 A 
ATOM     71  F   UNL A   1      47.833  28.586  34.339  1.00  0.00    -0.200 F 
ATOM     72  F   UNL A   1      47.537  26.202  35.630  1.00  0.00    -0.200 F 
ENDBRANCH  39  62
ENDBRANCH  13  14
ENDBRANCH   6   8
ENDBRANCH   3   4
ENDBRANCH   2   3
ENDBRANCH   1   2
BRANCH   1  73
ATOM     73  C   UNL A   1      31.865  29.828  25.825  1.00  0.00     0.002 C 
BRANCH  73  74
ATOM     74  C   UNL A   1      31.836  29.206  27.228  1.00  0.00     0.021 C 
BRANCH  74  75
ATOM     75  C   UNL A   1      31.822  27.676  27.214  1.00  0.00     0.116 C 
BRANCH  75  76
ATOM     76  N   UNL A   1      32.846  27.210  26.297  1.00  0.00    -0.355 N 
ATOM     77  C   UNL A   1      33.304  25.946  26.074  1.00  0.00     0.238 C 
ATOM     78  H   UNL A   1      33.274  27.913  25.756  1.00  0.00     0.163 HD
ATOM     79  O   UNL A   1      34.428  25.829  25.586  1.00  0.00    -0.273 OA
BRANCH  77  80
ATOM     80  C   UNL A   1      32.417  24.775  26.398  1.00  0.00     0.162 C 
ATOM     81  C   UNL A   1      33.202  23.473  26.510  1.00  0.00     0.032 C 
ATOM     82  N   UNL A   1      31.246  24.424  25.519  1.00  0.00    -0.185 NA
ATOM     83  C   UNL A   1      32.099  22.462  26.727  1.00  0.00     0.019 C 
ATOM     84  C   UNL A   1      30.894  23.014  25.962  1.00  0.00     0.103 C 
BRANCH  82  85
ATOM     85  S   UNL A   1      31.391  24.519  23.791  1.00  0.00     0.244 S 
ATOM     86  O   UNL A   1      32.722  24.079  23.434  1.00  0.00    -0.207 OA
ATOM     87  O   UNL A   1      30.247  23.806  23.258  1.00  0.00    -0.207 OA
BRANCH  85  88
ATOM     88  C   UNL A   1      31.228  26.235  23.285  1.00  0.00     0.090 A 
ATOM     89  C   UNL A   1      32.329  26.803  22.591  1.00  0.00     0.024 A 
ATOM     90  C   UNL A   1      29.986  26.958  23.344  1.00  0.00     0.005 A 
ATOM     91  C   UNL A   1      32.349  28.134  22.140  1.00  0.00     0.028 A 
ATOM     92  C   UNL A   1      30.052  28.235  22.849  1.00  0.00     0.019 A 
ATOM     93  C   UNL A   1      28.671  26.596  23.761  1.00  0.00     0.010 A 
ATOM     94  C   UNL A   1      31.173  28.825  22.307  1.00  0.00     0.050 A 
ATOM     95  C   UNL A   1      29.003  29.138  22.724  1.00  0.00     0.050 A 
ATOM     96  C   UNL A   1      27.569  27.472  23.612  1.00  0.00     0.002 A 
ATOM     97  N   UNL A   1      30.831  30.105  21.916  1.00  0.00    -0.321 N 
ATOM     98  C   UNL A   1      27.716  28.764  23.090  1.00  0.00     0.014 A 
ATOM     99  C   UNL A   1      29.476  30.380  22.138  1.00  0.00     0.256 C 
ATOM    100  H   UNL A   1      31.466  30.748  21.526  1.00  0.00     0.170 HD
ATOM    101  O   UNL A   1      28.925  31.430  21.863  1.00  0.00    -0.269 OA
ENDBRANCH  85  88
ENDBRANCH  82  85
ENDBRANCH  77  80
ENDBRANCH  75  76
ENDBRANCH  74  75
ENDBRANCH  73  74
ENDBRANCH   1  73
TORSDOF 15
ENDMDL
MODEL 2
REMARK VINA RESULT:     -13.2      1.921      4.343
REMARK SMILES O=C(NCCCCCCNC(=O)[C@@H]1CCCN1S(=O)(=O)c1ccc2c3c(cccc13)C(=O)N2)c1ccc(-c2c3nc(c(-c4c(F)c(F)c(F)c(F)c4F)c4ccc([nH]4)c(-c4c(F)c(F)c(F)c(F)c4F)c4nc(c(-c5c(F)c(F)c(F)c(F)c5F)c5ccc2[nH]5)C=C4)C=C3)cc1
REMARK SMILES IDX 6 1 5 2 4 3 3 4 1 5 2 6 34 8 35 9 96 10 36 11 95 12 37 13
REMARK SMILES IDX 38 14 39 15 89 16 40 17 94 18 88 19 90 20 41 21 93 22 87 23
REMARK SMILES IDX 86 24 42 26 74 27 54 28 73 29 55 30 58 31 72 32 91 33 56 34
REMARK SMILES IDX 57 35 71 37 92 38 59 39 43 40 44 41 52 42 45 43 46 44 50 45
REMARK SMILES IDX 53 46 47 47 48 48 51 49 49 50 75 51 76 52 84 53 77 54 78 55
REMARK SMILES IDX 82 56 85 57 79 58 80 59 83 60 81 61 60 62 61 63 69 64 62 65
REMARK SMILES IDX 63 66 67 67 70 68 64 69 65 70 68 71 66 72 7 73 8 74 9 75
REMARK SMILES IDX 10 76 11 77 12 79 13 80 14 81 17 82 15 83 16 84 18 85 19 86
REMARK SMILES IDX 20 87 21 88 22 89 30 90 23 91 25 92 29 93 24 94 26 95 28 96
REMARK SMILES IDX 33 97 27 98 31 99 32 101
REMARK H PARENT 3 7 90 25 58 36 10 78 33 100
REMARK Flexibility Score: inf
ROOT
ATOM      1  C   UNL A   1      31.550  30.854  26.072  1.00  0.00     0.002 C 
ENDROOT
BRANCH   1   2
ATOM      2  C   UNL A   1      31.345  32.294  26.545  1.00  0.00     0.021 C 
BRANCH   2   3
ATOM      3  C   UNL A   1      32.544  32.888  27.276  1.00  0.00     0.116 C 
BRANCH   3   4
ATOM      4  N   UNL A   1      32.331  34.286  27.619  1.00  0.00    -0.352 N 
ATOM      5  O   UNL A   1      32.529  36.135  28.907  1.00  0.00    -0.269 OA
ATOM      6  C   UNL A   1      32.940  35.022  28.603  1.00  0.00     0.251 C 
ATOM      7  H   UNL A   1      31.665  34.764  27.075  1.00  0.00     0.163 HD
BRANCH   6   8
ATOM      8  C   UNL A   1      34.096  34.439  29.310  1.00  0.00     0.039 A 
ATOM      9  C   UNL A   1      35.376  34.530  28.754  1.00  0.00     0.014 A 
ATOM     10  C   UNL A   1      33.886  33.770  30.517  1.00  0.00     0.014 A 
ATOM     11  C   UNL A   1      36.435  33.860  29.358  1.00  0.00     0.010 A 
ATOM     12  C   UNL A   1      34.960  33.140  31.147  1.00  0.00     0.010 A 
ATOM     13  C   UNL A   1      36.234  33.157  30.556  1.00  0.00    -0.014 A 
BRANCH  13  14
ATOM     14  C   UNL A   1      37.368  32.445  31.192  1.00  0.00     0.031 A 
ATOM     15  C   UNL A   1      37.866  32.863  32.545  1.00  0.00     0.074 A 
ATOM     16  C   UNL A   1      37.924  31.398  30.553  1.00  0.00     0.049 A 
ATOM     17  N   UNL A   1      38.855  32.373  33.249  1.00  0.00    -0.248 NA
ATOM     18  C   UNL A   1      37.157  33.974  33.202  1.00  0.00     0.031 C 
ATOM     19  C   UNL A   1      37.498  30.884  29.251  1.00  0.00     0.029 A 
ATOM     20  N   UNL A   1      38.959  30.575  30.916  1.00  0.00    -0.354 N 
ATOM     21  C   UNL A   1      38.879  33.101  34.431  1.00  0.00     0.074 A 
ATOM     22  C   UNL A   1      37.834  34.098  34.335  1.00  0.00     0.031 C 
ATOM     23  C   UNL A   1      38.248  29.816  28.935  1.00  0.00     0.029 A 
ATOM     24  C   UNL A   1      39.238  29.604  29.986  1.00  0.00     0.049 A 
ATOM     25  H   UNL A   1      39.453  30.670  31.762  1.00  0.00     0.167 HD
ATOM     26  C   UNL A   1      39.688  32.936  35.503  1.00  0.00     0.037 A 
ATOM     27  C   UNL A   1      40.198  28.660  29.979  1.00  0.00     0.037 A 
ATOM     28  C   UNL A   1      40.735  31.949  35.588  1.00  0.00     0.049 A 
ATOM     29  C   UNL A   1      41.151  28.580  31.139  1.00  0.00     0.074 A 
ATOM     30  C   UNL A   1      41.622  31.720  36.626  1.00  0.00     0.029 A 
ATOM     31  N   UNL A   1      41.032  31.025  34.597  1.00  0.00    -0.354 N 
ATOM     32  N   UNL A   1      41.162  29.269  32.255  1.00  0.00    -0.248 NA
ATOM     33  C   UNL A   1      42.232  27.589  31.037  1.00  0.00     0.031 C 
ATOM     34  C   UNL A   1      42.482  30.686  36.248  1.00  0.00     0.029 A 
ATOM     35  C   UNL A   1      42.100  30.235  34.995  1.00  0.00     0.049 A 
ATOM     36  H   UNL A   1      40.557  30.943  33.740  1.00  0.00     0.167 HD
ATOM     37  C   UNL A   1      42.226  28.774  32.997  1.00  0.00     0.074 A 
ATOM     38  C   UNL A   1      42.823  27.712  32.215  1.00  0.00     0.031 C 
ATOM     39  C   UNL A   1      42.672  29.170  34.214  1.00  0.00     0.037 A 
BRANCH  26  40
ATOM     40  C   UNL A   1      39.475  33.824  36.693  1.00  0.00     0.064 A 
ATOM     41  C   UNL A   1      38.678  33.411  37.771  1.00  0.00     0.173 A 
ATOM     42  C   UNL A   1      40.156  35.045  36.809  1.00  0.00     0.173 A 
ATOM     43  F   UNL A   1      37.996  32.258  37.704  1.00  0.00    -0.203 F 
ATOM     44  C   UNL A   1      38.574  34.186  38.923  1.00  0.00     0.198 A 
ATOM     45  C   UNL A   1      40.069  35.806  37.972  1.00  0.00     0.198 A 
ATOM     46  F   UNL A   1      40.934  35.483  35.809  1.00  0.00    -0.203 F 
ATOM     47  F   UNL A   1      37.795  33.778  39.934  1.00  0.00    -0.200 F 
ATOM     48  C   UNL A   1      39.280  35.375  39.028  1.00  0.00     0.200 A 
ATOM     49  F   UNL A   1      40.762  36.948  38.078  1.00  0.00    -0.200 F 
ATOM     50  F   UNL A   1      39.200  36.107  40.149  1.00  0.00    -0.200 F 
ENDBRANCH  26  40
BRANCH  27  51
ATOM     51  C   UNL A   1      40.307  27.709  28.842  1.00  0.00     0.064 A 
ATOM     52  C   UNL A   1      39.652  26.470  28.880  1.00  0.00     0.173 A 
ATOM     53  C   UNL A   1      41.090  27.997  27.715  1.00  0.00     0.173 A 
ATOM     54  F   UNL A   1      38.909  26.139  29.947  1.00  0.00    -0.203 F 
ATOM     55  C   UNL A   1      39.798  25.546  27.849  1.00  0.00     0.198 A 
ATOM     56  C   UNL A   1      41.209  27.086  26.668  1.00  0.00     0.198 A 
ATOM     57  F   UNL A   1      41.739  29.168  27.628  1.00  0.00    -0.203 F 
ATOM     58  F   UNL A   1      39.207  24.347  27.940  1.00  0.00    -0.200 F 
ATOM     59  C   UNL A   1      40.572  25.856  26.741  1.00  0.00     0.200 A 
ATOM     60  F   UNL A   1      41.948  27.395  25.594  1.00  0.00    -0.200 F 
ATOM     61  F   UNL A   1      40.715  24.965  25.750  1.00  0.00    -0.200 F 
ENDBRANCH  27  51
BRANCH  39  62
ATOM     62  C   UNL A   1      43.842  28.427  34.795  1.00  0.00     0.064 A 
ATOM     63  C   UNL A   1      45.158  28.879  34.620  1.00  0.00     0.173 A 
ATOM     64  C   UNL A   1      43.638  27.277  35.573  1.00  0.00     0.173 A 
ATOM     65  F   UNL A   1      45.406  29.965  33.873  1.00  0.00    -0.203 F 
ATOM     66  C   UNL A   1      46.231  28.189  35.179  1.00  0.00     0.198 A 
ATOM     67  C   UNL A   1      44.711  26.610  36.159  1.00  0.00     0.198 A 
ATOM     68  F   UNL A   1      42.398  26.809  35.779  1.00  0.00    -0.203 F 
ATOM     69  F   UNL A   1      47.484  28.609  34.955  1.00  0.00    -0.200 F 
ATOM     70  C   UNL A   1      46.005  27.062  35.955  1.00  0.00     0.200 A 
ATOM     71  F   UNL A   1      44.491  25.531  36.922  1.00  0.00    -0.200 F 
ATOM     72  F   UNL A   1      47.039  26.406  36.501  1.00  0.00    -0.200 F 
ENDBRANCH  39  62
ENDBRANCH  13  14
ENDBRANCH   6   8
ENDBRANCH   3   4
ENDBRANCH   2   3
ENDBRANCH   1   2
BRANCH   1  73
ATOM     73  C   UNL A   1      32.454  30.012  26.977  1.00  0.00     0.002 C 
BRANCH  73  74
ATOM     74  C   UNL A   1      33.557  29.245  26.233  1.00  0.00     0.021 C 
BRANCH  74  75
ATOM     75  C   UNL A   1      33.458  27.728  26.398  1.00  0.00     0.116 C 
BRANCH  75  76
ATOM     76  N   UNL A   1      32.082  27.323  26.170  1.00  0.00    -0.355 N 
ATOM     77  C   UNL A   1      31.478  26.898  25.026  1.00  0.00     0.238 C 
ATOM     78  H   UNL A   1      31.499  27.361  26.964  1.00  0.00     0.163 HD
ATOM     79  O   UNL A   1      30.254  27.011  24.956  1.00  0.00    -0.273 OA
BRANCH  77  80
ATOM     80  C   UNL A   1      32.316  26.293  23.933  1.00  0.00     0.162 C 
ATOM     81  C   UNL A   1      31.495  25.976  22.688  1.00  0.00     0.032 C 
ATOM     82  N   UNL A   1      33.115  25.039  24.175  1.00  0.00    -0.185 NA
ATOM     83  C   UNL A   1      32.518  25.295  21.806  1.00  0.00     0.019 C 
ATOM     84  C   UNL A   1      33.464  24.577  22.771  1.00  0.00     0.103 C 
BRANCH  82  85
ATOM     85  S   UNL A   1      32.442  23.741  25.112  1.00  0.00     0.244 S 
ATOM     86  O   UNL A   1      32.322  24.198  26.479  1.00  0.00    -0.207 OA
ATOM     87  O   UNL A   1      31.250  23.319  24.404  1.00  0.00    -0.207 OA
BRANCH  85  88
ATOM     88  C   UNL A   1      33.585  22.355  25.096  1.00  0.00     0.090 A 
ATOM     89  C   UNL A   1      33.061  21.101  24.688  1.00  0.00     0.024 A 
ATOM     90  C   UNL A   1      35.007  22.507  25.250  1.00  0.00     0.005 A 
ATOM     91  C   UNL A   1      33.832  19.927  24.633  1.00  0.00     0.028 A 
ATOM     92  C   UNL A   1      35.714  21.338  25.141  1.00  0.00     0.019 A 
ATOM     93  C   UNL A   1      35.848  23.644  25.433  1.00  0.00     0.010 A 
ATOM     94  C   UNL A   1      35.173  20.097  24.885  1.00  0.00     0.050 A 
ATOM     95  C   UNL A   1      37.095  21.189  25.186  1.00  0.00     0.050 A 
ATOM     96  C   UNL A   1      37.259  23.540  25.443  1.00  0.00     0.002 A 
ATOM     97  N   UNL A   1      36.208  19.183  24.842  1.00  0.00    -0.321 N 
ATOM     98  C   UNL A   1      37.911  22.305  25.320  1.00  0.00     0.014 A 
ATOM     99  C   UNL A   1      37.457  19.792  25.015  1.00  0.00     0.256 C 
ATOM    100  H   UNL A   1      36.082  18.216  24.705  1.00  0.00     0.170 HD
ATOM    101  O   UNL A   1      38.524  19.207  25.001  1.00  0.00    -0.269 OA
ENDBRANCH  85  88
ENDBRANCH  82  85
ENDBRANCH  77  80
ENDBRANCH  75  76
ENDBRANCH  74  75
ENDBRANCH  73  74
ENDBRANCH   1  73
TORSDOF 15
ENDMDL
MODEL 3
REMARK VINA RESULT:     -13.2      5.147     10.361
REMARK SMILES O=C(NCCCCCCNC(=O)[C@@H]1CCCN1S(=O)(=O)c1ccc2c3c(cccc13)C(=O)N2)c1ccc(-c2c3nc(c(-c4c(F)c(F)c(F)c(F)c4F)c4ccc([nH]4)c(-c4c(F)c(F)c(F)c(F)c4F)c4nc(c(-c5c(F)c(F)c(F)c(F)c5F)c5ccc2[nH]5)C=C4)C=C3)cc1
REMARK SMILES IDX 6 1 5 2 4 3 3 4 1 5 2 6 34 8 35 9 96 10 36 11 95 12 37 13
REMARK SMILES IDX 38 14 39 15 89 16 40 17 94 18 88 19 90 20 41 21 93 22 87 23
REMARK SMILES IDX 86 24 42 26 74 27 54 28 73 29 55 30 58 31 72 32 91 33 56 34
REMARK SMILES IDX 57 35 71 37 92 38 59 39 43 40 44 41 52 42 45 43 46 44 50 45
REMARK SMILES IDX 53 46 47 47 48 48 51 49 49 50 75 51 76 52 84 53 77 54 78 55
REMARK SMILES IDX 82 56 85 57 79 58 80 59 83 60 81 61 60 62 61 63 69 64 62 65
REMARK SMILES IDX 63 66 67 67 70 68 64 69 65 70 68 71 66 72 7 73 8 74 9 75
REMARK SMILES IDX 10 76 11 77 12 79 13 80 14 81 17 82 15 83 16 84 18 85 19 86
REMARK SMILES IDX 20 87 21 88 22 89 30 90 23 91 25 92 29 93 24 94 26 95 28 96
REMARK SMILES IDX 33 97 27 98 31 99 32 101
REMARK H PARENT 3 7 90 25 58 36 10 78 33 100
REMARK Flexibility Score: inf
ROOT
ATOM      1  C   UNL A   1      37.025  20.438  25.005  1.00  0.00     0.002 C 
ENDROOT
BRANCH   1   2
ATOM      2  C   UNL A   1      38.199  19.458  25.003  1.00  0.00     0.021 C 
BRANCH   2   3
ATOM      3  C   UNL A   1      39.409  19.929  25.803  1.00  0.00     0.116 C 
BRANCH   3   4
ATOM      4  N   UNL A   1      40.428  18.896  25.903  1.00  0.00    -0.352 N 
ATOM      5  O   UNL A   1      42.545  18.101  25.956  1.00  0.00    -0.269 OA
ATOM      6  C   UNL A   1      41.779  19.049  26.080  1.00  0.00     0.251 C 
ATOM      7  H   UNL A   1      40.106  17.968  25.835  1.00  0.00     0.163 HD
BRANCH   6   8
ATOM      8  C   UNL A   1      42.302  20.389  26.405  1.00  0.00     0.039 A 
ATOM      9  C   UNL A   1      42.250  20.861  27.721  1.00  0.00     0.014 A 
ATOM     10  C   UNL A   1      42.816  21.185  25.380  1.00  0.00     0.014 A 
ATOM     11  C   UNL A   1      42.618  22.174  27.994  1.00  0.00     0.010 A 
ATOM     12  C   UNL A   1      43.230  22.486  25.666  1.00  0.00     0.010 A 
ATOM     13  C   UNL A   1      43.107  22.998  26.968  1.00  0.00    -0.014 A 
BRANCH  13  14
ATOM     14  C   UNL A   1      43.496  24.396  27.267  1.00  0.00     0.031 A 
ATOM     15  C   UNL A   1      44.922  24.839  27.110  1.00  0.00     0.074 A 
ATOM     16  C   UNL A   1      42.548  25.271  27.650  1.00  0.00     0.049 A 
ATOM     17  N   UNL A   1      45.452  26.013  27.341  1.00  0.00    -0.248 NA
ATOM     18  C   UNL A   1      45.881  23.834  26.621  1.00  0.00     0.031 C 
ATOM     19  C   UNL A   1      41.126  24.958  27.801  1.00  0.00     0.029 A 
ATOM     20  N   UNL A   1      42.634  26.601  27.972  1.00  0.00    -0.354 N 
ATOM     21  C   UNL A   1      46.797  25.895  27.016  1.00  0.00     0.074 A 
ATOM     22  C   UNL A   1      47.015  24.522  26.611  1.00  0.00     0.031 C 
ATOM     23  C   UNL A   1      40.469  26.072  28.163  1.00  0.00     0.029 A 
ATOM     24  C   UNL A   1      41.429  27.161  28.317  1.00  0.00     0.049 A 
ATOM     25  H   UNL A   1      43.479  27.106  27.957  1.00  0.00     0.167 HD
ATOM     26  C   UNL A   1      47.753  26.852  27.035  1.00  0.00     0.037 A 
ATOM     27  C   UNL A   1      41.137  28.409  28.727  1.00  0.00     0.037 A 
ATOM     28  C   UNL A   1      47.532  28.215  27.450  1.00  0.00     0.049 A 
ATOM     29  C   UNL A   1      42.248  29.417  28.845  1.00  0.00     0.074 A 
ATOM     30  C   UNL A   1      48.446  29.252  27.525  1.00  0.00     0.029 A 
ATOM     31  N   UNL A   1      46.311  28.728  27.858  1.00  0.00    -0.354 N 
ATOM     32  N   UNL A   1      43.515  29.297  28.529  1.00  0.00    -0.248 NA
ATOM     33  C   UNL A   1      41.886  30.737  29.381  1.00  0.00     0.031 C 
ATOM     34  C   UNL A   1      47.787  30.382  28.016  1.00  0.00     0.029 A 
ATOM     35  C   UNL A   1      46.451  30.065  28.200  1.00  0.00     0.049 A 
ATOM     36  H   UNL A   1      45.469  28.221  27.898  1.00  0.00     0.167 HD
ATOM     37  C   UNL A   1      44.092  30.531  28.797  1.00  0.00     0.074 A 
ATOM     38  C   UNL A   1      43.033  31.392  29.280  1.00  0.00     0.031 C 
ATOM     39  C   UNL A   1      45.385  30.914  28.662  1.00  0.00     0.037 A 
BRANCH  26  40
ATOM     40  C   UNL A   1      49.133  26.482  26.578  1.00  0.00     0.064 A 
ATOM     41  C   UNL A   1      49.531  26.675  25.247  1.00  0.00     0.173 A 
ATOM     42  C   UNL A   1      50.098  26.037  27.494  1.00  0.00     0.173 A 
ATOM     43  F   UNL A   1      48.643  27.087  24.329  1.00  0.00    -0.203 F 
ATOM     44  C   UNL A   1      50.845  26.439  24.851  1.00  0.00     0.198 A 
ATOM     45  C   UNL A   1      51.417  25.826  27.100  1.00  0.00     0.198 A 
ATOM     46  F   UNL A   1      49.770  25.842  28.780  1.00  0.00    -0.203 F 
ATOM     47  F   UNL A   1      51.198  26.616  23.570  1.00  0.00    -0.200 F 
ATOM     48  C   UNL A   1      51.789  26.028  25.779  1.00  0.00     0.200 A 
ATOM     49  F   UNL A   1      52.332  25.442  28.001  1.00  0.00    -0.200 F 
ATOM     50  F   UNL A   1      53.060  25.828  25.402  1.00  0.00    -0.200 F 
ENDBRANCH  26  40
BRANCH  27  51
ATOM     51  C   UNL A   1      39.737  28.785  29.054  1.00  0.00     0.064 A 
ATOM     52  C   UNL A   1      39.222  28.577  30.342  1.00  0.00     0.173 A 
ATOM     53  C   UNL A   1      38.874  29.321  28.087  1.00  0.00     0.173 A 
ATOM     54  F   UNL A   1      40.002  28.045  31.296  1.00  0.00    -0.203 F 
ATOM     55  C   UNL A   1      37.894  28.867  30.642  1.00  0.00     0.198 A 
ATOM     56  C   UNL A   1      37.555  29.641  28.396  1.00  0.00     0.198 A 
ATOM     57  F   UNL A   1      39.315  29.538  26.839  1.00  0.00    -0.203 F 
ATOM     58  F   UNL A   1      37.414  28.603  31.865  1.00  0.00    -0.200 F 
ATOM     59  C   UNL A   1      37.062  29.403  29.670  1.00  0.00     0.200 A 
ATOM     60  F   UNL A   1      36.758  30.171  27.459  1.00  0.00    -0.200 F 
ATOM     61  F   UNL A   1      35.782  29.678  29.959  1.00  0.00    -0.200 F 
ENDBRANCH  27  51
BRANCH  39  62
ATOM     62  C   UNL A   1      45.722  32.336  29.006  1.00  0.00     0.064 A 
ATOM     63  C   UNL A   1      46.164  32.697  30.287  1.00  0.00     0.173 A 
ATOM     64  C   UNL A   1      45.647  33.342  28.030  1.00  0.00     0.173 A 
ATOM     65  F   UNL A   1      46.240  31.776  31.260  1.00  0.00    -0.203 F 
ATOM     66  C   UNL A   1      46.490  34.017  30.587  1.00  0.00     0.198 A 
ATOM     67  C   UNL A   1      46.007  34.654  28.323  1.00  0.00     0.198 A 
ATOM     68  F   UNL A   1      45.240  33.048  26.785  1.00  0.00    -0.203 F 
ATOM     69  F   UNL A   1      46.859  34.347  31.832  1.00  0.00    -0.200 F 
ATOM     70  C   UNL A   1      46.420  34.992  29.603  1.00  0.00     0.200 A 
ATOM     71  F   UNL A   1      45.955  35.592  27.367  1.00  0.00    -0.200 F 
ATOM     72  F   UNL A   1      46.744  36.259  29.891  1.00  0.00    -0.200 F 
ENDBRANCH  39  62
ENDBRANCH  13  14
ENDBRANCH   6   8
ENDBRANCH   3   4
ENDBRANCH   2   3
ENDBRANCH   1   2
BRANCH   1  73
ATOM     73  C   UNL A   1      37.392  21.866  24.592  1.00  0.00     0.002 C 
BRANCH  73  74
ATOM     74  C   UNL A   1      37.213  22.913  25.701  1.00  0.00     0.021 C 
BRANCH  74  75
ATOM     75  C   UNL A   1      35.914  23.711  25.578  1.00  0.00     0.116 C 
BRANCH  75  76
ATOM     76  N   UNL A   1      35.153  23.193  24.456  1.00  0.00    -0.355 N 
ATOM     77  C   UNL A   1      33.842  22.829  24.388  1.00  0.00     0.238 C 
ATOM     78  H   UNL A   1      35.661  23.090  23.618  1.00  0.00     0.163 HD
ATOM     79  O   UNL A   1      33.518  22.044  23.497  1.00  0.00    -0.273 OA
BRANCH  77  80
ATOM     80  C   UNL A   1      32.864  23.417  25.368  1.00  0.00     0.162 C 
ATOM     81  C   UNL A   1      31.485  22.776  25.259  1.00  0.00     0.032 C 
ATOM     82  N   UNL A   1      32.581  24.897  25.386  1.00  0.00    -0.185 NA
ATOM     83  C   UNL A   1      30.682  23.596  26.244  1.00  0.00     0.019 C 
ATOM     84  C   UNL A   1      31.306  24.993  26.204  1.00  0.00     0.103 C 
BRANCH  82  85
ATOM     85  S   UNL A   1      32.437  25.776  23.896  1.00  0.00     0.244 S 
ATOM     86  O   UNL A   1      33.743  25.810  23.274  1.00  0.00    -0.207 OA
ATOM     87  O   UNL A   1      31.333  25.167  23.182  1.00  0.00    -0.207 OA
BRANCH  85  88
ATOM     88  C   UNL A   1      31.961  27.470  24.261  1.00  0.00     0.090 A 
ATOM     89  C   UNL A   1      30.792  27.956  23.619  1.00  0.00     0.024 A 
ATOM     90  C   UNL A   1      32.559  28.245  25.315  1.00  0.00     0.005 A 
ATOM     91  C   UNL A   1      30.302  29.261  23.802  1.00  0.00     0.028 A 
ATOM     92  C   UNL A   1      32.012  29.491  25.479  1.00  0.00     0.019 A 
ATOM     93  C   UNL A   1      33.574  27.959  26.275  1.00  0.00     0.010 A 
ATOM     94  C   UNL A   1      30.965  30.007  24.747  1.00  0.00     0.050 A 
ATOM     95  C   UNL A   1      32.345  30.429  26.449  1.00  0.00     0.050 A 
ATOM     96  C   UNL A   1      33.913  28.870  27.303  1.00  0.00     0.002 A 
ATOM     97  N   UNL A   1      30.703  31.279  25.219  1.00  0.00    -0.321 N 
ATOM     98  C   UNL A   1      33.303  30.127  27.408  1.00  0.00     0.014 A 
ATOM     99  C   UNL A   1      31.526  31.620  26.299  1.00  0.00     0.256 C 
ATOM    100  H   UNL A   1      30.018  31.875  24.840  1.00  0.00     0.170 HD
ATOM    101  O   UNL A   1      31.481  32.676  26.902  1.00  0.00    -0.269 OA
ENDBRANCH  85  88
ENDBRANCH  82  85
ENDBRANCH  77  80
ENDBRANCH  75  76
ENDBRANCH  74  75
ENDBRANCH  73  74
ENDBRANCH   1  73
TORSDOF 15
ENDMDL
