MODEL 1
REMARK VINA RESULT:     -10.8      0.000      0.000
REMARK SMILES CC(C)S(=O)(=O)N[C@](C)(C(=O)NCCCCCCNC(=O)c1ccc(-c2c3nc(c(-c4c(F)c(F)c(F)c(F)c4F)c4ccc([nH]4)c(-c4c(F)c(F)c(F)c(F)c4F)c4nc(c(-c5c(F)c(F)c(F)c(F)c5F)c5ccc2[nH]5)C=C4)C=C3)cc1)C(F)(F)F
REMARK SMILES IDX 15 1 14 2 13 3 12 4 10 5 11 6 8 8 9 9 7 10 4 12 5 13 6 14
REMARK SMILES IDX 2 15 1 16 3 17 85 18 86 19 87 20 88 21 16 22 17 23 18 24
REMARK SMILES IDX 19 25 20 26 21 28 22 29 23 30 84 31 24 32 83 33 25 34 26 35
REMARK SMILES IDX 27 36 77 37 28 38 82 39 76 40 78 41 29 42 81 43 75 44 74 45
REMARK SMILES IDX 30 47 62 48 42 49 61 50 43 51 46 52 60 53 79 54 44 55 45 56
REMARK SMILES IDX 59 58 80 59 47 60 31 61 32 62 40 63 33 64 34 65 38 66 41 67
REMARK SMILES IDX 35 68 36 69 39 70 37 71 63 72 64 73 72 74 65 75 66 76 70 77
REMARK SMILES IDX 73 78 67 79 68 80 71 81 69 82 48 83 49 84 57 85 50 86 51 87
REMARK SMILES IDX 55 88 58 89 52 90 53 91 56 92 54 93
REMARK H PARENT 12 7 7 11 19 27 78 46 46 57
REMARK Flexibility Score: inf
ROOT
ATOM      1  C   UNL A   1      31.871  29.482  27.042  1.00  0.00     0.002 C 
ENDROOT
BRANCH   1   2
ATOM      2  C   UNL A   1      33.285  28.901  27.028  1.00  0.00     0.021 C 
BRANCH   2   3
ATOM      3  C   UNL A   1      33.382  27.504  26.423  1.00  0.00     0.116 C 
BRANCH   3   4
ATOM      4  N   UNL A   1      33.512  27.525  24.978  1.00  0.00    -0.354 N 
ATOM      5  C   UNL A   1      32.821  26.866  23.992  1.00  0.00     0.250 C 
ATOM      6  O   UNL A   1      33.115  27.185  22.839  1.00  0.00    -0.273 OA
ATOM      7  H   UNL A   1      34.224  28.117  24.644  1.00  0.00     0.163 HD
BRANCH   5   8
ATOM      8  C   UNL A   1      31.741  25.802  24.332  1.00  0.00     0.204 C 
ATOM      9  C   UNL A   1      31.414  25.042  23.047  1.00  0.00     0.050 C 
BRANCH   8  10
ATOM     10  N   UNL A   1      32.416  24.900  25.360  1.00  0.00    -0.191 NA
ATOM     11  H   UNL A   1      33.264  24.566  24.903  1.00  0.00     0.142 HD
BRANCH  10  12
ATOM     12  S   UNL A   1      31.757  23.560  26.078  1.00  0.00     0.215 S 
ATOM     13  O   UNL A   1      30.692  23.059  25.249  1.00  0.00    -0.212 OA
ATOM     14  O   UNL A   1      31.472  24.020  27.421  1.00  0.00    -0.212 OA
BRANCH  12  15
ATOM     15  C   UNL A   1      33.064  22.315  26.228  1.00  0.00     0.118 C 
ATOM     16  C   UNL A   1      34.063  22.324  25.081  1.00  0.00     0.026 C 
ATOM     17  C   UNL A   1      33.760  22.351  27.583  1.00  0.00     0.026 C 
ENDBRANCH  12  15
ENDBRANCH  10  12
ENDBRANCH   8  10
BRANCH   8  18
ATOM     18  C   UNL A   1      30.488  26.579  24.800  1.00  0.00     0.416 C 
ATOM     19  F   UNL A   1      29.342  25.972  24.398  1.00  0.00    -0.168 F 
ATOM     20  F   UNL A   1      30.399  26.610  26.153  1.00  0.00    -0.168 F 
ATOM     21  F   UNL A   1      30.471  27.851  24.349  1.00  0.00    -0.168 F 
ENDBRANCH   8  18
ENDBRANCH   5   8
ENDBRANCH   3   4
ENDBRANCH   2   3
ENDBRANCH   1   2
BRANCH   1  22
ATOM     22  C   UNL A   1      31.610  30.579  26.004  1.00  0.00     0.002 C 
BRANCH  22  23
ATOM     23  C   UNL A   1      31.393  31.980  26.579  1.00  0.00     0.021 C 
BRANCH  23  24
ATOM     24  C   UNL A   1      32.645  32.632  27.156  1.00  0.00     0.116 C 
BRANCH  24  25
ATOM     25  N   UNL A   1      32.420  34.024  27.511  1.00  0.00    -0.352 N 
ATOM     26  C   UNL A   1      32.977  34.776  28.514  1.00  0.00     0.251 C 
ATOM     27  H   UNL A   1      31.769  34.499  26.944  1.00  0.00     0.163 HD
ATOM     28  O   UNL A   1      32.501  35.871  28.795  1.00  0.00    -0.269 OA
BRANCH  26  29
ATOM     29  C   UNL A   1      34.138  34.264  29.271  1.00  0.00     0.039 A 
ATOM     30  C   UNL A   1      33.909  33.424  30.364  1.00  0.00     0.014 A 
ATOM     31  C   UNL A   1      35.444  34.622  28.924  1.00  0.00     0.014 A 
ATOM     32  C   UNL A   1      34.992  32.896  31.070  1.00  0.00     0.010 A 
ATOM     33  C   UNL A   1      36.523  34.033  29.579  1.00  0.00     0.010 A 
ATOM     34  C   UNL A   1      36.309  33.163  30.659  1.00  0.00    -0.014 A 
BRANCH  34  35
ATOM     35  C   UNL A   1      37.463  32.520  31.338  1.00  0.00     0.031 A 
ATOM     36  C   UNL A   1      38.192  31.374  30.692  1.00  0.00     0.074 A 
ATOM     37  C   UNL A   1      37.826  32.943  32.566  1.00  0.00     0.049 A 
ATOM     38  N   UNL A   1      39.198  30.671  31.149  1.00  0.00    -0.248 NA
ATOM     39  C   UNL A   1      37.717  30.948  29.366  1.00  0.00     0.031 C 
ATOM     40  C   UNL A   1      37.167  34.012  33.319  1.00  0.00     0.029 A 
ATOM     41  N   UNL A   1      38.834  32.526  33.399  1.00  0.00    -0.354 N 
ATOM     42  C   UNL A   1      39.473  29.723  30.171  1.00  0.00     0.074 A 
ATOM     43  C   UNL A   1      38.492  29.901  29.123  1.00  0.00     0.031 C 
ATOM     44  C   UNL A   1      37.804  34.186  34.487  1.00  0.00     0.029 A 
ATOM     45  C   UNL A   1      38.886  33.213  34.588  1.00  0.00     0.049 A 
ATOM     46  H   UNL A   1      39.459  31.802  33.167  1.00  0.00     0.167 HD
ATOM     47  C   UNL A   1      40.470  28.807  30.140  1.00  0.00     0.037 A 
ATOM     48  C   UNL A   1      39.709  33.068  35.645  1.00  0.00     0.037 A 
ATOM     49  C   UNL A   1      41.452  28.640  31.180  1.00  0.00     0.049 A 
ATOM     50  C   UNL A   1      40.789  32.020  35.592  1.00  0.00     0.074 A 
ATOM     51  C   UNL A   1      42.529  27.771  31.219  1.00  0.00     0.029 A 
ATOM     52  N   UNL A   1      41.475  29.356  32.369  1.00  0.00    -0.354 N 
ATOM     53  N   UNL A   1      41.083  31.180  34.630  1.00  0.00    -0.248 NA
ATOM     54  C   UNL A   1      41.657  31.906  36.772  1.00  0.00     0.031 C 
ATOM     55  C   UNL A   1      43.167  27.919  32.455  1.00  0.00     0.029 A 
ATOM     56  C   UNL A   1      42.530  28.926  33.160  1.00  0.00     0.049 A 
ATOM     57  H   UNL A   1      40.836  30.063  32.615  1.00  0.00     0.167 HD
ATOM     58  C   UNL A   1      42.186  30.463  35.074  1.00  0.00     0.074 A 
ATOM     59  C   UNL A   1      42.523  30.983  36.382  1.00  0.00     0.031 C 
ATOM     60  C   UNL A   1      42.857  29.459  34.458  1.00  0.00     0.037 A 
BRANCH  47  61
ATOM     61  C   UNL A   1      40.560  27.910  28.937  1.00  0.00     0.064 A 
ATOM     62  C   UNL A   1      39.808  26.729  28.842  1.00  0.00     0.173 A 
ATOM     63  C   UNL A   1      41.356  28.267  27.838  1.00  0.00     0.173 A 
ATOM     64  F   UNL A   1      39.038  26.335  29.868  1.00  0.00    -0.203 F 
ATOM     65  C   UNL A   1      39.868  25.929  27.704  1.00  0.00     0.198 A 
ATOM     66  C   UNL A   1      41.388  27.482  26.689  1.00  0.00     0.198 A 
ATOM     67  F   UNL A   1      42.091  29.390  27.871  1.00  0.00    -0.203 F 
ATOM     68  F   UNL A   1      39.174  24.783  27.655  1.00  0.00    -0.200 F 
ATOM     69  C   UNL A   1      40.649  26.311  26.625  1.00  0.00     0.200 A 
ATOM     70  F   UNL A   1      42.133  27.862  25.640  1.00  0.00    -0.200 F 
ATOM     71  F   UNL A   1      40.694  25.549  25.524  1.00  0.00    -0.200 F 
ENDBRANCH  47  61
BRANCH  48  72
ATOM     72  C   UNL A   1      39.551  33.935  36.844  1.00  0.00     0.064 A 
ATOM     73  C   UNL A   1      40.182  35.186  36.919  1.00  0.00     0.173 A 
ATOM     74  C   UNL A   1      38.799  33.519  37.951  1.00  0.00     0.173 A 
ATOM     75  F   UNL A   1      40.929  35.622  35.895  1.00  0.00    -0.203 F 
ATOM     76  C   UNL A   1      40.097  35.968  38.070  1.00  0.00     0.198 A 
ATOM     77  C   UNL A   1      38.683  34.317  39.087  1.00  0.00     0.198 A 
ATOM     78  F   UNL A   1      38.168  32.335  37.930  1.00  0.00    -0.203 F 
ATOM     79  F   UNL A   1      40.766  37.126  38.140  1.00  0.00    -0.200 F 
ATOM     80  C   UNL A   1      39.345  35.535  39.151  1.00  0.00     0.200 A 
ATOM     81  F   UNL A   1      37.940  33.903  40.122  1.00  0.00    -0.200 F 
ATOM     82  F   UNL A   1      39.265  36.285  40.258  1.00  0.00    -0.200 F 
ENDBRANCH  48  72
BRANCH  60  83
ATOM     83  C   UNL A   1      44.046  28.883  35.176  1.00  0.00     0.064 A 
ATOM     84  C   UNL A   1      45.335  29.412  35.014  1.00  0.00     0.173 A 
ATOM     85  C   UNL A   1      43.888  27.799  36.054  1.00  0.00     0.173 A 
ATOM     86  F   UNL A   1      45.543  30.439  34.176  1.00  0.00    -0.203 F 
ATOM     87  C   UNL A   1      46.427  28.853  35.673  1.00  0.00     0.198 A 
ATOM     88  C   UNL A   1      44.976  27.268  36.742  1.00  0.00     0.198 A 
ATOM     89  F   UNL A   1      42.676  27.260  36.255  1.00  0.00    -0.203 F 
ATOM     90  F   UNL A   1      47.658  29.335  35.453  1.00  0.00    -0.200 F 
ATOM     91  C   UNL A   1      46.246  27.787  36.542  1.00  0.00     0.200 A 
ATOM     92  F   UNL A   1      44.796  26.249  37.594  1.00  0.00    -0.200 F 
ATOM     93  F   UNL A   1      47.297  27.254  37.178  1.00  0.00    -0.200 F 
ENDBRANCH  60  83
ENDBRANCH  34  35
ENDBRANCH  26  29
ENDBRANCH  24  25
ENDBRANCH  23  24
ENDBRANCH  22  23
ENDBRANCH   1  22
TORSDOF 17
ENDMDL
MODEL 2
REMARK VINA RESULT:     -10.7      1.073      7.518
REMARK SMILES CC(C)S(=O)(=O)N[C@](C)(C(=O)NCCCCCCNC(=O)c1ccc(-c2c3nc(c(-c4c(F)c(F)c(F)c(F)c4F)c4ccc([nH]4)c(-c4c(F)c(F)c(F)c(F)c4F)c4nc(c(-c5c(F)c(F)c(F)c(F)c5F)c5ccc2[nH]5)C=C4)C=C3)cc1)C(F)(F)F
REMARK SMILES IDX 15 1 14 2 13 3 12 4 10 5 11 6 8 8 9 9 7 10 4 12 5 13 6 14
REMARK SMILES IDX 2 15 1 16 3 17 85 18 86 19 87 20 88 21 16 22 17 23 18 24
REMARK SMILES IDX 19 25 20 26 21 28 22 29 23 30 84 31 24 32 83 33 25 34 26 35
REMARK SMILES IDX 27 36 77 37 28 38 82 39 76 40 78 41 29 42 81 43 75 44 74 45
REMARK SMILES IDX 30 47 62 48 42 49 61 50 43 51 46 52 60 53 79 54 44 55 45 56
REMARK SMILES IDX 59 58 80 59 47 60 31 61 32 62 40 63 33 64 34 65 38 66 41 67
REMARK SMILES IDX 35 68 36 69 39 70 37 71 63 72 64 73 72 74 65 75 66 76 70 77
REMARK SMILES IDX 73 78 67 79 68 80 71 81 69 82 48 83 49 84 57 85 50 86 51 87
REMARK SMILES IDX 55 88 58 89 52 90 53 91 56 92 54 93
REMARK H PARENT 12 7 7 11 19 27 78 46 46 57
REMARK Flexibility Score: inf
ROOT
ATOM      1  C   UNL A   1      32.242  29.824  27.042  1.00  0.00     0.002 C 
ENDROOT
BRANCH   1   2
ATOM      2  C   UNL A   1      33.658  29.446  26.605  1.00  0.00     0.021 C 
BRANCH   2   3
ATOM      3  C   UNL A   1      33.740  28.162  25.786  1.00  0.00     0.116 C 
BRANCH   3   4
ATOM      4  N   UNL A   1      34.023  28.406  24.384  1.00  0.00    -0.354 N 
ATOM      5  C   UNL A   1      33.420  27.947  23.240  1.00  0.00     0.250 C 
ATOM      6  O   UNL A   1      33.845  28.430  22.190  1.00  0.00    -0.273 OA
ATOM      7  H   UNL A   1      34.786  29.008  24.225  1.00  0.00     0.163 HD
BRANCH   5   8
ATOM      8  C   UNL A   1      32.276  26.896  23.293  1.00  0.00     0.204 C 
ATOM      9  C   UNL A   1      32.108  26.319  21.888  1.00  0.00     0.050 C 
BRANCH   8  10
ATOM     10  N   UNL A   1      32.781  25.843  24.274  1.00  0.00    -0.191 NA
ATOM     11  H   UNL A   1      33.726  25.622  23.961  1.00  0.00     0.142 HD
BRANCH  10  12
ATOM     12  S   UNL A   1      32.078  24.377  24.594  1.00  0.00     0.215 S 
ATOM     13  O   UNL A   1      30.774  24.340  23.984  1.00  0.00    -0.212 OA
ATOM     14  O   UNL A   1      32.207  24.263  26.031  1.00  0.00    -0.212 OA
BRANCH  12  15
ATOM     15  C   UNL A   1      33.134  23.091  23.879  1.00  0.00     0.118 C 
ATOM     16  C   UNL A   1      32.479  22.305  22.753  1.00  0.00     0.026 C 
ATOM     17  C   UNL A   1      34.508  23.613  23.476  1.00  0.00     0.026 C 
ENDBRANCH  12  15
ENDBRANCH  10  12
ENDBRANCH   8  10
BRANCH   8  18
ATOM     18  C   UNL A   1      30.992  27.662  23.690  1.00  0.00     0.416 C 
ATOM     19  F   UNL A   1      29.904  27.194  23.026  1.00  0.00    -0.168 F 
ATOM     20  F   UNL A   1      30.693  27.485  25.000  1.00  0.00    -0.168 F 
ATOM     21  F   UNL A   1      31.088  28.988  23.457  1.00  0.00    -0.168 F 
ENDBRANCH   8  18
ENDBRANCH   5   8
ENDBRANCH   3   4
ENDBRANCH   2   3
ENDBRANCH   1   2
BRANCH   1  22
ATOM     22  C   UNL A   1      31.524  30.818  26.124  1.00  0.00     0.002 C 
BRANCH  22  23
ATOM     23  C   UNL A   1      31.389  32.237  26.682  1.00  0.00     0.021 C 
BRANCH  23  24
ATOM     24  C   UNL A   1      32.706  32.883  27.102  1.00  0.00     0.116 C 
BRANCH  24  25
ATOM     25  N   UNL A   1      32.510  34.225  27.626  1.00  0.00    -0.352 N 
ATOM     26  C   UNL A   1      33.094  34.841  28.704  1.00  0.00     0.251 C 
ATOM     27  H   UNL A   1      31.860  34.776  27.131  1.00  0.00     0.163 HD
ATOM     28  O   UNL A   1      32.641  35.902  29.122  1.00  0.00    -0.269 OA
BRANCH  26  29
ATOM     29  C   UNL A   1      34.255  34.222  29.375  1.00  0.00     0.039 A 
ATOM     30  C   UNL A   1      34.028  33.346  30.439  1.00  0.00     0.014 A 
ATOM     31  C   UNL A   1      35.563  34.517  28.978  1.00  0.00     0.014 A 
ATOM     32  C   UNL A   1      35.108  32.719  31.063  1.00  0.00     0.010 A 
ATOM     33  C   UNL A   1      36.634  33.832  29.548  1.00  0.00     0.010 A 
ATOM     34  C   UNL A   1      36.418  32.925  30.596  1.00  0.00    -0.014 A 
BRANCH  34  35
ATOM     35  C   UNL A   1      37.560  32.180  31.185  1.00  0.00     0.031 A 
ATOM     36  C   UNL A   1      38.057  32.504  32.567  1.00  0.00     0.074 A 
ATOM     37  C   UNL A   1      38.181  31.235  30.450  1.00  0.00     0.049 A 
ATOM     38  N   UNL A   1      39.059  31.982  33.230  1.00  0.00    -0.248 NA
ATOM     39  C   UNL A   1      37.349  33.569  33.295  1.00  0.00     0.031 C 
ATOM     40  C   UNL A   1      37.825  30.864  29.079  1.00  0.00     0.029 A 
ATOM     41  N   UNL A   1      39.244  30.418  30.748  1.00  0.00    -0.354 N 
ATOM     42  C   UNL A   1      39.102  32.654  34.445  1.00  0.00     0.074 A 
ATOM     43  C   UNL A   1      38.064  33.661  34.406  1.00  0.00     0.031 C 
ATOM     44  C   UNL A   1      38.632  29.875  28.667  1.00  0.00     0.029 A 
ATOM     45  C   UNL A   1      39.592  29.572  29.723  1.00  0.00     0.049 A 
ATOM     46  H   UNL A   1      39.711  30.437  31.614  1.00  0.00     0.167 HD
ATOM     47  C   UNL A   1      39.914  32.430  35.505  1.00  0.00     0.037 A 
ATOM     48  C   UNL A   1      40.582  28.662  29.641  1.00  0.00     0.037 A 
ATOM     49  C   UNL A   1      40.938  31.419  35.544  1.00  0.00     0.049 A 
ATOM     50  C   UNL A   1      41.488  28.458  30.826  1.00  0.00     0.074 A 
ATOM     51  C   UNL A   1      41.782  31.084  36.590  1.00  0.00     0.029 A 
ATOM     52  N   UNL A   1      41.262  30.579  34.488  1.00  0.00    -0.354 N 
ATOM     53  N   UNL A   1      41.469  29.049  31.996  1.00  0.00    -0.248 NA
ATOM     54  C   UNL A   1      42.550  27.453  30.680  1.00  0.00     0.031 C 
ATOM     55  C   UNL A   1      42.654  30.085  36.147  1.00  0.00     0.029 A 
ATOM     56  C   UNL A   1      42.312  29.749  34.848  1.00  0.00     0.049 A 
ATOM     57  H   UNL A   1      40.813  30.574  33.611  1.00  0.00     0.167 HD
ATOM     58  C   UNL A   1      42.491  28.467  32.734  1.00  0.00     0.074 A 
ATOM     59  C   UNL A   1      43.094  27.459  31.888  1.00  0.00     0.031 C 
ATOM     60  C   UNL A   1      42.899  28.745  33.996  1.00  0.00     0.037 A 
BRANCH  47  61
ATOM     61  C   UNL A   1      39.728  33.292  36.723  1.00  0.00     0.064 A 
ATOM     62  C   UNL A   1      40.445  34.487  36.895  1.00  0.00     0.173 A 
ATOM     63  C   UNL A   1      38.778  32.954  37.698  1.00  0.00     0.173 A 
ATOM     64  F   UNL A   1      41.373  34.852  35.997  1.00  0.00    -0.203 F 
ATOM     65  C   UNL A   1      40.232  35.297  38.006  1.00  0.00     0.198 A 
ATOM     66  C   UNL A   1      38.545  33.784  38.792  1.00  0.00     0.198 A 
ATOM     67  F   UNL A   1      38.060  31.826  37.582  1.00  0.00    -0.203 F 
ATOM     68  F   UNL A   1      40.960  36.412  38.170  1.00  0.00    -0.200 F 
ATOM     69  C   UNL A   1      39.276  34.951  38.948  1.00  0.00     0.200 A 
ATOM     70  F   UNL A   1      37.609  33.455  39.693  1.00  0.00    -0.200 F 
ATOM     71  F   UNL A   1      39.062  35.740  40.010  1.00  0.00    -0.200 F 
ENDBRANCH  47  61
BRANCH  48  72
ATOM     72  C   UNL A   1      40.772  27.869  28.396  1.00  0.00     0.064 A 
ATOM     73  C   UNL A   1      40.168  26.613  28.239  1.00  0.00     0.173 A 
ATOM     74  C   UNL A   1      41.588  28.332  27.353  1.00  0.00     0.173 A 
ATOM     75  F   UNL A   1      39.393  26.116  29.215  1.00  0.00    -0.203 F 
ATOM     76  C   UNL A   1      40.403  25.836  27.106  1.00  0.00     0.198 A 
ATOM     77  C   UNL A   1      41.793  27.571  26.205  1.00  0.00     0.198 A 
ATOM     78  F   UNL A   1      42.184  29.531  27.447  1.00  0.00    -0.203 F 
ATOM     79  F   UNL A   1      39.868  24.611  27.015  1.00  0.00    -0.200 F 
ATOM     80  C   UNL A   1      41.212  26.317  26.089  1.00  0.00     0.200 A 
ATOM     81  F   UNL A   1      42.560  28.049  25.215  1.00  0.00    -0.200 F 
ATOM     82  F   UNL A   1      41.441  25.569  25.001  1.00  0.00    -0.200 F 
ENDBRANCH  48  72
BRANCH  60  83
ATOM     83  C   UNL A   1      44.027  27.922  34.552  1.00  0.00     0.064 A 
ATOM     84  C   UNL A   1      45.363  28.337  34.457  1.00  0.00     0.173 A 
ATOM     85  C   UNL A   1      43.764  26.708  35.206  1.00  0.00     0.173 A 
ATOM     86  F   UNL A   1      45.671  29.482  33.829  1.00  0.00    -0.203 F 
ATOM     87  C   UNL A   1      46.396  27.552  34.962  1.00  0.00     0.198 A 
ATOM     88  C   UNL A   1      44.796  25.943  35.744  1.00  0.00     0.198 A 
ATOM     89  F   UNL A   1      42.503  26.266  35.335  1.00  0.00    -0.203 F 
ATOM     90  F   UNL A   1      47.669  27.939  34.802  1.00  0.00    -0.200 F 
ATOM     91  C   UNL A   1      46.111  26.359  35.611  1.00  0.00     0.200 A 
ATOM     92  F   UNL A   1      44.517  24.801  36.387  1.00  0.00    -0.200 F 
ATOM     93  F   UNL A   1      47.106  25.607  36.099  1.00  0.00    -0.200 F 
ENDBRANCH  60  83
ENDBRANCH  34  35
ENDBRANCH  26  29
ENDBRANCH  24  25
ENDBRANCH  23  24
ENDBRANCH  22  23
ENDBRANCH   1  22
TORSDOF 17
ENDMDL
MODEL 3
REMARK VINA RESULT:     -10.7      0.447      7.372
REMARK SMILES CC(C)S(=O)(=O)N[C@](C)(C(=O)NCCCCCCNC(=O)c1ccc(-c2c3nc(c(-c4c(F)c(F)c(F)c(F)c4F)c4ccc([nH]4)c(-c4c(F)c(F)c(F)c(F)c4F)c4nc(c(-c5c(F)c(F)c(F)c(F)c5F)c5ccc2[nH]5)C=C4)C=C3)cc1)C(F)(F)F
REMARK SMILES IDX 15 1 14 2 13 3 12 4 10 5 11 6 8 8 9 9 7 10 4 12 5 13 6 14
REMARK SMILES IDX 2 15 1 16 3 17 85 18 86 19 87 20 88 21 16 22 17 23 18 24
REMARK SMILES IDX 19 25 20 26 21 28 22 29 23 30 84 31 24 32 83 33 25 34 26 35
REMARK SMILES IDX 27 36 77 37 28 38 82 39 76 40 78 41 29 42 81 43 75 44 74 45
REMARK SMILES IDX 30 47 62 48 42 49 61 50 43 51 46 52 60 53 79 54 44 55 45 56
REMARK SMILES IDX 59 58 80 59 47 60 31 61 32 62 40 63 33 64 34 65 38 66 41 67
REMARK SMILES IDX 35 68 36 69 39 70 37 71 63 72 64 73 72 74 65 75 66 76 70 77
REMARK SMILES IDX 73 78 67 79 68 80 71 81 69 82 48 83 49 84 57 85 50 86 51 87
REMARK SMILES IDX 55 88 58 89 52 90 53 91 56 92 54 93
REMARK H PARENT 12 7 7 11 19 27 78 46 46 57
REMARK Flexibility Score: inf
ROOT
ATOM      1  C   UNL A   1      31.871  29.594  26.949  1.00  0.00     0.002 C 
ENDROOT
BRANCH   1   2
ATOM      2  C   UNL A   1      33.299  29.049  26.892  1.00  0.00     0.021 C 
BRANCH   2   3
ATOM      3  C   UNL A   1      33.414  27.660  26.272  1.00  0.00     0.116 C 
BRANCH   3   4
ATOM      4  N   UNL A   1      33.453  27.691  24.823  1.00  0.00    -0.354 N 
ATOM      5  C   UNL A   1      32.710  27.031  23.876  1.00  0.00     0.250 C 
ATOM      6  O   UNL A   1      32.928  27.361  22.710  1.00  0.00    -0.273 OA
ATOM      7  H   UNL A   1      34.137  28.294  24.450  1.00  0.00     0.163 HD
BRANCH   5   8
ATOM      8  C   UNL A   1      31.665  25.951  24.276  1.00  0.00     0.204 C 
ATOM      9  C   UNL A   1      31.250  25.212  23.004  1.00  0.00     0.050 C 
BRANCH   8  10
ATOM     10  N   UNL A   1      32.421  25.036  25.234  1.00  0.00    -0.191 NA
ATOM     11  H   UNL A   1      33.265  24.764  24.729  1.00  0.00     0.142 HD
BRANCH  10  12
ATOM     12  S   UNL A   1      31.853  23.635  25.912  1.00  0.00     0.215 S 
ATOM     13  O   UNL A   1      30.858  23.064  25.042  1.00  0.00    -0.212 OA
ATOM     14  O   UNL A   1      31.490  24.048  27.251  1.00  0.00    -0.212 OA
BRANCH  12  15
ATOM     15  C   UNL A   1      33.252  22.499  26.085  1.00  0.00     0.118 C 
ATOM     16  C   UNL A   1      33.955  22.581  27.431  1.00  0.00     0.026 C 
ATOM     17  C   UNL A   1      32.893  21.062  25.724  1.00  0.00     0.026 C 
ENDBRANCH  12  15
ENDBRANCH  10  12
ENDBRANCH   8  10
BRANCH   8  18
ATOM     18  C   UNL A   1      30.445  26.709  24.849  1.00  0.00     0.416 C 
ATOM     19  F   UNL A   1      29.277  26.099  24.522  1.00  0.00    -0.168 F 
ATOM     20  F   UNL A   1      30.458  26.716  26.205  1.00  0.00    -0.168 F 
ATOM     21  F   UNL A   1      30.385  27.989  24.424  1.00  0.00    -0.168 F 
ENDBRANCH   8  18
ENDBRANCH   5   8
ENDBRANCH   3   4
ENDBRANCH   2   3
ENDBRANCH   1   2
BRANCH   1  22
ATOM     22  C   UNL A   1      31.588  30.771  26.009  1.00  0.00     0.002 C 
BRANCH  22  23
ATOM     23  C   UNL A   1      31.399  32.123  26.700  1.00  0.00     0.021 C 
BRANCH  23  24
ATOM     24  C   UNL A   1      32.693  32.789  27.159  1.00  0.00     0.116 C 
BRANCH  24  25
ATOM     25  N   UNL A   1      32.468  34.147  27.629  1.00  0.00    -0.352 N 
ATOM     26  C   UNL A   1      33.034  34.815  28.685  1.00  0.00     0.251 C 
ATOM     27  H   UNL A   1      31.811  34.665  27.110  1.00  0.00     0.163 HD
ATOM     28  O   UNL A   1      32.559  35.883  29.060  1.00  0.00    -0.269 OA
BRANCH  26  29
ATOM     29  C   UNL A   1      34.204  34.246  29.386  1.00  0.00     0.039 A 
ATOM     30  C   UNL A   1      33.992  33.489  30.540  1.00  0.00     0.014 A 
ATOM     31  C   UNL A   1      35.505  34.471  28.925  1.00  0.00     0.014 A 
ATOM     32  C   UNL A   1      35.079  32.908  31.196  1.00  0.00     0.010 A 
ATOM     33  C   UNL A   1      36.579  33.827  29.534  1.00  0.00     0.010 A 
ATOM     34  C   UNL A   1      36.378  33.038  30.676  1.00  0.00    -0.014 A 
BRANCH  34  35
ATOM     35  C   UNL A   1      37.524  32.335  31.308  1.00  0.00     0.031 A 
ATOM     36  C   UNL A   1      37.998  32.722  32.682  1.00  0.00     0.074 A 
ATOM     37  C   UNL A   1      38.168  31.371  30.619  1.00  0.00     0.049 A 
ATOM     38  N   UNL A   1      39.000  32.243  33.377  1.00  0.00    -0.248 NA
ATOM     39  C   UNL A   1      37.265  33.804  33.358  1.00  0.00     0.031 C 
ATOM     40  C   UNL A   1      37.834  30.939  29.260  1.00  0.00     0.029 A 
ATOM     41  N   UNL A   1      39.238  30.583  30.963  1.00  0.00    -0.354 N 
ATOM     42  C   UNL A   1      39.017  32.963  34.564  1.00  0.00     0.074 A 
ATOM     43  C   UNL A   1      37.965  33.952  34.473  1.00  0.00     0.031 C 
ATOM     44  C   UNL A   1      38.661  29.947  28.898  1.00  0.00     0.029 A 
ATOM     45  C   UNL A   1      39.613  29.702  29.977  1.00  0.00     0.049 A 
ATOM     46  H   UNL A   1      39.695  30.644  31.833  1.00  0.00     0.167 HD
ATOM     47  C   UNL A   1      39.819  32.794  35.642  1.00  0.00     0.037 A 
ATOM     48  C   UNL A   1      40.617  28.805  29.943  1.00  0.00     0.037 A 
ATOM     49  C   UNL A   1      40.858  31.801  35.734  1.00  0.00     0.049 A 
ATOM     50  C   UNL A   1      41.510  28.662  31.146  1.00  0.00     0.074 A 
ATOM     51  C   UNL A   1      41.693  31.522  36.803  1.00  0.00     0.029 A 
ATOM     52  N   UNL A   1      41.207  30.925  34.717  1.00  0.00    -0.354 N 
ATOM     53  N   UNL A   1      41.468  29.300  32.292  1.00  0.00    -0.248 NA
ATOM     54  C   UNL A   1      42.589  27.668  31.054  1.00  0.00     0.031 C 
ATOM     55  C   UNL A   1      42.585  30.519  36.411  1.00  0.00     0.029 A 
ATOM     56  C   UNL A   1      42.265  30.126  35.123  1.00  0.00     0.049 A 
ATOM     57  H   UNL A   1      40.769  30.878  33.836  1.00  0.00     0.167 HD
ATOM     58  C   UNL A   1      42.489  28.763  33.064  1.00  0.00     0.074 A 
ATOM     59  C   UNL A   1      43.118  27.732  32.267  1.00  0.00     0.031 C 
ATOM     60  C   UNL A   1      42.877  29.098  34.319  1.00  0.00     0.037 A 
BRANCH  47  61
ATOM     61  C   UNL A   1      39.606  33.702  36.822  1.00  0.00     0.064 A 
ATOM     62  C   UNL A   1      38.771  33.336  37.890  1.00  0.00     0.173 A 
ATOM     63  C   UNL A   1      40.293  34.922  36.917  1.00  0.00     0.173 A 
ATOM     64  F   UNL A   1      38.083  32.186  37.846  1.00  0.00    -0.203 F 
ATOM     65  C   UNL A   1      38.616  34.167  38.996  1.00  0.00     0.198 A 
ATOM     66  C   UNL A   1      40.160  35.735  38.039  1.00  0.00     0.198 A 
ATOM     67  F   UNL A   1      41.109  35.318  35.928  1.00  0.00    -0.203 F 
ATOM     68  F   UNL A   1      37.780  33.817  39.984  1.00  0.00    -0.200 F 
ATOM     69  C   UNL A   1      39.318  35.360  39.075  1.00  0.00     0.200 A 
ATOM     70  F   UNL A   1      40.852  36.880  38.120  1.00  0.00    -0.200 F 
ATOM     71  F   UNL A   1      39.180  36.152  40.147  1.00  0.00    -0.200 F 
ENDBRANCH  47  61
BRANCH  48  72
ATOM     72  C   UNL A   1      40.834  27.965  28.733  1.00  0.00     0.064 A 
ATOM     73  C   UNL A   1      41.667  28.400  27.692  1.00  0.00     0.173 A 
ATOM     74  C   UNL A   1      40.189  26.731  28.577  1.00  0.00     0.173 A 
ATOM     75  F   UNL A   1      42.293  29.583  27.784  1.00  0.00    -0.203 F 
ATOM     76  C   UNL A   1      41.813  27.651  26.526  1.00  0.00     0.198 A 
ATOM     77  C   UNL A   1      40.365  25.965  27.427  1.00  0.00     0.198 A 
ATOM     78  F   UNL A   1      39.387  26.263  29.546  1.00  0.00    -0.203 F 
ATOM     79  F   UNL A   1      42.560  28.124  25.519  1.00  0.00    -0.200 F 
ATOM     80  C   UNL A   1      41.166  26.432  26.396  1.00  0.00     0.200 A 
ATOM     81  F   UNL A   1      39.752  24.778  27.314  1.00  0.00    -0.200 F 
ATOM     82  F   UNL A   1      41.305  25.713  25.274  1.00  0.00    -0.200 F 
ENDBRANCH  48  72
BRANCH  60  83
ATOM     83  C   UNL A   1      44.010  28.315  34.921  1.00  0.00     0.064 A 
ATOM     84  C   UNL A   1      43.793  27.118  35.621  1.00  0.00     0.173 A 
ATOM     85  C   UNL A   1      45.334  28.759  34.780  1.00  0.00     0.173 A 
ATOM     86  F   UNL A   1      42.546  26.656  35.797  1.00  0.00    -0.203 F 
ATOM     87  C   UNL A   1      44.854  26.417  36.188  1.00  0.00     0.198 A 
ATOM     88  C   UNL A   1      46.396  28.035  35.314  1.00  0.00     0.198 A 
ATOM     89  F   UNL A   1      45.601  29.892  34.112  1.00  0.00    -0.203 F 
ATOM     90  F   UNL A   1      44.615  25.310  36.906  1.00  0.00    -0.200 F 
ATOM     91  C   UNL A   1      46.155  26.872  36.028  1.00  0.00     0.200 A 
ATOM     92  F   UNL A   1      47.653  28.467  35.144  1.00  0.00    -0.200 F 
ATOM     93  F   UNL A   1      47.174  26.193  36.571  1.00  0.00    -0.200 F 
ENDBRANCH  60  83
ENDBRANCH  34  35
ENDBRANCH  26  29
ENDBRANCH  24  25
ENDBRANCH  23  24
ENDBRANCH  22  23
ENDBRANCH   1  22
TORSDOF 17
ENDMDL
