MODEL 1
REMARK VINA RESULT:     -11.9      0.000      0.000
REMARK SMILES NS(=O)(=O)c1ccc(/N=N/c2ccc(O)c(C(=O)NCCCCCCNC(=O)c3ccc(-c4c5nc(c(-c6c(F)c(F)c(F)c(F)c6F)c6ccc([nH]6)c(-c6c(F)c(F)c(F)c(F)c6F)c6nc(c(-c7c(F)c(F)c(F)c(F)c7F)c7ccc4[nH]7)C=C6)C=C5)cc3)c2)cc1
REMARK SMILES IDX 21 1 20 2 19 3 17 4 18 5 16 7 11 8 12 9 92 10 13 11 14 12
REMARK SMILES IDX 10 13 9 14 8 15 5 16 6 17 94 18 7 19 93 20 2 21 3 22 4 23
REMARK SMILES IDX 1 24 15 27 22 29 23 30 24 31 25 32 26 33 27 34 28 36 29 37
REMARK SMILES IDX 30 38 91 39 31 40 90 41 32 42 33 43 34 44 84 45 35 46 89 47
REMARK SMILES IDX 83 48 85 49 36 50 88 51 82 52 81 53 37 55 69 56 49 57 68 58
REMARK SMILES IDX 50 59 53 60 67 61 86 62 51 63 52 64 66 66 87 67 54 68 38 69
REMARK SMILES IDX 39 70 47 71 40 72 41 73 45 74 48 75 42 76 43 77 46 78 44 79
REMARK SMILES IDX 70 80 71 81 79 82 72 83 73 84 77 85 80 86 74 87 75 88 78 89
REMARK SMILES IDX 76 90 55 91 56 92 64 93 57 94 58 95 62 96 65 97 59 98 60 99
REMARK SMILES IDX 63 100 61 101
REMARK H PARENT 19 6 1 25 1 26 15 28 26 35 85 54 53 65
REMARK Flexibility Score: inf
ROOT
ATOM      1  C   UNL A   1      35.460  30.934  27.692  1.00  0.00     0.021 C 
ENDROOT
BRANCH   1   2
ATOM      2  C   UNL A   1      35.146  29.449  27.537  1.00  0.00     0.116 C 
BRANCH   2   3
ATOM      3  N   UNL A   1      33.802  29.079  27.951  1.00  0.00    -0.352 N 
ATOM      4  C   UNL A   1      32.810  28.416  27.266  1.00  0.00     0.255 C 
ATOM      5  O   UNL A   1      31.694  28.302  27.775  1.00  0.00    -0.269 OA
ATOM      6  H   UNL A   1      33.564  29.344  28.868  1.00  0.00     0.163 HD
BRANCH   4   7
ATOM      7  C   UNL A   1      33.006  27.895  25.890  1.00  0.00     0.083 A 
ATOM      8  C   UNL A   1      33.454  26.036  24.374  1.00  0.00     0.087 A 
ATOM      9  C   UNL A   1      33.651  26.949  23.334  1.00  0.00     0.034 A 
ATOM     10  C   UNL A   1      33.047  26.524  25.626  1.00  0.00     0.048 A 
ATOM     11  C   UNL A   1      33.482  28.321  23.550  1.00  0.00     0.049 A 
ATOM     12  C   UNL A   1      33.169  28.789  24.824  1.00  0.00     0.128 A 
BRANCH   8  13
ATOM     13  N   UNL A   1      33.720  24.662  24.156  1.00  0.00    -0.151 NA
ATOM     14  N   UNL A   1      32.646  24.044  23.980  1.00  0.00    -0.151 NA
BRANCH  14  15
ATOM     15  C   UNL A   1      32.818  22.657  23.892  1.00  0.00     0.086 A 
ATOM     16  C   UNL A   1      32.847  19.860  23.880  1.00  0.00     0.082 A 
ATOM     17  C   UNL A   1      32.172  20.550  22.868  1.00  0.00     0.024 A 
ATOM     18  C   UNL A   1      33.531  20.554  24.881  1.00  0.00     0.024 A 
ATOM     19  C   UNL A   1      32.153  21.946  22.885  1.00  0.00     0.031 A 
ATOM     20  C   UNL A   1      33.510  21.951  24.884  1.00  0.00     0.031 A 
BRANCH  16  21
ATOM     21  S   UNL A   1      32.803  18.091  23.871  1.00  0.00     0.238 S 
ATOM     22  O   UNL A   1      31.828  17.653  24.845  1.00  0.00    -0.207 OA
ATOM     23  O   UNL A   1      34.161  17.612  23.846  1.00  0.00    -0.207 OA
BRANCH  21  24
ATOM     24  N   UNL A   1      32.139  17.702  22.377  1.00  0.00    -0.225 NA
ATOM     25  H   UNL A   1      32.363  18.434  21.704  1.00  0.00     0.137 HD
ATOM     26  H   UNL A   1      31.125  17.620  22.466  1.00  0.00     0.137 HD
ENDBRANCH  21  24
ENDBRANCH  16  21
ENDBRANCH  14  15
ENDBRANCH   8  13
BRANCH  12  27
ATOM     27  O   UNL A   1      33.042  30.145  24.966  1.00  0.00    -0.507 OA
ATOM     28  H   UNL A   1      32.934  30.686  24.208  1.00  0.00     0.293 HD
ENDBRANCH  12  27
ENDBRANCH   4   7
ENDBRANCH   2   3
ENDBRANCH   1   2
BRANCH   1  29
ATOM     29  C   UNL A   1      34.384  31.800  28.349  1.00  0.00     0.002 C 
BRANCH  29  30
ATOM     30  C   UNL A   1      34.533  33.315  28.199  1.00  0.00     0.002 C 
BRANCH  30  31
ATOM     31  C   UNL A   1      33.251  34.146  28.292  1.00  0.00     0.021 C 
BRANCH  31  32
ATOM     32  C   UNL A   1      33.414  35.591  28.754  1.00  0.00     0.116 C 
BRANCH  32  33
ATOM     33  N   UNL A   1      32.675  35.892  29.966  1.00  0.00    -0.352 N 
ATOM     34  C   UNL A   1      32.900  35.486  31.258  1.00  0.00     0.251 C 
ATOM     35  H   UNL A   1      31.892  36.477  29.842  1.00  0.00     0.163 HD
ATOM     36  O   UNL A   1      32.084  35.763  32.134  1.00  0.00    -0.269 OA
BRANCH  34  37
ATOM     37  C   UNL A   1      34.101  34.691  31.609  1.00  0.00     0.039 A 
ATOM     38  C   UNL A   1      35.357  35.292  31.477  1.00  0.00     0.014 A 
ATOM     39  C   UNL A   1      34.010  33.362  32.029  1.00  0.00     0.014 A 
ATOM     40  C   UNL A   1      36.512  34.582  31.814  1.00  0.00     0.010 A 
ATOM     41  C   UNL A   1      35.157  32.676  32.431  1.00  0.00     0.010 A 
ATOM     42  C   UNL A   1      36.420  33.276  32.321  1.00  0.00    -0.014 A 
BRANCH  42  43
ATOM     43  C   UNL A   1      37.640  32.531  32.729  1.00  0.00     0.031 A 
ATOM     44  C   UNL A   1      38.316  32.833  34.038  1.00  0.00     0.074 A 
ATOM     45  C   UNL A   1      38.162  31.605  31.901  1.00  0.00     0.049 A 
ATOM     46  N   UNL A   1      39.396  32.300  34.555  1.00  0.00    -0.248 NA
ATOM     47  C   UNL A   1      37.712  33.886  34.867  1.00  0.00     0.031 C 
ATOM     48  C   UNL A   1      37.630  31.253  30.583  1.00  0.00     0.029 A 
ATOM     49  N   UNL A   1      39.260  30.793  32.043  1.00  0.00    -0.354 N 
ATOM     50  C   UNL A   1      39.603  32.960  35.760  1.00  0.00     0.074 A 
ATOM     51  C   UNL A   1      38.570  33.966  35.874  1.00  0.00     0.031 C 
ATOM     52  C   UNL A   1      38.385  30.280  30.050  1.00  0.00     0.029 A 
ATOM     53  C   UNL A   1      39.471  29.959  30.972  1.00  0.00     0.049 A 
ATOM     54  H   UNL A   1      39.840  30.806  32.837  1.00  0.00     0.167 HD
ATOM     55  C   UNL A   1      40.553  32.730  36.698  1.00  0.00     0.037 A 
ATOM     56  C   UNL A   1      40.431  29.040  30.759  1.00  0.00     0.037 A 
ATOM     57  C   UNL A   1      41.570  31.716  36.596  1.00  0.00     0.049 A 
ATOM     58  C   UNL A   1      41.472  28.803  31.819  1.00  0.00     0.074 A 
ATOM     59  C   UNL A   1      42.545  31.373  37.516  1.00  0.00     0.029 A 
ATOM     60  N   UNL A   1      41.739  30.879  35.502  1.00  0.00    -0.354 N 
ATOM     61  N   UNL A   1      41.614  29.382  32.985  1.00  0.00    -0.248 NA
ATOM     62  C   UNL A   1      42.480  27.771  31.536  1.00  0.00     0.031 C 
ATOM     63  C   UNL A   1      43.330  30.353  36.963  1.00  0.00     0.029 A 
ATOM     64  C   UNL A   1      42.814  30.029  35.720  1.00  0.00     0.049 A 
ATOM     65  H   UNL A   1      41.180  30.886  34.693  1.00  0.00     0.167 HD
ATOM     66  C   UNL A   1      42.704  28.769  33.587  1.00  0.00     0.074 A 
ATOM     67  C   UNL A   1      43.177  27.759  32.663  1.00  0.00     0.031 C 
ATOM     68  C   UNL A   1      43.264  29.020  34.795  1.00  0.00     0.037 A 
BRANCH  55  69
ATOM     69  C   UNL A   1      40.533  33.592  37.929  1.00  0.00     0.064 A 
ATOM     70  C   UNL A   1      41.406  34.680  38.076  1.00  0.00     0.173 A 
ATOM     71  C   UNL A   1      39.606  33.350  38.955  1.00  0.00     0.173 A 
ATOM     72  F   UNL A   1      42.318  34.947  37.129  1.00  0.00    -0.203 F 
ATOM     73  C   UNL A   1      41.375  35.476  39.219  1.00  0.00     0.198 A 
ATOM     74  C   UNL A   1      39.558  34.166  40.083  1.00  0.00     0.198 A 
ATOM     75  F   UNL A   1      38.744  32.328  38.862  1.00  0.00    -0.203 F 
ATOM     76  F   UNL A   1      42.252  36.479  39.359  1.00  0.00    -0.200 F 
ATOM     77  C   UNL A   1      40.446  35.222  40.217  1.00  0.00     0.200 A 
ATOM     78  F   UNL A   1      38.652  33.929  41.042  1.00  0.00    -0.200 F 
ATOM     79  F   UNL A   1      40.413  35.993  41.313  1.00  0.00    -0.200 F 
ENDBRANCH  55  69
BRANCH  56  80
ATOM     80  C   UNL A   1      40.430  28.241  29.505  1.00  0.00     0.064 A 
ATOM     81  C   UNL A   1      41.203  28.634  28.404  1.00  0.00     0.173 A 
ATOM     82  C   UNL A   1      39.654  27.080  29.377  1.00  0.00     0.173 A 
ATOM     83  F   UNL A   1      41.947  29.750  28.472  1.00  0.00    -0.203 F 
ATOM     84  C   UNL A   1      41.184  27.910  27.215  1.00  0.00     0.198 A 
ATOM     85  C   UNL A   1      39.657  26.340  28.196  1.00  0.00     0.198 A 
ATOM     86  F   UNL A   1      38.902  26.658  30.403  1.00  0.00    -0.203 F 
ATOM     87  F   UNL A   1      41.897  28.334  26.162  1.00  0.00    -0.200 F 
ATOM     88  C   UNL A   1      40.415  26.760  27.113  1.00  0.00     0.200 A 
ATOM     89  F   UNL A   1      38.924  25.223  28.106  1.00  0.00    -0.200 F 
ATOM     90  F   UNL A   1      40.397  26.063  25.969  1.00  0.00    -0.200 F 
ENDBRANCH  56  80
BRANCH  68  91
ATOM     91  C   UNL A   1      44.425  28.161  35.205  1.00  0.00     0.064 A 
ATOM     92  C   UNL A   1      45.750  28.538  34.939  1.00  0.00     0.173 A 
ATOM     93  C   UNL A   1      44.208  26.958  35.894  1.00  0.00     0.173 A 
ATOM     94  F   UNL A   1      46.009  29.671  34.270  1.00  0.00    -0.203 F 
ATOM     95  C   UNL A   1      46.814  27.724  35.321  1.00  0.00     0.198 A 
ATOM     96  C   UNL A   1      45.276  26.163  36.299  1.00  0.00     0.198 A 
ATOM     97  F   UNL A   1      42.960  26.557  36.179  1.00  0.00    -0.203 F 
ATOM     98  F   UNL A   1      48.069  28.077  35.010  1.00  0.00    -0.200 F 
ATOM     99  C   UNL A   1      46.577  26.542  36.005  1.00  0.00     0.200 A 
ATOM    100  F   UNL A   1      45.045  25.026  36.972  1.00  0.00    -0.200 F 
ATOM    101  F   UNL A   1      47.602  25.762  36.374  1.00  0.00    -0.200 F 
ENDBRANCH  68  91
ENDBRANCH  42  43
ENDBRANCH  34  37
ENDBRANCH  32  33
ENDBRANCH  31  32
ENDBRANCH  30  31
ENDBRANCH  29  30
ENDBRANCH   1  29
TORSDOF 18
ENDMDL
MODEL 2
REMARK VINA RESULT:     -11.8      2.772      3.613
REMARK SMILES NS(=O)(=O)c1ccc(/N=N/c2ccc(O)c(C(=O)NCCCCCCNC(=O)c3ccc(-c4c5nc(c(-c6c(F)c(F)c(F)c(F)c6F)c6ccc([nH]6)c(-c6c(F)c(F)c(F)c(F)c6F)c6nc(c(-c7c(F)c(F)c(F)c(F)c7F)c7ccc4[nH]7)C=C6)C=C5)cc3)c2)cc1
REMARK SMILES IDX 21 1 20 2 19 3 17 4 18 5 16 7 11 8 12 9 92 10 13 11 14 12
REMARK SMILES IDX 10 13 9 14 8 15 5 16 6 17 94 18 7 19 93 20 2 21 3 22 4 23
REMARK SMILES IDX 1 24 15 27 22 29 23 30 24 31 25 32 26 33 27 34 28 36 29 37
REMARK SMILES IDX 30 38 91 39 31 40 90 41 32 42 33 43 34 44 84 45 35 46 89 47
REMARK SMILES IDX 83 48 85 49 36 50 88 51 82 52 81 53 37 55 69 56 49 57 68 58
REMARK SMILES IDX 50 59 53 60 67 61 86 62 51 63 52 64 66 66 87 67 54 68 38 69
REMARK SMILES IDX 39 70 47 71 40 72 41 73 45 74 48 75 42 76 43 77 46 78 44 79
REMARK SMILES IDX 70 80 71 81 79 82 72 83 73 84 77 85 80 86 74 87 75 88 78 89
REMARK SMILES IDX 76 90 55 91 56 92 64 93 57 94 58 95 62 96 65 97 59 98 60 99
REMARK SMILES IDX 63 100 61 101
REMARK H PARENT 19 6 1 25 1 26 15 28 26 35 85 54 53 65
REMARK Flexibility Score: inf
ROOT
ATOM      1  C   UNL A   1      32.354  28.262  27.002  1.00  0.00     0.021 C 
ENDROOT
BRANCH   1   2
ATOM      2  C   UNL A   1      32.475  26.919  26.289  1.00  0.00     0.116 C 
BRANCH   2   3
ATOM      3  N   UNL A   1      31.732  25.841  26.921  1.00  0.00    -0.352 N 
ATOM      4  C   UNL A   1      31.561  24.531  26.534  1.00  0.00     0.255 C 
ATOM      5  O   UNL A   1      30.792  23.808  27.169  1.00  0.00    -0.269 OA
ATOM      6  H   UNL A   1      31.280  26.087  27.759  1.00  0.00     0.163 HD
BRANCH   4   7
ATOM      7  C   UNL A   1      32.211  23.968  25.325  1.00  0.00     0.083 A 
ATOM      8  C   UNL A   1      34.181  23.055  24.210  1.00  0.00     0.087 A 
ATOM      9  C   UNL A   1      33.521  23.166  22.983  1.00  0.00     0.034 A 
ATOM     10  C   UNL A   1      33.476  23.381  25.381  1.00  0.00     0.048 A 
ATOM     11  C   UNL A   1      32.202  23.629  22.923  1.00  0.00     0.049 A 
ATOM     12  C   UNL A   1      31.556  24.035  24.089  1.00  0.00     0.128 A 
BRANCH   8  13
ATOM     13  N   UNL A   1      35.544  22.673  24.238  1.00  0.00    -0.151 NA
ATOM     14  N   UNL A   1      35.695  21.697  25.008  1.00  0.00    -0.151 NA
BRANCH  14  15
ATOM     15  C   UNL A   1      37.039  21.347  25.192  1.00  0.00     0.086 A 
ATOM     16  C   UNL A   1      39.621  20.511  25.872  1.00  0.00     0.082 A 
ATOM     17  C   UNL A   1      38.734  19.607  25.279  1.00  0.00     0.024 A 
ATOM     18  C   UNL A   1      39.240  21.835  26.102  1.00  0.00     0.024 A 
ATOM     19  C   UNL A   1      37.443  20.028  24.950  1.00  0.00     0.031 A 
ATOM     20  C   UNL A   1      37.948  22.246  25.764  1.00  0.00     0.031 A 
BRANCH  16  21
ATOM     21  S   UNL A   1      41.228  19.936  26.336  1.00  0.00     0.238 S 
ATOM     22  O   UNL A   1      42.146  21.052  26.288  1.00  0.00    -0.207 OA
ATOM     23  O   UNL A   1      41.468  18.689  25.656  1.00  0.00    -0.207 OA
BRANCH  21  24
ATOM     24  N   UNL A   1      41.077  19.560  27.967  1.00  0.00    -0.225 NA
ATOM     25  H   UNL A   1      40.957  20.418  28.505  1.00  0.00     0.137 HD
ATOM     26  H   UNL A   1      41.917  19.075  28.284  1.00  0.00     0.137 HD
ENDBRANCH  21  24
ENDBRANCH  16  21
ENDBRANCH  14  15
ENDBRANCH   8  13
BRANCH  12  27
ATOM     27  O   UNL A   1      30.274  24.498  23.950  1.00  0.00    -0.507 OA
ATOM     28  H   UNL A   1      29.609  23.936  23.605  1.00  0.00     0.293 HD
ENDBRANCH  12  27
ENDBRANCH   4   7
ENDBRANCH   2   3
ENDBRANCH   1   2
BRANCH   1  29
ATOM     29  C   UNL A   1      32.670  29.511  26.177  1.00  0.00     0.002 C 
BRANCH  29  30
ATOM     30  C   UNL A   1      31.480  30.364  25.733  1.00  0.00     0.002 C 
BRANCH  30  31
ATOM     31  C   UNL A   1      31.321  31.729  26.406  1.00  0.00     0.021 C 
BRANCH  31  32
ATOM     32  C   UNL A   1      32.570  32.308  27.063  1.00  0.00     0.116 C 
BRANCH  32  33
ATOM     33  N   UNL A   1      32.409  33.688  27.483  1.00  0.00    -0.352 N 
ATOM     34  C   UNL A   1      33.128  34.420  28.396  1.00  0.00     0.251 C 
ATOM     35  H   UNL A   1      31.670  34.173  27.048  1.00  0.00     0.163 HD
ATOM     36  O   UNL A   1      32.757  35.553  28.694  1.00  0.00    -0.269 OA
BRANCH  34  37
ATOM     37  C   UNL A   1      34.331  33.853  29.050  1.00  0.00     0.039 A 
ATOM     38  C   UNL A   1      34.151  32.907  30.064  1.00  0.00     0.014 A 
ATOM     39  C   UNL A   1      35.621  34.261  28.704  1.00  0.00     0.014 A 
ATOM     40  C   UNL A   1      35.260  32.336  30.693  1.00  0.00     0.010 A 
ATOM     41  C   UNL A   1      36.729  33.641  29.283  1.00  0.00     0.010 A 
ATOM     42  C   UNL A   1      36.561  32.677  30.288  1.00  0.00    -0.014 A 
BRANCH  42  43
ATOM     43  C   UNL A   1      37.746  32.037  30.917  1.00  0.00     0.031 A 
ATOM     44  C   UNL A   1      38.188  32.441  32.297  1.00  0.00     0.074 A 
ATOM     45  C   UNL A   1      38.448  31.116  30.229  1.00  0.00     0.049 A 
ATOM     46  N   UNL A   1      39.205  32.009  33.001  1.00  0.00    -0.248 NA
ATOM     47  C   UNL A   1      37.397  33.484  32.966  1.00  0.00     0.031 C 
ATOM     48  C   UNL A   1      38.152  30.671  28.866  1.00  0.00     0.029 A 
ATOM     49  N   UNL A   1      39.559  30.389  30.581  1.00  0.00    -0.354 N 
ATOM     50  C   UNL A   1      39.179  32.732  34.186  1.00  0.00     0.074 A 
ATOM     51  C   UNL A   1      38.080  33.667  34.086  1.00  0.00     0.031 C 
ATOM     52  C   UNL A   1      39.040  29.732  28.508  1.00  0.00     0.029 A 
ATOM     53  C   UNL A   1      39.987  29.527  29.601  1.00  0.00     0.049 A 
ATOM     54  H   UNL A   1      40.006  30.477  31.453  1.00  0.00     0.167 HD
ATOM     55  C   UNL A   1      39.983  32.610  35.270  1.00  0.00     0.037 A 
ATOM     56  C   UNL A   1      41.024  28.669  29.587  1.00  0.00     0.037 A 
ATOM     57  C   UNL A   1      41.065  31.666  35.379  1.00  0.00     0.049 A 
ATOM     58  C   UNL A   1      41.900  28.552  30.805  1.00  0.00     0.074 A 
ATOM     59  C   UNL A   1      41.904  31.432  36.454  1.00  0.00     0.029 A 
ATOM     60  N   UNL A   1      41.456  30.797  34.370  1.00  0.00    -0.354 N 
ATOM     61  N   UNL A   1      41.820  29.189  31.947  1.00  0.00    -0.248 NA
ATOM     62  C   UNL A   1      43.002  27.582  30.735  1.00  0.00     0.031 C 
ATOM     63  C   UNL A   1      42.828  30.447  36.084  1.00  0.00     0.029 A 
ATOM     64  C   UNL A   1      42.534  30.035  34.794  1.00  0.00     0.049 A 
ATOM     65  H   UNL A   1      41.031  30.731  33.485  1.00  0.00     0.167 HD
ATOM     66  C   UNL A   1      42.839  28.681  32.741  1.00  0.00     0.074 A 
ATOM     67  C   UNL A   1      43.513  27.667  31.955  1.00  0.00     0.031 C 
ATOM     68  C   UNL A   1      43.186  29.022  34.005  1.00  0.00     0.037 A 
BRANCH  55  69
ATOM     69  C   UNL A   1      39.716  33.520  36.435  1.00  0.00     0.064 A 
ATOM     70  C   UNL A   1      40.326  34.780  36.537  1.00  0.00     0.173 A 
ATOM     71  C   UNL A   1      38.813  33.145  37.442  1.00  0.00     0.173 A 
ATOM     72  F   UNL A   1      41.206  35.181  35.606  1.00  0.00    -0.203 F 
ATOM     73  C   UNL A   1      40.067  35.618  37.618  1.00  0.00     0.198 A 
ATOM     74  C   UNL A   1      38.534  33.999  38.508  1.00  0.00     0.198 A 
ATOM     75  F   UNL A   1      38.197  31.956  37.391  1.00  0.00    -0.203 F 
ATOM     76  F   UNL A   1      40.700  36.795  37.719  1.00  0.00    -0.200 F 
ATOM     77  C   UNL A   1      39.167  35.229  38.598  1.00  0.00     0.200 A 
ATOM     78  F   UNL A   1      37.654  33.628  39.448  1.00  0.00    -0.200 F 
ATOM     79  F   UNL A   1      38.913  36.039  39.636  1.00  0.00    -0.200 F 
ENDBRANCH  55  69
BRANCH  56  80
ATOM     80  C   UNL A   1      41.270  27.820  28.392  1.00  0.00     0.064 A 
ATOM     81  C   UNL A   1      42.143  28.242  27.380  1.00  0.00     0.173 A 
ATOM     82  C   UNL A   1      40.635  26.580  28.231  1.00  0.00     0.173 A 
ATOM     83  F   UNL A   1      42.759  29.430  27.479  1.00  0.00    -0.203 F 
ATOM     84  C   UNL A   1      42.355  27.467  26.242  1.00  0.00     0.198 A 
ATOM     85  C   UNL A   1      40.868  25.793  27.106  1.00  0.00     0.198 A 
ATOM     86  F   UNL A   1      39.795  26.129  29.174  1.00  0.00    -0.203 F 
ATOM     87  F   UNL A   1      43.159  27.915  25.268  1.00  0.00    -0.200 F 
ATOM     88  C   UNL A   1      41.721  26.240  26.108  1.00  0.00     0.200 A 
ATOM     89  F   UNL A   1      40.265  24.603  26.986  1.00  0.00    -0.200 F 
ATOM     90  F   UNL A   1      41.926  25.494  25.014  1.00  0.00    -0.200 F 
ENDBRANCH  56  80
BRANCH  68  91
ATOM     91  C   UNL A   1      44.320  28.265  34.633  1.00  0.00     0.064 A 
ATOM     92  C   UNL A   1      44.110  27.060  35.320  1.00  0.00     0.173 A 
ATOM     93  C   UNL A   1      45.636  28.740  34.525  1.00  0.00     0.173 A 
ATOM     94  F   UNL A   1      42.869  26.572  35.465  1.00  0.00    -0.203 F 
ATOM     95  C   UNL A   1      45.174  26.375  35.902  1.00  0.00     0.198 A 
ATOM     96  C   UNL A   1      46.699  28.037  35.082  1.00  0.00     0.198 A 
ATOM     97  F   UNL A   1      45.891  29.883  33.871  1.00  0.00    -0.203 F 
ATOM     98  F   UNL A   1      44.944  25.253  36.599  1.00  0.00    -0.200 F 
ATOM     99  C   UNL A   1      46.467  26.859  35.778  1.00  0.00     0.200 A 
ATOM    100  F   UNL A   1      47.951  28.500  34.950  1.00  0.00    -0.200 F 
ATOM    101  F   UNL A   1      47.489  26.197  36.336  1.00  0.00    -0.200 F 
ENDBRANCH  68  91
ENDBRANCH  42  43
ENDBRANCH  34  37
ENDBRANCH  32  33
ENDBRANCH  31  32
ENDBRANCH  30  31
ENDBRANCH  29  30
ENDBRANCH   1  29
TORSDOF 18
ENDMDL
MODEL 3
REMARK VINA RESULT:     -11.8      1.811      2.800
REMARK SMILES NS(=O)(=O)c1ccc(/N=N/c2ccc(O)c(C(=O)NCCCCCCNC(=O)c3ccc(-c4c5nc(c(-c6c(F)c(F)c(F)c(F)c6F)c6ccc([nH]6)c(-c6c(F)c(F)c(F)c(F)c6F)c6nc(c(-c7c(F)c(F)c(F)c(F)c7F)c7ccc4[nH]7)C=C6)C=C5)cc3)c2)cc1
REMARK SMILES IDX 21 1 20 2 19 3 17 4 18 5 16 7 11 8 12 9 92 10 13 11 14 12
REMARK SMILES IDX 10 13 9 14 8 15 5 16 6 17 94 18 7 19 93 20 2 21 3 22 4 23
REMARK SMILES IDX 1 24 15 27 22 29 23 30 24 31 25 32 26 33 27 34 28 36 29 37
REMARK SMILES IDX 30 38 91 39 31 40 90 41 32 42 33 43 34 44 84 45 35 46 89 47
REMARK SMILES IDX 83 48 85 49 36 50 88 51 82 52 81 53 37 55 69 56 49 57 68 58
REMARK SMILES IDX 50 59 53 60 67 61 86 62 51 63 52 64 66 66 87 67 54 68 38 69
REMARK SMILES IDX 39 70 47 71 40 72 41 73 45 74 48 75 42 76 43 77 46 78 44 79
REMARK SMILES IDX 70 80 71 81 79 82 72 83 73 84 77 85 80 86 74 87 75 88 78 89
REMARK SMILES IDX 76 90 55 91 56 92 64 93 57 94 58 95 62 96 65 97 59 98 60 99
REMARK SMILES IDX 63 100 61 101
REMARK H PARENT 19 6 1 25 1 26 15 28 26 35 85 54 53 65
REMARK Flexibility Score: inf
ROOT
ATOM      1  C   UNL A   1      31.919  28.429  26.968  1.00  0.00     0.021 C 
ENDROOT
BRANCH   1   2
ATOM      2  C   UNL A   1      31.821  27.536  25.735  1.00  0.00     0.116 C 
BRANCH   2   3
ATOM      3  N   UNL A   1      30.463  27.328  25.257  1.00  0.00    -0.352 N 
ATOM      4  C   UNL A   1      30.002  26.647  24.153  1.00  0.00     0.255 C 
ATOM      5  O   UNL A   1      28.803  26.689  23.874  1.00  0.00    -0.269 OA
ATOM      6  H   UNL A   1      29.762  27.739  25.812  1.00  0.00     0.163 HD
BRANCH   4   7
ATOM      7  C   UNL A   1      30.909  25.921  23.230  1.00  0.00     0.083 A 
ATOM      8  C   UNL A   1      32.317  23.993  22.727  1.00  0.00     0.087 A 
ATOM      9  C   UNL A   1      32.834  24.676  21.622  1.00  0.00     0.034 A 
ATOM     10  C   UNL A   1      31.291  24.600  23.470  1.00  0.00     0.048 A 
ATOM     11  C   UNL A   1      32.365  25.951  21.290  1.00  0.00     0.049 A 
ATOM     12  C   UNL A   1      31.413  26.572  22.097  1.00  0.00     0.128 A 
BRANCH   8  13
ATOM     13  N   UNL A   1      32.872  22.744  23.098  1.00  0.00    -0.151 NA
ATOM     14  N   UNL A   1      32.114  21.817  22.731  1.00  0.00    -0.151 NA
BRANCH  14  15
ATOM     15  C   UNL A   1      32.530  20.558  23.182  1.00  0.00     0.086 A 
ATOM     16  C   UNL A   1      33.025  17.997  24.194  1.00  0.00     0.082 A 
ATOM     17  C   UNL A   1      32.489  18.143  22.911  1.00  0.00     0.024 A 
ATOM     18  C   UNL A   1      33.342  19.118  24.965  1.00  0.00     0.024 A 
ATOM     19  C   UNL A   1      32.235  19.424  22.415  1.00  0.00     0.031 A 
ATOM     20  C   UNL A   1      33.089  20.394  24.456  1.00  0.00     0.031 A 
BRANCH  16  21
ATOM     21  S   UNL A   1      33.278  16.363  24.824  1.00  0.00     0.238 S 
ATOM     22  O   UNL A   1      34.038  15.610  23.851  1.00  0.00    -0.207 OA
ATOM     23  O   UNL A   1      32.030  15.902  25.377  1.00  0.00    -0.207 OA
BRANCH  21  24
ATOM     24  N   UNL A   1      34.318  16.578  26.126  1.00  0.00    -0.225 NA
ATOM     25  H   UNL A   1      33.780  16.591  26.992  1.00  0.00     0.137 HD
ATOM     26  H   UNL A   1      34.815  17.463  26.021  1.00  0.00     0.137 HD
ENDBRANCH  21  24
ENDBRANCH  16  21
ENDBRANCH  14  15
ENDBRANCH   8  13
BRANCH  12  27
ATOM     27  O   UNL A   1      31.018  27.828  21.723  1.00  0.00    -0.507 OA
ATOM     28  H   UNL A   1      31.098  28.542  22.325  1.00  0.00     0.293 HD
ENDBRANCH  12  27
ENDBRANCH   4   7
ENDBRANCH   2   3
ENDBRANCH   1   2
BRANCH   1  29
ATOM     29  C   UNL A   1      32.376  29.871  26.740  1.00  0.00     0.002 C 
BRANCH  29  30
ATOM     30  C   UNL A   1      31.395  30.799  26.022  1.00  0.00     0.002 C 
BRANCH  30  31
ATOM     31  C   UNL A   1      31.280  32.227  26.559  1.00  0.00     0.021 C 
BRANCH  31  32
ATOM     32  C   UNL A   1      32.576  32.880  27.029  1.00  0.00     0.116 C 
BRANCH  32  33
ATOM     33  N   UNL A   1      32.376  34.187  27.626  1.00  0.00    -0.352 N 
ATOM     34  C   UNL A   1      33.045  34.795  28.660  1.00  0.00     0.251 C 
ATOM     35  H   UNL A   1      31.649  34.720  27.229  1.00  0.00     0.163 HD
ATOM     36  O   UNL A   1      32.644  35.872  29.094  1.00  0.00    -0.269 OA
BRANCH  34  37
ATOM     37  C   UNL A   1      34.228  34.155  29.282  1.00  0.00     0.039 A 
ATOM     38  C   UNL A   1      34.021  33.250  30.328  1.00  0.00     0.014 A 
ATOM     39  C   UNL A   1      35.531  34.458  28.876  1.00  0.00     0.014 A 
ATOM     40  C   UNL A   1      35.111  32.613  30.928  1.00  0.00     0.010 A 
ATOM     41  C   UNL A   1      36.613  33.771  29.427  1.00  0.00     0.010 A 
ATOM     42  C   UNL A   1      36.415  32.846  30.464  1.00  0.00    -0.014 A 
BRANCH  42  43
ATOM     43  C   UNL A   1      37.574  32.136  31.063  1.00  0.00     0.031 A 
ATOM     44  C   UNL A   1      38.046  32.479  32.450  1.00  0.00     0.074 A 
ATOM     45  C   UNL A   1      38.229  31.204  30.343  1.00  0.00     0.049 A 
ATOM     46  N   UNL A   1      39.047  31.980  33.132  1.00  0.00    -0.248 NA
ATOM     47  C   UNL A   1      37.308  33.537  33.156  1.00  0.00     0.031 C 
ATOM     48  C   UNL A   1      37.901  30.813  28.970  1.00  0.00     0.029 A 
ATOM     49  N   UNL A   1      39.307  30.417  30.663  1.00  0.00    -0.354 N 
ATOM     50  C   UNL A   1      39.064  32.669  34.337  1.00  0.00     0.074 A 
ATOM     51  C   UNL A   1      38.008  33.656  34.275  1.00  0.00     0.031 C 
ATOM     52  C   UNL A   1      38.743  29.845  28.577  1.00  0.00     0.029 A 
ATOM     53  C   UNL A   1      39.688  29.566  29.655  1.00  0.00     0.049 A 
ATOM     54  H   UNL A   1      39.765  30.460  31.533  1.00  0.00     0.167 HD
ATOM     55  C   UNL A   1      39.870  32.480  35.410  1.00  0.00     0.037 A 
ATOM     56  C   UNL A   1      40.684  28.662  29.607  1.00  0.00     0.037 A 
ATOM     57  C   UNL A   1      40.908  31.484  35.481  1.00  0.00     0.049 A 
ATOM     58  C   UNL A   1      41.563  28.470  30.813  1.00  0.00     0.074 A 
ATOM     59  C   UNL A   1      41.744  31.181  36.542  1.00  0.00     0.029 A 
ATOM     60  N   UNL A   1      41.251  30.628  34.445  1.00  0.00    -0.354 N 
ATOM     61  N   UNL A   1      41.523  29.077  31.973  1.00  0.00    -0.248 NA
ATOM     62  C   UNL A   1      42.619  27.454  30.705  1.00  0.00     0.031 C 
ATOM     63  C   UNL A   1      42.619  30.167  36.135  1.00  0.00     0.029 A 
ATOM     64  C   UNL A   1      42.297  29.806  34.837  1.00  0.00     0.049 A 
ATOM     65  H   UNL A   1      40.816  30.607  33.562  1.00  0.00     0.167 HD
ATOM     66  C   UNL A   1      42.523  28.499  32.742  1.00  0.00     0.074 A 
ATOM     67  C   UNL A   1      43.144  27.480  31.922  1.00  0.00     0.031 C 
ATOM     68  C   UNL A   1      42.896  28.787  34.013  1.00  0.00     0.037 A 
BRANCH  55  69
ATOM     69  C   UNL A   1      39.654  33.366  36.603  1.00  0.00     0.064 A 
ATOM     70  C   UNL A   1      40.315  34.598  36.730  1.00  0.00     0.173 A 
ATOM     71  C   UNL A   1      38.751  32.999  37.612  1.00  0.00     0.173 A 
ATOM     72  F   UNL A   1      41.198  34.990  35.799  1.00  0.00    -0.203 F 
ATOM     73  C   UNL A   1      40.103  35.415  37.838  1.00  0.00     0.198 A 
ATOM     74  C   UNL A   1      38.519  33.833  38.704  1.00  0.00     0.198 A 
ATOM     75  F   UNL A   1      38.087  31.837  37.537  1.00  0.00    -0.203 F 
ATOM     76  F   UNL A   1      40.783  36.563  37.962  1.00  0.00    -0.200 F 
ATOM     77  C   UNL A   1      39.201  35.035  38.819  1.00  0.00     0.200 A 
ATOM     78  F   UNL A   1      37.637  33.471  39.646  1.00  0.00    -0.200 F 
ATOM     79  F   UNL A   1      38.993  35.825  39.882  1.00  0.00    -0.200 F 
ENDBRANCH  55  69
BRANCH  56  80
ATOM     80  C   UNL A   1      40.881  27.838  28.385  1.00  0.00     0.064 A 
ATOM     81  C   UNL A   1      40.274  26.580  28.263  1.00  0.00     0.173 A 
ATOM     82  C   UNL A   1      41.683  28.281  27.324  1.00  0.00     0.173 A 
ATOM     83  F   UNL A   1      39.513  26.104  29.262  1.00  0.00    -0.203 F 
ATOM     84  C   UNL A   1      40.478  25.788  27.136  1.00  0.00     0.198 A 
ATOM     85  C   UNL A   1      41.865  27.500  26.185  1.00  0.00     0.198 A 
ATOM     86  F   UNL A   1      42.281  29.479  27.389  1.00  0.00    -0.203 F 
ATOM     87  F   UNL A   1      39.923  24.570  27.066  1.00  0.00    -0.200 F 
ATOM     88  C   UNL A   1      41.270  26.250  26.095  1.00  0.00     0.200 A 
ATOM     89  F   UNL A   1      42.618  27.955  25.175  1.00  0.00    -0.200 F 
ATOM     90  F   UNL A   1      41.465  25.488  25.011  1.00  0.00    -0.200 F 
ENDBRANCH  56  80
BRANCH  68  91
ATOM     91  C   UNL A   1      43.998  27.962  34.608  1.00  0.00     0.064 A 
ATOM     92  C   UNL A   1      43.739  26.750  35.266  1.00  0.00     0.173 A 
ATOM     93  C   UNL A   1      45.335  28.377  34.497  1.00  0.00     0.173 A 
ATOM     94  F   UNL A   1      42.477  26.318  35.412  1.00  0.00    -0.203 F 
ATOM     95  C   UNL A   1      44.775  26.001  35.818  1.00  0.00     0.198 A 
ATOM     96  C   UNL A   1      46.369  27.610  35.025  1.00  0.00     0.198 A 
ATOM     97  F   UNL A   1      45.636  29.524  33.871  1.00  0.00    -0.203 F 
ATOM     98  F   UNL A   1      44.499  24.873  36.489  1.00  0.00    -0.200 F 
ATOM     99  C   UNL A   1      46.088  26.427  35.692  1.00  0.00     0.200 A 
ATOM    100  F   UNL A   1      47.639  28.018  34.890  1.00  0.00    -0.200 F 
ATOM    101  F   UNL A   1      47.083  25.703  36.221  1.00  0.00    -0.200 F 
ENDBRANCH  68  91
ENDBRANCH  42  43
ENDBRANCH  34  37
ENDBRANCH  32  33
ENDBRANCH  31  32
ENDBRANCH  30  31
ENDBRANCH  29  30
ENDBRANCH   1  29
TORSDOF 18
ENDMDL
