MODEL 1
REMARK VINA RESULT:     -12.3      0.000      0.000
REMARK SMILES CCOc1ccc(-c2csc3ncn([C@H](C)C(=O)NCCCCCCNC(=O)c4ccc(-c5c6nc(c(-c7c(F)c(F)c(F)c(F)c7F)c7ccc([nH]7)c(-c7c(F)c(F)c(F)c(F)c7F)c7nc(c(-c8c(F)c(F)c(F)c(F)c8F)c8ccc5[nH]8)C=C7)C=C6)cc4)c(=O)c23)cc1
REMARK SMILES IDX 21 1 20 2 19 3 17 4 18 5 15 7 16 8 14 9 8 10 9 11 94 12
REMARK SMILES IDX 10 13 11 14 92 15 12 16 93 17 13 18 7 19 4 20 5 21 96 22
REMARK SMILES IDX 6 23 95 24 3 25 2 26 1 27 22 28 23 29 24 30 25 31 26 32
REMARK SMILES IDX 27 33 28 35 29 36 30 37 91 38 31 39 90 40 32 41 33 42 34 43
REMARK SMILES IDX 84 44 35 45 89 46 83 47 85 48 36 49 88 50 82 51 81 52 37 54
REMARK SMILES IDX 69 55 49 56 68 57 50 58 53 59 67 60 86 61 51 62 52 63 66 65
REMARK SMILES IDX 87 66 54 67 38 68 39 69 47 70 40 71 41 72 45 73 48 74 42 75
REMARK SMILES IDX 43 76 46 77 44 78 70 79 71 80 79 81 72 82 73 83 77 84 80 85
REMARK SMILES IDX 74 86 75 87 78 88 76 89 55 90 56 91 64 92 57 93 58 94 62 95
REMARK SMILES IDX 65 96 59 97 60 98 63 99 61 100
REMARK H PARENT 19 6 26 34 85 53 53 64
REMARK Flexibility Score: inf
ROOT
ATOM      1  C   UNL A   1      39.622  22.189  26.812  1.00  0.00     0.021 C 
ENDROOT
BRANCH   1   2
ATOM      2  C   UNL A   1      38.466  22.670  25.957  1.00  0.00     0.116 C 
BRANCH   2   3
ATOM      3  N   UNL A   1      37.151  22.219  26.343  1.00  0.00    -0.354 N 
ATOM      4  C   UNL A   1      35.973  22.323  25.653  1.00  0.00     0.242 C 
ATOM      5  O   UNL A   1      35.059  21.568  26.004  1.00  0.00    -0.273 OA
ATOM      6  H   UNL A   1      37.093  21.777  27.221  1.00  0.00     0.163 HD
BRANCH   4   7
ATOM      7  C   UNL A   1      35.784  23.283  24.447  1.00  0.00     0.177 C 
ATOM      8  C   UNL A   1      36.623  22.954  23.213  1.00  0.00     0.042 C 
BRANCH   7   9
ATOM      9  N   UNL A   1      34.379  23.625  24.142  1.00  0.00    -0.286 N 
ATOM     10  C   UNL A   1      31.589  26.155  24.555  1.00  0.00     0.007 A 
ATOM     11  C   UNL A   1      30.323  25.951  24.033  1.00  0.00     0.076 A 
ATOM     12  C   UNL A   1      32.449  25.042  24.287  1.00  0.00     0.085 A 
ATOM     13  S   UNL A   1      30.179  24.458  23.225  1.00  0.00    -0.123 S 
ATOM     14  C   UNL A   1      31.814  24.094  23.515  1.00  0.00     0.131 A 
ATOM     15  C   UNL A   1      33.837  24.802  24.657  1.00  0.00     0.263 A 
ATOM     16  N   UNL A   1      32.382  22.997  22.974  1.00  0.00    -0.227 NA
ATOM     17  O   UNL A   1      34.491  25.607  25.325  1.00  0.00    -0.268 OA
ATOM     18  C   UNL A   1      33.627  22.853  23.284  1.00  0.00     0.204 A 
BRANCH  10  19
ATOM     19  C   UNL A   1      31.887  27.383  25.267  1.00  0.00    -0.016 A 
ATOM     20  C   UNL A   1      32.402  29.734  26.680  1.00  0.00     0.119 A 
ATOM     21  C   UNL A   1      32.601  29.699  25.300  1.00  0.00     0.047 A 
ATOM     22  C   UNL A   1      31.906  28.614  27.342  1.00  0.00     0.047 A 
ATOM     23  C   UNL A   1      32.342  28.522  24.591  1.00  0.00     0.012 A 
ATOM     24  C   UNL A   1      31.675  27.435  26.646  1.00  0.00     0.012 A 
BRANCH  20  25
ATOM     25  O   UNL A   1      32.590  30.920  27.332  1.00  0.00    -0.494 OA
BRANCH  25  26
ATOM     26  C   UNL A   1      33.972  31.243  27.546  1.00  0.00     0.226 C 
ATOM     27  C   UNL A   1      34.165  32.617  28.171  1.00  0.00     0.049 C 
ENDBRANCH  25  26
ENDBRANCH  20  25
ENDBRANCH  10  19
ENDBRANCH   7   9
ENDBRANCH   4   7
ENDBRANCH   2   3
ENDBRANCH   1   2
BRANCH   1  28
ATOM     28  C   UNL A   1      40.669  21.347  26.086  1.00  0.00     0.002 C 
BRANCH  28  29
ATOM     29  C   UNL A   1      41.155  20.062  26.777  1.00  0.00     0.002 C 
BRANCH  29  30
ATOM     30  C   UNL A   1      41.919  19.023  25.942  1.00  0.00     0.021 C 
BRANCH  30  31
ATOM     31  C   UNL A   1      43.402  18.901  26.246  1.00  0.00     0.116 C 
BRANCH  31  32
ATOM     32  N   UNL A   1      44.235  18.858  25.049  1.00  0.00    -0.352 N 
ATOM     33  C   UNL A   1      44.612  19.908  24.236  1.00  0.00     0.251 C 
ATOM     34  H   UNL A   1      44.569  17.970  24.788  1.00  0.00     0.163 HD
ATOM     35  O   UNL A   1      44.965  19.708  23.078  1.00  0.00    -0.269 OA
BRANCH  33  36
ATOM     36  C   UNL A   1      44.586  21.282  24.771  1.00  0.00     0.039 A 
ATOM     37  C   UNL A   1      43.663  22.219  24.303  1.00  0.00     0.014 A 
ATOM     38  C   UNL A   1      45.504  21.630  25.763  1.00  0.00     0.014 A 
ATOM     39  C   UNL A   1      43.625  23.478  24.898  1.00  0.00     0.010 A 
ATOM     40  C   UNL A   1      45.364  22.807  26.454  1.00  0.00     0.010 A 
ATOM     41  C   UNL A   1      44.461  23.755  25.997  1.00  0.00    -0.014 A 
BRANCH  41  42
ATOM     42  C   UNL A   1      44.267  24.971  26.782  1.00  0.00     0.031 A 
ATOM     43  C   UNL A   1      45.279  26.012  26.469  1.00  0.00     0.074 A 
ATOM     44  C   UNL A   1      43.193  25.212  27.569  1.00  0.00     0.049 A 
ATOM     45  N   UNL A   1      46.269  26.367  27.215  1.00  0.00    -0.248 NA
ATOM     46  C   UNL A   1      45.329  26.581  25.112  1.00  0.00     0.031 C 
ATOM     47  C   UNL A   1      41.991  24.384  27.720  1.00  0.00     0.029 A 
ATOM     48  N   UNL A   1      42.901  26.299  28.343  1.00  0.00    -0.354 N 
ATOM     49  C   UNL A   1      46.916  27.387  26.527  1.00  0.00     0.074 A 
ATOM     50  C   UNL A   1      46.442  27.319  25.172  1.00  0.00     0.031 C 
ATOM     51  C   UNL A   1      41.019  25.095  28.334  1.00  0.00     0.029 A 
ATOM     52  C   UNL A   1      41.574  26.362  28.771  1.00  0.00     0.049 A 
ATOM     53  H   UNL A   1      43.570  26.981  28.580  1.00  0.00     0.167 HD
ATOM     54  C   UNL A   1      47.506  28.393  27.231  1.00  0.00     0.037 A 
ATOM     55  C   UNL A   1      40.974  27.385  29.433  1.00  0.00     0.037 A 
ATOM     56  C   UNL A   1      47.645  28.006  28.617  1.00  0.00     0.049 A 
ATOM     57  C   UNL A   1      42.049  28.167  30.080  1.00  0.00     0.074 A 
ATOM     58  C   UNL A   1      48.355  27.065  29.331  1.00  0.00     0.029 A 
ATOM     59  N   UNL A   1      46.589  28.391  29.398  1.00  0.00    -0.354 N 
ATOM     60  N   UNL A   1      42.764  27.722  31.074  1.00  0.00    -0.248 NA
ATOM     61  C   UNL A   1      42.596  29.321  29.381  1.00  0.00     0.031 C 
ATOM     62  C   UNL A   1      47.538  26.731  30.456  1.00  0.00     0.029 A 
ATOM     63  C   UNL A   1      46.393  27.527  30.435  1.00  0.00     0.049 A 
ATOM     64  H   UNL A   1      46.040  29.191  29.232  1.00  0.00     0.167 HD
ATOM     65  C   UNL A   1      44.030  28.213  30.823  1.00  0.00     0.074 A 
ATOM     66  C   UNL A   1      43.827  29.325  29.900  1.00  0.00     0.031 C 
ATOM     67  C   UNL A   1      45.126  27.458  31.129  1.00  0.00     0.037 A 
BRANCH  54  68
ATOM     68  C   UNL A   1      47.420  29.867  26.854  1.00  0.00     0.064 A 
ATOM     69  C   UNL A   1      48.568  30.671  27.037  1.00  0.00     0.173 A 
ATOM     70  C   UNL A   1      46.214  30.579  26.674  1.00  0.00     0.173 A 
ATOM     71  F   UNL A   1      49.769  30.110  27.239  1.00  0.00    -0.203 F 
ATOM     72  C   UNL A   1      48.492  32.065  27.131  1.00  0.00     0.198 A 
ATOM     73  C   UNL A   1      46.151  31.972  26.720  1.00  0.00     0.198 A 
ATOM     74  F   UNL A   1      45.028  29.974  26.564  1.00  0.00    -0.203 F 
ATOM     75  F   UNL A   1      49.585  32.772  27.447  1.00  0.00    -0.200 F 
ATOM     76  C   UNL A   1      47.282  32.713  26.982  1.00  0.00     0.200 A 
ATOM     77  F   UNL A   1      44.961  32.578  26.600  1.00  0.00    -0.200 F 
ATOM     78  F   UNL A   1      47.191  34.040  27.139  1.00  0.00    -0.200 F 
ENDBRANCH  54  68
BRANCH  55  79
ATOM     79  C   UNL A   1      39.576  27.882  29.381  1.00  0.00     0.064 A 
ATOM     80  C   UNL A   1      38.810  28.021  30.555  1.00  0.00     0.173 A 
ATOM     81  C   UNL A   1      39.078  28.529  28.235  1.00  0.00     0.173 A 
ATOM     82  F   UNL A   1      39.226  27.467  31.704  1.00  0.00    -0.203 F 
ATOM     83  C   UNL A   1      37.649  28.802  30.592  1.00  0.00     0.198 A 
ATOM     84  C   UNL A   1      37.917  29.306  28.272  1.00  0.00     0.198 A 
ATOM     85  F   UNL A   1      39.764  28.507  27.084  1.00  0.00    -0.203 F 
ATOM     86  F   UNL A   1      36.994  28.975  31.749  1.00  0.00    -0.200 F 
ATOM     87  C   UNL A   1      37.214  29.459  29.454  1.00  0.00     0.200 A 
ATOM     88  F   UNL A   1      37.527  29.967  27.173  1.00  0.00    -0.200 F 
ATOM     89  F   UNL A   1      36.149  30.271  29.504  1.00  0.00    -0.200 F 
ENDBRANCH  55  79
BRANCH  67  90
ATOM     90  C   UNL A   1      44.954  26.390  32.168  1.00  0.00     0.064 A 
ATOM     91  C   UNL A   1      44.577  25.060  31.910  1.00  0.00     0.173 A 
ATOM     92  C   UNL A   1      45.245  26.731  33.496  1.00  0.00     0.173 A 
ATOM     93  F   UNL A   1      44.367  24.629  30.659  1.00  0.00    -0.203 F 
ATOM     94  C   UNL A   1      44.444  24.137  32.947  1.00  0.00     0.198 A 
ATOM     95  C   UNL A   1      45.155  25.797  34.522  1.00  0.00     0.198 A 
ATOM     96  F   UNL A   1      45.650  27.975  33.796  1.00  0.00    -0.203 F 
ATOM     97  F   UNL A   1      44.048  22.883  32.683  1.00  0.00    -0.200 F 
ATOM     98  C   UNL A   1      44.738  24.507  34.250  1.00  0.00     0.200 A 
ATOM     99  F   UNL A   1      45.485  26.150  35.771  1.00  0.00    -0.200 F 
ATOM    100  F   UNL A   1      44.637  23.612  35.243  1.00  0.00    -0.200 F 
ENDBRANCH  67  90
ENDBRANCH  41  42
ENDBRANCH  33  36
ENDBRANCH  31  32
ENDBRANCH  30  31
ENDBRANCH  29  30
ENDBRANCH  28  29
ENDBRANCH   1  28
TORSDOF 17
ENDMDL
MODEL 2
REMARK VINA RESULT:     -11.5      1.527      2.195
REMARK SMILES CCOc1ccc(-c2csc3ncn([C@H](C)C(=O)NCCCCCCNC(=O)c4ccc(-c5c6nc(c(-c7c(F)c(F)c(F)c(F)c7F)c7ccc([nH]7)c(-c7c(F)c(F)c(F)c(F)c7F)c7nc(c(-c8c(F)c(F)c(F)c(F)c8F)c8ccc5[nH]8)C=C7)C=C6)cc4)c(=O)c23)cc1
REMARK SMILES IDX 21 1 20 2 19 3 17 4 18 5 15 7 16 8 14 9 8 10 9 11 94 12
REMARK SMILES IDX 10 13 11 14 92 15 12 16 93 17 13 18 7 19 4 20 5 21 96 22
REMARK SMILES IDX 6 23 95 24 3 25 2 26 1 27 22 28 23 29 24 30 25 31 26 32
REMARK SMILES IDX 27 33 28 35 29 36 30 37 91 38 31 39 90 40 32 41 33 42 34 43
REMARK SMILES IDX 84 44 35 45 89 46 83 47 85 48 36 49 88 50 82 51 81 52 37 54
REMARK SMILES IDX 69 55 49 56 68 57 50 58 53 59 67 60 86 61 51 62 52 63 66 65
REMARK SMILES IDX 87 66 54 67 38 68 39 69 47 70 40 71 41 72 45 73 48 74 42 75
REMARK SMILES IDX 43 76 46 77 44 78 70 79 71 80 79 81 72 82 73 83 77 84 80 85
REMARK SMILES IDX 74 86 75 87 78 88 76 89 55 90 56 91 64 92 57 93 58 94 62 95
REMARK SMILES IDX 65 96 59 97 60 98 63 99 61 100
REMARK H PARENT 19 6 26 34 85 53 53 64
REMARK Flexibility Score: inf
ROOT
ATOM      1  C   UNL A   1      39.268  23.045  26.825  1.00  0.00     0.021 C 
ENDROOT
BRANCH   1   2
ATOM      2  C   UNL A   1      37.963  23.137  26.058  1.00  0.00     0.116 C 
BRANCH   2   3
ATOM      3  N   UNL A   1      37.232  21.905  25.886  1.00  0.00    -0.354 N 
ATOM      4  C   UNL A   1      36.114  21.671  25.131  1.00  0.00     0.242 C 
ATOM      5  O   UNL A   1      35.874  20.491  24.853  1.00  0.00    -0.273 OA
ATOM      6  H   UNL A   1      37.585  21.129  26.378  1.00  0.00     0.163 HD
BRANCH   4   7
ATOM      7  C   UNL A   1      35.211  22.810  24.585  1.00  0.00     0.177 C 
ATOM      8  C   UNL A   1      35.236  22.992  23.067  1.00  0.00     0.042 C 
BRANCH   7   9
ATOM      9  N   UNL A   1      33.856  22.861  25.172  1.00  0.00    -0.286 N 
ATOM     10  C   UNL A   1      30.716  24.921  25.676  1.00  0.00     0.007 A 
ATOM     11  C   UNL A   1      29.634  24.454  26.404  1.00  0.00     0.076 A 
ATOM     12  C   UNL A   1      31.783  23.968  25.659  1.00  0.00     0.085 A 
ATOM     13  S   UNL A   1      29.895  22.894  27.039  1.00  0.00    -0.123 S 
ATOM     14  C   UNL A   1      31.427  22.805  26.306  1.00  0.00     0.131 A 
ATOM     15  C   UNL A   1      33.106  24.031  25.050  1.00  0.00     0.263 A 
ATOM     16  N   UNL A   1      32.146  21.665  26.350  1.00  0.00    -0.227 NA
ATOM     17  O   UNL A   1      33.501  25.022  24.430  1.00  0.00    -0.268 OA
ATOM     18  C   UNL A   1      33.287  21.750  25.752  1.00  0.00     0.204 A 
BRANCH  10  19
ATOM     19  C   UNL A   1      30.658  26.231  25.056  1.00  0.00    -0.016 A 
ATOM     20  C   UNL A   1      30.544  28.782  23.931  1.00  0.00     0.119 A 
ATOM     21  C   UNL A   1      29.824  27.739  23.351  1.00  0.00     0.047 A 
ATOM     22  C   UNL A   1      31.280  28.562  25.092  1.00  0.00     0.047 A 
ATOM     23  C   UNL A   1      29.879  26.461  23.914  1.00  0.00     0.012 A 
ATOM     24  C   UNL A   1      31.361  27.288  25.638  1.00  0.00     0.012 A 
BRANCH  20  25
ATOM     25  O   UNL A   1      30.409  30.035  23.402  1.00  0.00    -0.494 OA
BRANCH  25  26
ATOM     26  C   UNL A   1      29.065  30.348  23.008  1.00  0.00     0.226 C 
ATOM     27  C   UNL A   1      28.943  30.646  21.520  1.00  0.00     0.049 C 
ENDBRANCH  25  26
ENDBRANCH  20  25
ENDBRANCH  10  19
ENDBRANCH   7   9
ENDBRANCH   4   7
ENDBRANCH   2   3
ENDBRANCH   1   2
BRANCH   1  28
ATOM     28  C   UNL A   1      40.323  22.123  26.218  1.00  0.00     0.002 C 
BRANCH  28  29
ATOM     29  C   UNL A   1      40.362  20.666  26.706  1.00  0.00     0.002 C 
BRANCH  29  30
ATOM     30  C   UNL A   1      41.365  19.700  26.056  1.00  0.00     0.021 C 
BRANCH  30  31
ATOM     31  C   UNL A   1      42.762  19.709  26.652  1.00  0.00     0.116 C 
BRANCH  31  32
ATOM     32  N   UNL A   1      43.817  19.565  25.654  1.00  0.00    -0.352 N 
ATOM     33  C   UNL A   1      44.398  20.551  24.881  1.00  0.00     0.251 C 
ATOM     34  H   UNL A   1      44.156  18.652  25.515  1.00  0.00     0.163 HD
ATOM     35  O   UNL A   1      44.968  20.269  23.833  1.00  0.00    -0.269 OA
BRANCH  33  36
ATOM     36  C   UNL A   1      44.327  21.955  25.328  1.00  0.00     0.039 A 
ATOM     37  C   UNL A   1      43.445  22.856  24.728  1.00  0.00     0.014 A 
ATOM     38  C   UNL A   1      45.159  22.367  26.369  1.00  0.00     0.014 A 
ATOM     39  C   UNL A   1      43.358  24.149  25.239  1.00  0.00     0.010 A 
ATOM     40  C   UNL A   1      44.961  23.584  26.972  1.00  0.00     0.010 A 
ATOM     41  C   UNL A   1      44.099  24.498  26.384  1.00  0.00    -0.014 A 
BRANCH  41  42
ATOM     42  C   UNL A   1      43.839  25.758  27.075  1.00  0.00     0.031 A 
ATOM     43  C   UNL A   1      44.797  26.824  26.681  1.00  0.00     0.074 A 
ATOM     44  C   UNL A   1      42.753  26.001  27.843  1.00  0.00     0.049 A 
ATOM     45  N   UNL A   1      45.765  27.286  27.397  1.00  0.00    -0.248 NA
ATOM     46  C   UNL A   1      44.820  27.289  25.285  1.00  0.00     0.031 C 
ATOM     47  C   UNL A   1      41.596  25.126  28.059  1.00  0.00     0.029 A 
ATOM     48  N   UNL A   1      42.402  27.128  28.532  1.00  0.00    -0.354 N 
ATOM     49  C   UNL A   1      46.359  28.283  26.631  1.00  0.00     0.074 A 
ATOM     50  C   UNL A   1      45.892  28.086  25.287  1.00  0.00     0.031 C 
ATOM     51  C   UNL A   1      40.586  25.830  28.618  1.00  0.00     0.029 A 
ATOM     52  C   UNL A   1      41.073  27.154  28.956  1.00  0.00     0.049 A 
ATOM     53  H   UNL A   1      43.034  27.860  28.715  1.00  0.00     0.167 HD
ATOM     54  C   UNL A   1      46.894  29.369  27.255  1.00  0.00     0.037 A 
ATOM     55  C   UNL A   1      40.419  28.191  29.539  1.00  0.00     0.037 A 
ATOM     56  C   UNL A   1      47.050  29.097  28.667  1.00  0.00     0.049 A 
ATOM     57  C   UNL A   1      41.449  29.076  30.122  1.00  0.00     0.074 A 
ATOM     58  C   UNL A   1      47.806  28.252  29.449  1.00  0.00     0.029 A 
ATOM     59  N   UNL A   1      45.973  29.485  29.418  1.00  0.00    -0.354 N 
ATOM     60  N   UNL A   1      42.184  28.747  31.146  1.00  0.00    -0.248 NA
ATOM     61  C   UNL A   1      41.937  30.200  29.337  1.00  0.00     0.031 C 
ATOM     62  C   UNL A   1      47.006  27.963  30.598  1.00  0.00     0.029 A 
ATOM     63  C   UNL A   1      45.820  28.694  30.518  1.00  0.00     0.049 A 
ATOM     64  H   UNL A   1      45.383  30.240  29.192  1.00  0.00     0.167 HD
ATOM     65  C   UNL A   1      43.423  29.283  30.857  1.00  0.00     0.074 A 
ATOM     66  C   UNL A   1      43.164  30.308  29.851  1.00  0.00     0.031 C 
ATOM     67  C   UNL A   1      44.557  28.612  31.217  1.00  0.00     0.037 A 
BRANCH  54  68
ATOM     68  C   UNL A   1      46.731  30.803  26.767  1.00  0.00     0.064 A 
ATOM     69  C   UNL A   1      47.847  31.668  26.851  1.00  0.00     0.173 A 
ATOM     70  C   UNL A   1      45.491  31.447  26.569  1.00  0.00     0.173 A 
ATOM     71  F   UNL A   1      49.077  31.177  27.059  1.00  0.00    -0.203 F 
ATOM     72  C   UNL A   1      47.711  33.060  26.838  1.00  0.00     0.198 A 
ATOM     73  C   UNL A   1      45.366  32.836  26.507  1.00  0.00     0.198 A 
ATOM     74  F   UNL A   1      44.330  30.785  26.542  1.00  0.00    -0.203 F 
ATOM     75  F   UNL A   1      48.780  33.836  27.063  1.00  0.00    -0.200 F 
ATOM     76  C   UNL A   1      46.469  33.642  26.675  1.00  0.00     0.200 A 
ATOM     77  F   UNL A   1      44.148  33.379  26.377  1.00  0.00    -0.200 F 
ATOM     78  F   UNL A   1      46.324  34.973  26.730  1.00  0.00    -0.200 F 
ENDBRANCH  54  68
BRANCH  55  79
ATOM     79  C   UNL A   1      38.996  28.610  29.452  1.00  0.00     0.064 A 
ATOM     80  C   UNL A   1      38.208  28.749  30.610  1.00  0.00     0.173 A 
ATOM     81  C   UNL A   1      38.481  29.186  28.276  1.00  0.00     0.173 A 
ATOM     82  F   UNL A   1      38.637  28.262  31.784  1.00  0.00    -0.203 F 
ATOM     83  C   UNL A   1      37.006  29.467  30.603  1.00  0.00     0.198 A 
ATOM     84  C   UNL A   1      37.279  29.899  28.270  1.00  0.00     0.198 A 
ATOM     85  F   UNL A   1      39.183  29.158  27.135  1.00  0.00    -0.203 F 
ATOM     86  F   UNL A   1      36.326  29.647  31.745  1.00  0.00    -0.200 F 
ATOM     87  C   UNL A   1      36.552  30.056  29.436  1.00  0.00     0.200 A 
ATOM     88  F   UNL A   1      36.868  30.496  27.142  1.00  0.00    -0.200 F 
ATOM     89  F   UNL A   1      35.444  30.810  29.443  1.00  0.00    -0.200 F 
ENDBRANCH  55  79
BRANCH  67  90
ATOM     90  C   UNL A   1      44.439  27.618  32.335  1.00  0.00     0.064 A 
ATOM     91  C   UNL A   1      44.398  27.938  33.703  1.00  0.00     0.173 A 
ATOM     92  C   UNL A   1      44.306  26.267  31.984  1.00  0.00     0.173 A 
ATOM     93  F   UNL A   1      44.429  29.211  34.120  1.00  0.00    -0.203 F 
ATOM     94  C   UNL A   1      44.286  26.940  34.671  1.00  0.00     0.198 A 
ATOM     95  C   UNL A   1      44.149  25.279  32.949  1.00  0.00     0.198 A 
ATOM     96  F   UNL A   1      44.297  25.908  30.691  1.00  0.00    -0.203 F 
ATOM     97  F   UNL A   1      44.284  27.264  35.973  1.00  0.00    -0.200 F 
ATOM     98  C   UNL A   1      44.157  25.613  34.292  1.00  0.00     0.200 A 
ATOM     99  F   UNL A   1      43.980  24.005  32.573  1.00  0.00    -0.200 F 
ATOM    100  F   UNL A   1      44.021  24.656  35.221  1.00  0.00    -0.200 F 
ENDBRANCH  67  90
ENDBRANCH  41  42
ENDBRANCH  33  36
ENDBRANCH  31  32
ENDBRANCH  30  31
ENDBRANCH  29  30
ENDBRANCH  28  29
ENDBRANCH   1  28
TORSDOF 17
ENDMDL
MODEL 3
REMARK VINA RESULT:     -11.4      2.689      8.955
REMARK SMILES CCOc1ccc(-c2csc3ncn([C@H](C)C(=O)NCCCCCCNC(=O)c4ccc(-c5c6nc(c(-c7c(F)c(F)c(F)c(F)c7F)c7ccc([nH]7)c(-c7c(F)c(F)c(F)c(F)c7F)c7nc(c(-c8c(F)c(F)c(F)c(F)c8F)c8ccc5[nH]8)C=C7)C=C6)cc4)c(=O)c23)cc1
REMARK SMILES IDX 21 1 20 2 19 3 17 4 18 5 15 7 16 8 14 9 8 10 9 11 94 12
REMARK SMILES IDX 10 13 11 14 92 15 12 16 93 17 13 18 7 19 4 20 5 21 96 22
REMARK SMILES IDX 6 23 95 24 3 25 2 26 1 27 22 28 23 29 24 30 25 31 26 32
REMARK SMILES IDX 27 33 28 35 29 36 30 37 91 38 31 39 90 40 32 41 33 42 34 43
REMARK SMILES IDX 84 44 35 45 89 46 83 47 85 48 36 49 88 50 82 51 81 52 37 54
REMARK SMILES IDX 69 55 49 56 68 57 50 58 53 59 67 60 86 61 51 62 52 63 66 65
REMARK SMILES IDX 87 66 54 67 38 68 39 69 47 70 40 71 41 72 45 73 48 74 42 75
REMARK SMILES IDX 43 76 46 77 44 78 70 79 71 80 79 81 72 82 73 83 77 84 80 85
REMARK SMILES IDX 74 86 75 87 78 88 76 89 55 90 56 91 64 92 57 93 58 94 62 95
REMARK SMILES IDX 65 96 59 97 60 98 63 99 61 100
REMARK H PARENT 19 6 26 34 85 53 53 64
REMARK Flexibility Score: inf
ROOT
ATOM      1  C   UNL A   1      35.266  30.761  28.067  1.00  0.00     0.021 C 
ENDROOT
BRANCH   1   2
ATOM      2  C   UNL A   1      35.139  29.511  27.217  1.00  0.00     0.116 C 
BRANCH   2   3
ATOM      3  N   UNL A   1      34.345  29.629  26.019  1.00  0.00    -0.354 N 
ATOM      4  C   UNL A   1      33.131  29.061  25.736  1.00  0.00     0.242 C 
ATOM      5  O   UNL A   1      32.483  29.573  24.816  1.00  0.00    -0.273 OA
ATOM      6  H   UNL A   1      34.727  30.193  25.309  1.00  0.00     0.163 HD
BRANCH   4   7
ATOM      7  C   UNL A   1      32.544  27.877  26.551  1.00  0.00     0.177 C 
ATOM      8  C   UNL A   1      31.552  28.267  27.647  1.00  0.00     0.042 C 
BRANCH   7   9
ATOM      9  N   UNL A   1      32.114  26.720  25.739  1.00  0.00    -0.286 N 
ATOM     10  C   UNL A   1      33.133  23.441  24.135  1.00  0.00     0.007 A 
ATOM     11  C   UNL A   1      32.253  22.682  23.382  1.00  0.00     0.076 A 
ATOM     12  C   UNL A   1      32.514  24.644  24.604  1.00  0.00     0.085 A 
ATOM     13  S   UNL A   1      30.711  23.397  23.256  1.00  0.00    -0.123 S 
ATOM     14  C   UNL A   1      31.184  24.695  24.247  1.00  0.00     0.131 A 
ATOM     15  C   UNL A   1      33.048  25.742  25.399  1.00  0.00     0.263 A 
ATOM     16  N   UNL A   1      30.287  25.618  24.647  1.00  0.00    -0.227 NA
ATOM     17  O   UNL A   1      34.220  25.768  25.784  1.00  0.00    -0.268 OA
ATOM     18  C   UNL A   1      30.793  26.542  25.394  1.00  0.00     0.204 A 
BRANCH  10  19
ATOM     19  C   UNL A   1      34.489  22.973  24.351  1.00  0.00    -0.016 A 
ATOM     20  C   UNL A   1      37.090  22.089  24.839  1.00  0.00     0.119 A 
ATOM     21  C   UNL A   1      36.811  22.809  23.678  1.00  0.00     0.047 A 
ATOM     22  C   UNL A   1      36.085  21.852  25.772  1.00  0.00     0.047 A 
ATOM     23  C   UNL A   1      35.509  23.253  23.433  1.00  0.00     0.012 A 
ATOM     24  C   UNL A   1      34.783  22.267  25.519  1.00  0.00     0.012 A 
BRANCH  20  25
ATOM     25  O   UNL A   1      38.387  21.736  25.087  1.00  0.00    -0.494 OA
BRANCH  25  26
ATOM     26  C   UNL A   1      38.868  22.184  26.362  1.00  0.00     0.226 C 
ATOM     27  C   UNL A   1      39.063  23.692  26.420  1.00  0.00     0.049 C 
ENDBRANCH  25  26
ENDBRANCH  20  25
ENDBRANCH  10  19
ENDBRANCH   7   9
ENDBRANCH   4   7
ENDBRANCH   2   3
ENDBRANCH   1   2
BRANCH   1  28
ATOM     28  C   UNL A   1      34.052  31.687  28.059  1.00  0.00     0.002 C 
BRANCH  28  29
ATOM     29  C   UNL A   1      34.192  33.054  28.748  1.00  0.00     0.002 C 
BRANCH  29  30
ATOM     30  C   UNL A   1      35.469  33.872  28.504  1.00  0.00     0.021 C 
BRANCH  30  31
ATOM     31  C   UNL A   1      36.559  33.713  29.551  1.00  0.00     0.116 C 
BRANCH  31  32
ATOM     32  N   UNL A   1      36.050  33.315  30.858  1.00  0.00    -0.352 N 
ATOM     33  C   UNL A   1      36.288  32.141  31.544  1.00  0.00     0.251 C 
ATOM     34  H   UNL A   1      35.463  33.965  31.307  1.00  0.00     0.163 HD
ATOM     35  O   UNL A   1      35.517  31.759  32.418  1.00  0.00    -0.269 OA
BRANCH  33  36
ATOM     36  C   UNL A   1      37.483  31.342  31.214  1.00  0.00     0.039 A 
ATOM     37  C   UNL A   1      38.765  31.881  31.340  1.00  0.00     0.014 A 
ATOM     38  C   UNL A   1      37.309  30.029  30.775  1.00  0.00     0.014 A 
ATOM     39  C   UNL A   1      39.863  31.060  31.095  1.00  0.00     0.010 A 
ATOM     40  C   UNL A   1      38.384  29.180  30.689  1.00  0.00     0.010 A 
ATOM     41  C   UNL A   1      39.665  29.698  30.798  1.00  0.00    -0.014 A 
BRANCH  41  42
ATOM     42  C   UNL A   1      40.797  28.775  30.779  1.00  0.00     0.031 A 
ATOM     43  C   UNL A   1      41.327  28.506  32.140  1.00  0.00     0.074 A 
ATOM     44  C   UNL A   1      41.210  28.093  29.688  1.00  0.00     0.049 A 
ATOM     45  N   UNL A   1      42.430  28.954  32.635  1.00  0.00    -0.248 NA
ATOM     46  C   UNL A   1      40.462  27.842  33.130  1.00  0.00     0.031 C 
ATOM     47  C   UNL A   1      40.578  28.052  28.365  1.00  0.00     0.029 A 
ATOM     48  N   UNL A   1      42.244  27.210  29.546  1.00  0.00    -0.354 N 
ATOM     49  C   UNL A   1      42.518  28.415  33.914  1.00  0.00     0.074 A 
ATOM     50  C   UNL A   1      41.203  27.938  34.239  1.00  0.00     0.031 C 
ATOM     51  C   UNL A   1      41.089  27.030  27.643  1.00  0.00     0.029 A 
ATOM     52  C   UNL A   1      42.197  26.449  28.377  1.00  0.00     0.049 A 
ATOM     53  H   UNL A   1      42.962  27.118  30.213  1.00  0.00     0.167 HD
ATOM     54  C   UNL A   1      43.745  28.109  34.422  1.00  0.00     0.037 A 
ATOM     55  C   UNL A   1      43.008  25.414  28.040  1.00  0.00     0.037 A 
ATOM     56  C   UNL A   1      44.776  28.748  33.635  1.00  0.00     0.049 A 
ATOM     57  C   UNL A   1      44.245  25.560  28.836  1.00  0.00     0.074 A 
ATOM     58  C   UNL A   1      45.185  30.038  33.375  1.00  0.00     0.029 A 
ATOM     59  N   UNL A   1      45.254  27.962  32.622  1.00  0.00    -0.354 N 
ATOM     60  N   UNL A   1      45.110  26.516  28.650  1.00  0.00    -0.248 NA
ATOM     61  C   UNL A   1      44.352  24.854  30.104  1.00  0.00     0.031 C 
ATOM     62  C   UNL A   1      45.710  30.020  32.045  1.00  0.00     0.029 A 
ATOM     63  C   UNL A   1      45.673  28.711  31.563  1.00  0.00     0.049 A 
ATOM     64  H   UNL A   1      45.292  26.978  32.655  1.00  0.00     0.167 HD
ATOM     65  C   UNL A   1      45.532  26.839  29.925  1.00  0.00     0.074 A 
ATOM     66  C   UNL A   1      45.187  25.679  30.741  1.00  0.00     0.031 C 
ATOM     67  C   UNL A   1      45.809  28.138  30.242  1.00  0.00     0.037 A 
BRANCH  54  68
ATOM     68  C   UNL A   1      44.056  26.835  35.198  1.00  0.00     0.064 A 
ATOM     69  C   UNL A   1      44.769  26.951  36.414  1.00  0.00     0.173 A 
ATOM     70  C   UNL A   1      44.012  25.533  34.654  1.00  0.00     0.173 A 
ATOM     71  F   UNL A   1      44.899  28.142  37.018  1.00  0.00    -0.203 F 
ATOM     72  C   UNL A   1      45.460  25.873  36.976  1.00  0.00     0.198 A 
ATOM     73  C   UNL A   1      44.662  24.450  35.245  1.00  0.00     0.198 A 
ATOM     74  F   UNL A   1      43.445  25.263  33.474  1.00  0.00    -0.203 F 
ATOM     75  F   UNL A   1      46.236  26.067  38.050  1.00  0.00    -0.200 F 
ATOM     76  C   UNL A   1      45.413  24.625  36.385  1.00  0.00     0.200 A 
ATOM     77  F   UNL A   1      44.627  23.254  34.639  1.00  0.00    -0.200 F 
ATOM     78  F   UNL A   1      46.128  23.606  36.881  1.00  0.00    -0.200 F 
ENDBRANCH  54  68
BRANCH  55  79
ATOM     79  C   UNL A   1      42.730  24.183  27.257  1.00  0.00     0.064 A 
ATOM     80  C   UNL A   1      43.119  24.076  25.908  1.00  0.00     0.173 A 
ATOM     81  C   UNL A   1      42.373  22.981  27.897  1.00  0.00     0.173 A 
ATOM     82  F   UNL A   1      43.510  25.165  25.228  1.00  0.00    -0.203 F 
ATOM     83  C   UNL A   1      43.197  22.839  25.257  1.00  0.00     0.198 A 
ATOM     84  C   UNL A   1      42.448  21.748  27.245  1.00  0.00     0.198 A 
ATOM     85  F   UNL A   1      42.045  22.969  29.196  1.00  0.00    -0.203 F 
ATOM     86  F   UNL A   1      43.651  22.772  23.997  1.00  0.00    -0.200 F 
ATOM     87  C   UNL A   1      42.879  21.674  25.933  1.00  0.00     0.200 A 
ATOM     88  F   UNL A   1      42.172  20.623  27.921  1.00  0.00    -0.200 F 
ATOM     89  F   UNL A   1      43.028  20.482  25.339  1.00  0.00    -0.200 F 
ENDBRANCH  55  79
BRANCH  67  90
ATOM     90  C   UNL A   1      46.146  29.063  29.109  1.00  0.00     0.064 A 
ATOM     91  C   UNL A   1      47.400  29.150  28.479  1.00  0.00     0.173 A 
ATOM     92  C   UNL A   1      45.114  29.866  28.605  1.00  0.00     0.173 A 
ATOM     93  F   UNL A   1      48.415  28.353  28.841  1.00  0.00    -0.203 F 
ATOM     94  C   UNL A   1      47.616  30.043  27.430  1.00  0.00     0.198 A 
ATOM     95  C   UNL A   1      45.321  30.723  27.531  1.00  0.00     0.198 A 
ATOM     96  F   UNL A   1      43.885  29.796  29.141  1.00  0.00    -0.203 F 
ATOM     97  F   UNL A   1      48.829  30.135  26.865  1.00  0.00    -0.200 F 
ATOM     98  C   UNL A   1      46.575  30.824  26.955  1.00  0.00     0.200 A 
ATOM     99  F   UNL A   1      44.298  31.442  27.048  1.00  0.00    -0.200 F 
ATOM    100  F   UNL A   1      46.775  31.663  25.929  1.00  0.00    -0.200 F 
ENDBRANCH  67  90
ENDBRANCH  41  42
ENDBRANCH  33  36
ENDBRANCH  31  32
ENDBRANCH  30  31
ENDBRANCH  29  30
ENDBRANCH  28  29
ENDBRANCH   1  28
TORSDOF 17
ENDMDL
