MODEL 1
REMARK VINA RESULT:     -11.1      0.000      0.000
REMARK SMILES C/C(=C\CN1CC(=O)N2CCC[C@H]2C1=O)C(=O)NCCCCCCNC(=O)c1ccc(-c2c3nc(c(-c4c(F)c(F)c(F)c(F)c4F)c4ccc([nH]4)c(-c4c(F)c(F)c(F)c(F)c4F)c4nc(c(-c5c(F)c(F)c(F)c(F)c5F)c5ccc2[nH]5)C=C4)C=C3)cc1
REMARK SMILES IDX 21 1 20 2 19 3 18 4 16 5 17 6 2 8 1 9 3 10 4 11 5 12 6 13
REMARK SMILES IDX 14 14 7 15 13 16 15 17 8 18 9 19 12 20 10 21 11 22 22 23
REMARK SMILES IDX 23 24 24 25 25 26 26 27 27 29 28 30 29 31 90 32 30 33 89 34
REMARK SMILES IDX 31 35 32 36 33 37 83 38 34 39 88 40 82 41 84 42 35 43 87 44
REMARK SMILES IDX 81 45 80 46 36 48 68 49 48 50 67 51 49 52 52 53 66 54 85 55
REMARK SMILES IDX 50 56 51 57 65 59 86 60 53 61 37 62 38 63 46 64 39 65 40 66
REMARK SMILES IDX 44 67 47 68 41 69 42 70 45 71 43 72 69 73 70 74 78 75 71 76
REMARK SMILES IDX 72 77 76 78 79 79 73 80 74 81 77 82 75 83 54 84 55 85 63 86
REMARK SMILES IDX 56 87 57 88 61 89 64 90 58 91 59 92 62 93 60 94
REMARK H PARENT 18 7 25 28 84 47 52 58
REMARK Flexibility Score: inf
ROOT
ATOM      1  C   UNL A   1      34.504  32.151  28.898  1.00  0.00     0.002 C 
ENDROOT
BRANCH   1   2
ATOM      2  C   UNL A   1      35.487  31.426  27.977  1.00  0.00     0.021 C 
BRANCH   2   3
ATOM      3  C   UNL A   1      35.105  30.019  27.530  1.00  0.00     0.116 C 
BRANCH   3   4
ATOM      4  N   UNL A   1      33.729  29.657  27.820  1.00  0.00    -0.352 N 
ATOM      5  C   UNL A   1      32.833  28.888  27.136  1.00  0.00     0.246 C 
ATOM      6  O   UNL A   1      31.716  28.719  27.625  1.00  0.00    -0.270 OA
ATOM      7  H   UNL A   1      33.381  30.034  28.659  1.00  0.00     0.163 HD
BRANCH   5   8
ATOM      8  C   UNL A   1      33.139  28.333  25.776  1.00  0.00     0.012 C 
ATOM      9  C   UNL A   1      32.807  29.280  24.659  1.00  0.00     0.050 C 
ATOM     10  C   UNL A   1      33.600  27.078  25.613  1.00  0.00     0.003 C 
BRANCH  10  11
ATOM     11  C   UNL A   1      34.028  26.403  24.345  1.00  0.00     0.148 C 
BRANCH  11  12
ATOM     12  N   UNL A   1      33.936  24.955  24.505  1.00  0.00    -0.328 N 
ATOM     13  C   UNL A   1      34.775  24.318  25.534  1.00  0.00     0.220 C 
ATOM     14  C   UNL A   1      33.401  24.168  23.476  1.00  0.00     0.246 C 
ATOM     15  C   UNL A   1      34.170  23.011  26.064  1.00  0.00     0.242 C 
ATOM     16  C   UNL A   1      33.573  22.657  23.695  1.00  0.00     0.174 C 
ATOM     17  O   UNL A   1      32.964  24.629  22.423  1.00  0.00    -0.272 OA
ATOM     18  O   UNL A   1      34.384  22.584  27.193  1.00  0.00    -0.273 OA
ATOM     19  N   UNL A   1      33.484  22.307  25.103  1.00  0.00    -0.329 N 
ATOM     20  C   UNL A   1      32.495  21.789  23.056  1.00  0.00     0.037 C 
ATOM     21  C   UNL A   1      32.784  21.060  25.323  1.00  0.00     0.120 C 
ATOM     22  C   UNL A   1      32.528  20.526  23.919  1.00  0.00     0.024 C 
ENDBRANCH  11  12
ENDBRANCH  10  11
ENDBRANCH   5   8
ENDBRANCH   3   4
ENDBRANCH   2   3
ENDBRANCH   1   2
BRANCH   1  23
ATOM     23  C   UNL A   1      34.592  33.678  28.944  1.00  0.00     0.002 C 
BRANCH  23  24
ATOM     24  C   UNL A   1      33.278  34.452  28.814  1.00  0.00     0.021 C 
BRANCH  24  25
ATOM     25  C   UNL A   1      33.285  35.894  29.313  1.00  0.00     0.116 C 
BRANCH  25  26
ATOM     26  N   UNL A   1      32.477  36.090  30.503  1.00  0.00    -0.352 N 
ATOM     27  C   UNL A   1      32.681  35.675  31.796  1.00  0.00     0.251 C 
ATOM     28  H   UNL A   1      31.649  36.604  30.360  1.00  0.00     0.163 HD
ATOM     29  O   UNL A   1      31.798  35.850  32.632  1.00  0.00    -0.269 OA
BRANCH  27  30
ATOM     30  C   UNL A   1      33.935  34.996  32.200  1.00  0.00     0.039 A 
ATOM     31  C   UNL A   1      33.853  33.676  32.658  1.00  0.00     0.014 A 
ATOM     32  C   UNL A   1      35.173  35.647  32.192  1.00  0.00     0.014 A 
ATOM     33  C   UNL A   1      35.008  32.997  33.055  1.00  0.00     0.010 A 
ATOM     34  C   UNL A   1      36.335  34.949  32.531  1.00  0.00     0.010 A 
ATOM     35  C   UNL A   1      36.265  33.618  32.970  1.00  0.00    -0.014 A 
BRANCH  35  36
ATOM     36  C   UNL A   1      37.500  32.876  33.333  1.00  0.00     0.031 A 
ATOM     37  C   UNL A   1      38.214  33.155  34.626  1.00  0.00     0.074 A 
ATOM     38  C   UNL A   1      38.002  31.966  32.474  1.00  0.00     0.049 A 
ATOM     39  N   UNL A   1      39.303  32.606  35.107  1.00  0.00    -0.248 NA
ATOM     40  C   UNL A   1      37.645  34.204  35.485  1.00  0.00     0.031 C 
ATOM     41  C   UNL A   1      37.436  31.643  31.164  1.00  0.00     0.029 A 
ATOM     42  N   UNL A   1      39.101  31.149  32.574  1.00  0.00    -0.354 N 
ATOM     43  C   UNL A   1      39.552  33.247  36.313  1.00  0.00     0.074 A 
ATOM     44  C   UNL A   1      38.529  34.259  36.470  1.00  0.00     0.031 C 
ATOM     45  C   UNL A   1      38.177  30.680  30.592  1.00  0.00     0.029 A 
ATOM     46  C   UNL A   1      39.281  30.335  31.482  1.00  0.00     0.049 A 
ATOM     47  H   UNL A   1      39.702  31.147  33.353  1.00  0.00     0.167 HD
ATOM     48  C   UNL A   1      40.531  33.000  37.217  1.00  0.00     0.037 A 
ATOM     49  C   UNL A   1      40.228  29.412  31.228  1.00  0.00     0.037 A 
ATOM     50  C   UNL A   1      41.532  31.975  37.074  1.00  0.00     0.049 A 
ATOM     51  C   UNL A   1      41.287  29.140  32.260  1.00  0.00     0.074 A 
ATOM     52  C   UNL A   1      42.525  31.607  37.965  1.00  0.00     0.029 A 
ATOM     53  N   UNL A   1      41.669  31.154  35.965  1.00  0.00    -0.354 N 
ATOM     54  N   UNL A   1      41.467  29.702  33.431  1.00  0.00    -0.248 NA
ATOM     55  C   UNL A   1      42.270  28.095  31.940  1.00  0.00     0.031 C 
ATOM     56  C   UNL A   1      43.287  30.588  37.380  1.00  0.00     0.029 A 
ATOM     57  C   UNL A   1      42.741  30.293  36.142  1.00  0.00     0.049 A 
ATOM     58  H   UNL A   1      41.090  31.178  35.169  1.00  0.00     0.167 HD
ATOM     59  C   UNL A   1      42.564  29.067  33.994  1.00  0.00     0.074 A 
ATOM     60  C   UNL A   1      42.999  28.062  33.047  1.00  0.00     0.031 C 
ATOM     61  C   UNL A   1      43.162  29.298  35.189  1.00  0.00     0.037 A 
BRANCH  48  62
ATOM     62  C   UNL A   1      40.565  33.851  38.454  1.00  0.00     0.064 A 
ATOM     63  C   UNL A   1      39.831  33.511  39.599  1.00  0.00     0.173 A 
ATOM     64  C   UNL A   1      41.377  34.994  38.510  1.00  0.00     0.173 A 
ATOM     65  F   UNL A   1      39.032  32.434  39.594  1.00  0.00    -0.203 F 
ATOM     66  C   UNL A   1      39.889  34.297  40.748  1.00  0.00     0.198 A 
ATOM     67  C   UNL A   1      41.454  35.763  39.668  1.00  0.00     0.198 A 
ATOM     68  F   UNL A   1      42.105  35.361  37.444  1.00  0.00    -0.203 F 
ATOM     69  F   UNL A   1      39.146  33.977  41.815  1.00  0.00    -0.200 F 
ATOM     70  C   UNL A   1      40.705  35.417  40.783  1.00  0.00     0.200 A 
ATOM     71  F   UNL A   1      42.252  36.839  39.706  1.00  0.00    -0.200 F 
ATOM     72  F   UNL A   1      40.766  36.169  41.891  1.00  0.00    -0.200 F 
ENDBRANCH  48  62
BRANCH  49  73
ATOM     73  C   UNL A   1      40.195  28.649  29.955  1.00  0.00     0.064 A 
ATOM     74  C   UNL A   1      39.517  27.425  29.867  1.00  0.00     0.173 A 
ATOM     75  C   UNL A   1      40.841  29.123  28.805  1.00  0.00     0.173 A 
ATOM     76  F   UNL A   1      38.904  26.921  30.947  1.00  0.00    -0.203 F 
ATOM     77  C   UNL A   1      39.503  26.694  28.680  1.00  0.00     0.198 A 
ATOM     78  C   UNL A   1      40.804  28.405  27.611  1.00  0.00     0.198 A 
ATOM     79  F   UNL A   1      41.499  30.291  28.837  1.00  0.00    -0.203 F 
ATOM     80  F   UNL A   1      38.886  25.506  28.636  1.00  0.00    -0.200 F 
ATOM     81  C   UNL A   1      40.142  27.187  27.552  1.00  0.00     0.200 A 
ATOM     82  F   UNL A   1      41.412  28.890  26.520  1.00  0.00    -0.200 F 
ATOM     83  F   UNL A   1      40.127  26.486  26.411  1.00  0.00    -0.200 F 
ENDBRANCH  49  73
BRANCH  61  84
ATOM     84  C   UNL A   1      44.336  28.433  35.544  1.00  0.00     0.064 A 
ATOM     85  C   UNL A   1      44.173  27.219  36.225  1.00  0.00     0.173 A 
ATOM     86  C   UNL A   1      45.637  28.816  35.183  1.00  0.00     0.173 A 
ATOM     87  F   UNL A   1      42.951  26.817  36.607  1.00  0.00    -0.203 F 
ATOM     88  C   UNL A   1      45.274  26.432  36.560  1.00  0.00     0.198 A 
ATOM     89  C   UNL A   1      46.732  28.013  35.494  1.00  0.00     0.198 A 
ATOM     90  F   UNL A   1      45.846  29.965  34.523  1.00  0.00    -0.203 F 
ATOM     91  F   UNL A   1      45.098  25.302  37.258  1.00  0.00    -0.200 F 
ATOM     92  C   UNL A   1      46.550  26.828  36.189  1.00  0.00     0.200 A 
ATOM     93  F   UNL A   1      47.963  28.391  35.126  1.00  0.00    -0.200 F 
ATOM     94  F   UNL A   1      47.607  26.070  36.513  1.00  0.00    -0.200 F 
ENDBRANCH  61  84
ENDBRANCH  35  36
ENDBRANCH  27  30
ENDBRANCH  25  26
ENDBRANCH  24  25
ENDBRANCH  23  24
ENDBRANCH   1  23
TORSDOF 15
ENDMDL
MODEL 2
REMARK VINA RESULT:     -11.1      1.919      2.874
REMARK SMILES C/C(=C\CN1CC(=O)N2CCC[C@H]2C1=O)C(=O)NCCCCCCNC(=O)c1ccc(-c2c3nc(c(-c4c(F)c(F)c(F)c(F)c4F)c4ccc([nH]4)c(-c4c(F)c(F)c(F)c(F)c4F)c4nc(c(-c5c(F)c(F)c(F)c(F)c5F)c5ccc2[nH]5)C=C4)C=C3)cc1
REMARK SMILES IDX 21 1 20 2 19 3 18 4 16 5 17 6 2 8 1 9 3 10 4 11 5 12 6 13
REMARK SMILES IDX 14 14 7 15 13 16 15 17 8 18 9 19 12 20 10 21 11 22 22 23
REMARK SMILES IDX 23 24 24 25 25 26 26 27 27 29 28 30 29 31 90 32 30 33 89 34
REMARK SMILES IDX 31 35 32 36 33 37 83 38 34 39 88 40 82 41 84 42 35 43 87 44
REMARK SMILES IDX 81 45 80 46 36 48 68 49 48 50 67 51 49 52 52 53 66 54 85 55
REMARK SMILES IDX 50 56 51 57 65 59 86 60 53 61 37 62 38 63 46 64 39 65 40 66
REMARK SMILES IDX 44 67 47 68 41 69 42 70 45 71 43 72 69 73 70 74 78 75 71 76
REMARK SMILES IDX 72 77 76 78 79 79 73 80 74 81 77 82 75 83 54 84 55 85 63 86
REMARK SMILES IDX 56 87 57 88 61 89 64 90 58 91 59 92 62 93 60 94
REMARK H PARENT 18 7 25 28 84 47 52 58
REMARK Flexibility Score: inf
ROOT
ATOM      1  C   UNL A   1      31.785  29.754  25.868  1.00  0.00     0.002 C 
ENDROOT
BRANCH   1   2
ATOM      2  C   UNL A   1      33.122  29.599  25.143  1.00  0.00     0.021 C 
BRANCH   2   3
ATOM      3  C   UNL A   1      33.099  28.879  23.799  1.00  0.00     0.116 C 
BRANCH   3   4
ATOM      4  N   UNL A   1      32.050  29.329  22.902  1.00  0.00    -0.352 N 
ATOM      5  C   UNL A   1      30.911  28.719  22.465  1.00  0.00     0.246 C 
ATOM      6  O   UNL A   1      30.166  29.344  21.709  1.00  0.00    -0.270 OA
ATOM      7  H   UNL A   1      32.186  30.236  22.545  1.00  0.00     0.163 HD
BRANCH   5   8
ATOM      8  C   UNL A   1      30.597  27.290  22.799  1.00  0.00     0.012 C 
ATOM      9  C   UNL A   1      29.361  27.133  23.637  1.00  0.00     0.050 C 
ATOM     10  C   UNL A   1      31.409  26.282  22.424  1.00  0.00     0.003 C 
BRANCH  10  11
ATOM     11  C   UNL A   1      31.205  24.809  22.604  1.00  0.00     0.148 C 
BRANCH  11  12
ATOM     12  N   UNL A   1      32.009  24.337  23.727  1.00  0.00    -0.328 N 
ATOM     13  C   UNL A   1      31.681  24.836  25.073  1.00  0.00     0.220 C 
ATOM     14  C   UNL A   1      33.272  23.772  23.496  1.00  0.00     0.246 C 
ATOM     15  C   UNL A   1      32.083  23.854  26.182  1.00  0.00     0.242 C 
ATOM     16  C   UNL A   1      34.086  23.526  24.776  1.00  0.00     0.174 C 
ATOM     17  O   UNL A   1      33.754  23.616  22.377  1.00  0.00    -0.272 OA
ATOM     18  O   UNL A   1      31.508  23.794  27.263  1.00  0.00    -0.273 OA
ATOM     19  N   UNL A   1      33.231  23.156  25.892  1.00  0.00    -0.329 N 
ATOM     20  C   UNL A   1      35.072  22.366  24.698  1.00  0.00     0.037 C 
ATOM     21  C   UNL A   1      33.826  22.142  26.736  1.00  0.00     0.120 C 
ATOM     22  C   UNL A   1      35.228  21.960  26.164  1.00  0.00     0.024 C 
ENDBRANCH  11  12
ENDBRANCH  10  11
ENDBRANCH   5   8
ENDBRANCH   3   4
ENDBRANCH   2   3
ENDBRANCH   1   2
BRANCH   1  23
ATOM     23  C   UNL A   1      31.029  31.068  25.658  1.00  0.00     0.002 C 
BRANCH  23  24
ATOM     24  C   UNL A   1      31.062  32.078  26.808  1.00  0.00     0.021 C 
BRANCH  24  25
ATOM     25  C   UNL A   1      32.410  32.731  27.102  1.00  0.00     0.116 C 
BRANCH  25  26
ATOM     26  N   UNL A   1      32.288  34.081  27.622  1.00  0.00    -0.352 N 
ATOM     27  C   UNL A   1      33.019  34.735  28.583  1.00  0.00     0.251 C 
ATOM     28  H   UNL A   1      31.564  34.615  27.220  1.00  0.00     0.163 HD
ATOM     29  O   UNL A   1      32.663  35.849  28.958  1.00  0.00    -0.269 OA
BRANCH  27  30
ATOM     30  C   UNL A   1      34.217  34.114  29.198  1.00  0.00     0.039 A 
ATOM     31  C   UNL A   1      34.024  33.172  30.216  1.00  0.00     0.014 A 
ATOM     32  C   UNL A   1      35.517  34.479  28.835  1.00  0.00     0.014 A 
ATOM     33  C   UNL A   1      35.122  32.565  30.829  1.00  0.00     0.010 A 
ATOM     34  C   UNL A   1      36.614  33.827  29.404  1.00  0.00     0.010 A 
ATOM     35  C   UNL A   1      36.429  32.867  30.411  1.00  0.00    -0.014 A 
BRANCH  35  36
ATOM     36  C   UNL A   1      37.595  32.175  31.019  1.00  0.00     0.031 A 
ATOM     37  C   UNL A   1      38.073  32.537  32.397  1.00  0.00     0.074 A 
ATOM     38  C   UNL A   1      38.250  31.234  30.309  1.00  0.00     0.049 A 
ATOM     39  N   UNL A   1      39.071  32.040  33.086  1.00  0.00    -0.248 NA
ATOM     40  C   UNL A   1      37.348  33.615  33.087  1.00  0.00     0.031 C 
ATOM     41  C   UNL A   1      37.923  30.830  28.941  1.00  0.00     0.029 A 
ATOM     42  N   UNL A   1      39.328  30.450  30.639  1.00  0.00    -0.354 N 
ATOM     43  C   UNL A   1      39.100  32.749  34.280  1.00  0.00     0.074 A 
ATOM     44  C   UNL A   1      38.050  33.742  34.204  1.00  0.00     0.031 C 
ATOM     45  C   UNL A   1      38.765  29.857  28.557  1.00  0.00     0.029 A 
ATOM     46  C   UNL A   1      39.706  29.586  29.640  1.00  0.00     0.049 A 
ATOM     47  H   UNL A   1      39.787  30.503  31.508  1.00  0.00     0.167 HD
ATOM     48  C   UNL A   1      39.913  32.572  35.350  1.00  0.00     0.037 A 
ATOM     49  C   UNL A   1      40.696  28.675  29.603  1.00  0.00     0.037 A 
ATOM     50  C   UNL A   1      40.940  31.566  35.435  1.00  0.00     0.049 A 
ATOM     51  C   UNL A   1      41.567  28.483  30.813  1.00  0.00     0.074 A 
ATOM     52  C   UNL A   1      41.771  31.269  36.502  1.00  0.00     0.029 A 
ATOM     53  N   UNL A   1      41.277  30.693  34.412  1.00  0.00    -0.354 N 
ATOM     54  N   UNL A   1      41.535  29.108  31.965  1.00  0.00    -0.248 NA
ATOM     55  C   UNL A   1      42.606  27.447  30.722  1.00  0.00     0.031 C 
ATOM     56  C   UNL A   1      42.637  30.241  36.112  1.00  0.00     0.029 A 
ATOM     57  C   UNL A   1      42.316  29.868  34.816  1.00  0.00     0.049 A 
ATOM     58  H   UNL A   1      40.843  30.662  33.530  1.00  0.00     0.167 HD
ATOM     59  C   UNL A   1      42.529  28.530  32.741  1.00  0.00     0.074 A 
ATOM     60  C   UNL A   1      43.135  27.489  31.937  1.00  0.00     0.031 C 
ATOM     61  C   UNL A   1      42.910  28.836  34.005  1.00  0.00     0.037 A 
BRANCH  48  62
ATOM     62  C   UNL A   1      39.722  33.486  36.525  1.00  0.00     0.064 A 
ATOM     63  C   UNL A   1      40.356  34.735  36.595  1.00  0.00     0.173 A 
ATOM     64  C   UNL A   1      38.859  33.129  37.572  1.00  0.00     0.173 A 
ATOM     65  F   UNL A   1      41.199  35.120  35.625  1.00  0.00    -0.203 F 
ATOM     66  C   UNL A   1      40.153  35.584  37.681  1.00  0.00     0.198 A 
ATOM     67  C   UNL A   1      38.637  33.990  38.643  1.00  0.00     0.198 A 
ATOM     68  F   UNL A   1      38.222  31.948  37.552  1.00  0.00    -0.203 F 
ATOM     69  F   UNL A   1      40.802  36.753  37.746  1.00  0.00    -0.200 F 
ATOM     70  C   UNL A   1      39.288  35.213  38.700  1.00  0.00     0.200 A 
ATOM     71  F   UNL A   1      37.792  33.637  39.623  1.00  0.00    -0.200 F 
ATOM     72  F   UNL A   1      39.087  36.033  39.741  1.00  0.00    -0.200 F 
ENDBRANCH  48  62
BRANCH  49  73
ATOM     73  C   UNL A   1      40.893  27.846  28.386  1.00  0.00     0.064 A 
ATOM     74  C   UNL A   1      40.273  26.596  28.258  1.00  0.00     0.173 A 
ATOM     75  C   UNL A   1      41.706  28.284  27.331  1.00  0.00     0.173 A 
ATOM     76  F   UNL A   1      39.505  26.125  29.251  1.00  0.00    -0.203 F 
ATOM     77  C   UNL A   1      40.475  25.805  27.129  1.00  0.00     0.198 A 
ATOM     78  C   UNL A   1      41.885  27.505  26.189  1.00  0.00     0.198 A 
ATOM     79  F   UNL A   1      42.318  29.476  27.403  1.00  0.00    -0.203 F 
ATOM     80  F   UNL A   1      39.906  24.594  27.052  1.00  0.00    -0.200 F 
ATOM     81  C   UNL A   1      41.276  26.262  26.093  1.00  0.00     0.200 A 
ATOM     82  F   UNL A   1      42.650  27.956  25.186  1.00  0.00    -0.200 F 
ATOM     83  F   UNL A   1      41.467  25.503  25.006  1.00  0.00    -0.200 F 
ENDBRANCH  49  73
BRANCH  61  84
ATOM     84  C   UNL A   1      44.018  28.020  34.602  1.00  0.00     0.064 A 
ATOM     85  C   UNL A   1      43.757  26.872  35.362  1.00  0.00     0.173 A 
ATOM     86  C   UNL A   1      45.359  28.382  34.396  1.00  0.00     0.173 A 
ATOM     87  F   UNL A   1      42.491  26.494  35.601  1.00  0.00    -0.203 F 
ATOM     88  C   UNL A   1      44.796  26.131  35.921  1.00  0.00     0.198 A 
ATOM     89  C   UNL A   1      46.396  27.623  34.932  1.00  0.00     0.198 A 
ATOM     90  F   UNL A   1      45.662  29.468  33.670  1.00  0.00    -0.203 F 
ATOM     91  F   UNL A   1      44.520  25.067  36.688  1.00  0.00    -0.200 F 
ATOM     92  C   UNL A   1      46.113  26.504  35.701  1.00  0.00     0.200 A 
ATOM     93  F   UNL A   1      47.668  27.979  34.710  1.00  0.00    -0.200 F 
ATOM     94  F   UNL A   1      47.111  25.790  36.240  1.00  0.00    -0.200 F 
ENDBRANCH  61  84
ENDBRANCH  35  36
ENDBRANCH  27  30
ENDBRANCH  25  26
ENDBRANCH  24  25
ENDBRANCH  23  24
ENDBRANCH   1  23
TORSDOF 15
ENDMDL
MODEL 3
REMARK VINA RESULT:     -11.0      6.182     11.049
REMARK SMILES C/C(=C\CN1CC(=O)N2CCC[C@H]2C1=O)C(=O)NCCCCCCNC(=O)c1ccc(-c2c3nc(c(-c4c(F)c(F)c(F)c(F)c4F)c4ccc([nH]4)c(-c4c(F)c(F)c(F)c(F)c4F)c4nc(c(-c5c(F)c(F)c(F)c(F)c5F)c5ccc2[nH]5)C=C4)C=C3)cc1
REMARK SMILES IDX 21 1 20 2 19 3 18 4 16 5 17 6 2 8 1 9 3 10 4 11 5 12 6 13
REMARK SMILES IDX 14 14 7 15 13 16 15 17 8 18 9 19 12 20 10 21 11 22 22 23
REMARK SMILES IDX 23 24 24 25 25 26 26 27 27 29 28 30 29 31 90 32 30 33 89 34
REMARK SMILES IDX 31 35 32 36 33 37 83 38 34 39 88 40 82 41 84 42 35 43 87 44
REMARK SMILES IDX 81 45 80 46 36 48 68 49 48 50 67 51 49 52 52 53 66 54 85 55
REMARK SMILES IDX 50 56 51 57 65 59 86 60 53 61 37 62 38 63 46 64 39 65 40 66
REMARK SMILES IDX 44 67 47 68 41 69 42 70 45 71 43 72 69 73 70 74 78 75 71 76
REMARK SMILES IDX 72 77 76 78 79 79 73 80 74 81 77 82 75 83 54 84 55 85 63 86
REMARK SMILES IDX 56 87 57 88 61 89 64 90 58 91 59 92 62 93 60 94
REMARK H PARENT 18 7 25 28 84 47 52 58
REMARK Flexibility Score: inf
ROOT
ATOM      1  C   UNL A   1      36.585  21.376  24.551  1.00  0.00     0.002 C 
ENDROOT
BRANCH   1   2
ATOM      2  C   UNL A   1      35.352  22.097  25.097  1.00  0.00     0.021 C 
BRANCH   2   3
ATOM      3  C   UNL A   1      34.715  21.518  26.356  1.00  0.00     0.116 C 
BRANCH   3   4
ATOM      4  N   UNL A   1      33.831  20.393  26.110  1.00  0.00    -0.352 N 
ATOM      5  C   UNL A   1      32.733  20.263  25.310  1.00  0.00     0.246 C 
ATOM      6  O   UNL A   1      32.168  19.170  25.267  1.00  0.00    -0.270 OA
ATOM      7  H   UNL A   1      34.065  19.578  26.610  1.00  0.00     0.163 HD
BRANCH   5   8
ATOM      8  C   UNL A   1      32.149  21.430  24.569  1.00  0.00     0.012 C 
ATOM      9  C   UNL A   1      32.270  21.308  23.077  1.00  0.00     0.050 C 
ATOM     10  C   UNL A   1      31.639  22.495  25.217  1.00  0.00     0.003 C 
BRANCH  10  11
ATOM     11  C   UNL A   1      30.953  23.694  24.638  1.00  0.00     0.148 C 
BRANCH  11  12
ATOM     12  N   UNL A   1      31.869  24.830  24.636  1.00  0.00    -0.328 N 
ATOM     13  C   UNL A   1      32.867  24.914  23.556  1.00  0.00     0.220 C 
ATOM     14  C   UNL A   1      32.068  25.573  25.808  1.00  0.00     0.246 C 
ATOM     15  C   UNL A   1      33.294  26.357  23.257  1.00  0.00     0.242 C 
ATOM     16  C   UNL A   1      33.216  26.590  25.713  1.00  0.00     0.174 C 
ATOM     17  O   UNL A   1      31.485  25.345  26.866  1.00  0.00    -0.272 OA
ATOM     18  O   UNL A   1      33.688  26.724  22.155  1.00  0.00    -0.273 OA
ATOM     19  N   UNL A   1      33.323  27.153  24.377  1.00  0.00    -0.329 N 
ATOM     20  C   UNL A   1      33.056  27.824  26.594  1.00  0.00     0.037 C 
ATOM     21  C   UNL A   1      33.656  28.561  24.391  1.00  0.00     0.120 C 
ATOM     22  C   UNL A   1      33.902  28.868  25.864  1.00  0.00     0.024 C 
ENDBRANCH  11  12
ENDBRANCH  10  11
ENDBRANCH   5   8
ENDBRANCH   3   4
ENDBRANCH   2   3
ENDBRANCH   1   2
BRANCH   1  23
ATOM     23  C   UNL A   1      36.799  19.928  24.998  1.00  0.00     0.002 C 
BRANCH  23  24
ATOM     24  C   UNL A   1      38.205  19.350  24.825  1.00  0.00     0.021 C 
BRANCH  24  25
ATOM     25  C   UNL A   1      39.282  19.884  25.765  1.00  0.00     0.116 C 
BRANCH  25  26
ATOM     26  N   UNL A   1      40.400  18.973  25.929  1.00  0.00    -0.352 N 
ATOM     27  C   UNL A   1      41.726  19.226  26.181  1.00  0.00     0.251 C 
ATOM     28  H   UNL A   1      40.171  18.019  25.845  1.00  0.00     0.163 HD
ATOM     29  O   UNL A   1      42.532  18.299  26.161  1.00  0.00    -0.269 OA
BRANCH  27  30
ATOM     30  C   UNL A   1      42.212  20.601  26.453  1.00  0.00     0.039 A 
ATOM     31  C   UNL A   1      42.320  21.488  25.376  1.00  0.00     0.014 A 
ATOM     32  C   UNL A   1      42.615  21.012  27.727  1.00  0.00     0.014 A 
ATOM     33  C   UNL A   1      42.778  22.792  25.582  1.00  0.00     0.010 A 
ATOM     34  C   UNL A   1      43.014  22.333  27.945  1.00  0.00     0.010 A 
ATOM     35  C   UNL A   1      43.105  23.235  26.874  1.00  0.00    -0.014 A 
BRANCH  35  36
ATOM     36  C   UNL A   1      43.533  24.640  27.104  1.00  0.00     0.031 A 
ATOM     37  C   UNL A   1      42.570  25.659  27.647  1.00  0.00     0.074 A 
ATOM     38  C   UNL A   1      44.790  25.010  26.789  1.00  0.00     0.049 A 
ATOM     39  N   UNL A   1      42.767  26.927  27.911  1.00  0.00    -0.248 NA
ATOM     40  C   UNL A   1      41.198  25.199  27.910  1.00  0.00     0.031 C 
ATOM     41  C   UNL A   1      45.804  24.132  26.202  1.00  0.00     0.029 A 
ATOM     42  N   UNL A   1      45.428  26.219  26.915  1.00  0.00    -0.354 N 
ATOM     43  C   UNL A   1      41.546  27.417  28.359  1.00  0.00     0.074 A 
ATOM     44  C   UNL A   1      40.603  26.322  28.287  1.00  0.00     0.031 C 
ATOM     45  C   UNL A   1      46.943  24.824  26.042  1.00  0.00     0.029 A 
ATOM     46  C   UNL A   1      46.735  26.198  26.490  1.00  0.00     0.049 A 
ATOM     47  H   UNL A   1      44.991  27.023  27.275  1.00  0.00     0.167 HD
ATOM     48  C   UNL A   1      41.247  28.659  28.810  1.00  0.00     0.037 A 
ATOM     49  C   UNL A   1      47.661  27.174  26.469  1.00  0.00     0.037 A 
ATOM     50  C   UNL A   1      42.193  29.741  28.907  1.00  0.00     0.049 A 
ATOM     51  C   UNL A   1      47.309  28.536  26.999  1.00  0.00     0.074 A 
ATOM     52  C   UNL A   1      41.998  31.015  29.411  1.00  0.00     0.029 A 
ATOM     53  N   UNL A   1      43.514  29.675  28.490  1.00  0.00    -0.354 N 
ATOM     54  N   UNL A   1      46.171  28.966  27.490  1.00  0.00    -0.248 NA
ATOM     55  C   UNL A   1      48.374  29.549  26.982  1.00  0.00     0.031 C 
ATOM     56  C   UNL A   1      43.191  31.733  29.264  1.00  0.00     0.029 A 
ATOM     57  C   UNL A   1      44.140  30.892  28.709  1.00  0.00     0.049 A 
ATOM     58  H   UNL A   1      43.943  28.881  28.098  1.00  0.00     0.167 HD
ATOM     59  C   UNL A   1      46.389  30.284  27.860  1.00  0.00     0.074 A 
ATOM     60  C   UNL A   1      47.773  30.581  27.556  1.00  0.00     0.031 C 
ATOM     61  C   UNL A   1      45.519  31.173  28.400  1.00  0.00     0.037 A 
BRANCH  48  62
ATOM     62  C   UNL A   1      39.833  28.918  29.242  1.00  0.00     0.064 A 
ATOM     63  C   UNL A   1      38.851  29.333  28.331  1.00  0.00     0.173 A 
ATOM     64  C   UNL A   1      39.444  28.705  30.573  1.00  0.00     0.173 A 
ATOM     65  F   UNL A   1      39.172  29.561  27.049  1.00  0.00    -0.203 F 
ATOM     66  C   UNL A   1      37.537  29.549  28.741  1.00  0.00     0.198 A 
ATOM     67  C   UNL A   1      38.124  28.896  30.974  1.00  0.00     0.198 A 
ATOM     68  F   UNL A   1      40.343  28.302  31.485  1.00  0.00    -0.203 F 
ATOM     69  F   UNL A   1      36.626  29.986  27.861  1.00  0.00    -0.200 F 
ATOM     70  C   UNL A   1      37.174  29.323  30.059  1.00  0.00     0.200 A 
ATOM     71  F   UNL A   1      37.771  28.666  32.247  1.00  0.00    -0.200 F 
ATOM     72  F   UNL A   1      35.908  29.524  30.451  1.00  0.00    -0.200 F 
ENDBRANCH  48  62
BRANCH  49  73
ATOM     73  C   UNL A   1      49.027  26.887  25.960  1.00  0.00     0.064 A 
ATOM     74  C   UNL A   1      49.334  27.039  24.601  1.00  0.00     0.173 A 
ATOM     75  C   UNL A   1      50.047  26.454  26.818  1.00  0.00     0.173 A 
ATOM     76  F   UNL A   1      48.385  27.429  23.739  1.00  0.00    -0.203 F 
ATOM     77  C   UNL A   1      50.608  26.748  24.115  1.00  0.00     0.198 A 
ATOM     78  C   UNL A   1      51.328  26.189  26.336  1.00  0.00     0.198 A 
ATOM     79  F   UNL A   1      49.804  26.297  28.128  1.00  0.00    -0.203 F 
ATOM     80  F   UNL A   1      50.863  26.858  22.805  1.00  0.00    -0.200 F 
ATOM     81  C   UNL A   1      51.605  26.329  24.984  1.00  0.00     0.200 A 
ATOM     82  F   UNL A   1      52.291  25.796  27.180  1.00  0.00    -0.200 F 
ATOM     83  F   UNL A   1      52.829  26.052  24.517  1.00  0.00    -0.200 F 
ENDBRANCH  49  73
BRANCH  61  84
ATOM     84  C   UNL A   1      46.048  32.541  28.716  1.00  0.00     0.064 A 
ATOM     85  C   UNL A   1      45.971  33.590  27.788  1.00  0.00     0.173 A 
ATOM     86  C   UNL A   1      46.623  32.811  29.967  1.00  0.00     0.173 A 
ATOM     87  F   UNL A   1      45.445  33.377  26.572  1.00  0.00    -0.203 F 
ATOM     88  C   UNL A   1      46.479  34.852  28.090  1.00  0.00     0.198 A 
ATOM     89  C   UNL A   1      47.103  34.081  30.276  1.00  0.00     0.198 A 
ATOM     90  F   UNL A   1      46.714  31.844  30.893  1.00  0.00    -0.203 F 
ATOM     91  F   UNL A   1      46.441  35.824  27.168  1.00  0.00    -0.200 F 
ATOM     92  C   UNL A   1      47.039  35.097  29.334  1.00  0.00     0.200 A 
ATOM     93  F   UNL A   1      47.635  34.320  31.482  1.00  0.00    -0.200 F 
ATOM     94  F   UNL A   1      47.527  36.312  29.622  1.00  0.00    -0.200 F 
ENDBRANCH  61  84
ENDBRANCH  35  36
ENDBRANCH  27  30
ENDBRANCH  25  26
ENDBRANCH  24  25
ENDBRANCH  23  24
ENDBRANCH   1  23
TORSDOF 15
ENDMDL
