MODEL 1
REMARK VINA RESULT:     -11.0      0.000      0.000
REMARK SMILES CC[C@H](NC(=O)N1CCO[C@@H](CC(=O)NCCCCCCNC(=O)c2ccc(-c3c4nc(c(-c5c(F)c(F)c(F)c(F)c5F)c5ccc([nH]5)c(-c5c(F)c(F)c(F)c(F)c5F)c5nc(c(-c6c(F)c(F)c(F)c(F)c6F)c6ccc3[nH]6)C=C5)C=C4)cc2)C1)c1cccs1
REMARK SMILES IDX 17 1 16 2 15 3 13 4 14 5 12 7 11 8 7 9 8 10 88 11 9 12 10 13
REMARK SMILES IDX 5 14 4 15 6 17 3 18 2 19 1 20 89 21 90 22 93 23 91 24 92 25
REMARK SMILES IDX 18 26 19 27 20 28 21 29 22 30 23 31 24 33 25 34 26 35 87 36
REMARK SMILES IDX 27 37 86 38 28 39 29 40 30 41 80 42 31 43 85 44 79 45 81 46
REMARK SMILES IDX 32 47 84 48 78 49 77 50 33 52 65 53 45 54 64 55 46 56 49 57
REMARK SMILES IDX 63 58 82 59 47 60 48 61 62 63 83 64 50 65 34 66 35 67 43 68
REMARK SMILES IDX 36 69 37 70 41 71 44 72 38 73 39 74 42 75 40 76 66 77 67 78
REMARK SMILES IDX 75 79 68 80 69 81 73 82 76 83 70 84 71 85 74 86 72 87 51 88
REMARK SMILES IDX 52 89 60 90 53 91 54 92 58 93 61 94 55 95 56 96 59 97 57 98
REMARK H PARENT 15 6 4 16 22 32 81 51 49 62
REMARK Flexibility Score: inf
ROOT
ATOM      1  C   UNL A   1      40.792  21.887  27.593  1.00  0.00     0.021 C 
ENDROOT
BRANCH   1   2
ATOM      2  C   UNL A   1      39.724  21.781  26.498  1.00  0.00     0.116 C 
BRANCH   2   3
ATOM      3  N   UNL A   1      38.820  22.922  26.554  1.00  0.00    -0.356 N 
ATOM      4  C   UNL A   1      37.645  23.149  25.901  1.00  0.00     0.222 C 
ATOM      5  O   UNL A   1      37.126  24.262  25.990  1.00  0.00    -0.275 OA
ATOM      6  H   UNL A   1      39.103  23.643  27.161  1.00  0.00     0.163 HD
BRANCH   4   7
ATOM      7  C   UNL A   1      37.001  22.053  25.079  1.00  0.00     0.133 C 
BRANCH   7   8
ATOM      8  C   UNL A   1      35.480  22.178  24.954  1.00  0.00     0.147 C 
ATOM      9  N   UNL A   1      33.642  22.874  23.397  1.00  0.00    -0.320 N 
ATOM     10  C   UNL A   1      33.088  21.531  23.492  1.00  0.00     0.150 C 
ATOM     11  C   UNL A   1      35.065  22.911  23.678  1.00  0.00     0.154 C 
ATOM     12  C   UNL A   1      33.525  20.832  24.784  1.00  0.00     0.182 C 
ATOM     13  O   UNL A   1      34.954  20.829  24.930  1.00  0.00    -0.374 OA
BRANCH   9  14
ATOM     14  C   UNL A   1      33.285  23.666  22.335  1.00  0.00     0.318 C 
ATOM     15  N   UNL A   1      32.976  24.958  22.584  1.00  0.00    -0.330 N 
ATOM     16  H   UNL A   1      33.083  25.546  21.801  1.00  0.00     0.166 HD
ATOM     17  O   UNL A   1      33.383  23.292  21.166  1.00  0.00    -0.249 OA
BRANCH  15  18
ATOM     18  C   UNL A   1      32.517  25.656  23.779  1.00  0.00     0.124 C 
BRANCH  18  19
ATOM     19  C   UNL A   1      33.677  26.304  24.576  1.00  0.00     0.027 C 
ATOM     20  C   UNL A   1      33.375  26.688  26.022  1.00  0.00     0.006 C 
ENDBRANCH  18  19
BRANCH  18  21
ATOM     21  C   UNL A   1      31.309  26.538  23.539  1.00  0.00     0.027 A 
ATOM     22  C   UNL A   1      29.963  26.300  23.765  1.00  0.00     0.017 A 
ATOM     23  S   UNL A   1      31.532  28.106  22.849  1.00  0.00    -0.147 S 
ATOM     24  C   UNL A   1      29.137  27.415  23.440  1.00  0.00     0.012 A 
ATOM     25  C   UNL A   1      29.869  28.474  22.960  1.00  0.00     0.065 A 
ENDBRANCH  18  21
ENDBRANCH  15  18
ENDBRANCH   9  14
ENDBRANCH   7   8
ENDBRANCH   4   7
ENDBRANCH   2   3
ENDBRANCH   1   2
BRANCH   1  26
ATOM     26  C   UNL A   1      42.056  21.077  27.313  1.00  0.00     0.002 C 
BRANCH  26  27
ATOM     27  C   UNL A   1      41.944  19.590  27.659  1.00  0.00     0.002 C 
BRANCH  27  28
ATOM     28  C   UNL A   1      42.693  18.637  26.720  1.00  0.00     0.021 C 
BRANCH  28  29
ATOM     29  C   UNL A   1      42.772  19.097  25.266  1.00  0.00     0.116 C 
BRANCH  29  30
ATOM     30  N   UNL A   1      44.043  18.733  24.656  1.00  0.00    -0.352 N 
ATOM     31  C   UNL A   1      45.088  19.531  24.273  1.00  0.00     0.251 C 
ATOM     32  H   UNL A   1      44.170  17.770  24.494  1.00  0.00     0.163 HD
ATOM     33  O   UNL A   1      45.978  19.082  23.548  1.00  0.00    -0.269 OA
BRANCH  31  34
ATOM     34  C   UNL A   1      45.154  20.934  24.723  1.00  0.00     0.039 A 
ATOM     35  C   UNL A   1      45.506  21.209  26.047  1.00  0.00     0.014 A 
ATOM     36  C   UNL A   1      44.836  21.978  23.849  1.00  0.00     0.014 A 
ATOM     37  C   UNL A   1      45.595  22.532  26.480  1.00  0.00     0.010 A 
ATOM     38  C   UNL A   1      44.989  23.299  24.263  1.00  0.00     0.010 A 
ATOM     39  C   UNL A   1      45.365  23.588  25.583  1.00  0.00    -0.014 A 
BRANCH  39  40
ATOM     40  C   UNL A   1      45.511  25.004  26.006  1.00  0.00     0.031 A 
ATOM     41  C   UNL A   1      46.852  25.678  25.937  1.00  0.00     0.074 A 
ATOM     42  C   UNL A   1      44.449  25.658  26.514  1.00  0.00     0.049 A 
ATOM     43  N   UNL A   1      47.197  26.879  26.328  1.00  0.00    -0.248 NA
ATOM     44  C   UNL A   1      47.959  24.887  25.378  1.00  0.00     0.031 C 
ATOM     45  C   UNL A   1      43.108  25.096  26.674  1.00  0.00     0.029 A 
ATOM     46  N   UNL A   1      44.336  26.934  27.005  1.00  0.00    -0.354 N 
ATOM     47  C   UNL A   1      48.559  26.980  26.077  1.00  0.00     0.074 A 
ATOM     48  C   UNL A   1      48.988  25.703  25.548  1.00  0.00     0.031 C 
ATOM     49  C   UNL A   1      42.302  26.027  27.206  1.00  0.00     0.029 A 
ATOM     50  C   UNL A   1      43.077  27.239  27.461  1.00  0.00     0.049 A 
ATOM     51  H   UNL A   1      45.086  27.571  27.030  1.00  0.00     0.167 HD
ATOM     52  C   UNL A   1      49.372  28.049  26.253  1.00  0.00     0.037 A 
ATOM     53  C   UNL A   1      42.604  28.364  28.026  1.00  0.00     0.037 A 
ATOM     54  C   UNL A   1      48.935  29.324  26.758  1.00  0.00     0.049 A 
ATOM     55  C   UNL A   1      43.529  29.534  28.218  1.00  0.00     0.074 A 
ATOM     56  C   UNL A   1      49.667  30.487  26.915  1.00  0.00     0.029 A 
ATOM     57  N   UNL A   1      47.647  29.599  27.196  1.00  0.00    -0.354 N 
ATOM     58  N   UNL A   1      44.799  29.643  27.915  1.00  0.00    -0.248 NA
ATOM     59  C   UNL A   1      42.953  30.741  28.829  1.00  0.00     0.031 C 
ATOM     60  C   UNL A   1      48.835  31.454  27.490  1.00  0.00     0.029 A 
ATOM     61  C   UNL A   1      47.570  30.908  27.645  1.00  0.00     0.049 A 
ATOM     62  H   UNL A   1      46.899  28.960  27.188  1.00  0.00     0.167 HD
ATOM     63  C   UNL A   1      45.169  30.933  28.270  1.00  0.00     0.074 A 
ATOM     64  C   UNL A   1      43.983  31.574  28.800  1.00  0.00     0.031 C 
ATOM     65  C   UNL A   1      46.380  31.533  28.166  1.00  0.00     0.037 A 
BRANCH  52  66
ATOM     66  C   UNL A   1      50.821  27.883  25.892  1.00  0.00     0.064 A 
ATOM     67  C   UNL A   1      51.272  28.027  24.572  1.00  0.00     0.173 A 
ATOM     68  C   UNL A   1      51.773  27.602  26.883  1.00  0.00     0.173 A 
ATOM     69  F   UNL A   1      50.402  28.285  23.585  1.00  0.00    -0.203 F 
ATOM     70  C   UNL A   1      52.618  27.865  24.252  1.00  0.00     0.198 A 
ATOM     71  C   UNL A   1      53.123  27.471  26.565  1.00  0.00     0.198 A 
ATOM     72  F   UNL A   1      51.398  27.462  28.163  1.00  0.00    -0.203 F 
ATOM     73  F   UNL A   1      53.017  27.955  22.975  1.00  0.00    -0.200 F 
ATOM     74  C   UNL A   1      53.543  27.593  25.249  1.00  0.00     0.200 A 
ATOM     75  F   UNL A   1      54.017  27.222  27.532  1.00  0.00    -0.200 F 
ATOM     76  F   UNL A   1      54.839  27.441  24.940  1.00  0.00    -0.200 F 
ENDBRANCH  52  66
BRANCH  53  77
ATOM     77  C   UNL A   1      41.176  28.447  28.427  1.00  0.00     0.064 A 
ATOM     78  C   UNL A   1      40.210  28.944  27.542  1.00  0.00     0.173 A 
ATOM     79  C   UNL A   1      40.746  28.026  29.694  1.00  0.00     0.173 A 
ATOM     80  F   UNL A   1      40.576  29.378  26.327  1.00  0.00    -0.203 F 
ATOM     81  C   UNL A   1      38.870  29.033  27.913  1.00  0.00     0.198 A 
ATOM     82  C   UNL A   1      39.401  28.088  30.055  1.00  0.00     0.198 A 
ATOM     83  F   UNL A   1      41.630  27.538  30.576  1.00  0.00    -0.203 F 
ATOM     84  F   UNL A   1      37.974  29.550  27.062  1.00  0.00    -0.200 F 
ATOM     85  C   UNL A   1      38.466  28.599  29.167  1.00  0.00     0.200 A 
ATOM     86  F   UNL A   1      39.013  27.656  31.262  1.00  0.00    -0.200 F 
ATOM     87  F   UNL A   1      37.176  28.678  29.523  1.00  0.00    -0.200 F 
ENDBRANCH  53  77
BRANCH  65  88
ATOM     88  C   UNL A   1      46.478  32.964  28.607  1.00  0.00     0.064 A 
ATOM     89  C   UNL A   1      46.853  33.308  29.914  1.00  0.00     0.173 A 
ATOM     90  C   UNL A   1      46.237  34.004  27.696  1.00  0.00     0.173 A 
ATOM     91  F   UNL A   1      47.079  32.350  30.825  1.00  0.00    -0.203 F 
ATOM     92  C   UNL A   1      46.957  34.641  30.300  1.00  0.00     0.198 A 
ATOM     93  C   UNL A   1      46.371  35.336  28.078  1.00  0.00     0.198 A 
ATOM     94  F   UNL A   1      45.882  33.729  26.432  1.00  0.00    -0.203 F 
ATOM     95  F   UNL A   1      47.271  34.947  31.567  1.00  0.00    -0.200 F 
ATOM     96  C   UNL A   1      46.724  35.653  29.380  1.00  0.00     0.200 A 
ATOM     97  F   UNL A   1      46.159  36.312  27.185  1.00  0.00    -0.200 F 
ATOM     98  F   UNL A   1      46.834  36.936  29.753  1.00  0.00    -0.200 F 
ENDBRANCH  65  88
ENDBRANCH  39  40
ENDBRANCH  31  34
ENDBRANCH  29  30
ENDBRANCH  28  29
ENDBRANCH  27  28
ENDBRANCH  26  27
ENDBRANCH   1  26
TORSDOF 18
ENDMDL
MODEL 2
REMARK VINA RESULT:     -11.0      6.838     12.387
REMARK SMILES CC[C@H](NC(=O)N1CCO[C@@H](CC(=O)NCCCCCCNC(=O)c2ccc(-c3c4nc(c(-c5c(F)c(F)c(F)c(F)c5F)c5ccc([nH]5)c(-c5c(F)c(F)c(F)c(F)c5F)c5nc(c(-c6c(F)c(F)c(F)c(F)c6F)c6ccc3[nH]6)C=C5)C=C4)cc2)C1)c1cccs1
REMARK SMILES IDX 17 1 16 2 15 3 13 4 14 5 12 7 11 8 7 9 8 10 88 11 9 12 10 13
REMARK SMILES IDX 5 14 4 15 6 17 3 18 2 19 1 20 89 21 90 22 93 23 91 24 92 25
REMARK SMILES IDX 18 26 19 27 20 28 21 29 22 30 23 31 24 33 25 34 26 35 87 36
REMARK SMILES IDX 27 37 86 38 28 39 29 40 30 41 80 42 31 43 85 44 79 45 81 46
REMARK SMILES IDX 32 47 84 48 78 49 77 50 33 52 65 53 45 54 64 55 46 56 49 57
REMARK SMILES IDX 63 58 82 59 47 60 48 61 62 63 83 64 50 65 34 66 35 67 43 68
REMARK SMILES IDX 36 69 37 70 41 71 44 72 38 73 39 74 42 75 40 76 66 77 67 78
REMARK SMILES IDX 75 79 68 80 69 81 73 82 76 83 70 84 71 85 74 86 72 87 51 88
REMARK SMILES IDX 52 89 60 90 53 91 54 92 58 93 61 94 55 95 56 96 59 97 57 98
REMARK H PARENT 15 6 4 16 22 32 81 51 49 62
REMARK Flexibility Score: inf
ROOT
ATOM      1  C   UNL A   1      33.966  31.667  27.363  1.00  0.00     0.021 C 
ENDROOT
BRANCH   1   2
ATOM      2  C   UNL A   1      33.698  30.161  27.242  1.00  0.00     0.116 C 
BRANCH   2   3
ATOM      3  N   UNL A   1      34.025  29.690  25.904  1.00  0.00    -0.356 N 
ATOM      4  C   UNL A   1      33.534  28.632  25.197  1.00  0.00     0.222 C 
ATOM      5  O   UNL A   1      34.074  28.334  24.131  1.00  0.00    -0.275 OA
ATOM      6  H   UNL A   1      34.708  30.221  25.434  1.00  0.00     0.163 HD
BRANCH   4   7
ATOM      7  C   UNL A   1      32.355  27.841  25.721  1.00  0.00     0.133 C 
BRANCH   7   8
ATOM      8  C   UNL A   1      32.251  26.424  25.150  1.00  0.00     0.147 C 
ATOM      9  N   UNL A   1      31.399  24.117  25.640  1.00  0.00    -0.320 N 
ATOM     10  C   UNL A   1      30.577  24.193  24.441  1.00  0.00     0.150 C 
ATOM     11  C   UNL A   1      31.720  25.426  26.179  1.00  0.00     0.154 C 
ATOM     12  C   UNL A   1      31.143  25.202  23.435  1.00  0.00     0.182 C 
ATOM     13  O   UNL A   1      31.336  26.495  24.029  1.00  0.00    -0.374 OA
BRANCH   9  14
ATOM     14  C   UNL A   1      31.074  23.203  26.611  1.00  0.00     0.318 C 
ATOM     15  N   UNL A   1      31.920  22.170  26.817  1.00  0.00    -0.330 N 
ATOM     16  H   UNL A   1      31.844  21.773  27.714  1.00  0.00     0.166 HD
ATOM     17  O   UNL A   1      30.136  23.370  27.392  1.00  0.00    -0.249 OA
BRANCH  15  18
ATOM     18  C   UNL A   1      32.921  21.525  25.976  1.00  0.00     0.124 C 
BRANCH  18  19
ATOM     19  C   UNL A   1      32.299  20.788  24.764  1.00  0.00     0.027 C 
ATOM     20  C   UNL A   1      32.853  19.399  24.456  1.00  0.00     0.006 C 
ENDBRANCH  18  19
BRANCH  18  21
ATOM     21  C   UNL A   1      34.114  22.406  25.670  1.00  0.00     0.027 A 
ATOM     22  C   UNL A   1      35.040  22.993  26.518  1.00  0.00     0.017 A 
ATOM     23  S   UNL A   1      34.450  22.834  24.030  1.00  0.00    -0.147 S 
ATOM     24  C   UNL A   1      36.048  23.724  25.824  1.00  0.00     0.012 A 
ATOM     25  C   UNL A   1      35.860  23.692  24.463  1.00  0.00     0.065 A 
ENDBRANCH  18  21
ENDBRANCH  15  18
ENDBRANCH   9  14
ENDBRANCH   7   8
ENDBRANCH   4   7
ENDBRANCH   2   3
ENDBRANCH   1   2
BRANCH   1  26
ATOM     26  C   UNL A   1      34.183  32.149  28.796  1.00  0.00     0.002 C 
BRANCH  26  27
ATOM     27  C   UNL A   1      34.458  33.650  28.923  1.00  0.00     0.002 C 
BRANCH  27  28
ATOM     28  C   UNL A   1      33.218  34.552  28.903  1.00  0.00     0.021 C 
BRANCH  28  29
ATOM     29  C   UNL A   1      33.436  35.956  29.461  1.00  0.00     0.116 C 
BRANCH  29  30
ATOM     30  N   UNL A   1      32.586  36.213  30.616  1.00  0.00    -0.352 N 
ATOM     31  C   UNL A   1      32.656  35.701  31.883  1.00  0.00     0.251 C 
ATOM     32  H   UNL A   1      31.851  36.850  30.461  1.00  0.00     0.163 HD
ATOM     33  O   UNL A   1      31.710  35.837  32.661  1.00  0.00    -0.269 OA
BRANCH  31  34
ATOM     34  C   UNL A   1      33.865  34.979  32.325  1.00  0.00     0.039 A 
ATOM     35  C   UNL A   1      33.736  33.680  32.824  1.00  0.00     0.014 A 
ATOM     36  C   UNL A   1      35.119  35.594  32.278  1.00  0.00     0.014 A 
ATOM     37  C   UNL A   1      34.873  32.976  33.223  1.00  0.00     0.010 A 
ATOM     38  C   UNL A   1      36.259  34.868  32.614  1.00  0.00     0.010 A 
ATOM     39  C   UNL A   1      36.147  33.555  33.095  1.00  0.00    -0.014 A 
BRANCH  39  40
ATOM     40  C   UNL A   1      37.374  32.804  33.459  1.00  0.00     0.031 A 
ATOM     41  C   UNL A   1      38.096  33.113  34.740  1.00  0.00     0.074 A 
ATOM     42  C   UNL A   1      37.874  31.893  32.602  1.00  0.00     0.049 A 
ATOM     43  N   UNL A   1      39.220  32.620  35.197  1.00  0.00    -0.248 NA
ATOM     44  C   UNL A   1      37.487  34.129  35.612  1.00  0.00     0.031 C 
ATOM     45  C   UNL A   1      37.289  31.540  31.308  1.00  0.00     0.029 A 
ATOM     46  N   UNL A   1      38.998  31.109  32.685  1.00  0.00    -0.354 N 
ATOM     47  C   UNL A   1      39.458  33.277  36.397  1.00  0.00     0.074 A 
ATOM     48  C   UNL A   1      38.390  34.237  36.574  1.00  0.00     0.031 C 
ATOM     49  C   UNL A   1      38.045  30.597  30.727  1.00  0.00     0.029 A 
ATOM     50  C   UNL A   1      39.189  30.306  31.588  1.00  0.00     0.049 A 
ATOM     51  H   UNL A   1      39.608  31.122  33.456  1.00  0.00     0.167 HD
ATOM     52  C   UNL A   1      40.465  33.080  37.282  1.00  0.00     0.037 A 
ATOM     53  C   UNL A   1      40.179  29.439  31.305  1.00  0.00     0.037 A 
ATOM     54  C   UNL A   1      41.512  32.107  37.112  1.00  0.00     0.049 A 
ATOM     55  C   UNL A   1      41.290  29.244  32.300  1.00  0.00     0.074 A 
ATOM     56  C   UNL A   1      42.542  31.787  37.978  1.00  0.00     0.029 A 
ATOM     57  N   UNL A   1      41.665  31.300  35.993  1.00  0.00    -0.354 N 
ATOM     58  N   UNL A   1      41.470  29.820  33.463  1.00  0.00    -0.248 NA
ATOM     59  C   UNL A   1      42.336  28.275  31.943  1.00  0.00     0.031 C 
ATOM     60  C   UNL A   1      43.345  30.819  37.365  1.00  0.00     0.029 A 
ATOM     61  C   UNL A   1      42.787  30.499  36.138  1.00  0.00     0.049 A 
ATOM     62  H   UNL A   1      41.065  31.296  35.213  1.00  0.00     0.167 HD
ATOM     63  C   UNL A   1      42.629  29.267  33.990  1.00  0.00     0.074 A 
ATOM     64  C   UNL A   1      43.103  28.298  33.023  1.00  0.00     0.031 C 
ATOM     65  C   UNL A   1      43.244  29.536  35.167  1.00  0.00     0.037 A 
BRANCH  52  66
ATOM     66  C   UNL A   1      40.480  33.936  38.516  1.00  0.00     0.064 A 
ATOM     67  C   UNL A   1      41.206  35.135  38.572  1.00  0.00     0.173 A 
ATOM     68  C   UNL A   1      39.736  33.567  39.647  1.00  0.00     0.173 A 
ATOM     69  F   UNL A   1      41.942  35.529  37.522  1.00  0.00    -0.203 F 
ATOM     70  C   UNL A   1      41.214  35.916  39.725  1.00  0.00     0.198 A 
ATOM     71  C   UNL A   1      39.721  34.366  40.787  1.00  0.00     0.198 A 
ATOM     72  F   UNL A   1      39.017  32.435  39.645  1.00  0.00    -0.203 F 
ATOM     73  F   UNL A   1      41.958  37.030  39.773  1.00  0.00    -0.200 F 
ATOM     74  C   UNL A   1      40.467  35.534  40.829  1.00  0.00     0.200 A 
ATOM     75  F   UNL A   1      38.988  34.003  41.849  1.00  0.00    -0.200 F 
ATOM     76  F   UNL A   1      40.472  36.289  41.937  1.00  0.00    -0.200 F 
ENDBRANCH  52  66
BRANCH  53  77
ATOM     77  C   UNL A   1      40.148  28.670  30.035  1.00  0.00     0.064 A 
ATOM     78  C   UNL A   1      39.525  27.415  29.971  1.00  0.00     0.173 A 
ATOM     79  C   UNL A   1      40.730  29.170  28.862  1.00  0.00     0.173 A 
ATOM     80  F   UNL A   1      38.972  26.886  31.072  1.00  0.00    -0.203 F 
ATOM     81  C   UNL A   1      39.499  26.684  28.785  1.00  0.00     0.198 A 
ATOM     82  C   UNL A   1      40.680  28.451  27.669  1.00  0.00     0.198 A 
ATOM     83  F   UNL A   1      41.335  30.367  28.869  1.00  0.00    -0.203 F 
ATOM     84  F   UNL A   1      38.933  25.470  28.762  1.00  0.00    -0.200 F 
ATOM     85  C   UNL A   1      40.071  27.205  27.634  1.00  0.00     0.200 A 
ATOM     86  F   UNL A   1      41.221  28.963  26.556  1.00  0.00    -0.200 F 
ATOM     87  F   UNL A   1      40.041  26.504  26.492  1.00  0.00    -0.200 F 
ENDBRANCH  53  77
BRANCH  65  88
ATOM     88  C   UNL A   1      44.481  28.752  35.491  1.00  0.00     0.064 A 
ATOM     89  C   UNL A   1      44.420  27.531  36.178  1.00  0.00     0.173 A 
ATOM     90  C   UNL A   1      45.740  29.207  35.069  1.00  0.00     0.173 A 
ATOM     91  F   UNL A   1      43.243  27.062  36.616  1.00  0.00    -0.203 F 
ATOM     92  C   UNL A   1      45.577  26.807  36.454  1.00  0.00     0.198 A 
ATOM     93  C   UNL A   1      46.891  28.466  35.321  1.00  0.00     0.198 A 
ATOM     94  F   UNL A   1      45.853  30.366  34.402  1.00  0.00    -0.203 F 
ATOM     95  F   UNL A   1      45.499  25.665  37.153  1.00  0.00    -0.200 F 
ATOM     96  C   UNL A   1      46.809  27.271  36.018  1.00  0.00     0.200 A 
ATOM     97  F   UNL A   1      48.080  28.908  34.888  1.00  0.00    -0.200 F 
ATOM     98  F   UNL A   1      47.921  26.567  36.277  1.00  0.00    -0.200 F 
ENDBRANCH  65  88
ENDBRANCH  39  40
ENDBRANCH  31  34
ENDBRANCH  29  30
ENDBRANCH  28  29
ENDBRANCH  27  28
ENDBRANCH  26  27
ENDBRANCH   1  26
TORSDOF 18
ENDMDL
MODEL 3
REMARK VINA RESULT:     -10.9      6.341     11.601
REMARK SMILES CC[C@H](NC(=O)N1CCO[C@@H](CC(=O)NCCCCCCNC(=O)c2ccc(-c3c4nc(c(-c5c(F)c(F)c(F)c(F)c5F)c5ccc([nH]5)c(-c5c(F)c(F)c(F)c(F)c5F)c5nc(c(-c6c(F)c(F)c(F)c(F)c6F)c6ccc3[nH]6)C=C5)C=C4)cc2)C1)c1cccs1
REMARK SMILES IDX 17 1 16 2 15 3 13 4 14 5 12 7 11 8 7 9 8 10 88 11 9 12 10 13
REMARK SMILES IDX 5 14 4 15 6 17 3 18 2 19 1 20 89 21 90 22 93 23 91 24 92 25
REMARK SMILES IDX 18 26 19 27 20 28 21 29 22 30 23 31 24 33 25 34 26 35 87 36
REMARK SMILES IDX 27 37 86 38 28 39 29 40 30 41 80 42 31 43 85 44 79 45 81 46
REMARK SMILES IDX 32 47 84 48 78 49 77 50 33 52 65 53 45 54 64 55 46 56 49 57
REMARK SMILES IDX 63 58 82 59 47 60 48 61 62 63 83 64 50 65 34 66 35 67 43 68
REMARK SMILES IDX 36 69 37 70 41 71 44 72 38 73 39 74 42 75 40 76 66 77 67 78
REMARK SMILES IDX 75 79 68 80 69 81 73 82 76 83 70 84 71 85 74 86 72 87 51 88
REMARK SMILES IDX 52 89 60 90 53 91 54 92 58 93 61 94 55 95 56 96 59 97 57 98
REMARK H PARENT 15 6 4 16 22 32 81 51 49 62
REMARK Flexibility Score: inf
ROOT
ATOM      1  C   UNL A   1      34.975  29.541  27.276  1.00  0.00     0.021 C 
ENDROOT
BRANCH   1   2
ATOM      2  C   UNL A   1      34.120  28.553  26.473  1.00  0.00     0.116 C 
BRANCH   2   3
ATOM      3  N   UNL A   1      33.960  29.013  25.101  1.00  0.00    -0.356 N 
ATOM      4  C   UNL A   1      33.004  28.713  24.175  1.00  0.00     0.222 C 
ATOM      5  O   UNL A   1      33.159  29.106  23.019  1.00  0.00    -0.275 OA
ATOM      6  H   UNL A   1      34.652  29.642  24.793  1.00  0.00     0.163 HD
BRANCH   4   7
ATOM      7  C   UNL A   1      31.785  27.906  24.567  1.00  0.00     0.133 C 
BRANCH   7   8
ATOM      8  C   UNL A   1      31.939  26.398  24.350  1.00  0.00     0.147 C 
ATOM      9  N   UNL A   1      31.351  24.159  25.313  1.00  0.00    -0.320 N 
ATOM     10  C   UNL A   1      30.674  23.829  24.067  1.00  0.00     0.150 C 
ATOM     11  C   UNL A   1      31.429  25.589  25.543  1.00  0.00     0.154 C 
ATOM     12  C   UNL A   1      31.213  24.658  22.897  1.00  0.00     0.182 C 
ATOM     13  O   UNL A   1      31.162  26.067  23.174  1.00  0.00    -0.374 OA
BRANCH   9  14
ATOM     14  C   UNL A   1      31.039  23.450  26.446  1.00  0.00     0.318 C 
ATOM     15  N   UNL A   1      31.894  22.482  26.843  1.00  0.00    -0.330 N 
ATOM     16  H   UNL A   1      31.827  22.267  27.802  1.00  0.00     0.166 HD
ATOM     17  O   UNL A   1      30.106  23.761  27.187  1.00  0.00    -0.249 OA
BRANCH  15  18
ATOM     18  C   UNL A   1      32.894  21.691  26.137  1.00  0.00     0.124 C 
BRANCH  18  19
ATOM     19  C   UNL A   1      32.272  20.757  25.068  1.00  0.00     0.027 C 
ATOM     20  C   UNL A   1      32.812  19.330  25.017  1.00  0.00     0.006 C 
ENDBRANCH  18  19
BRANCH  18  21
ATOM     21  C   UNL A   1      34.097  22.495  25.689  1.00  0.00     0.027 A 
ATOM     22  C   UNL A   1      35.033  23.199  26.429  1.00  0.00     0.017 A 
ATOM     23  S   UNL A   1      34.431  22.646  24.002  1.00  0.00    -0.147 S 
ATOM     24  C   UNL A   1      36.048  23.794  25.624  1.00  0.00     0.012 A 
ATOM     25  C   UNL A   1      35.855  23.544  24.287  1.00  0.00     0.065 A 
ENDBRANCH  18  21
ENDBRANCH  15  18
ENDBRANCH   9  14
ENDBRANCH   7   8
ENDBRANCH   4   7
ENDBRANCH   2   3
ENDBRANCH   1   2
BRANCH   1  26
ATOM     26  C   UNL A   1      34.239  30.814  27.685  1.00  0.00     0.002 C 
BRANCH  26  27
ATOM     27  C   UNL A   1      32.740  30.806  27.375  1.00  0.00     0.002 C 
BRANCH  27  28
ATOM     28  C   UNL A   1      32.060  32.181  27.371  1.00  0.00     0.021 C 
BRANCH  28  29
ATOM     29  C   UNL A   1      32.974  33.349  27.008  1.00  0.00     0.116 C 
BRANCH  29  30
ATOM     30  N   UNL A   1      32.662  34.539  27.787  1.00  0.00    -0.352 N 
ATOM     31  C   UNL A   1      33.109  34.913  29.025  1.00  0.00     0.251 C 
ATOM     32  H   UNL A   1      32.036  35.167  27.359  1.00  0.00     0.163 HD
ATOM     33  O   UNL A   1      32.550  35.826  29.637  1.00  0.00    -0.269 OA
BRANCH  31  34
ATOM     34  C   UNL A   1      34.260  34.224  29.638  1.00  0.00     0.039 A 
ATOM     35  C   UNL A   1      34.032  33.281  30.644  1.00  0.00     0.014 A 
ATOM     36  C   UNL A   1      35.566  34.530  29.244  1.00  0.00     0.014 A 
ATOM     37  C   UNL A   1      35.110  32.604  31.216  1.00  0.00     0.010 A 
ATOM     38  C   UNL A   1      36.635  33.807  29.768  1.00  0.00     0.010 A 
ATOM     39  C   UNL A   1      36.417  32.842  30.762  1.00  0.00    -0.014 A 
BRANCH  39  40
ATOM     40  C   UNL A   1      37.573  32.091  31.315  1.00  0.00     0.031 A 
ATOM     41  C   UNL A   1      38.108  32.427  32.678  1.00  0.00     0.074 A 
ATOM     42  C   UNL A   1      38.180  31.155  30.560  1.00  0.00     0.049 A 
ATOM     43  N   UNL A   1      39.150  31.938  33.303  1.00  0.00    -0.248 NA
ATOM     44  C   UNL A   1      37.392  33.469  33.430  1.00  0.00     0.031 C 
ATOM     45  C   UNL A   1      37.780  30.774  29.205  1.00  0.00     0.029 A 
ATOM     46  N   UNL A   1      39.272  30.366  30.821  1.00  0.00    -0.354 N 
ATOM     47  C   UNL A   1      39.222  32.623  34.508  1.00  0.00     0.074 A 
ATOM     48  C   UNL A   1      38.150  33.595  34.508  1.00  0.00     0.031 C 
ATOM     49  C   UNL A   1      38.602  29.811  28.760  1.00  0.00     0.029 A 
ATOM     50  C   UNL A   1      39.609  29.533  29.782  1.00  0.00     0.049 A 
ATOM     51  H   UNL A   1      39.766  30.394  31.671  1.00  0.00     0.167 HD
ATOM     52  C   UNL A   1      40.091  32.441  35.532  1.00  0.00     0.037 A 
ATOM     53  C   UNL A   1      40.619  28.653  29.664  1.00  0.00     0.037 A 
ATOM     54  C   UNL A   1      41.141  31.457  35.536  1.00  0.00     0.049 A 
ATOM     55  C   UNL A   1      41.576  28.475  30.811  1.00  0.00     0.074 A 
ATOM     56  C   UNL A   1      42.034  31.151  36.548  1.00  0.00     0.029 A 
ATOM     57  N   UNL A   1      41.443  30.621  34.470  1.00  0.00    -0.354 N 
ATOM     58  N   UNL A   1      41.594  29.079  31.974  1.00  0.00    -0.248 NA
ATOM     59  C   UNL A   1      42.651  27.490  30.630  1.00  0.00     0.031 C 
ATOM     60  C   UNL A   1      42.906  30.162  36.079  1.00  0.00     0.029 A 
ATOM     61  C   UNL A   1      42.525  29.815  34.792  1.00  0.00     0.049 A 
ATOM     62  H   UNL A   1      40.960  30.601  33.613  1.00  0.00     0.167 HD
ATOM     63  C   UNL A   1      42.660  28.531  32.674  1.00  0.00     0.074 A 
ATOM     64  C   UNL A   1      43.257  27.535  31.808  1.00  0.00     0.031 C 
ATOM     65  C   UNL A   1      43.105  28.825  33.920  1.00  0.00     0.037 A 
BRANCH  52  66
ATOM     66  C   UNL A   1      39.939  33.327  36.734  1.00  0.00     0.064 A 
ATOM     67  C   UNL A   1      39.082  32.991  37.793  1.00  0.00     0.173 A 
ATOM     68  C   UNL A   1      40.678  34.514  36.842  1.00  0.00     0.173 A 
ATOM     69  F   UNL A   1      38.344  31.872  37.736  1.00  0.00    -0.203 F 
ATOM     70  C   UNL A   1      38.947  33.826  38.900  1.00  0.00     0.198 A 
ATOM     71  C   UNL A   1      40.564  35.331  37.964  1.00  0.00     0.198 A 
ATOM     72  F   UNL A   1      41.518  34.880  35.862  1.00  0.00    -0.203 F 
ATOM     73  F   UNL A   1      38.082  33.509  39.874  1.00  0.00    -0.200 F 
ATOM     74  C   UNL A   1      39.693  34.992  38.987  1.00  0.00     0.200 A 
ATOM     75  F   UNL A   1      41.296  36.451  38.053  1.00  0.00    -0.200 F 
ATOM     76  F   UNL A   1      39.564  35.792  40.055  1.00  0.00    -0.200 F 
ENDBRANCH  52  66
BRANCH  53  77
ATOM     77  C   UNL A   1      40.761  27.852  28.421  1.00  0.00     0.064 A 
ATOM     78  C   UNL A   1      41.510  28.335  27.338  1.00  0.00     0.173 A 
ATOM     79  C   UNL A   1      40.162  26.591  28.290  1.00  0.00     0.173 A 
ATOM     80  F   UNL A   1      42.084  29.545  27.409  1.00  0.00    -0.203 F 
ATOM     81  C   UNL A   1      41.641  27.593  26.166  1.00  0.00     0.198 A 
ATOM     82  C   UNL A   1      40.316  25.838  27.128  1.00  0.00     0.198 A 
ATOM     83  F   UNL A   1      39.439  26.082  29.299  1.00  0.00    -0.203 F 
ATOM     84  F   UNL A   1      42.328  28.096  25.132  1.00  0.00    -0.200 F 
ATOM     85  C   UNL A   1      41.049  26.343  26.064  1.00  0.00     0.200 A 
ATOM     86  F   UNL A   1      39.755  24.625  27.038  1.00  0.00    -0.200 F 
ATOM     87  F   UNL A   1      41.180  25.627  24.939  1.00  0.00    -0.200 F 
ENDBRANCH  53  77
BRANCH  65  88
ATOM     88  C   UNL A   1      44.275  28.041  34.435  1.00  0.00     0.064 A 
ATOM     89  C   UNL A   1      45.591  28.506  34.297  1.00  0.00     0.173 A 
ATOM     90  C   UNL A   1      44.073  26.829  35.114  1.00  0.00     0.173 A 
ATOM     91  F   UNL A   1      45.837  29.650  33.643  1.00  0.00    -0.203 F 
ATOM     92  C   UNL A   1      46.664  27.774  34.798  1.00  0.00     0.198 A 
ATOM     93  C   UNL A   1      45.146  26.115  35.639  1.00  0.00     0.198 A 
ATOM     94  F   UNL A   1      42.833  26.344  35.278  1.00  0.00    -0.203 F 
ATOM     95  F   UNL A   1      47.917  28.214  34.615  1.00  0.00    -0.200 F 
ATOM     96  C   UNL A   1      46.440  26.583  35.475  1.00  0.00     0.200 A 
ATOM     97  F   UNL A   1      44.927  24.972  36.304  1.00  0.00    -0.200 F 
ATOM     98  F   UNL A   1      47.474  25.885  35.964  1.00  0.00    -0.200 F 
ENDBRANCH  65  88
ENDBRANCH  39  40
ENDBRANCH  31  34
ENDBRANCH  29  30
ENDBRANCH  28  29
ENDBRANCH  27  28
ENDBRANCH  26  27
ENDBRANCH   1  26
TORSDOF 18
ENDMDL
