MODEL 1
REMARK VINA RESULT:     -11.7      0.000      0.000
REMARK SMILES O=C(NCCCCCCNC(=O)c1cc([N+](=O)[O-])c(NCCC2=CCCCC2)c([N+](=O)[O-])c1)c1ccc(-c2c3nc(c(-c4c(F)c(F)c(F)c(F)c4F)c4ccc([nH]4)c(-c4c(F)c(F)c(F)c(F)c4F)c4nc(c(-c5c(F)c(F)c(F)c(F)c5F)c5ccc2[nH]5)C=C4)C=C3)cc1
REMARK SMILES IDX 7 1 6 2 5 3 4 4 3 5 1 6 2 7 34 9 35 10 96 11 36 12 95 13
REMARK SMILES IDX 37 14 38 15 39 16 89 17 40 18 94 19 88 20 90 21 41 22 93 23
REMARK SMILES IDX 87 24 86 25 42 27 74 28 54 29 73 30 55 31 58 32 72 33 91 34
REMARK SMILES IDX 56 35 57 36 71 38 92 39 59 40 43 41 44 42 52 43 45 44 46 45
REMARK SMILES IDX 50 46 53 47 47 48 48 49 51 50 49 51 75 52 76 53 84 54 77 55
REMARK SMILES IDX 78 56 82 57 85 58 79 59 80 60 83 61 81 62 60 63 61 64 69 65
REMARK SMILES IDX 62 66 63 67 67 68 70 69 64 70 65 71 68 72 66 73 8 74 9 75
REMARK SMILES IDX 10 76 11 77 12 79 13 80 14 81 33 82 15 83 29 84 19 85 16 86
REMARK SMILES IDX 17 87 18 88 30 89 31 90 32 91 20 92 21 94 22 95 23 96 24 97
REMARK SMILES IDX 28 98 25 99 27 100 26 101
REMARK H PARENT 3 8 90 26 58 37 10 78 20 93
REMARK Flexibility Score: inf
ROOT
ATOM      1  C   UNL A   1      36.963  21.691  25.736  1.00  0.00     0.002 C 
ENDROOT
BRANCH   1   2
ATOM      2  C   UNL A   1      37.003  20.503  24.771  1.00  0.00     0.002 C 
BRANCH   2   3
ATOM      3  C   UNL A   1      38.097  19.470  25.039  1.00  0.00     0.021 C 
BRANCH   3   4
ATOM      4  C   UNL A   1      39.260  19.965  25.887  1.00  0.00     0.116 C 
BRANCH   4   5
ATOM      5  N   UNL A   1      40.368  19.026  25.931  1.00  0.00    -0.352 N 
ATOM      6  O   UNL A   1      42.529  18.370  25.941  1.00  0.00    -0.269 OA
ATOM      7  C   UNL A   1      41.712  19.275  26.071  1.00  0.00     0.251 C 
ATOM      8  H   UNL A   1      40.121  18.076  25.847  1.00  0.00     0.163 HD
BRANCH   7   9
ATOM      9  C   UNL A   1      42.176  20.650  26.356  1.00  0.00     0.039 A 
ATOM     10  C   UNL A   1      42.346  21.087  27.673  1.00  0.00     0.014 A 
ATOM     11  C   UNL A   1      42.452  21.511  25.290  1.00  0.00     0.014 A 
ATOM     12  C   UNL A   1      42.660  22.418  27.924  1.00  0.00     0.010 A 
ATOM     13  C   UNL A   1      42.850  22.827  25.545  1.00  0.00     0.010 A 
ATOM     14  C   UNL A   1      42.932  23.298  26.864  1.00  0.00    -0.014 A 
BRANCH  14  15
ATOM     15  C   UNL A   1      43.366  24.685  27.167  1.00  0.00     0.031 A 
ATOM     16  C   UNL A   1      42.419  25.689  27.757  1.00  0.00     0.074 A 
ATOM     17  C   UNL A   1      44.649  25.022  26.928  1.00  0.00     0.049 A 
ATOM     18  N   UNL A   1      42.642  26.934  28.097  1.00  0.00    -0.248 NA
ATOM     19  C   UNL A   1      41.036  25.243  27.994  1.00  0.00     0.031 C 
ATOM     20  C   UNL A   1      45.656  24.132  26.344  1.00  0.00     0.029 A 
ATOM     21  N   UNL A   1      45.330  26.189  27.157  1.00  0.00    -0.354 N 
ATOM     22  C   UNL A   1      41.435  27.422  28.577  1.00  0.00     0.074 A 
ATOM     23  C   UNL A   1      40.470  26.349  28.458  1.00  0.00     0.031 C 
ATOM     24  C   UNL A   1      46.834  24.769  26.301  1.00  0.00     0.029 A 
ATOM     25  C   UNL A   1      46.654  26.130  26.796  1.00  0.00     0.049 A 
ATOM     26  H   UNL A   1      44.912  26.992  27.544  1.00  0.00     0.167 HD
ATOM     27  C   UNL A   1      41.163  28.650  29.083  1.00  0.00     0.037 A 
ATOM     28  C   UNL A   1      47.613  27.071  26.840  1.00  0.00     0.037 A 
ATOM     29  C   UNL A   1      42.130  29.712  29.203  1.00  0.00     0.049 A 
ATOM     30  C   UNL A   1      47.272  28.432  27.375  1.00  0.00     0.074 A 
ATOM     31  C   UNL A   1      41.955  30.986  29.715  1.00  0.00     0.029 A 
ATOM     32  N   UNL A   1      43.456  29.623  28.802  1.00  0.00    -0.354 N 
ATOM     33  N   UNL A   1      46.134  28.870  27.854  1.00  0.00    -0.248 NA
ATOM     34  C   UNL A   1      48.351  29.429  27.376  1.00  0.00     0.031 C 
ATOM     35  C   UNL A   1      43.163  31.681  29.587  1.00  0.00     0.029 A 
ATOM     36  C   UNL A   1      44.105  30.825  29.039  1.00  0.00     0.049 A 
ATOM     37  H   UNL A   1      43.873  28.824  28.408  1.00  0.00     0.167 HD
ATOM     38  C   UNL A   1      46.361  30.187  28.227  1.00  0.00     0.074 A 
ATOM     39  C   UNL A   1      47.753  30.467  27.943  1.00  0.00     0.031 C 
ATOM     40  C   UNL A   1      45.492  31.085  28.753  1.00  0.00     0.037 A 
BRANCH  27  41
ATOM     41  C   UNL A   1      39.758  28.921  29.540  1.00  0.00     0.064 A 
ATOM     42  C   UNL A   1      38.804  29.491  28.682  1.00  0.00     0.173 A 
ATOM     43  C   UNL A   1      39.342  28.557  30.830  1.00  0.00     0.173 A 
ATOM     44  F   UNL A   1      39.152  29.867  27.442  1.00  0.00    -0.203 F 
ATOM     45  C   UNL A   1      37.495  29.705  29.106  1.00  0.00     0.198 A 
ATOM     46  C   UNL A   1      38.027  28.748  31.242  1.00  0.00     0.198 A 
ATOM     47  F   UNL A   1      40.212  28.000  31.688  1.00  0.00    -0.203 F 
ATOM     48  F   UNL A   1      36.612  30.285  28.282  1.00  0.00    -0.200 F 
ATOM     49  C   UNL A   1      37.105  29.326  30.382  1.00  0.00     0.200 A 
ATOM     50  F   UNL A   1      37.648  28.369  32.471  1.00  0.00    -0.200 F 
ATOM     51  F   UNL A   1      35.842  29.524  30.785  1.00  0.00    -0.200 F 
ENDBRANCH  27  41
BRANCH  28  52
ATOM     52  C   UNL A   1      48.982  26.755  26.357  1.00  0.00     0.064 A 
ATOM     53  C   UNL A   1      49.957  26.249  27.226  1.00  0.00     0.173 A 
ATOM     54  C   UNL A   1      49.340  26.948  25.014  1.00  0.00     0.173 A 
ATOM     55  F   UNL A   1      49.666  26.065  28.523  1.00  0.00    -0.203 F 
ATOM     56  C   UNL A   1      51.244  25.966  26.776  1.00  0.00     0.198 A 
ATOM     57  C   UNL A   1      50.618  26.635  24.558  1.00  0.00     0.198 A 
ATOM     58  F   UNL A   1      48.441  27.424  24.140  1.00  0.00    -0.203 F 
ATOM     59  F   UNL A   1      52.171  25.525  27.638  1.00  0.00    -0.200 F 
ATOM     60  C   UNL A   1      51.572  26.152  25.441  1.00  0.00     0.200 A 
ATOM     61  F   UNL A   1      50.924  26.798  23.264  1.00  0.00    -0.200 F 
ATOM     62  F   UNL A   1      52.808  25.873  25.008  1.00  0.00    -0.200 F 
ENDBRANCH  28  52
BRANCH  40  63
ATOM     63  C   UNL A   1      46.037  32.444  29.079  1.00  0.00     0.064 A 
ATOM     64  C   UNL A   1      46.594  32.731  30.334  1.00  0.00     0.173 A 
ATOM     65  C   UNL A   1      46.016  33.466  28.118  1.00  0.00     0.173 A 
ATOM     66  F   UNL A   1      46.620  31.792  31.291  1.00  0.00    -0.203 F 
ATOM     67  C   UNL A   1      47.084  34.001  30.625  1.00  0.00     0.198 A 
ATOM     68  C   UNL A   1      46.533  34.727  28.403  1.00  0.00     0.198 A 
ATOM     69  F   UNL A   1      45.497  33.241  26.902  1.00  0.00    -0.203 F 
ATOM     70  F   UNL A   1      47.562  34.269  31.847  1.00  0.00    -0.200 F 
ATOM     71  C   UNL A   1      47.058  34.996  29.658  1.00  0.00     0.200 A 
ATOM     72  F   UNL A   1      46.517  35.683  27.465  1.00  0.00    -0.200 F 
ATOM     73  F   UNL A   1      47.530  36.218  29.940  1.00  0.00    -0.200 F 
ENDBRANCH  40  63
ENDBRANCH  14  15
ENDBRANCH   7   9
ENDBRANCH   4   5
ENDBRANCH   3   4
ENDBRANCH   2   3
ENDBRANCH   1   2
BRANCH   1  74
ATOM     74  C   UNL A   1      35.654  22.486  25.759  1.00  0.00     0.021 C 
BRANCH  74  75
ATOM     75  C   UNL A   1      34.602  21.994  26.749  1.00  0.00     0.116 C 
BRANCH  75  76
ATOM     76  N   UNL A   1      33.672  21.044  26.157  1.00  0.00    -0.352 N 
ATOM     77  C   UNL A   1      32.613  21.251  25.312  1.00  0.00     0.251 C 
ATOM     78  H   UNL A   1      33.829  20.103  26.403  1.00  0.00     0.163 HD
ATOM     79  O   UNL A   1      31.854  20.334  25.024  1.00  0.00    -0.269 OA
BRANCH  77  80
ATOM     80  C   UNL A   1      32.357  22.597  24.762  1.00  0.00     0.053 A 
ATOM     81  C   UNL A   1      32.849  22.918  23.504  1.00  0.00     0.102 A 
ATOM     82  C   UNL A   1      31.673  23.559  25.492  1.00  0.00     0.102 A 
ATOM     83  C   UNL A   1      32.532  24.165  22.932  1.00  0.00     0.300 A 
ATOM     84  C   UNL A   1      31.316  24.779  24.883  1.00  0.00     0.300 A 
ATOM     85  C   UNL A   1      31.683  25.114  23.546  1.00  0.00     0.192 A 
BRANCH  83  86
ATOM     86  N   UNL A   1      33.197  24.430  21.673  1.00  0.00     0.065 N 
ATOM     87  O   UNL A   1      33.387  23.464  20.923  1.00  0.00    -0.258 OA
ATOM     88  O   UNL A   1      33.563  25.594  21.463  1.00  0.00    -0.258 OA
ENDBRANCH  83  86
BRANCH  84  89
ATOM     89  N   UNL A   1      30.511  25.692  25.715  1.00  0.00     0.065 N 
ATOM     90  O   UNL A   1      29.363  25.969  25.340  1.00  0.00    -0.258 OA
ATOM     91  O   UNL A   1      31.040  26.142  26.742  1.00  0.00    -0.258 OA
ENDBRANCH  84  89
BRANCH  85  92
ATOM     92  N   UNL A   1      31.101  26.211  22.932  1.00  0.00    -0.374 N 
ATOM     93  H   UNL A   1      30.299  25.998  22.402  1.00  0.00     0.161 HD
BRANCH  92  94
ATOM     94  C   UNL A   1      31.464  27.625  22.928  1.00  0.00     0.118 C 
BRANCH  94  95
ATOM     95  C   UNL A   1      32.766  27.876  23.715  1.00  0.00     0.052 C 
BRANCH  95  96
ATOM     96  C   UNL A   1      32.749  28.665  25.012  1.00  0.00    -0.072 C 
ATOM     97  C   UNL A   1      31.809  29.557  25.377  1.00  0.00    -0.028 C 
ATOM     98  C   UNL A   1      33.935  28.374  25.913  1.00  0.00     0.031 C 
ATOM     99  C   UNL A   1      31.901  30.419  26.606  1.00  0.00     0.027 C 
ATOM    100  C   UNL A   1      33.806  28.956  27.322  1.00  0.00     0.005 C 
ATOM    101  C   UNL A   1      33.277  30.383  27.267  1.00  0.00     0.004 C 
ENDBRANCH  95  96
ENDBRANCH  94  95
ENDBRANCH  92  94
ENDBRANCH  85  92
ENDBRANCH  77  80
ENDBRANCH  75  76
ENDBRANCH  74  75
ENDBRANCH   1  74
TORSDOF 19
ENDMDL
MODEL 2
REMARK VINA RESULT:     -11.5      1.312      2.083
REMARK SMILES O=C(NCCCCCCNC(=O)c1cc([N+](=O)[O-])c(NCCC2=CCCCC2)c([N+](=O)[O-])c1)c1ccc(-c2c3nc(c(-c4c(F)c(F)c(F)c(F)c4F)c4ccc([nH]4)c(-c4c(F)c(F)c(F)c(F)c4F)c4nc(c(-c5c(F)c(F)c(F)c(F)c5F)c5ccc2[nH]5)C=C4)C=C3)cc1
REMARK SMILES IDX 7 1 6 2 5 3 4 4 3 5 1 6 2 7 34 9 35 10 96 11 36 12 95 13
REMARK SMILES IDX 37 14 38 15 39 16 89 17 40 18 94 19 88 20 90 21 41 22 93 23
REMARK SMILES IDX 87 24 86 25 42 27 74 28 54 29 73 30 55 31 58 32 72 33 91 34
REMARK SMILES IDX 56 35 57 36 71 38 92 39 59 40 43 41 44 42 52 43 45 44 46 45
REMARK SMILES IDX 50 46 53 47 47 48 48 49 51 50 49 51 75 52 76 53 84 54 77 55
REMARK SMILES IDX 78 56 82 57 85 58 79 59 80 60 83 61 81 62 60 63 61 64 69 65
REMARK SMILES IDX 62 66 63 67 67 68 70 69 64 70 65 71 68 72 66 73 8 74 9 75
REMARK SMILES IDX 10 76 11 77 12 79 13 80 14 81 33 82 15 83 29 84 19 85 16 86
REMARK SMILES IDX 17 87 18 88 30 89 31 90 32 91 20 92 21 94 22 95 23 96 24 97
REMARK SMILES IDX 28 98 25 99 27 100 26 101
REMARK H PARENT 3 8 90 26 58 37 10 78 20 93
REMARK Flexibility Score: inf
ROOT
ATOM      1  C   UNL A   1      37.604  22.571  25.468  1.00  0.00     0.002 C 
ENDROOT
BRANCH   1   2
ATOM      2  C   UNL A   1      39.012  22.217  25.953  1.00  0.00     0.002 C 
BRANCH   2   3
ATOM      3  C   UNL A   1      39.200  20.782  26.445  1.00  0.00     0.021 C 
BRANCH   3   4
ATOM      4  C   UNL A   1      39.616  19.780  25.377  1.00  0.00     0.116 C 
BRANCH   4   5
ATOM      5  N   UNL A   1      40.629  18.847  25.840  1.00  0.00    -0.352 N 
ATOM      6  O   UNL A   1      42.679  18.180  26.509  1.00  0.00    -0.269 OA
ATOM      7  C   UNL A   1      41.901  19.102  26.291  1.00  0.00     0.251 C 
ATOM      8  H   UNL A   1      40.366  17.898  25.829  1.00  0.00     0.163 HD
BRANCH   7   9
ATOM      9  C   UNL A   1      42.341  20.500  26.492  1.00  0.00     0.039 A 
ATOM     10  C   UNL A   1      42.452  21.036  27.778  1.00  0.00     0.014 A 
ATOM     11  C   UNL A   1      42.654  21.282  25.376  1.00  0.00     0.014 A 
ATOM     12  C   UNL A   1      42.744  22.384  27.942  1.00  0.00     0.010 A 
ATOM     13  C   UNL A   1      43.030  22.618  25.548  1.00  0.00     0.010 A 
ATOM     14  C   UNL A   1      43.053  23.187  26.831  1.00  0.00    -0.014 A 
BRANCH  14  15
ATOM     15  C   UNL A   1      43.462  24.597  27.046  1.00  0.00     0.031 A 
ATOM     16  C   UNL A   1      42.504  25.613  27.597  1.00  0.00     0.074 A 
ATOM     17  C   UNL A   1      44.732  24.947  26.764  1.00  0.00     0.049 A 
ATOM     18  N   UNL A   1      42.706  26.880  27.862  1.00  0.00    -0.248 NA
ATOM     19  C   UNL A   1      41.136  25.153  27.885  1.00  0.00     0.031 C 
ATOM     20  C   UNL A   1      45.749  24.046  26.213  1.00  0.00     0.029 A 
ATOM     21  N   UNL A   1      45.393  26.139  26.914  1.00  0.00    -0.354 N 
ATOM     22  C   UNL A   1      41.497  27.370  28.337  1.00  0.00     0.074 A 
ATOM     23  C   UNL A   1      40.554  26.272  28.297  1.00  0.00     0.031 C 
ATOM     24  C   UNL A   1      46.911  24.704  26.111  1.00  0.00     0.029 A 
ATOM     25  C   UNL A   1      46.711  26.086  26.532  1.00  0.00     0.049 A 
ATOM     26  H   UNL A   1      44.964  26.953  27.263  1.00  0.00     0.167 HD
ATOM     27  C   UNL A   1      41.208  28.618  28.778  1.00  0.00     0.037 A 
ATOM     28  C   UNL A   1      47.650  27.048  26.505  1.00  0.00     0.037 A 
ATOM     29  C   UNL A   1      42.154  29.705  28.820  1.00  0.00     0.049 A 
ATOM     30  C   UNL A   1      47.289  28.430  26.969  1.00  0.00     0.074 A 
ATOM     31  C   UNL A   1      41.960  31.002  29.262  1.00  0.00     0.029 A 
ATOM     32  N   UNL A   1      43.474  29.621  28.399  1.00  0.00    -0.354 N 
ATOM     33  N   UNL A   1      46.150  28.871  27.443  1.00  0.00    -0.248 NA
ATOM     34  C   UNL A   1      48.345  29.447  26.892  1.00  0.00     0.031 C 
ATOM     35  C   UNL A   1      43.150  31.714  29.072  1.00  0.00     0.029 A 
ATOM     36  C   UNL A   1      44.101  30.848  28.555  1.00  0.00     0.049 A 
ATOM     37  H   UNL A   1      43.901  28.809  28.042  1.00  0.00     0.167 HD
ATOM     38  C   UNL A   1      46.355  30.211  27.737  1.00  0.00     0.074 A 
ATOM     39  C   UNL A   1      47.736  30.504  27.411  1.00  0.00     0.031 C 
ATOM     40  C   UNL A   1      45.477  31.119  28.228  1.00  0.00     0.037 A 
BRANCH  27  41
ATOM     41  C   UNL A   1      39.806  28.886  29.246  1.00  0.00     0.064 A 
ATOM     42  C   UNL A   1      38.813  29.341  28.365  1.00  0.00     0.173 A 
ATOM     43  C   UNL A   1      39.435  28.632  30.575  1.00  0.00     0.173 A 
ATOM     44  F   UNL A   1      39.117  29.608  27.086  1.00  0.00    -0.203 F 
ATOM     45  C   UNL A   1      37.507  29.551  28.803  1.00  0.00     0.198 A 
ATOM     46  C   UNL A   1      38.123  28.818  31.003  1.00  0.00     0.198 A 
ATOM     47  F   UNL A   1      40.343  28.188  31.458  1.00  0.00    -0.203 F 
ATOM     48  F   UNL A   1      36.585  30.022  27.952  1.00  0.00    -0.200 F 
ATOM     49  C   UNL A   1      37.162  29.282  30.118  1.00  0.00     0.200 A 
ATOM     50  F   UNL A   1      37.788  28.546  32.272  1.00  0.00    -0.200 F 
ATOM     51  F   UNL A   1      35.903  29.476  30.535  1.00  0.00    -0.200 F 
ENDBRANCH  27  41
BRANCH  28  52
ATOM     52  C   UNL A   1      49.016  26.734  26.014  1.00  0.00     0.064 A 
ATOM     53  C   UNL A   1      49.392  27.013  24.694  1.00  0.00     0.173 A 
ATOM     54  C   UNL A   1      49.975  26.153  26.858  1.00  0.00     0.173 A 
ATOM     55  F   UNL A   1      48.504  27.552  23.846  1.00  0.00    -0.203 F 
ATOM     56  C   UNL A   1      50.669  26.705  24.230  1.00  0.00     0.198 A 
ATOM     57  C   UNL A   1      51.261  25.875  26.402  1.00  0.00     0.198 A 
ATOM     58  F   UNL A   1      49.667  25.872  28.133  1.00  0.00    -0.203 F 
ATOM     59  F   UNL A   1      50.989  26.942  22.950  1.00  0.00    -0.200 F 
ATOM     60  C   UNL A   1      51.604  26.143  25.086  1.00  0.00     0.200 A 
ATOM     61  F   UNL A   1      52.167  25.349  27.238  1.00  0.00    -0.200 F 
ATOM     62  F   UNL A   1      52.834  25.854  24.641  1.00  0.00    -0.200 F 
ENDBRANCH  28  52
BRANCH  40  63
ATOM     63  C   UNL A   1      45.998  32.506  28.467  1.00  0.00     0.064 A 
ATOM     64  C   UNL A   1      46.564  32.877  29.696  1.00  0.00     0.173 A 
ATOM     65  C   UNL A   1      45.945  33.469  27.447  1.00  0.00     0.173 A 
ATOM     66  F   UNL A   1      46.620  31.997  30.706  1.00  0.00    -0.203 F 
ATOM     67  C   UNL A   1      47.031  34.172  29.905  1.00  0.00     0.198 A 
ATOM     68  C   UNL A   1      46.439  34.754  27.651  1.00  0.00     0.198 A 
ATOM     69  F   UNL A   1      45.416  33.162  26.254  1.00  0.00    -0.203 F 
ATOM     70  F   UNL A   1      47.518  34.520  31.103  1.00  0.00    -0.200 F 
ATOM     71  C   UNL A   1      46.973  35.107  28.882  1.00  0.00     0.200 A 
ATOM     72  F   UNL A   1      46.393  35.653  26.659  1.00  0.00    -0.200 F 
ATOM     73  F   UNL A   1      47.424  36.352  29.085  1.00  0.00    -0.200 F 
ENDBRANCH  40  63
ENDBRANCH  14  15
ENDBRANCH   7   9
ENDBRANCH   4   5
ENDBRANCH   3   4
ENDBRANCH   2   3
ENDBRANCH   1   2
BRANCH   1  74
ATOM     74  C   UNL A   1      36.809  21.423  24.839  1.00  0.00     0.021 C 
BRANCH  74  75
ATOM     75  C   UNL A   1      35.659  20.879  25.682  1.00  0.00     0.116 C 
BRANCH  75  76
ATOM     76  N   UNL A   1      34.840  19.916  24.961  1.00  0.00    -0.352 N 
ATOM     77  C   UNL A   1      33.569  20.034  24.460  1.00  0.00     0.251 C 
ATOM     78  H   UNL A   1      35.265  19.040  24.810  1.00  0.00     0.163 HD
ATOM     79  O   UNL A   1      32.986  19.061  23.998  1.00  0.00    -0.269 OA
BRANCH  77  80
ATOM     80  C   UNL A   1      32.875  21.336  24.502  1.00  0.00     0.053 A 
ATOM     81  C   UNL A   1      33.135  22.273  23.510  1.00  0.00     0.102 A 
ATOM     82  C   UNL A   1      32.003  21.659  25.532  1.00  0.00     0.102 A 
ATOM     83  C   UNL A   1      32.411  23.480  23.488  1.00  0.00     0.300 A 
ATOM     84  C   UNL A   1      31.246  22.845  25.464  1.00  0.00     0.300 A 
ATOM     85  C   UNL A   1      31.375  23.788  24.400  1.00  0.00     0.192 A 
BRANCH  83  86
ATOM     86  N   UNL A   1      32.851  24.421  22.479  1.00  0.00     0.065 N 
ATOM     87  O   UNL A   1      32.005  24.804  21.660  1.00  0.00    -0.258 OA
ATOM     88  O   UNL A   1      34.048  24.736  22.486  1.00  0.00    -0.258 OA
ENDBRANCH  83  86
BRANCH  84  89
ATOM     89  N   UNL A   1      30.282  23.048  26.562  1.00  0.00     0.065 N 
ATOM     90  O   UNL A   1      29.396  22.200  26.728  1.00  0.00    -0.258 OA
ATOM     91  O   UNL A   1      30.411  24.071  27.251  1.00  0.00    -0.258 OA
ENDBRANCH  84  89
BRANCH  85  92
ATOM     92  N   UNL A   1      30.440  24.801  24.266  1.00  0.00    -0.374 N 
ATOM     93  H   UNL A   1      29.585  24.511  23.875  1.00  0.00     0.161 HD
BRANCH  92  94
ATOM     94  C   UNL A   1      30.495  26.221  24.601  1.00  0.00     0.118 C 
BRANCH  94  95
ATOM     95  C   UNL A   1      30.334  27.103  23.346  1.00  0.00     0.052 C 
BRANCH  95  96
ATOM     96  C   UNL A   1      29.310  28.224  23.311  1.00  0.00    -0.072 C 
ATOM     97  C   UNL A   1      27.973  28.066  23.299  1.00  0.00    -0.028 C 
ATOM     98  C   UNL A   1      29.929  29.608  23.277  1.00  0.00     0.031 C 
ATOM     99  C   UNL A   1      26.995  29.195  23.125  1.00  0.00     0.027 C 
ATOM    100  C   UNL A   1      28.929  30.745  23.501  1.00  0.00     0.005 C 
ATOM    101  C   UNL A   1      27.656  30.505  22.701  1.00  0.00     0.004 C 
ENDBRANCH  95  96
ENDBRANCH  94  95
ENDBRANCH  92  94
ENDBRANCH  85  92
ENDBRANCH  77  80
ENDBRANCH  75  76
ENDBRANCH  74  75
ENDBRANCH   1  74
TORSDOF 19
ENDMDL
MODEL 3
REMARK VINA RESULT:     -11.5      5.385     10.828
REMARK SMILES O=C(NCCCCCCNC(=O)c1cc([N+](=O)[O-])c(NCCC2=CCCCC2)c([N+](=O)[O-])c1)c1ccc(-c2c3nc(c(-c4c(F)c(F)c(F)c(F)c4F)c4ccc([nH]4)c(-c4c(F)c(F)c(F)c(F)c4F)c4nc(c(-c5c(F)c(F)c(F)c(F)c5F)c5ccc2[nH]5)C=C4)C=C3)cc1
REMARK SMILES IDX 7 1 6 2 5 3 4 4 3 5 1 6 2 7 34 9 35 10 96 11 36 12 95 13
REMARK SMILES IDX 37 14 38 15 39 16 89 17 40 18 94 19 88 20 90 21 41 22 93 23
REMARK SMILES IDX 87 24 86 25 42 27 74 28 54 29 73 30 55 31 58 32 72 33 91 34
REMARK SMILES IDX 56 35 57 36 71 38 92 39 59 40 43 41 44 42 52 43 45 44 46 45
REMARK SMILES IDX 50 46 53 47 47 48 48 49 51 50 49 51 75 52 76 53 84 54 77 55
REMARK SMILES IDX 78 56 82 57 85 58 79 59 80 60 83 61 81 62 60 63 61 64 69 65
REMARK SMILES IDX 62 66 63 67 67 68 70 69 64 70 65 71 68 72 66 73 8 74 9 75
REMARK SMILES IDX 10 76 11 77 12 79 13 80 14 81 33 82 15 83 29 84 19 85 16 86
REMARK SMILES IDX 17 87 18 88 30 89 31 90 32 91 20 92 21 94 22 95 23 96 24 97
REMARK SMILES IDX 28 98 25 99 27 100 26 101
REMARK H PARENT 3 8 90 26 58 37 10 78 20 93
REMARK Flexibility Score: inf
ROOT
ATOM      1  C   UNL A   1      34.566  31.235  28.492  1.00  0.00     0.002 C 
ENDROOT
BRANCH   1   2
ATOM      2  C   UNL A   1      34.757  32.695  28.074  1.00  0.00     0.002 C 
BRANCH   2   3
ATOM      3  C   UNL A   1      33.490  33.550  28.064  1.00  0.00     0.021 C 
BRANCH   3   4
ATOM      4  C   UNL A   1      33.705  35.030  28.351  1.00  0.00     0.116 C 
BRANCH   4   5
ATOM      5  N   UNL A   1      32.904  35.512  29.464  1.00  0.00    -0.352 N 
ATOM      6  O   UNL A   1      32.194  35.637  31.603  1.00  0.00    -0.269 OA
ATOM      7  C   UNL A   1      33.050  35.266  30.808  1.00  0.00     0.251 C 
ATOM      8  H   UNL A   1      32.150  36.096  29.220  1.00  0.00     0.163 HD
BRANCH   7   9
ATOM      9  C   UNL A   1      34.236  34.528  31.293  1.00  0.00     0.039 A 
ATOM     10  C   UNL A   1      35.506  35.109  31.247  1.00  0.00     0.014 A 
ATOM     11  C   UNL A   1      34.072  33.239  31.809  1.00  0.00     0.014 A 
ATOM     12  C   UNL A   1      36.623  34.356  31.588  1.00  0.00     0.010 A 
ATOM     13  C   UNL A   1      35.190  32.513  32.232  1.00  0.00     0.010 A 
ATOM     14  C   UNL A   1      36.477  33.057  32.101  1.00  0.00    -0.014 A 
BRANCH  14  15
ATOM     15  C   UNL A   1      37.681  32.317  32.555  1.00  0.00     0.031 A 
ATOM     16  C   UNL A   1      38.311  31.253  31.703  1.00  0.00     0.074 A 
ATOM     17  C   UNL A   1      38.222  32.640  33.746  1.00  0.00     0.049 A 
ATOM     18  N   UNL A   1      39.374  30.526  31.943  1.00  0.00    -0.248 NA
ATOM     19  C   UNL A   1      37.665  30.961  30.413  1.00  0.00     0.031 C 
ATOM     20  C   UNL A   1      37.686  33.648  34.665  1.00  0.00     0.029 A 
ATOM     21  N   UNL A   1      39.343  32.173  34.382  1.00  0.00    -0.354 N 
ATOM     22  C   UNL A   1      39.520  29.688  30.846  1.00  0.00     0.074 A 
ATOM     23  C   UNL A   1      38.420  29.973  29.950  1.00  0.00     0.031 C 
ATOM     24  C   UNL A   1      38.500  33.755  35.724  1.00  0.00     0.029 A 
ATOM     25  C   UNL A   1      39.580  32.783  35.590  1.00  0.00     0.049 A 
ATOM     26  H   UNL A   1      39.922  31.470  34.009  1.00  0.00     0.167 HD
ATOM     27  C   UNL A   1      40.493  28.775  30.606  1.00  0.00     0.037 A 
ATOM     28  C   UNL A   1      40.548  32.570  36.498  1.00  0.00     0.037 A 
ATOM     29  C   UNL A   1      41.589  28.500  31.502  1.00  0.00     0.049 A 
ATOM     30  C   UNL A   1      41.592  31.528  36.219  1.00  0.00     0.074 A 
ATOM     31  C   UNL A   1      42.631  27.603  31.341  1.00  0.00     0.029 A 
ATOM     32  N   UNL A   1      41.781  29.119  32.729  1.00  0.00    -0.354 N 
ATOM     33  N   UNL A   1      41.734  30.764  35.164  1.00  0.00    -0.248 NA
ATOM     34  C   UNL A   1      42.609  31.319  37.257  1.00  0.00     0.031 C 
ATOM     35  C   UNL A   1      43.431  27.650  32.488  1.00  0.00     0.029 A 
ATOM     36  C   UNL A   1      42.915  28.611  33.344  1.00  0.00     0.049 A 
ATOM     37  H   UNL A   1      41.198  29.816  33.107  1.00  0.00     0.167 HD
ATOM     38  C   UNL A   1      42.864  29.995  35.402  1.00  0.00     0.074 A 
ATOM     39  C   UNL A   1      43.384  30.404  36.691  1.00  0.00     0.031 C 
ATOM     40  C   UNL A   1      43.418  29.032  34.625  1.00  0.00     0.037 A 
BRANCH  27  41
ATOM     41  C   UNL A   1      40.415  27.993  29.326  1.00  0.00     0.064 A 
ATOM     42  C   UNL A   1      41.145  28.372  28.188  1.00  0.00     0.173 A 
ATOM     43  C   UNL A   1      39.649  26.820  29.250  1.00  0.00     0.173 A 
ATOM     44  F   UNL A   1      41.885  29.490  28.204  1.00  0.00    -0.203 F 
ATOM     45  C   UNL A   1      41.092  27.618  27.018  1.00  0.00     0.198 A 
ATOM     46  C   UNL A   1      39.619  26.055  28.088  1.00  0.00     0.198 A 
ATOM     47  F   UNL A   1      38.938  26.407  30.312  1.00  0.00    -0.203 F 
ATOM     48  F   UNL A   1      41.767  28.021  25.933  1.00  0.00    -0.200 F 
ATOM     49  C   UNL A   1      40.336  26.457  26.972  1.00  0.00     0.200 A 
ATOM     50  F   UNL A   1      38.899  24.925  28.048  1.00  0.00    -0.200 F 
ATOM     51  F   UNL A   1      40.295  25.727  25.848  1.00  0.00    -0.200 F 
ENDBRANCH  27  41
BRANCH  28  52
ATOM     52  C   UNL A   1      40.566  33.358  37.757  1.00  0.00     0.064 A 
ATOM     53  C   UNL A   1      39.669  33.080  38.797  1.00  0.00     0.173 A 
ATOM     54  C   UNL A   1      41.484  34.401  37.948  1.00  0.00     0.173 A 
ATOM     55  F   UNL A   1      38.761  32.103  38.654  1.00  0.00    -0.203 F 
ATOM     56  C   UNL A   1      39.677  33.828  39.972  1.00  0.00     0.198 A 
ATOM     57  C   UNL A   1      41.512  35.128  39.136  1.00  0.00     0.198 A 
ATOM     58  F   UNL A   1      42.368  34.704  36.986  1.00  0.00    -0.203 F 
ATOM     59  F   UNL A   1      38.779  33.570  40.933  1.00  0.00    -0.200 F 
ATOM     60  C   UNL A   1      40.602  34.846  40.144  1.00  0.00     0.200 A 
ATOM     61  F   UNL A   1      42.421  36.098  39.304  1.00  0.00    -0.200 F 
ATOM     62  F   UNL A   1      40.614  35.560  41.277  1.00  0.00    -0.200 F 
ENDBRANCH  28  52
BRANCH  40  63
ATOM     63  C   UNL A   1      44.667  28.380  35.142  1.00  0.00     0.064 A 
ATOM     64  C   UNL A   1      44.618  27.219  35.927  1.00  0.00     0.173 A 
ATOM     65  C   UNL A   1      45.927  28.913  34.832  1.00  0.00     0.173 A 
ATOM     66  F   UNL A   1      43.436  26.682  36.265  1.00  0.00    -0.203 F 
ATOM     67  C   UNL A   1      45.785  26.633  36.411  1.00  0.00     0.198 A 
ATOM     68  C   UNL A   1      47.093  28.309  35.293  1.00  0.00     0.198 A 
ATOM     69  F   UNL A   1      46.027  30.020  34.082  1.00  0.00    -0.203 F 
ATOM     70  F   UNL A   1      45.713  25.556  37.203  1.00  0.00    -0.200 F 
ATOM     71  C   UNL A   1      47.021  27.174  36.088  1.00  0.00     0.200 A 
ATOM     72  F   UNL A   1      48.286  28.826  34.972  1.00  0.00    -0.200 F 
ATOM     73  F   UNL A   1      48.143  26.608  36.552  1.00  0.00    -0.200 F 
ENDBRANCH  40  63
ENDBRANCH  14  15
ENDBRANCH   7   9
ENDBRANCH   4   5
ENDBRANCH   3   4
ENDBRANCH   2   3
ENDBRANCH   1   2
BRANCH   1  74
ATOM     74  C   UNL A   1      35.233  30.192  27.590  1.00  0.00     0.021 C 
BRANCH  74  75
ATOM     75  C   UNL A   1      34.282  29.325  26.770  1.00  0.00     0.116 C 
BRANCH  75  76
ATOM     76  N   UNL A   1      33.078  30.036  26.366  1.00  0.00    -0.352 N 
ATOM     77  C   UNL A   1      32.022  29.623  25.596  1.00  0.00     0.251 C 
ATOM     78  H   UNL A   1      33.012  30.962  26.698  1.00  0.00     0.163 HD
ATOM     79  O   UNL A   1      31.155  30.414  25.247  1.00  0.00    -0.269 OA
BRANCH  77  80
ATOM     80  C   UNL A   1      31.935  28.218  25.152  1.00  0.00     0.053 A 
ATOM     81  C   UNL A   1      31.349  27.279  25.989  1.00  0.00     0.102 A 
ATOM     82  C   UNL A   1      32.464  27.809  23.935  1.00  0.00     0.102 A 
ATOM     83  C   UNL A   1      31.177  25.956  25.538  1.00  0.00     0.300 A 
ATOM     84  C   UNL A   1      32.233  26.498  23.475  1.00  0.00     0.300 A 
ATOM     85  C   UNL A   1      31.524  25.523  24.238  1.00  0.00     0.192 A 
BRANCH  83  86
ATOM     86  N   UNL A   1      30.663  25.045  26.539  1.00  0.00     0.065 N 
ATOM     87  O   UNL A   1      29.452  25.111  26.790  1.00  0.00    -0.258 OA
ATOM     88  O   UNL A   1      31.481  24.304  27.100  1.00  0.00    -0.258 OA
ENDBRANCH  83  86
BRANCH  84  89
ATOM     89  N   UNL A   1      32.759  26.194  22.131  1.00  0.00     0.065 N 
ATOM     90  O   UNL A   1      31.948  25.944  21.228  1.00  0.00    -0.258 OA
ATOM     91  O   UNL A   1      33.990  26.196  21.986  1.00  0.00    -0.258 OA
ENDBRANCH  84  89
BRANCH  85  92
ATOM     92  N   UNL A   1      31.125  24.341  23.635  1.00  0.00    -0.374 N 
ATOM     93  H   UNL A   1      30.460  24.458  22.919  1.00  0.00     0.161 HD
BRANCH  92  94
ATOM     94  C   UNL A   1      31.513  22.953  23.870  1.00  0.00     0.118 C 
BRANCH  94  95
ATOM     95  C   UNL A   1      32.884  22.636  23.239  1.00  0.00     0.052 C 
BRANCH  95  96
ATOM     96  C   UNL A   1      34.167  22.847  24.022  1.00  0.00    -0.072 C 
ATOM     97  C   UNL A   1      34.276  22.857  25.364  1.00  0.00    -0.028 C 
ATOM     98  C   UNL A   1      35.384  23.069  23.143  1.00  0.00     0.031 C 
ATOM     99  C   UNL A   1      35.539  23.207  26.102  1.00  0.00     0.027 C 
ATOM    100  C   UNL A   1      36.715  23.027  23.896  1.00  0.00     0.005 C 
ATOM    101  C   UNL A   1      36.618  23.804  25.202  1.00  0.00     0.004 C 
ENDBRANCH  95  96
ENDBRANCH  94  95
ENDBRANCH  92  94
ENDBRANCH  85  92
ENDBRANCH  77  80
ENDBRANCH  75  76
ENDBRANCH  74  75
ENDBRANCH   1  74
TORSDOF 19
ENDMDL
