MODEL 1
REMARK VINA RESULT:     -12.8      0.000      0.000
REMARK SMILES C[C@H](NC(=O)c1cccc(NC(=O)c2ccccc2C(=O)NCCCCCCNC(=O)c2ccc(-c3c4nc(c(-c5c(F)c(F)c(F)c(F)c5F)c5ccc([nH]5)c(-c5c(F)c(F)c(F)c(F)c5F)c5nc(c(-c6c(F)c(F)c(F)c(F)c6F)c6ccc3[nH]6)C=C5)C=C4)cc2)c1)c1ccccc1
REMARK SMILES IDX 24 1 23 2 22 3 20 4 21 5 19 7 14 8 15 9 16 10 18 11 17 12
REMARK SMILES IDX 12 13 11 14 13 16 10 17 6 18 7 19 95 20 8 21 9 22 4 23 3 24
REMARK SMILES IDX 5 26 2 27 1 28 96 29 97 30 101 31 98 32 100 33 99 34 25 35
REMARK SMILES IDX 26 36 27 37 28 38 29 39 30 40 31 42 32 43 33 44 94 45 34 46
REMARK SMILES IDX 93 47 35 48 36 49 37 50 87 51 38 52 92 53 86 54 88 55 39 56
REMARK SMILES IDX 91 57 85 58 84 59 40 61 72 62 52 63 71 64 53 65 56 66 70 67
REMARK SMILES IDX 89 68 54 69 55 70 69 72 90 73 57 74 41 75 42 76 50 77 43 78
REMARK SMILES IDX 44 79 48 80 51 81 45 82 46 83 49 84 47 85 73 86 74 87 82 88
REMARK SMILES IDX 75 89 76 90 80 91 83 92 77 93 78 94 81 95 79 96 58 97 59 98
REMARK SMILES IDX 67 99 60 100 61 101 65 102 68 103 62 104 63 105 66 106
REMARK SMILES IDX 64 107
REMARK H PARENT 22 6 11 15 3 25 29 41 88 60 56 71
REMARK Flexibility Score: inf
ROOT
ATOM      1  C   UNL A   1      31.896  26.350  26.243  1.00  0.00     0.021 C 
ENDROOT
BRANCH   1   2
ATOM      2  C   UNL A   1      33.112  25.437  26.148  1.00  0.00     0.116 C 
BRANCH   2   3
ATOM      3  N   UNL A   1      32.955  24.180  26.850  1.00  0.00    -0.352 N 
ATOM      4  C   UNL A   1      33.717  23.042  26.815  1.00  0.00     0.252 C 
ATOM      5  O   UNL A   1      33.352  22.079  27.488  1.00  0.00    -0.269 OA
ATOM      6  H   UNL A   1      32.174  24.136  27.449  1.00  0.00     0.163 HD
BRANCH   4   7
ATOM      7  C   UNL A   1      34.908  22.896  25.939  1.00  0.00     0.052 A 
ATOM      8  C   UNL A   1      35.107  21.920  24.951  1.00  0.00     0.052 A 
ATOM      9  C   UNL A   1      36.328  21.874  24.251  1.00  0.00     0.014 A 
ATOM     10  C   UNL A   1      37.302  22.849  24.450  1.00  0.00     0.001 A 
ATOM     11  C   UNL A   1      35.885  23.902  26.093  1.00  0.00     0.014 A 
ATOM     12  C   UNL A   1      37.068  23.881  25.349  1.00  0.00     0.001 A 
BRANCH   8  13
ATOM     13  C   UNL A   1      34.131  20.890  24.551  1.00  0.00     0.256 C 
ATOM     14  N   UNL A   1      32.840  21.175  24.179  1.00  0.00    -0.322 N 
ATOM     15  H   UNL A   1      32.261  20.384  24.118  1.00  0.00     0.170 HD
ATOM     16  O   UNL A   1      34.484  19.711  24.626  1.00  0.00    -0.269 OA
BRANCH  14  17
ATOM     17  C   UNL A   1      32.189  22.378  23.871  1.00  0.00     0.042 A 
ATOM     18  C   UNL A   1      32.143  24.349  22.472  1.00  0.00     0.041 A 
ATOM     19  C   UNL A   1      30.962  24.777  23.077  1.00  0.00     0.014 A 
ATOM     20  C   UNL A   1      32.769  23.169  22.876  1.00  0.00     0.040 A 
ATOM     21  C   UNL A   1      30.407  24.010  24.100  1.00  0.00     0.003 A 
ATOM     22  C   UNL A   1      31.028  22.824  24.507  1.00  0.00     0.026 A 
BRANCH  18  23
ATOM     23  C   UNL A   1      32.803  25.198  21.469  1.00  0.00     0.251 C 
ATOM     24  N   UNL A   1      32.849  26.554  21.643  1.00  0.00    -0.346 N 
ATOM     25  H   UNL A   1      33.132  27.070  20.854  1.00  0.00     0.164 HD
ATOM     26  O   UNL A   1      33.278  24.673  20.468  1.00  0.00    -0.269 OA
BRANCH  24  27
ATOM     27  C   UNL A   1      32.541  27.349  22.829  1.00  0.00     0.109 C 
ATOM     28  C   UNL A   1      33.692  28.341  23.041  1.00  0.00     0.036 C 
BRANCH  27  29
ATOM     29  C   UNL A   1      31.212  28.092  22.726  1.00  0.00    -0.026 A 
ATOM     30  C   UNL A   1      31.172  29.328  22.052  1.00  0.00     0.006 A 
ATOM     31  C   UNL A   1      30.012  27.602  23.266  1.00  0.00     0.006 A 
ATOM     32  C   UNL A   1      29.974  30.037  21.910  1.00  0.00     0.000 A 
ATOM     33  C   UNL A   1      28.815  28.315  23.126  1.00  0.00     0.000 A 
ATOM     34  C   UNL A   1      28.797  29.533  22.451  1.00  0.00     0.000 A 
ENDBRANCH  27  29
ENDBRANCH  24  27
ENDBRANCH  18  23
ENDBRANCH  14  17
ENDBRANCH   8  13
ENDBRANCH   4   7
ENDBRANCH   2   3
ENDBRANCH   1   2
BRANCH   1  35
ATOM     35  C   UNL A   1      31.754  27.097  27.571  1.00  0.00     0.002 C 
BRANCH  35  36
ATOM     36  C   UNL A   1      31.636  28.623  27.500  1.00  0.00     0.002 C 
BRANCH  36  37
ATOM     37  C   UNL A   1      31.746  29.262  26.120  1.00  0.00     0.021 C 
BRANCH  37  38
ATOM     38  C   UNL A   1      32.903  30.234  25.934  1.00  0.00     0.116 C 
BRANCH  38  39
ATOM     39  N   UNL A   1      32.677  31.545  26.524  1.00  0.00    -0.352 N 
ATOM     40  C   UNL A   1      33.422  32.240  27.444  1.00  0.00     0.251 C 
ATOM     41  H   UNL A   1      31.863  32.004  26.216  1.00  0.00     0.163 HD
ATOM     42  O   UNL A   1      33.028  33.330  27.848  1.00  0.00    -0.269 OA
BRANCH  40  43
ATOM     43  C   UNL A   1      34.671  31.662  27.993  1.00  0.00     0.039 A 
ATOM     44  C   UNL A   1      35.776  32.503  28.149  1.00  0.00     0.014 A 
ATOM     45  C   UNL A   1      34.762  30.320  28.370  1.00  0.00     0.014 A 
ATOM     46  C   UNL A   1      36.940  32.019  28.751  1.00  0.00     0.010 A 
ATOM     47  C   UNL A   1      35.887  29.862  29.051  1.00  0.00     0.010 A 
ATOM     48  C   UNL A   1      36.989  30.706  29.248  1.00  0.00    -0.014 A 
BRANCH  48  49
ATOM     49  C   UNL A   1      38.175  30.225  30.000  1.00  0.00     0.031 A 
ATOM     50  C   UNL A   1      38.420  30.661  31.416  1.00  0.00     0.074 A 
ATOM     51  C   UNL A   1      39.069  29.434  29.375  1.00  0.00     0.049 A 
ATOM     52  N   UNL A   1      39.386  30.319  32.231  1.00  0.00    -0.248 NA
ATOM     53  C   UNL A   1      37.475  31.635  31.981  1.00  0.00     0.031 C 
ATOM     54  C   UNL A   1      38.995  29.021  27.973  1.00  0.00     0.029 A 
ATOM     55  N   UNL A   1      40.216  28.839  29.837  1.00  0.00    -0.354 N 
ATOM     56  C   UNL A   1      39.172  31.045  33.396  1.00  0.00     0.074 A 
ATOM     57  C   UNL A   1      38.023  31.892  33.159  1.00  0.00     0.031 C 
ATOM     58  C   UNL A   1      40.029  28.212  27.698  1.00  0.00     0.029 A 
ATOM     59  C   UNL A   1      40.851  28.068  28.895  1.00  0.00     0.049 A 
ATOM     60  H   UNL A   1      40.552  28.953  30.756  1.00  0.00     0.167 HD
ATOM     61  C   UNL A   1      39.856  30.990  34.564  1.00  0.00     0.037 A 
ATOM     62  C   UNL A   1      41.964  27.317  28.990  1.00  0.00     0.037 A 
ATOM     63  C   UNL A   1      40.987  30.130  34.798  1.00  0.00     0.049 A 
ATOM     64  C   UNL A   1      42.672  27.222  30.311  1.00  0.00     0.074 A 
ATOM     65  C   UNL A   1      41.699  29.936  35.968  1.00  0.00     0.029 A 
ATOM     66  N   UNL A   1      41.576  29.324  33.834  1.00  0.00    -0.354 N 
ATOM     67  N   UNL A   1      42.399  27.829  31.441  1.00  0.00    -0.248 NA
ATOM     68  C   UNL A   1      43.831  26.322  30.377  1.00  0.00     0.031 C 
ATOM     69  C   UNL A   1      42.749  29.048  35.700  1.00  0.00     0.029 A 
ATOM     70  C   UNL A   1      42.658  28.647  34.377  1.00  0.00     0.049 A 
ATOM     71  H   UNL A   1      41.271  29.243  32.901  1.00  0.00     0.167 HD
ATOM     72  C   UNL A   1      43.336  27.372  32.356  1.00  0.00     0.074 A 
ATOM     73  C   UNL A   1      44.173  26.420  31.654  1.00  0.00     0.031 C 
ATOM     74  C   UNL A   1      43.488  27.710  33.662  1.00  0.00     0.037 A 
BRANCH  61  75
ATOM     75  C   UNL A   1      39.393  31.891  35.675  1.00  0.00     0.064 A 
ATOM     76  C   UNL A   1      39.922  33.180  35.850  1.00  0.00     0.173 A 
ATOM     77  C   UNL A   1      38.407  31.462  36.577  1.00  0.00     0.173 A 
ATOM     78  F   UNL A   1      40.873  33.638  35.023  1.00  0.00    -0.203 F 
ATOM     79  C   UNL A   1      39.514  33.986  36.911  1.00  0.00     0.198 A 
ATOM     80  C   UNL A   1      37.978  32.284  37.617  1.00  0.00     0.198 A 
ATOM     81  F   UNL A   1      37.861  30.242  36.455  1.00  0.00    -0.203 F 
ATOM     82  F   UNL A   1      40.085  35.185  37.095  1.00  0.00    -0.200 F 
ATOM     83  C   UNL A   1      38.541  33.540  37.790  1.00  0.00     0.200 A 
ATOM     84  F   UNL A   1      37.027  31.856  38.459  1.00  0.00    -0.200 F 
ATOM     85  F   UNL A   1      38.153  34.314  38.813  1.00  0.00    -0.200 F 
ENDBRANCH  61  75
BRANCH  62  86
ATOM     86  C   UNL A   1      42.429  26.551  27.804  1.00  0.00     0.064 A 
ATOM     87  C   UNL A   1      43.384  27.088  26.930  1.00  0.00     0.173 A 
ATOM     88  C   UNL A   1      41.964  25.254  27.549  1.00  0.00     0.173 A 
ATOM     89  F   UNL A   1      43.846  28.332  27.125  1.00  0.00    -0.203 F 
ATOM     90  C   UNL A   1      43.850  26.359  25.838  1.00  0.00     0.198 A 
ATOM     91  C   UNL A   1      42.450  24.515  26.471  1.00  0.00     0.198 A 
ATOM     92  F   UNL A   1      41.058  24.692  28.362  1.00  0.00    -0.203 F 
ATOM     93  F   UNL A   1      44.742  26.906  25.002  1.00  0.00    -0.200 F 
ATOM     94  C   UNL A   1      43.390  25.070  25.615  1.00  0.00     0.200 A 
ATOM     95  F   UNL A   1      42.016  23.264  26.268  1.00  0.00    -0.200 F 
ATOM     96  F   UNL A   1      43.851  24.363  24.574  1.00  0.00    -0.200 F 
ENDBRANCH  62  86
BRANCH  74  97
ATOM     97  C   UNL A   1      44.593  27.029  34.418  1.00  0.00     0.064 A 
ATOM     98  C   UNL A   1      45.867  27.605  34.539  1.00  0.00     0.173 A 
ATOM     99  C   UNL A   1      44.368  25.793  35.043  1.00  0.00     0.173 A 
ATOM    100  F   UNL A   1      46.137  28.778  33.947  1.00  0.00    -0.203 F 
ATOM    101  C   UNL A   1      46.884  26.950  35.229  1.00  0.00     0.198 A 
ATOM    102  C   UNL A   1      45.378  25.158  35.759  1.00  0.00     0.198 A 
ATOM    103  F   UNL A   1      43.166  25.203  34.964  1.00  0.00    -0.203 F 
ATOM    104  F   UNL A   1      48.109  27.492  35.284  1.00  0.00    -0.200 F 
ATOM    105  C   UNL A   1      46.638  25.732  35.842  1.00  0.00     0.200 A 
ATOM    106  F   UNL A   1      45.135  23.986  36.362  1.00  0.00    -0.200 F 
ATOM    107  F   UNL A   1      47.618  25.104  36.507  1.00  0.00    -0.200 F 
ENDBRANCH  74  97
ENDBRANCH  48  49
ENDBRANCH  40  43
ENDBRANCH  38  39
ENDBRANCH  37  38
ENDBRANCH  36  37
ENDBRANCH  35  36
ENDBRANCH   1  35
TORSDOF 18
ENDMDL
MODEL 2
REMARK VINA RESULT:     -12.8      1.711      2.828
REMARK SMILES C[C@H](NC(=O)c1cccc(NC(=O)c2ccccc2C(=O)NCCCCCCNC(=O)c2ccc(-c3c4nc(c(-c5c(F)c(F)c(F)c(F)c5F)c5ccc([nH]5)c(-c5c(F)c(F)c(F)c(F)c5F)c5nc(c(-c6c(F)c(F)c(F)c(F)c6F)c6ccc3[nH]6)C=C5)C=C4)cc2)c1)c1ccccc1
REMARK SMILES IDX 24 1 23 2 22 3 20 4 21 5 19 7 14 8 15 9 16 10 18 11 17 12
REMARK SMILES IDX 12 13 11 14 13 16 10 17 6 18 7 19 95 20 8 21 9 22 4 23 3 24
REMARK SMILES IDX 5 26 2 27 1 28 96 29 97 30 101 31 98 32 100 33 99 34 25 35
REMARK SMILES IDX 26 36 27 37 28 38 29 39 30 40 31 42 32 43 33 44 94 45 34 46
REMARK SMILES IDX 93 47 35 48 36 49 37 50 87 51 38 52 92 53 86 54 88 55 39 56
REMARK SMILES IDX 91 57 85 58 84 59 40 61 72 62 52 63 71 64 53 65 56 66 70 67
REMARK SMILES IDX 89 68 54 69 55 70 69 72 90 73 57 74 41 75 42 76 50 77 43 78
REMARK SMILES IDX 44 79 48 80 51 81 45 82 46 83 49 84 47 85 73 86 74 87 82 88
REMARK SMILES IDX 75 89 76 90 80 91 83 92 77 93 78 94 81 95 79 96 58 97 59 98
REMARK SMILES IDX 67 99 60 100 61 101 65 102 68 103 62 104 63 105 66 106
REMARK SMILES IDX 64 107
REMARK H PARENT 22 6 11 15 3 25 29 41 88 60 56 71
REMARK Flexibility Score: inf
ROOT
ATOM      1  C   UNL A   1      31.474  27.736  26.960  1.00  0.00     0.021 C 
ENDROOT
BRANCH   1   2
ATOM      2  C   UNL A   1      32.192  26.524  26.379  1.00  0.00     0.116 C 
BRANCH   2   3
ATOM      3  N   UNL A   1      31.753  25.262  26.939  1.00  0.00    -0.352 N 
ATOM      4  C   UNL A   1      32.284  24.006  26.820  1.00  0.00     0.252 C 
ATOM      5  O   UNL A   1      31.700  23.074  27.373  1.00  0.00    -0.269 OA
ATOM      6  H   UNL A   1      30.942  25.317  27.494  1.00  0.00     0.163 HD
BRANCH   4   7
ATOM      7  C   UNL A   1      33.479  23.711  25.988  1.00  0.00     0.052 A 
ATOM      8  C   UNL A   1      33.494  23.067  24.742  1.00  0.00     0.052 A 
ATOM      9  C   UNL A   1      34.723  22.797  24.109  1.00  0.00     0.014 A 
ATOM     10  C   UNL A   1      35.920  23.256  24.651  1.00  0.00     0.001 A 
ATOM     11  C   UNL A   1      34.696  24.209  26.498  1.00  0.00     0.014 A 
ATOM     12  C   UNL A   1      35.904  23.989  25.831  1.00  0.00     0.001 A 
BRANCH   8  13
ATOM     13  C   UNL A   1      32.306  22.619  23.991  1.00  0.00     0.256 C 
ATOM     14  N   UNL A   1      31.724  23.354  22.989  1.00  0.00    -0.322 N 
ATOM     15  H   UNL A   1      30.844  23.018  22.709  1.00  0.00     0.170 HD
ATOM     16  O   UNL A   1      31.779  21.560  24.338  1.00  0.00    -0.269 OA
BRANCH  14  17
ATOM     17  C   UNL A   1      32.142  24.494  22.287  1.00  0.00     0.042 A 
ATOM     18  C   UNL A   1      32.710  26.841  22.403  1.00  0.00     0.041 A 
ATOM     19  C   UNL A   1      33.044  26.849  21.049  1.00  0.00     0.014 A 
ATOM     20  C   UNL A   1      32.241  25.680  23.019  1.00  0.00     0.040 A 
ATOM     21  C   UNL A   1      32.903  25.676  20.309  1.00  0.00     0.003 A 
ATOM     22  C   UNL A   1      32.437  24.508  20.922  1.00  0.00     0.026 A 
BRANCH  18  23
ATOM     23  C   UNL A   1      32.747  28.092  23.174  1.00  0.00     0.251 C 
ATOM     24  N   UNL A   1      31.668  28.934  23.166  1.00  0.00    -0.346 N 
ATOM     25  H   UNL A   1      31.831  29.829  23.543  1.00  0.00     0.164 HD
ATOM     26  O   UNL A   1      33.766  28.378  23.793  1.00  0.00    -0.269 OA
BRANCH  24  27
ATOM     27  C   UNL A   1      30.311  28.699  22.681  1.00  0.00     0.109 C 
ATOM     28  C   UNL A   1      29.611  27.769  23.679  1.00  0.00     0.036 C 
BRANCH  27  29
ATOM     29  C   UNL A   1      29.507  29.983  22.498  1.00  0.00    -0.026 A 
ATOM     30  C   UNL A   1      29.186  30.754  23.632  1.00  0.00     0.006 A 
ATOM     31  C   UNL A   1      29.071  30.447  21.246  1.00  0.00     0.006 A 
ATOM     32  C   UNL A   1      28.471  31.951  23.516  1.00  0.00     0.000 A 
ATOM     33  C   UNL A   1      28.352  31.644  21.132  1.00  0.00     0.000 A 
ATOM     34  C   UNL A   1      28.050  32.393  22.266  1.00  0.00     0.000 A 
ENDBRANCH  27  29
ENDBRANCH  24  27
ENDBRANCH  18  23
ENDBRANCH  14  17
ENDBRANCH   8  13
ENDBRANCH   4   7
ENDBRANCH   2   3
ENDBRANCH   1   2
BRANCH   1  35
ATOM     35  C   UNL A   1      32.310  29.018  27.004  1.00  0.00     0.002 C 
BRANCH  35  36
ATOM     36  C   UNL A   1      31.823  30.194  26.151  1.00  0.00     0.002 C 
BRANCH  36  37
ATOM     37  C   UNL A   1      31.549  31.507  26.876  1.00  0.00     0.021 C 
BRANCH  37  38
ATOM     38  C   UNL A   1      32.763  32.397  27.109  1.00  0.00     0.116 C 
BRANCH  38  39
ATOM     39  N   UNL A   1      32.435  33.744  27.550  1.00  0.00    -0.352 N 
ATOM     40  C   UNL A   1      33.045  34.538  28.489  1.00  0.00     0.251 C 
ATOM     41  H   UNL A   1      31.655  34.149  27.107  1.00  0.00     0.163 HD
ATOM     42  O   UNL A   1      32.580  35.645  28.745  1.00  0.00    -0.269 OA
BRANCH  40  43
ATOM     43  C   UNL A   1      34.230  34.051  29.233  1.00  0.00     0.039 A 
ATOM     44  C   UNL A   1      34.027  33.156  30.288  1.00  0.00     0.014 A 
ATOM     45  C   UNL A   1      35.527  34.445  28.899  1.00  0.00     0.014 A 
ATOM     46  C   UNL A   1      35.123  32.601  30.951  1.00  0.00     0.010 A 
ATOM     47  C   UNL A   1      36.621  33.826  29.498  1.00  0.00     0.010 A 
ATOM     48  C   UNL A   1      36.431  32.897  30.531  1.00  0.00    -0.014 A 
BRANCH  48  49
ATOM     49  C   UNL A   1      37.596  32.216  31.149  1.00  0.00     0.031 A 
ATOM     50  C   UNL A   1      38.060  32.579  32.530  1.00  0.00     0.074 A 
ATOM     51  C   UNL A   1      38.276  31.301  30.430  1.00  0.00     0.049 A 
ATOM     52  N   UNL A   1      39.039  32.070  33.235  1.00  0.00    -0.248 NA
ATOM     53  C   UNL A   1      37.354  33.683  33.196  1.00  0.00     0.031 C 
ATOM     54  C   UNL A   1      37.985  30.932  29.044  1.00  0.00     0.029 A 
ATOM     55  N   UNL A   1      39.353  30.519  30.763  1.00  0.00    -0.354 N 
ATOM     56  C   UNL A   1      39.073  32.799  34.417  1.00  0.00     0.074 A 
ATOM     57  C   UNL A   1      38.059  33.825  34.307  1.00  0.00     0.031 C 
ATOM     58  C   UNL A   1      38.838  29.971  28.657  1.00  0.00     0.029 A 
ATOM     59  C   UNL A   1      39.748  29.673  29.757  1.00  0.00     0.049 A 
ATOM     60  H   UNL A   1      39.800  30.560  31.640  1.00  0.00     0.167 HD
ATOM     61  C   UNL A   1      39.860  32.611  35.503  1.00  0.00     0.037 A 
ATOM     62  C   UNL A   1      40.727  28.749  29.729  1.00  0.00     0.037 A 
ATOM     63  C   UNL A   1      40.854  31.574  35.612  1.00  0.00     0.049 A 
ATOM     64  C   UNL A   1      41.548  28.515  30.965  1.00  0.00     0.074 A 
ATOM     65  C   UNL A   1      41.646  31.246  36.697  1.00  0.00     0.029 A 
ATOM     66  N   UNL A   1      41.196  30.701  34.589  1.00  0.00    -0.354 N 
ATOM     67  N   UNL A   1      41.501  29.138  32.119  1.00  0.00    -0.248 NA
ATOM     68  C   UNL A   1      42.544  27.438  30.904  1.00  0.00     0.031 C 
ATOM     69  C   UNL A   1      42.502  30.204  36.315  1.00  0.00     0.029 A 
ATOM     70  C   UNL A   1      42.205  29.848  35.009  1.00  0.00     0.049 A 
ATOM     71  H   UNL A   1      40.783  30.689  33.695  1.00  0.00     0.167 HD
ATOM     72  C   UNL A   1      42.443  28.518  32.926  1.00  0.00     0.074 A 
ATOM     73  C   UNL A   1      43.033  27.455  32.136  1.00  0.00     0.031 C 
ATOM     74  C   UNL A   1      42.788  28.802  34.207  1.00  0.00     0.037 A 
BRANCH  61  75
ATOM     75  C   UNL A   1      39.673  33.555  36.659  1.00  0.00     0.064 A 
ATOM     76  C   UNL A   1      38.836  33.240  37.742  1.00  0.00     0.173 A 
ATOM     77  C   UNL A   1      40.340  34.789  36.686  1.00  0.00     0.173 A 
ATOM     78  F   UNL A   1      38.167  32.078  37.763  1.00  0.00    -0.203 F 
ATOM     79  C   UNL A   1      38.639  34.144  38.783  1.00  0.00     0.198 A 
ATOM     80  C   UNL A   1      40.166  35.677  37.747  1.00  0.00     0.198 A 
ATOM     81  F   UNL A   1      41.158  35.140  35.682  1.00  0.00    -0.203 F 
ATOM     82  F   UNL A   1      37.781  33.847  39.770  1.00  0.00    -0.200 F 
ATOM     83  C   UNL A   1      39.306  35.358  38.788  1.00  0.00     0.200 A 
ATOM     84  F   UNL A   1      40.822  36.845  37.755  1.00  0.00    -0.200 F 
ATOM     85  F   UNL A   1      39.112  36.229  39.788  1.00  0.00    -0.200 F 
ENDBRANCH  61  75
BRANCH  62  86
ATOM     86  C   UNL A   1      40.930  27.940  28.499  1.00  0.00     0.064 A 
ATOM     87  C   UNL A   1      40.235  26.738  28.306  1.00  0.00     0.173 A 
ATOM     88  C   UNL A   1      41.784  28.374  27.476  1.00  0.00     0.173 A 
ATOM     89  F   UNL A   1      39.419  26.274  29.265  1.00  0.00    -0.203 F 
ATOM     90  C   UNL A   1      40.394  25.995  27.138  1.00  0.00     0.198 A 
ATOM     91  C   UNL A   1      41.923  27.643  26.298  1.00  0.00     0.198 A 
ATOM     92  F   UNL A   1      42.463  29.523  27.609  1.00  0.00    -0.203 F 
ATOM     93  F   UNL A   1      39.740  24.835  26.990  1.00  0.00    -0.200 F 
ATOM     94  C   UNL A   1      41.230  26.453  26.132  1.00  0.00     0.200 A 
ATOM     95  F   UNL A   1      42.719  28.097  25.320  1.00  0.00    -0.200 F 
ATOM     96  F   UNL A   1      41.370  25.746  25.001  1.00  0.00    -0.200 F 
ENDBRANCH  62  86
BRANCH  74  97
ATOM     97  C   UNL A   1      43.841  27.936  34.838  1.00  0.00     0.064 A 
ATOM     98  C   UNL A   1      45.201  28.280  34.795  1.00  0.00     0.173 A 
ATOM     99  C   UNL A   1      43.483  26.757  35.508  1.00  0.00     0.173 A 
ATOM    100  F   UNL A   1      45.597  29.390  34.154  1.00  0.00    -0.203 F 
ATOM    101  C   UNL A   1      46.166  27.457  35.370  1.00  0.00     0.198 A 
ATOM    102  C   UNL A   1      44.446  25.953  36.109  1.00  0.00     0.198 A 
ATOM    103  F   UNL A   1      42.196  26.386  35.584  1.00  0.00    -0.203 F 
ATOM    104  F   UNL A   1      47.463  27.776  35.268  1.00  0.00    -0.200 F 
ATOM    105  C   UNL A   1      45.787  26.298  36.031  1.00  0.00     0.200 A 
ATOM    106  F   UNL A   1      44.079  24.840  36.758  1.00  0.00    -0.200 F 
ATOM    107  F   UNL A   1      46.717  25.507  36.584  1.00  0.00    -0.200 F 
ENDBRANCH  74  97
ENDBRANCH  48  49
ENDBRANCH  40  43
ENDBRANCH  38  39
ENDBRANCH  37  38
ENDBRANCH  36  37
ENDBRANCH  35  36
ENDBRANCH   1  35
TORSDOF 18
ENDMDL
MODEL 3
REMARK VINA RESULT:     -12.3      1.885      5.299
REMARK SMILES C[C@H](NC(=O)c1cccc(NC(=O)c2ccccc2C(=O)NCCCCCCNC(=O)c2ccc(-c3c4nc(c(-c5c(F)c(F)c(F)c(F)c5F)c5ccc([nH]5)c(-c5c(F)c(F)c(F)c(F)c5F)c5nc(c(-c6c(F)c(F)c(F)c(F)c6F)c6ccc3[nH]6)C=C5)C=C4)cc2)c1)c1ccccc1
REMARK SMILES IDX 24 1 23 2 22 3 20 4 21 5 19 7 14 8 15 9 16 10 18 11 17 12
REMARK SMILES IDX 12 13 11 14 13 16 10 17 6 18 7 19 95 20 8 21 9 22 4 23 3 24
REMARK SMILES IDX 5 26 2 27 1 28 96 29 97 30 101 31 98 32 100 33 99 34 25 35
REMARK SMILES IDX 26 36 27 37 28 38 29 39 30 40 31 42 32 43 33 44 94 45 34 46
REMARK SMILES IDX 93 47 35 48 36 49 37 50 87 51 38 52 92 53 86 54 88 55 39 56
REMARK SMILES IDX 91 57 85 58 84 59 40 61 72 62 52 63 71 64 53 65 56 66 70 67
REMARK SMILES IDX 89 68 54 69 55 70 69 72 90 73 57 74 41 75 42 76 50 77 43 78
REMARK SMILES IDX 44 79 48 80 51 81 45 82 46 83 49 84 47 85 73 86 74 87 82 88
REMARK SMILES IDX 75 89 76 90 80 91 83 92 77 93 78 94 81 95 79 96 58 97 59 98
REMARK SMILES IDX 67 99 60 100 61 101 65 102 68 103 62 104 63 105 66 106
REMARK SMILES IDX 64 107
REMARK H PARENT 22 6 11 15 3 25 29 41 88 60 56 71
REMARK Flexibility Score: inf
ROOT
ATOM      1  C   UNL A   1      31.157  25.874  26.021  1.00  0.00     0.021 C 
ENDROOT
BRANCH   1   2
ATOM      2  C   UNL A   1      31.838  24.539  25.747  1.00  0.00     0.116 C 
BRANCH   2   3
ATOM      3  N   UNL A   1      33.004  24.298  26.571  1.00  0.00    -0.352 N 
ATOM      4  C   UNL A   1      33.878  23.244  26.586  1.00  0.00     0.252 C 
ATOM      5  O   UNL A   1      34.786  23.255  27.416  1.00  0.00    -0.269 OA
ATOM      6  H   UNL A   1      33.200  25.007  27.226  1.00  0.00     0.163 HD
BRANCH   4   7
ATOM      7  C   UNL A   1      33.724  22.056  25.706  1.00  0.00     0.052 A 
ATOM      8  C   UNL A   1      34.054  21.974  24.345  1.00  0.00     0.052 A 
ATOM      9  C   UNL A   1      33.781  20.792  23.631  1.00  0.00     0.014 A 
ATOM     10  C   UNL A   1      33.286  19.664  24.280  1.00  0.00     0.001 A 
ATOM     11  C   UNL A   1      33.269  20.890  26.356  1.00  0.00     0.014 A 
ATOM     12  C   UNL A   1      33.059  19.703  25.650  1.00  0.00     0.001 A 
BRANCH   8  13
ATOM     13  C   UNL A   1      34.682  23.043  23.546  1.00  0.00     0.256 C 
ATOM     14  N   UNL A   1      35.904  23.591  23.845  1.00  0.00    -0.322 N 
ATOM     15  H   UNL A   1      36.108  24.408  23.338  1.00  0.00     0.170 HD
ATOM     16  O   UNL A   1      34.033  23.506  22.605  1.00  0.00    -0.269 OA
BRANCH  14  17
ATOM     17  C   UNL A   1      36.920  23.210  24.734  1.00  0.00     0.042 A 
ATOM     18  C   UNL A   1      38.415  21.455  25.461  1.00  0.00     0.041 A 
ATOM     19  C   UNL A   1      39.005  22.313  26.388  1.00  0.00     0.014 A 
ATOM     20  C   UNL A   1      37.364  21.888  24.651  1.00  0.00     0.040 A 
ATOM     21  C   UNL A   1      38.532  23.619  26.502  1.00  0.00     0.003 A 
ATOM     22  C   UNL A   1      37.481  24.061  25.690  1.00  0.00     0.026 A 
BRANCH  18  23
ATOM     23  C   UNL A   1      38.825  20.045  25.402  1.00  0.00     0.251 C 
ATOM     24  N   UNL A   1      40.098  19.686  25.753  1.00  0.00    -0.346 N 
ATOM     25  H   UNL A   1      40.357  18.767  25.512  1.00  0.00     0.164 HD
ATOM     26  O   UNL A   1      38.020  19.209  25.005  1.00  0.00    -0.269 OA
BRANCH  24  27
ATOM     27  C   UNL A   1      41.127  20.466  26.434  1.00  0.00     0.109 C 
ATOM     28  C   UNL A   1      41.067  20.119  27.927  1.00  0.00     0.036 C 
BRANCH  27  29
ATOM     29  C   UNL A   1      42.530  20.217  25.888  1.00  0.00    -0.026 A 
ATOM     30  C   UNL A   1      42.916  18.900  25.572  1.00  0.00     0.006 A 
ATOM     31  C   UNL A   1      43.465  21.243  25.674  1.00  0.00     0.006 A 
ATOM     32  C   UNL A   1      44.182  18.622  25.047  1.00  0.00     0.000 A 
ATOM     33  C   UNL A   1      44.735  20.962  25.152  1.00  0.00     0.000 A 
ATOM     34  C   UNL A   1      45.093  19.653  24.841  1.00  0.00     0.000 A 
ENDBRANCH  27  29
ENDBRANCH  24  27
ENDBRANCH  18  23
ENDBRANCH  14  17
ENDBRANCH   8  13
ENDBRANCH   4   7
ENDBRANCH   2   3
ENDBRANCH   1   2
BRANCH   1  35
ATOM     35  C   UNL A   1      30.731  26.648  24.771  1.00  0.00     0.002 C 
BRANCH  35  36
ATOM     36  C   UNL A   1      31.115  28.130  24.707  1.00  0.00     0.002 C 
BRANCH  36  37
ATOM     37  C   UNL A   1      31.731  28.740  25.961  1.00  0.00     0.021 C 
BRANCH  37  38
ATOM     38  C   UNL A   1      32.795  29.803  25.722  1.00  0.00     0.116 C 
BRANCH  38  39
ATOM     39  N   UNL A   1      32.482  31.098  26.308  1.00  0.00    -0.352 N 
ATOM     40  C   UNL A   1      33.184  31.846  27.220  1.00  0.00     0.251 C 
ATOM     41  H   UNL A   1      31.637  31.498  26.003  1.00  0.00     0.163 HD
ATOM     42  O   UNL A   1      32.718  32.908  27.623  1.00  0.00    -0.269 OA
BRANCH  40  43
ATOM     43  C   UNL A   1      34.473  31.358  27.763  1.00  0.00     0.039 A 
ATOM     44  C   UNL A   1      35.484  32.292  28.008  1.00  0.00     0.014 A 
ATOM     45  C   UNL A   1      34.692  30.009  28.049  1.00  0.00     0.014 A 
ATOM     46  C   UNL A   1      36.677  31.885  28.608  1.00  0.00     0.010 A 
ATOM     47  C   UNL A   1      35.843  29.617  28.728  1.00  0.00     0.010 A 
ATOM     48  C   UNL A   1      36.849  30.551  29.015  1.00  0.00    -0.014 A 
BRANCH  48  49
ATOM     49  C   UNL A   1      38.062  30.139  29.765  1.00  0.00     0.031 A 
ATOM     50  C   UNL A   1      38.285  30.590  31.179  1.00  0.00     0.074 A 
ATOM     51  C   UNL A   1      38.996  29.397  29.140  1.00  0.00     0.049 A 
ATOM     52  N   UNL A   1      39.270  30.305  31.993  1.00  0.00    -0.248 NA
ATOM     53  C   UNL A   1      37.289  31.512  31.745  1.00  0.00     0.031 C 
ATOM     54  C   UNL A   1      38.942  28.977  27.739  1.00  0.00     0.029 A 
ATOM     55  N   UNL A   1      40.176  28.867  29.600  1.00  0.00    -0.354 N 
ATOM     56  C   UNL A   1      39.019  31.021  33.157  1.00  0.00     0.074 A 
ATOM     57  C   UNL A   1      37.824  31.801  32.920  1.00  0.00     0.031 C 
ATOM     58  C   UNL A   1      40.020  28.226  27.463  1.00  0.00     0.029 A 
ATOM     59  C   UNL A   1      40.850  28.130  28.658  1.00  0.00     0.049 A 
ATOM     60  H   UNL A   1      40.507  29.002  30.518  1.00  0.00     0.167 HD
ATOM     61  C   UNL A   1      39.708  31.006  34.323  1.00  0.00     0.037 A 
ATOM     62  C   UNL A   1      42.004  27.442  28.752  1.00  0.00     0.037 A 
ATOM     63  C   UNL A   1      40.885  30.211  34.557  1.00  0.00     0.049 A 
ATOM     64  C   UNL A   1      42.719  27.390  30.072  1.00  0.00     0.074 A 
ATOM     65  C   UNL A   1      41.610  30.060  35.725  1.00  0.00     0.029 A 
ATOM     66  N   UNL A   1      41.516  29.436  33.593  1.00  0.00    -0.354 N 
ATOM     67  N   UNL A   1      42.415  27.984  31.201  1.00  0.00    -0.248 NA
ATOM     68  C   UNL A   1      43.926  26.556  30.138  1.00  0.00     0.031 C 
ATOM     69  C   UNL A   1      42.706  29.231  35.456  1.00  0.00     0.029 A 
ATOM     70  C   UNL A   1      42.635  28.822  34.135  1.00  0.00     0.049 A 
ATOM     71  H   UNL A   1      41.213  29.337  32.661  1.00  0.00     0.167 HD
ATOM     72  C   UNL A   1      43.378  27.582  32.115  1.00  0.00     0.074 A 
ATOM     73  C   UNL A   1      44.265  26.676  31.413  1.00  0.00     0.031 C 
ATOM     74  C   UNL A   1      43.514  27.931  33.419  1.00  0.00     0.037 A 
BRANCH  61  75
ATOM     75  C   UNL A   1      39.198  31.883  35.433  1.00  0.00     0.064 A 
ATOM     76  C   UNL A   1      38.347  31.388  36.435  1.00  0.00     0.173 A 
ATOM     77  C   UNL A   1      39.565  33.236  35.499  1.00  0.00     0.173 A 
ATOM     78  F   UNL A   1      37.957  30.105  36.415  1.00  0.00    -0.203 F 
ATOM     79  C   UNL A   1      37.848  32.223  37.431  1.00  0.00     0.198 A 
ATOM     80  C   UNL A   1      39.090  34.061  36.517  1.00  0.00     0.198 A 
ATOM     81  F   UNL A   1      40.381  33.762  34.573  1.00  0.00    -0.203 F 
ATOM     82  F   UNL A   1      36.983  31.741  38.335  1.00  0.00    -0.200 F 
ATOM     83  C   UNL A   1      38.222  33.556  37.474  1.00  0.00     0.200 A 
ATOM     84  F   UNL A   1      39.464  35.346  36.564  1.00  0.00    -0.200 F 
ATOM     85  F   UNL A   1      37.738  34.360  38.431  1.00  0.00    -0.200 F 
ENDBRANCH  61  75
BRANCH  62  86
ATOM     86  C   UNL A   1      42.508  26.701  27.567  1.00  0.00     0.064 A 
ATOM     87  C   UNL A   1      43.587  27.190  26.818  1.00  0.00     0.173 A 
ATOM     88  C   UNL A   1      41.954  25.470  27.190  1.00  0.00     0.173 A 
ATOM     89  F   UNL A   1      44.139  28.372  27.131  1.00  0.00    -0.203 F 
ATOM     90  C   UNL A   1      44.087  26.480  25.728  1.00  0.00     0.198 A 
ATOM     91  C   UNL A   1      42.471  24.748  26.116  1.00  0.00     0.198 A 
ATOM     92  F   UNL A   1      40.927  24.955  27.882  1.00  0.00    -0.203 F 
ATOM     93  F   UNL A   1      45.100  26.983  25.011  1.00  0.00    -0.200 F 
ATOM     94  C   UNL A   1      43.534  25.255  25.385  1.00  0.00     0.200 A 
ATOM     95  F   UNL A   1      41.946  23.557  25.797  1.00  0.00    -0.200 F 
ATOM     96  F   UNL A   1      44.026  24.564  24.347  1.00  0.00    -0.200 F 
ENDBRANCH  62  86
BRANCH  74  97
ATOM     97  C   UNL A   1      44.657  27.314  34.175  1.00  0.00     0.064 A 
ATOM     98  C   UNL A   1      45.904  27.948  34.271  1.00  0.00     0.173 A 
ATOM     99  C   UNL A   1      44.495  26.081  34.824  1.00  0.00     0.173 A 
ATOM    100  F   UNL A   1      46.115  29.121  33.655  1.00  0.00    -0.203 F 
ATOM    101  C   UNL A   1      46.958  27.353  34.960  1.00  0.00     0.198 A 
ATOM    102  C   UNL A   1      45.540  25.504  35.539  1.00  0.00     0.198 A 
ATOM    103  F   UNL A   1      43.319  25.436  34.769  1.00  0.00    -0.203 F 
ATOM    104  F   UNL A   1      48.157  27.950  34.991  1.00  0.00    -0.200 F 
ATOM    105  C   UNL A   1      46.773  26.136  35.598  1.00  0.00     0.200 A 
ATOM    106  F   UNL A   1      45.357  24.334  36.166  1.00  0.00    -0.200 F 
ATOM    107  F   UNL A   1      47.788  25.565  36.262  1.00  0.00    -0.200 F 
ENDBRANCH  74  97
ENDBRANCH  48  49
ENDBRANCH  40  43
ENDBRANCH  38  39
ENDBRANCH  37  38
ENDBRANCH  36  37
ENDBRANCH  35  36
ENDBRANCH   1  35
TORSDOF 18
ENDMDL
