MODEL 1
REMARK VINA RESULT:     -13.5      0.000      0.000
REMARK SMILES C[C@H](NC(=O)c1ccc(C(C)(C)C)cc1)C(=O)N[C@@H](C(=O)NCCCCCCNC(=O)c1ccc(-c2c3nc(c(-c4c(F)c(F)c(F)c(F)c4F)c4ccc([nH]4)c(-c4c(F)c(F)c(F)c(F)c4F)c4nc(c(-c5c(F)c(F)c(F)c(F)c5F)c5ccc2[nH]5)C=C4)C=C3)cc1)[C@H](C)O
REMARK SMILES IDX 24 1 23 2 22 3 20 4 21 5 19 7 18 8 16 9 17 10 2 12 1 13 3 14
REMARK SMILES IDX 4 15 5 17 6 18 7 19 15 20 8 21 14 22 9 23 10 24 11 25 12 26
REMARK SMILES IDX 13 27 95 28 96 29 97 30 25 32 26 33 27 34 28 35 29 36 30 37
REMARK SMILES IDX 31 39 32 40 33 41 94 42 34 43 93 44 35 45 36 46 37 47 87 48
REMARK SMILES IDX 38 49 92 50 86 51 88 52 39 53 91 54 85 55 84 56 40 58 72 59
REMARK SMILES IDX 52 60 71 61 53 62 56 63 70 64 89 65 54 66 55 67 69 69 90 70
REMARK SMILES IDX 57 71 41 72 42 73 50 74 43 75 44 76 48 77 51 78 45 79 46 80
REMARK SMILES IDX 49 81 47 82 73 83 74 84 82 85 75 86 76 87 80 88 83 89 77 90
REMARK SMILES IDX 78 91 81 92 79 93 58 94 59 95 67 96 60 97 61 98 65 99 68 100
REMARK SMILES IDX 62 101 63 102 66 103 64 104
REMARK H PARENT 22 6 18 11 3 16 97 31 29 38 88 57 56 68
REMARK Flexibility Score: inf
ROOT
ATOM      1  C   UNL A   1      34.082  29.244  26.555  1.00  0.00     0.021 C 
ENDROOT
BRANCH   1   2
ATOM      2  C   UNL A   1      32.629  29.118  27.072  1.00  0.00     0.116 C 
BRANCH   2   3
ATOM      3  N   UNL A   1      31.678  29.467  26.017  1.00  0.00    -0.354 N 
ATOM      4  C   UNL A   1      31.123  28.871  24.921  1.00  0.00     0.245 C 
ATOM      5  O   UNL A   1      30.617  29.709  24.152  1.00  0.00    -0.273 OA
ATOM      6  H   UNL A   1      31.344  30.387  26.129  1.00  0.00     0.163 HD
BRANCH   4   7
ATOM      7  C   UNL A   1      30.984  27.133  24.552  1.00  0.00     0.200 C 
BRANCH   7   8
ATOM      8  N   UNL A   1      31.021  25.476  25.820  1.00  0.00    -0.340 N 
ATOM      9  C   UNL A   1      31.577  24.253  26.318  1.00  0.00     0.243 C 
ATOM     10  O   UNL A   1      30.896  23.744  27.228  1.00  0.00    -0.273 OA
ATOM     11  H   UNL A   1      30.223  25.605  26.382  1.00  0.00     0.164 HD
BRANCH   9  12
ATOM     12  C   UNL A   1      32.981  23.562  26.003  1.00  0.00     0.168 C 
ATOM     13  C   UNL A   1      33.772  23.300  27.286  1.00  0.00     0.041 C 
BRANCH  12  14
ATOM     14  N   UNL A   1      33.891  24.086  24.992  1.00  0.00    -0.341 N 
ATOM     15  C   UNL A   1      34.253  23.306  23.950  1.00  0.00     0.251 C 
ATOM     16  H   UNL A   1      34.238  25.005  25.067  1.00  0.00     0.164 HD
ATOM     17  O   UNL A   1      34.715  23.667  22.887  1.00  0.00    -0.269 OA
BRANCH  15  18
ATOM     18  C   UNL A   1      34.180  21.923  24.353  1.00  0.00     0.039 A 
ATOM     19  C   UNL A   1      32.741  21.000  23.753  1.00  0.00     0.014 A 
ATOM     20  C   UNL A   1      35.644  21.017  24.918  1.00  0.00     0.014 A 
ATOM     21  C   UNL A   1      32.715  19.194  23.821  1.00  0.00     0.005 A 
ATOM     22  C   UNL A   1      35.627  19.200  24.889  1.00  0.00     0.005 A 
ATOM     23  C   UNL A   1      34.133  18.277  24.450  1.00  0.00    -0.043 A 
BRANCH  23  24
ATOM     24  C   UNL A   1      34.137  16.739  24.352  1.00  0.00    -0.013 C 
ATOM     25  C   UNL A   1      32.806  16.166  24.864  1.00  0.00     0.016 C 
ATOM     26  C   UNL A   1      34.308  16.276  22.892  1.00  0.00     0.016 C 
ATOM     27  C   UNL A   1      35.273  16.110  25.177  1.00  0.00     0.016 C 
ENDBRANCH  23  24
ENDBRANCH  15  18
ENDBRANCH  12  14
ENDBRANCH   9  12
ENDBRANCH   7   8
BRANCH   7  28
ATOM     28  C   UNL A   1      31.687  27.344  22.844  1.00  0.00     0.143 C 
ATOM     29  C   UNL A   1      33.075  27.862  22.395  1.00  0.00     0.041 C 
BRANCH  28  30
ATOM     30  O   UNL A   1      30.821  27.968  21.881  1.00  0.00    -0.391 OA
ATOM     31  H   UNL A   1      29.946  27.550  21.916  1.00  0.00     0.211 HD
ENDBRANCH  28  30
ENDBRANCH   7  28
ENDBRANCH   4   7
ENDBRANCH   2   3
ENDBRANCH   1   2
BRANCH   1  32
ATOM     32  C   UNL A   1      35.011  30.160  27.356  1.00  0.00     0.002 C 
BRANCH  32  33
ATOM     33  C   UNL A   1      34.309  31.242  28.183  1.00  0.00     0.002 C 
BRANCH  33  34
ATOM     34  C   UNL A   1      33.954  32.536  27.439  1.00  0.00     0.021 C 
BRANCH  34  35
ATOM     35  C   UNL A   1      32.519  33.032  27.614  1.00  0.00     0.116 C 
BRANCH  35  36
ATOM     36  N   UNL A   1      32.458  34.448  27.942  1.00  0.00    -0.352 N 
ATOM     37  C   UNL A   1      33.180  35.176  28.854  1.00  0.00     0.251 C 
ATOM     38  H   UNL A   1      31.793  34.965  27.431  1.00  0.00     0.163 HD
ATOM     39  O   UNL A   1      32.844  36.324  29.131  1.00  0.00    -0.269 OA
BRANCH  37  40
ATOM     40  C   UNL A   1      34.369  34.591  29.510  1.00  0.00     0.039 A 
ATOM     41  C   UNL A   1      35.621  34.733  28.901  1.00  0.00     0.014 A 
ATOM     42  C   UNL A   1      34.242  33.848  30.686  1.00  0.00     0.014 A 
ATOM     43  C   UNL A   1      36.755  34.172  29.497  1.00  0.00     0.010 A 
ATOM     44  C   UNL A   1      35.378  33.331  31.304  1.00  0.00     0.010 A 
ATOM     45  C   UNL A   1      36.643  33.482  30.713  1.00  0.00    -0.014 A 
BRANCH  45  46
ATOM     46  C   UNL A   1      37.818  32.864  31.377  1.00  0.00     0.031 A 
ATOM     47  C   UNL A   1      38.497  31.690  30.731  1.00  0.00     0.074 A 
ATOM     48  C   UNL A   1      38.210  33.290  32.592  1.00  0.00     0.049 A 
ATOM     49  N   UNL A   1      39.402  30.880  31.220  1.00  0.00    -0.248 NA
ATOM     50  C   UNL A   1      38.077  31.365  29.360  1.00  0.00     0.031 C 
ATOM     51  C   UNL A   1      37.622  34.410  33.326  1.00  0.00     0.029 A 
ATOM     52  N   UNL A   1      39.178  32.807  33.438  1.00  0.00    -0.354 N 
ATOM     53  C   UNL A   1      39.631  29.931  30.233  1.00  0.00     0.074 A 
ATOM     54  C   UNL A   1      38.754  30.250  29.126  1.00  0.00     0.031 C 
ATOM     55  C   UNL A   1      38.239  34.527  34.514  1.00  0.00     0.029 A 
ATOM     56  C   UNL A   1      39.235  33.466  34.642  1.00  0.00     0.049 A 
ATOM     57  H   UNL A   1      39.774  32.060  33.204  1.00  0.00     0.167 HD
ATOM     58  C   UNL A   1      40.501  28.893  30.247  1.00  0.00     0.037 A 
ATOM     59  C   UNL A   1      39.988  33.224  35.731  1.00  0.00     0.037 A 
ATOM     60  C   UNL A   1      41.400  28.607  31.332  1.00  0.00     0.049 A 
ATOM     61  C   UNL A   1      40.956  32.072  35.718  1.00  0.00     0.074 A 
ATOM     62  C   UNL A   1      42.353  27.608  31.425  1.00  0.00     0.029 A 
ATOM     63  N   UNL A   1      41.463  29.333  32.513  1.00  0.00    -0.354 N 
ATOM     64  N   UNL A   1      41.183  31.195  34.772  1.00  0.00    -0.248 NA
ATOM     65  C   UNL A   1      41.773  31.875  36.925  1.00  0.00     0.031 C 
ATOM     66  C   UNL A   1      42.974  27.712  32.673  1.00  0.00     0.029 A 
ATOM     67  C   UNL A   1      42.434  28.799  33.342  1.00  0.00     0.049 A 
ATOM     68  H   UNL A   1      40.899  30.111  32.729  1.00  0.00     0.167 HD
ATOM     69  C   UNL A   1      42.190  30.368  35.249  1.00  0.00     0.074 A 
ATOM     70  C   UNL A   1      42.530  30.845  36.573  1.00  0.00     0.031 C 
ATOM     71  C   UNL A   1      42.780  29.310  34.643  1.00  0.00     0.037 A 
BRANCH  58  72
ATOM     72  C   UNL A   1      40.517  27.986  29.052  1.00  0.00     0.064 A 
ATOM     73  C   UNL A   1      39.712  26.839  28.988  1.00  0.00     0.173 A 
ATOM     74  C   UNL A   1      41.323  28.286  27.944  1.00  0.00     0.173 A 
ATOM     75  F   UNL A   1      38.932  26.503  30.028  1.00  0.00    -0.203 F 
ATOM     76  C   UNL A   1      39.736  26.010  27.870  1.00  0.00     0.198 A 
ATOM     77  C   UNL A   1      41.323  27.468  26.816  1.00  0.00     0.198 A 
ATOM     78  F   UNL A   1      42.107  29.374  27.952  1.00  0.00    -0.203 F 
ATOM     79  F   UNL A   1      38.993  24.894  27.851  1.00  0.00    -0.200 F 
ATOM     80  C   UNL A   1      40.535  26.328  26.783  1.00  0.00     0.200 A 
ATOM     81  F   UNL A   1      42.088  27.784  25.762  1.00  0.00    -0.200 F 
ATOM     82  F   UNL A   1      40.553  25.531  25.706  1.00  0.00    -0.200 F 
ENDBRANCH  58  72
BRANCH  59  83
ATOM     83  C   UNL A   1      39.866  34.102  36.924  1.00  0.00     0.064 A 
ATOM     84  C   UNL A   1      39.012  33.757  37.982  1.00  0.00     0.173 A 
ATOM     85  C   UNL A   1      40.599  35.292  37.036  1.00  0.00     0.173 A 
ATOM     86  F   UNL A   1      38.275  32.639  37.908  1.00  0.00    -0.203 F 
ATOM     87  C   UNL A   1      38.886  34.577  39.100  1.00  0.00     0.198 A 
ATOM     88  C   UNL A   1      40.489  36.099  38.167  1.00  0.00     0.198 A 
ATOM     89  F   UNL A   1      41.431  35.663  36.053  1.00  0.00    -0.203 F 
ATOM     90  F   UNL A   1      38.035  34.244  40.080  1.00  0.00    -0.200 F 
ATOM     91  C   UNL A   1      39.628  35.745  39.195  1.00  0.00     0.200 A 
ATOM     92  F   UNL A   1      41.217  37.221  38.259  1.00  0.00    -0.200 F 
ATOM     93  F   UNL A   1      39.510  36.531  40.274  1.00  0.00    -0.200 F 
ENDBRANCH  59  83
BRANCH  71  94
ATOM     94  C   UNL A   1      43.896  28.628  35.373  1.00  0.00     0.064 A 
ATOM     95  C   UNL A   1      43.656  27.573  36.264  1.00  0.00     0.173 A 
ATOM     96  C   UNL A   1      45.228  28.984  35.113  1.00  0.00     0.173 A 
ATOM     97  F   UNL A   1      42.399  27.207  36.553  1.00  0.00    -0.203 F 
ATOM     98  C   UNL A   1      44.712  26.903  36.876  1.00  0.00     0.198 A 
ATOM     99  C   UNL A   1      46.282  28.298  35.710  1.00  0.00     0.198 A 
ATOM    100  F   UNL A   1      45.506  29.984  34.262  1.00  0.00    -0.203 F 
ATOM    101  F   UNL A   1      44.462  25.913  37.743  1.00  0.00    -0.200 F 
ATOM    102  C   UNL A   1      46.023  27.260  36.591  1.00  0.00     0.200 A 
ATOM    103  F   UNL A   1      47.547  28.636  35.426  1.00  0.00    -0.200 F 
ATOM    104  F   UNL A   1      47.037  26.603  37.170  1.00  0.00    -0.200 F 
ENDBRANCH  71  94
ENDBRANCH  45  46
ENDBRANCH  37  40
ENDBRANCH  35  36
ENDBRANCH  34  35
ENDBRANCH  33  34
ENDBRANCH  32  33
ENDBRANCH   1  32
TORSDOF 20
ENDMDL
MODEL 2
REMARK VINA RESULT:     -12.7      0.467      7.029
REMARK SMILES C[C@H](NC(=O)c1ccc(C(C)(C)C)cc1)C(=O)N[C@@H](C(=O)NCCCCCCNC(=O)c1ccc(-c2c3nc(c(-c4c(F)c(F)c(F)c(F)c4F)c4ccc([nH]4)c(-c4c(F)c(F)c(F)c(F)c4F)c4nc(c(-c5c(F)c(F)c(F)c(F)c5F)c5ccc2[nH]5)C=C4)C=C3)cc1)[C@H](C)O
REMARK SMILES IDX 24 1 23 2 22 3 20 4 21 5 19 7 18 8 16 9 17 10 2 12 1 13 3 14
REMARK SMILES IDX 4 15 5 17 6 18 7 19 15 20 8 21 14 22 9 23 10 24 11 25 12 26
REMARK SMILES IDX 13 27 95 28 96 29 97 30 25 32 26 33 27 34 28 35 29 36 30 37
REMARK SMILES IDX 31 39 32 40 33 41 94 42 34 43 93 44 35 45 36 46 37 47 87 48
REMARK SMILES IDX 38 49 92 50 86 51 88 52 39 53 91 54 85 55 84 56 40 58 72 59
REMARK SMILES IDX 52 60 71 61 53 62 56 63 70 64 89 65 54 66 55 67 69 69 90 70
REMARK SMILES IDX 57 71 41 72 42 73 50 74 43 75 44 76 48 77 51 78 45 79 46 80
REMARK SMILES IDX 49 81 47 82 73 83 74 84 82 85 75 86 76 87 80 88 83 89 77 90
REMARK SMILES IDX 78 91 81 92 79 93 58 94 59 95 67 96 60 97 61 98 65 99 68 100
REMARK SMILES IDX 62 101 63 102 66 103 64 104
REMARK H PARENT 22 6 18 11 3 16 97 31 29 38 88 57 56 68
REMARK Flexibility Score: inf
ROOT
ATOM      1  C   UNL A   1      33.945  29.797  26.349  1.00  0.00     0.021 C 
ENDROOT
BRANCH   1   2
ATOM      2  C   UNL A   1      32.600  29.112  26.688  1.00  0.00     0.116 C 
BRANCH   2   3
ATOM      3  N   UNL A   1      31.596  29.424  25.673  1.00  0.00    -0.354 N 
ATOM      4  C   UNL A   1      30.968  28.784  24.642  1.00  0.00     0.245 C 
ATOM      5  O   UNL A   1      30.432  29.591  23.861  1.00  0.00    -0.273 OA
ATOM      6  H   UNL A   1      31.283  30.355  25.755  1.00  0.00     0.163 HD
BRANCH   4   7
ATOM      7  C   UNL A   1      30.781  27.033  24.372  1.00  0.00     0.200 C 
BRANCH   7   8
ATOM      8  N   UNL A   1      30.891  25.440  25.715  1.00  0.00    -0.340 N 
ATOM      9  C   UNL A   1      31.486  24.252  26.252  1.00  0.00     0.243 C 
ATOM     10  O   UNL A   1      30.846  23.775  27.208  1.00  0.00    -0.273 OA
ATOM     11  H   UNL A   1      30.110  25.582  26.297  1.00  0.00     0.164 HD
BRANCH   9  12
ATOM     12  C   UNL A   1      32.892  23.571  25.922  1.00  0.00     0.168 C 
ATOM     13  C   UNL A   1      33.711  23.343  27.193  1.00  0.00     0.041 C 
BRANCH  12  14
ATOM     14  N   UNL A   1      33.775  24.085  24.883  1.00  0.00    -0.341 N 
ATOM     15  C   UNL A   1      34.125  23.290  23.847  1.00  0.00     0.251 C 
ATOM     16  H   UNL A   1      34.114  25.008  24.934  1.00  0.00     0.164 HD
ATOM     17  O   UNL A   1      34.561  23.636  22.769  1.00  0.00    -0.269 OA
BRANCH  15  18
ATOM     18  C   UNL A   1      34.074  21.914  24.277  1.00  0.00     0.039 A 
ATOM     19  C   UNL A   1      32.650  20.956  23.697  1.00  0.00     0.014 A 
ATOM     20  C   UNL A   1      35.553  21.043  24.857  1.00  0.00     0.014 A 
ATOM     21  C   UNL A   1      32.652  19.152  23.799  1.00  0.00     0.005 A 
ATOM     22  C   UNL A   1      35.565  19.225  24.863  1.00  0.00     0.005 A 
ATOM     23  C   UNL A   1      34.086  18.270  24.444  1.00  0.00    -0.043 A 
BRANCH  23  24
ATOM     24  C   UNL A   1      34.114  16.731  24.375  1.00  0.00    -0.013 C 
ATOM     25  C   UNL A   1      34.297  16.262  22.924  1.00  0.00     0.016 C 
ATOM     26  C   UNL A   1      35.287  16.160  25.196  1.00  0.00     0.016 C 
ATOM     27  C   UNL A   1      32.818  16.104  24.916  1.00  0.00     0.016 C 
ENDBRANCH  23  24
ENDBRANCH  15  18
ENDBRANCH  12  14
ENDBRANCH   9  12
ENDBRANCH   7   8
BRANCH   7  28
ATOM     28  C   UNL A   1      31.357  27.148  22.608  1.00  0.00     0.143 C 
ATOM     29  C   UNL A   1      31.711  26.026  21.601  1.00  0.00     0.041 C 
BRANCH  28  30
ATOM     30  O   UNL A   1      32.395  28.107  22.349  1.00  0.00    -0.391 OA
ATOM     31  H   UNL A   1      32.297  28.860  22.953  1.00  0.00     0.211 HD
ENDBRANCH  28  30
ENDBRANCH   7  28
ENDBRANCH   4   7
ENDBRANCH   2   3
ENDBRANCH   1   2
BRANCH   1  32
ATOM     32  C   UNL A   1      34.737  30.360  27.532  1.00  0.00     0.002 C 
BRANCH  32  33
ATOM     33  C   UNL A   1      34.080  31.538  28.258  1.00  0.00     0.002 C 
BRANCH  33  34
ATOM     34  C   UNL A   1      33.716  32.749  27.389  1.00  0.00     0.021 C 
BRANCH  34  35
ATOM     35  C   UNL A   1      32.386  33.427  27.716  1.00  0.00     0.116 C 
BRANCH  35  36
ATOM     36  N   UNL A   1      32.551  34.827  28.077  1.00  0.00    -0.352 N 
ATOM     37  C   UNL A   1      33.362  35.406  29.020  1.00  0.00     0.251 C 
ATOM     38  H   UNL A   1      31.992  35.457  27.566  1.00  0.00     0.163 HD
ATOM     39  O   UNL A   1      33.213  36.588  29.319  1.00  0.00    -0.269 OA
BRANCH  37  40
ATOM     40  C   UNL A   1      34.424  34.620  29.684  1.00  0.00     0.039 A 
ATOM     41  C   UNL A   1      35.711  34.615  29.135  1.00  0.00     0.014 A 
ATOM     42  C   UNL A   1      34.136  33.837  30.804  1.00  0.00     0.014 A 
ATOM     43  C   UNL A   1      36.725  33.864  29.739  1.00  0.00     0.010 A 
ATOM     44  C   UNL A   1      35.158  33.127  31.432  1.00  0.00     0.010 A 
ATOM     45  C   UNL A   1      36.458  33.129  30.903  1.00  0.00    -0.014 A 
BRANCH  45  46
ATOM     46  C   UNL A   1      37.501  32.312  31.571  1.00  0.00     0.031 A 
ATOM     47  C   UNL A   1      37.971  32.695  32.946  1.00  0.00     0.074 A 
ATOM     48  C   UNL A   1      38.090  31.296  30.912  1.00  0.00     0.049 A 
ATOM     49  N   UNL A   1      38.996  32.251  33.628  1.00  0.00    -0.248 NA
ATOM     50  C   UNL A   1      37.198  33.742  33.632  1.00  0.00     0.031 C 
ATOM     51  C   UNL A   1      37.732  30.837  29.570  1.00  0.00     0.029 A 
ATOM     52  N   UNL A   1      39.139  30.486  31.274  1.00  0.00    -0.354 N 
ATOM     53  C   UNL A   1      39.013  32.990  34.804  1.00  0.00     0.074 A 
ATOM     54  C   UNL A   1      37.912  33.926  34.733  1.00  0.00     0.031 C 
ATOM     55  C   UNL A   1      38.549  29.830  29.220  1.00  0.00     0.029 A 
ATOM     56  C   UNL A   1      39.512  29.601  30.292  1.00  0.00     0.049 A 
ATOM     57  H   UNL A   1      39.580  30.536  32.152  1.00  0.00     0.167 HD
ATOM     58  C   UNL A   1      39.866  32.888  35.851  1.00  0.00     0.037 A 
ATOM     59  C   UNL A   1      40.533  28.722  30.256  1.00  0.00     0.037 A 
ATOM     60  C   UNL A   1      40.932  31.926  35.934  1.00  0.00     0.049 A 
ATOM     61  C   UNL A   1      41.460  28.619  31.437  1.00  0.00     0.074 A 
ATOM     62  C   UNL A   1      41.822  31.710  36.971  1.00  0.00     0.029 A 
ATOM     63  N   UNL A   1      41.243  31.011  34.940  1.00  0.00    -0.354 N 
ATOM     64  N   UNL A   1      41.454  29.304  32.554  1.00  0.00    -0.248 NA
ATOM     65  C   UNL A   1      42.537  27.621  31.353  1.00  0.00     0.031 C 
ATOM     66  C   UNL A   1      42.691  30.681  36.593  1.00  0.00     0.029 A 
ATOM     67  C   UNL A   1      42.317  30.231  35.337  1.00  0.00     0.049 A 
ATOM     68  H   UNL A   1      40.772  30.928  34.079  1.00  0.00     0.167 HD
ATOM     69  C   UNL A   1      42.496  28.799  33.319  1.00  0.00     0.074 A 
ATOM     70  C   UNL A   1      43.117  27.750  32.538  1.00  0.00     0.031 C 
ATOM     71  C   UNL A   1      42.899  29.170  34.557  1.00  0.00     0.037 A 
BRANCH  58  72
ATOM     72  C   UNL A   1      39.683  33.847  36.990  1.00  0.00     0.064 A 
ATOM     73  C   UNL A   1      40.272  35.120  36.981  1.00  0.00     0.173 A 
ATOM     74  C   UNL A   1      38.882  33.501  38.089  1.00  0.00     0.173 A 
ATOM     75  F   UNL A   1      41.056  35.494  35.959  1.00  0.00    -0.203 F 
ATOM     76  C   UNL A   1      40.089  36.000  38.045  1.00  0.00     0.198 A 
ATOM     77  C   UNL A   1      38.679  34.394  39.137  1.00  0.00     0.198 A 
ATOM     78  F   UNL A   1      38.292  32.297  38.142  1.00  0.00    -0.203 F 
ATOM     79  F   UNL A   1      40.700  37.193  38.037  1.00  0.00    -0.200 F 
ATOM     80  C   UNL A   1      39.289  35.640  39.118  1.00  0.00     0.200 A 
ATOM     81  F   UNL A   1      37.896  34.048  40.168  1.00  0.00    -0.200 F 
ATOM     82  F   UNL A   1      39.110  36.490  40.138  1.00  0.00    -0.200 F 
ENDBRANCH  58  72
BRANCH  59  83
ATOM     83  C   UNL A   1      40.722  27.858  29.062  1.00  0.00     0.064 A 
ATOM     84  C   UNL A   1      39.959  26.693  28.894  1.00  0.00     0.173 A 
ATOM     85  C   UNL A   1      41.657  28.177  28.068  1.00  0.00     0.173 A 
ATOM     86  F   UNL A   1      39.068  26.337  29.831  1.00  0.00    -0.203 F 
ATOM     87  C   UNL A   1      40.135  25.873  27.782  1.00  0.00     0.198 A 
ATOM     88  C   UNL A   1      41.814  27.368  26.944  1.00  0.00     0.198 A 
ATOM     89  F   UNL A   1      42.408  29.283  28.181  1.00  0.00    -0.203 F 
ATOM     90  F   UNL A   1      39.420  24.746  27.664  1.00  0.00    -0.200 F 
ATOM     91  C   UNL A   1      41.058  26.214  26.805  1.00  0.00     0.200 A 
ATOM     92  F   UNL A   1      42.700  27.707  25.996  1.00  0.00    -0.200 F 
ATOM     93  F   UNL A   1      41.224  25.427  25.733  1.00  0.00    -0.200 F 
ENDBRANCH  59  83
BRANCH  71  94
ATOM     94  C   UNL A   1      44.026  28.403  35.178  1.00  0.00     0.064 A 
ATOM     95  C   UNL A   1      43.801  27.230  35.910  1.00  0.00     0.173 A 
ATOM     96  C   UNL A   1      45.353  28.808  34.967  1.00  0.00     0.173 A 
ATOM     97  F   UNL A   1      42.550  26.812  36.149  1.00  0.00    -0.203 F 
ATOM     98  C   UNL A   1      44.868  26.491  36.417  1.00  0.00     0.198 A 
ATOM     99  C   UNL A   1      46.417  28.055  35.456  1.00  0.00     0.198 A 
ATOM    100  F   UNL A   1      45.616  29.922  34.267  1.00  0.00    -0.203 F 
ATOM    101  F   UNL A   1      44.633  25.384  37.135  1.00  0.00    -0.200 F 
ATOM    102  C   UNL A   1      46.173  26.899  36.182  1.00  0.00     0.200 A 
ATOM    103  F   UNL A   1      47.677  28.445  35.220  1.00  0.00    -0.200 F 
ATOM    104  F   UNL A   1      47.198  26.178  36.657  1.00  0.00    -0.200 F 
ENDBRANCH  71  94
ENDBRANCH  45  46
ENDBRANCH  37  40
ENDBRANCH  35  36
ENDBRANCH  34  35
ENDBRANCH  33  34
ENDBRANCH  32  33
ENDBRANCH   1  32
TORSDOF 20
ENDMDL
MODEL 3
REMARK VINA RESULT:     -12.6      4.610     11.816
REMARK SMILES C[C@H](NC(=O)c1ccc(C(C)(C)C)cc1)C(=O)N[C@@H](C(=O)NCCCCCCNC(=O)c1ccc(-c2c3nc(c(-c4c(F)c(F)c(F)c(F)c4F)c4ccc([nH]4)c(-c4c(F)c(F)c(F)c(F)c4F)c4nc(c(-c5c(F)c(F)c(F)c(F)c5F)c5ccc2[nH]5)C=C4)C=C3)cc1)[C@H](C)O
REMARK SMILES IDX 24 1 23 2 22 3 20 4 21 5 19 7 18 8 16 9 17 10 2 12 1 13 3 14
REMARK SMILES IDX 4 15 5 17 6 18 7 19 15 20 8 21 14 22 9 23 10 24 11 25 12 26
REMARK SMILES IDX 13 27 95 28 96 29 97 30 25 32 26 33 27 34 28 35 29 36 30 37
REMARK SMILES IDX 31 39 32 40 33 41 94 42 34 43 93 44 35 45 36 46 37 47 87 48
REMARK SMILES IDX 38 49 92 50 86 51 88 52 39 53 91 54 85 55 84 56 40 58 72 59
REMARK SMILES IDX 52 60 71 61 53 62 56 63 70 64 89 65 54 66 55 67 69 69 90 70
REMARK SMILES IDX 57 71 41 72 42 73 50 74 43 75 44 76 48 77 51 78 45 79 46 80
REMARK SMILES IDX 49 81 47 82 73 83 74 84 82 85 75 86 76 87 80 88 83 89 77 90
REMARK SMILES IDX 78 91 81 92 79 93 58 94 59 95 67 96 60 97 61 98 65 99 68 100
REMARK SMILES IDX 62 101 63 102 66 103 64 104
REMARK H PARENT 22 6 18 11 3 16 97 31 29 38 88 57 56 68
REMARK Flexibility Score: inf
ROOT
ATOM      1  C   UNL A   1      34.695  33.659  32.363  1.00  0.00     0.021 C 
ENDROOT
BRANCH   1   2
ATOM      2  C   UNL A   1      35.640  32.775  33.210  1.00  0.00     0.116 C 
BRANCH   2   3
ATOM      3  N   UNL A   1      36.998  33.317  33.198  1.00  0.00    -0.354 N 
ATOM      4  C   UNL A   1      38.202  33.039  33.780  1.00  0.00     0.245 C 
ATOM      5  O   UNL A   1      38.981  34.006  33.703  1.00  0.00    -0.273 OA
ATOM      6  H   UNL A   1      37.063  34.099  32.602  1.00  0.00     0.163 HD
BRANCH   4   7
ATOM      7  C   UNL A   1      38.756  31.512  34.511  1.00  0.00     0.200 C 
BRANCH   7   8
ATOM      8  N   UNL A   1      39.068  29.637  33.648  1.00  0.00    -0.340 N 
ATOM      9  C   UNL A   1      39.865  28.494  33.314  1.00  0.00     0.243 C 
ATOM     10  O   UNL A   1      39.246  27.649  32.642  1.00  0.00    -0.273 OA
ATOM     11  H   UNL A   1      38.191  29.421  33.258  1.00  0.00     0.164 HD
BRANCH   9  12
ATOM     12  C   UNL A   1      41.328  28.085  33.807  1.00  0.00     0.168 C 
ATOM     13  C   UNL A   1      42.217  27.680  32.631  1.00  0.00     0.041 C 
BRANCH  12  14
ATOM     14  N   UNL A   1      41.540  27.145  34.900  1.00  0.00    -0.341 N 
ATOM     15  C   UNL A   1      42.084  27.577  36.059  1.00  0.00     0.251 C 
ATOM     16  H   UNL A   1      41.287  26.198  34.795  1.00  0.00     0.164 HD
ATOM     17  O   UNL A   1      42.032  27.035  37.144  1.00  0.00    -0.269 OA
BRANCH  15  18
ATOM     18  C   UNL A   1      42.918  28.722  35.785  1.00  0.00     0.039 A 
ATOM     19  C   UNL A   1      42.419  30.272  36.579  1.00  0.00     0.014 A 
ATOM     20  C   UNL A   1      44.618  28.540  35.182  1.00  0.00     0.014 A 
ATOM     21  C   UNL A   1      43.563  31.668  36.671  1.00  0.00     0.005 A 
ATOM     22  C   UNL A   1      45.777  29.927  35.371  1.00  0.00     0.005 A 
ATOM     23  C   UNL A   1      45.234  31.531  36.010  1.00  0.00    -0.043 A 
BRANCH  23  24
ATOM     24  C   UNL A   1      46.229  32.684  36.240  1.00  0.00    -0.013 C 
ATOM     25  C   UNL A   1      46.776  32.642  37.676  1.00  0.00     0.016 C 
ATOM     26  C   UNL A   1      47.434  32.578  35.284  1.00  0.00     0.016 C 
ATOM     27  C   UNL A   1      45.580  34.062  36.021  1.00  0.00     0.016 C 
ENDBRANCH  23  24
ENDBRANCH  15  18
ENDBRANCH  12  14
ENDBRANCH   9  12
ENDBRANCH   7   8
BRANCH   7  28
ATOM     28  C   UNL A   1      38.079  31.957  36.184  1.00  0.00     0.143 C 
ATOM     29  C   UNL A   1      38.701  32.811  37.315  1.00  0.00     0.041 C 
BRANCH  28  30
ATOM     30  O   UNL A   1      37.487  30.879  36.928  1.00  0.00    -0.391 OA
ATOM     31  H   UNL A   1      37.808  30.904  37.844  1.00  0.00     0.211 HD
ENDBRANCH  28  30
ENDBRANCH   7  28
ENDBRANCH   4   7
ENDBRANCH   2   3
ENDBRANCH   1   2
BRANCH   1  32
ATOM     32  C   UNL A   1      34.778  33.482  30.845  1.00  0.00     0.002 C 
BRANCH  32  33
ATOM     33  C   UNL A   1      33.922  34.452  30.025  1.00  0.00     0.002 C 
BRANCH  33  34
ATOM     34  C   UNL A   1      33.562  34.000  28.604  1.00  0.00     0.021 C 
BRANCH  34  35
ATOM     35  C   UNL A   1      34.456  32.914  28.005  1.00  0.00     0.116 C 
BRANCH  35  36
ATOM     36  N   UNL A   1      33.731  31.680  27.746  1.00  0.00    -0.352 N 
ATOM     37  C   UNL A   1      34.187  30.389  27.657  1.00  0.00     0.251 C 
ATOM     38  H   UNL A   1      32.761  31.788  27.612  1.00  0.00     0.163 HD
ATOM     39  O   UNL A   1      33.451  29.503  27.230  1.00  0.00    -0.269 OA
BRANCH  37  40
ATOM     40  C   UNL A   1      35.563  30.048  28.075  1.00  0.00     0.039 A 
ATOM     41  C   UNL A   1      35.800  29.689  29.408  1.00  0.00     0.014 A 
ATOM     42  C   UNL A   1      36.628  30.146  27.175  1.00  0.00     0.014 A 
ATOM     43  C   UNL A   1      37.098  29.379  29.826  1.00  0.00     0.010 A 
ATOM     44  C   UNL A   1      37.912  29.791  27.583  1.00  0.00     0.010 A 
ATOM     45  C   UNL A   1      38.160  29.411  28.911  1.00  0.00    -0.014 A 
BRANCH  45  46
ATOM     46  C   UNL A   1      39.554  29.098  29.314  1.00  0.00     0.031 A 
ATOM     47  C   UNL A   1      40.345  30.115  30.087  1.00  0.00     0.074 A 
ATOM     48  C   UNL A   1      40.135  27.954  28.906  1.00  0.00     0.049 A 
ATOM     49  N   UNL A   1      41.623  30.137  30.367  1.00  0.00    -0.248 NA
ATOM     50  C   UNL A   1      39.600  31.281  30.585  1.00  0.00     0.031 C 
ATOM     51  C   UNL A   1      39.477  26.896  28.141  1.00  0.00     0.029 A 
ATOM     52  N   UNL A   1      41.425  27.507  29.054  1.00  0.00    -0.354 N 
ATOM     53  C   UNL A   1      41.841  31.332  31.039  1.00  0.00     0.074 A 
ATOM     54  C   UNL A   1      40.569  32.020  31.104  1.00  0.00     0.031 C 
ATOM     55  C   UNL A   1      40.367  25.924  27.882  1.00  0.00     0.029 A 
ATOM     56  C   UNL A   1      41.666  26.309  28.427  1.00  0.00     0.049 A 
ATOM     57  H   UNL A   1      42.112  27.998  29.560  1.00  0.00     0.167 HD
ATOM     58  C   UNL A   1      42.997  31.807  31.562  1.00  0.00     0.037 A 
ATOM     59  C   UNL A   1      42.811  25.614  28.287  1.00  0.00     0.037 A 
ATOM     60  C   UNL A   1      44.248  31.098  31.531  1.00  0.00     0.049 A 
ATOM     61  C   UNL A   1      44.081  26.157  28.887  1.00  0.00     0.074 A 
ATOM     62  C   UNL A   1      45.465  31.471  32.074  1.00  0.00     0.029 A 
ATOM     63  N   UNL A   1      44.437  29.862  30.933  1.00  0.00    -0.354 N 
ATOM     64  N   UNL A   1      44.272  27.276  29.542  1.00  0.00    -0.248 NA
ATOM     65  C   UNL A   1      45.294  25.341  28.730  1.00  0.00     0.031 C 
ATOM     66  C   UNL A   1      46.399  30.472  31.779  1.00  0.00     0.029 A 
ATOM     67  C   UNL A   1      45.753  29.460  31.086  1.00  0.00     0.049 A 
ATOM     68  H   UNL A   1      43.739  29.346  30.466  1.00  0.00     0.167 HD
ATOM     69  C   UNL A   1      45.611  27.283  29.905  1.00  0.00     0.074 A 
ATOM     70  C   UNL A   1      46.189  26.056  29.396  1.00  0.00     0.031 C 
ATOM     71  C   UNL A   1      46.299  28.220  30.600  1.00  0.00     0.037 A 
BRANCH  58  72
ATOM     72  C   UNL A   1      42.962  33.161  32.207  1.00  0.00     0.064 A 
ATOM     73  C   UNL A   1      42.469  33.344  33.507  1.00  0.00     0.173 A 
ATOM     74  C   UNL A   1      43.459  34.284  31.528  1.00  0.00     0.173 A 
ATOM     75  F   UNL A   1      41.972  32.303  34.193  1.00  0.00    -0.203 F 
ATOM     76  C   UNL A   1      42.447  34.607  34.092  1.00  0.00     0.198 A 
ATOM     77  C   UNL A   1      43.461  35.540  32.128  1.00  0.00     0.198 A 
ATOM     78  F   UNL A   1      43.946  34.161  30.284  1.00  0.00    -0.203 F 
ATOM     79  F   UNL A   1      41.928  34.766  35.318  1.00  0.00    -0.200 F 
ATOM     80  C   UNL A   1      42.949  35.702  33.406  1.00  0.00     0.200 A 
ATOM     81  F   UNL A   1      43.957  36.596  31.466  1.00  0.00    -0.200 F 
ATOM     82  F   UNL A   1      42.931  36.916  33.973  1.00  0.00    -0.200 F 
ENDBRANCH  58  72
BRANCH  59  83
ATOM     83  C   UNL A   1      42.807  24.320  27.559  1.00  0.00     0.064 A 
ATOM     84  C   UNL A   1      43.104  24.268  26.189  1.00  0.00     0.173 A 
ATOM     85  C   UNL A   1      42.516  23.113  28.211  1.00  0.00     0.173 A 
ATOM     86  F   UNL A   1      43.367  25.400  25.519  1.00  0.00    -0.203 F 
ATOM     87  C   UNL A   1      43.095  23.060  25.497  1.00  0.00     0.198 A 
ATOM     88  C   UNL A   1      42.531  21.903  27.521  1.00  0.00     0.198 A 
ATOM     89  F   UNL A   1      42.229  23.109  29.521  1.00  0.00    -0.203 F 
ATOM     90  F   UNL A   1      43.345  23.043  24.180  1.00  0.00    -0.200 F 
ATOM     91  C   UNL A   1      42.814  21.877  26.164  1.00  0.00     0.200 A 
ATOM     92  F   UNL A   1      42.270  20.760  28.172  1.00  0.00    -0.200 F 
ATOM     93  F   UNL A   1      42.810  20.714  25.498  1.00  0.00    -0.200 F 
ENDBRANCH  59  83
BRANCH  71  94
ATOM     94  C   UNL A   1      47.738  27.937  30.908  1.00  0.00     0.064 A 
ATOM     95  C   UNL A   1      48.123  27.300  32.095  1.00  0.00     0.173 A 
ATOM     96  C   UNL A   1      48.732  28.238  29.965  1.00  0.00     0.173 A 
ATOM     97  F   UNL A   1      47.210  27.006  33.032  1.00  0.00    -0.203 F 
ATOM     98  C   UNL A   1      49.458  26.980  32.330  1.00  0.00     0.198 A 
ATOM     99  C   UNL A   1      50.062  27.897  30.194  1.00  0.00     0.198 A 
ATOM    100  F   UNL A   1      48.408  28.843  28.812  1.00  0.00    -0.203 F 
ATOM    101  F   UNL A   1      49.812  26.392  33.482  1.00  0.00    -0.200 F 
ATOM    102  C   UNL A   1      50.423  27.270  31.377  1.00  0.00     0.200 A 
ATOM    103  F   UNL A   1      50.991  28.168  29.268  1.00  0.00    -0.200 F 
ATOM    104  F   UNL A   1      51.705  26.947  31.599  1.00  0.00    -0.200 F 
ENDBRANCH  71  94
ENDBRANCH  45  46
ENDBRANCH  37  40
ENDBRANCH  35  36
ENDBRANCH  34  35
ENDBRANCH  33  34
ENDBRANCH  32  33
ENDBRANCH   1  32
TORSDOF 20
ENDMDL
