MODEL 1
REMARK VINA RESULT:     -12.8      0.000      0.000
REMARK SMILES C[C@@H](C(=O)NCCCCCCNC(=O)c1ccc(-c2c3nc(c(-c4c(F)c(F)c(F)c(F)c4F)c4ccc([nH]4)c(-c4c(F)c(F)c(F)c(F)c4F)c4nc(c(-c5c(F)c(F)c(F)c(F)c5F)c5ccc2[nH]5)C=C4)C=C3)cc1)c1ccc(C[C@H]2CCCC2=O)cc1F
REMARK SMILES IDX 8 1 7 2 6 3 5 4 3 5 4 6 2 8 1 9 78 10 79 11 90 12 80 13
REMARK SMILES IDX 89 14 91 15 81 16 82 17 83 18 84 19 87 20 85 21 86 22 88 23
REMARK SMILES IDX 9 24 10 25 11 26 12 27 13 28 14 30 15 31 16 32 77 33 17 34
REMARK SMILES IDX 76 35 18 36 19 37 20 38 70 39 21 40 75 41 69 42 71 43 22 44
REMARK SMILES IDX 74 45 68 46 67 47 23 49 55 50 35 51 54 52 36 53 39 54 53 55
REMARK SMILES IDX 72 56 37 57 38 58 52 60 73 61 40 62 24 63 25 64 33 65 26 66
REMARK SMILES IDX 27 67 31 68 34 69 28 70 29 71 32 72 30 73 56 74 57 75 65 76
REMARK SMILES IDX 58 77 59 78 63 79 66 80 60 81 61 82 64 83 62 84 41 85 42 86
REMARK SMILES IDX 50 87 43 88 44 89 48 90 51 91 45 92 46 93 49 94 47 95
REMARK H PARENT 5 7 12 29 71 48 39 59
REMARK Flexibility Score: inf
ROOT
ATOM      1  C   UNL A   1      32.623  30.037  27.203  1.00  0.00     0.002 C 
ENDROOT
BRANCH   1   2
ATOM      2  C   UNL A   1      32.443  28.515  27.298  1.00  0.00     0.021 C 
BRANCH   2   3
ATOM      3  C   UNL A   1      33.605  27.719  26.698  1.00  0.00     0.116 C 
BRANCH   3   4
ATOM      4  N   UNL A   1      33.978  28.278  25.417  1.00  0.00    -0.356 N 
ATOM      5  C   UNL A   1      33.555  27.946  24.164  1.00  0.00     0.227 C 
ATOM      6  O   UNL A   1      34.176  28.445  23.222  1.00  0.00    -0.274 OA
ATOM      7  H   UNL A   1      34.637  29.007  25.456  1.00  0.00     0.163 HD
BRANCH   5   8
ATOM      8  C   UNL A   1      32.334  27.027  23.974  1.00  0.00     0.108 C 
ATOM      9  C   UNL A   1      32.670  25.741  23.209  1.00  0.00     0.023 C 
BRANCH   8  10
ATOM     10  C   UNL A   1      31.203  27.789  23.297  1.00  0.00    -0.000 A 
ATOM     11  C   UNL A   1      31.451  28.896  22.475  1.00  0.00     0.008 A 
ATOM     12  C   UNL A   1      29.873  27.444  23.553  1.00  0.00     0.127 A 
ATOM     13  C   UNL A   1      30.399  29.615  21.912  1.00  0.00     0.004 A 
ATOM     14  C   UNL A   1      28.815  28.179  23.021  1.00  0.00     0.043 A 
ATOM     15  F   UNL A   1      29.595  26.393  24.338  1.00  0.00    -0.207 F 
ATOM     16  C   UNL A   1      29.069  29.288  22.205  1.00  0.00    -0.044 A 
BRANCH  16  17
ATOM     17  C   UNL A   1      27.944  30.137  21.668  1.00  0.00     0.047 C 
BRANCH  17  18
ATOM     18  C   UNL A   1      27.522  31.336  22.530  1.00  0.00     0.060 C 
ATOM     19  C   UNL A   1      28.044  31.351  23.971  1.00  0.00     0.012 C 
ATOM     20  C   UNL A   1      28.030  32.658  21.999  1.00  0.00     0.136 C 
ATOM     21  C   UNL A   1      29.270  32.256  23.977  1.00  0.00     0.009 C 
ATOM     22  C   UNL A   1      28.994  33.334  22.938  1.00  0.00     0.076 C 
ATOM     23  O   UNL A   1      27.688  33.134  20.923  1.00  0.00    -0.299 OA
ENDBRANCH  17  18
ENDBRANCH  16  17
ENDBRANCH   8  10
ENDBRANCH   5   8
ENDBRANCH   3   4
ENDBRANCH   2   3
ENDBRANCH   1   2
BRANCH   1  24
ATOM     24  C   UNL A   1      31.600  30.751  26.312  1.00  0.00     0.002 C 
BRANCH  24  25
ATOM     25  C   UNL A   1      31.467  32.253  26.570  1.00  0.00     0.021 C 
BRANCH  25  26
ATOM     26  C   UNL A   1      32.618  32.855  27.367  1.00  0.00     0.116 C 
BRANCH  26  27
ATOM     27  N   UNL A   1      32.391  34.259  27.676  1.00  0.00    -0.352 N 
ATOM     28  C   UNL A   1      32.982  35.041  28.634  1.00  0.00     0.251 C 
ATOM     29  H   UNL A   1      31.718  34.710  27.117  1.00  0.00     0.163 HD
ATOM     30  O   UNL A   1      32.525  36.150  28.902  1.00  0.00    -0.269 OA
BRANCH  28  31
ATOM     31  C   UNL A   1      34.164  34.536  29.362  1.00  0.00     0.039 A 
ATOM     32  C   UNL A   1      33.992  33.981  30.632  1.00  0.00     0.014 A 
ATOM     33  C   UNL A   1      35.436  34.605  28.788  1.00  0.00     0.014 A 
ATOM     34  C   UNL A   1      35.089  33.434  31.300  1.00  0.00     0.010 A 
ATOM     35  C   UNL A   1      36.513  33.994  29.422  1.00  0.00     0.010 A 
ATOM     36  C   UNL A   1      36.351  33.402  30.683  1.00  0.00    -0.014 A 
BRANCH  36  37
ATOM     37  C   UNL A   1      37.510  32.742  31.335  1.00  0.00     0.031 A 
ATOM     38  C   UNL A   1      38.198  31.588  30.663  1.00  0.00     0.074 A 
ATOM     39  C   UNL A   1      37.891  33.133  32.567  1.00  0.00     0.049 A 
ATOM     40  N   UNL A   1      39.166  30.827  31.110  1.00  0.00    -0.248 NA
ATOM     41  C   UNL A   1      37.718  31.222  29.321  1.00  0.00     0.031 C 
ATOM     42  C   UNL A   1      37.272  34.212  33.340  1.00  0.00     0.029 A 
ATOM     43  N   UNL A   1      38.880  32.659  33.392  1.00  0.00    -0.354 N 
ATOM     44  C   UNL A   1      39.398  29.888  30.113  1.00  0.00     0.074 A 
ATOM     45  C   UNL A   1      38.437  30.140  29.062  1.00  0.00     0.031 C 
ATOM     46  C   UNL A   1      37.905  34.328  34.517  1.00  0.00     0.029 A 
ATOM     47  C   UNL A   1      38.943  33.305  34.603  1.00  0.00     0.049 A 
ATOM     48  H   UNL A   1      39.487  31.927  33.141  1.00  0.00     0.167 HD
ATOM     49  C   UNL A   1      40.341  28.917  30.073  1.00  0.00     0.037 A 
ATOM     50  C   UNL A   1      39.738  33.086  35.669  1.00  0.00     0.037 A 
ATOM     51  C   UNL A   1      41.309  28.686  31.114  1.00  0.00     0.049 A 
ATOM     52  C   UNL A   1      40.764  31.987  35.604  1.00  0.00     0.074 A 
ATOM     53  C   UNL A   1      42.350  27.774  31.135  1.00  0.00     0.029 A 
ATOM     54  N   UNL A   1      41.349  29.368  32.320  1.00  0.00    -0.354 N 
ATOM     55  N   UNL A   1      41.026  31.156  34.626  1.00  0.00    -0.248 NA
ATOM     56  C   UNL A   1      41.607  31.796  36.793  1.00  0.00     0.031 C 
ATOM     57  C   UNL A   1      42.983  27.863  32.379  1.00  0.00     0.029 A 
ATOM     58  C   UNL A   1      42.377  28.873  33.109  1.00  0.00     0.049 A 
ATOM     59  H   UNL A   1      40.740  30.096  32.579  1.00  0.00     0.167 HD
ATOM     60  C   UNL A   1      42.079  30.365  35.067  1.00  0.00     0.074 A 
ATOM     61  C   UNL A   1      42.419  30.827  36.396  1.00  0.00     0.031 C 
ATOM     62  C   UNL A   1      42.708  29.348  34.429  1.00  0.00     0.037 A 
BRANCH  49  63
ATOM     63  C   UNL A   1      40.374  28.025  28.865  1.00  0.00     0.064 A 
ATOM     64  C   UNL A   1      41.123  28.352  27.724  1.00  0.00     0.173 A 
ATOM     65  C   UNL A   1      39.683  26.803  28.865  1.00  0.00     0.173 A 
ATOM     66  F   UNL A   1      41.794  29.512  27.668  1.00  0.00    -0.203 F 
ATOM     67  C   UNL A   1      41.156  27.504  26.620  1.00  0.00     0.198 A 
ATOM     68  C   UNL A   1      39.745  25.943  27.772  1.00  0.00     0.198 A 
ATOM     69  F   UNL A   1      38.956  26.436  29.931  1.00  0.00    -0.203 F 
ATOM     70  F   UNL A   1      41.839  27.862  25.524  1.00  0.00    -0.200 F 
ATOM     71  C   UNL A   1      40.474  26.297  26.648  1.00  0.00     0.200 A 
ATOM     72  F   UNL A   1      39.099  24.769  27.807  1.00  0.00    -0.200 F 
ATOM     73  F   UNL A   1      40.516  25.479  25.588  1.00  0.00    -0.200 F 
ENDBRANCH  49  63
BRANCH  50  74
ATOM     74  C   UNL A   1      39.599  33.929  36.886  1.00  0.00     0.064 A 
ATOM     75  C   UNL A   1      38.829  33.499  37.976  1.00  0.00     0.173 A 
ATOM     76  C   UNL A   1      40.219  35.183  36.981  1.00  0.00     0.173 A 
ATOM     77  F   UNL A   1      38.199  32.317  37.927  1.00  0.00    -0.203 F 
ATOM     78  C   UNL A   1      38.665  34.302  39.103  1.00  0.00     0.198 A 
ATOM     79  C   UNL A   1      40.081  35.972  38.122  1.00  0.00     0.198 A 
ATOM     80  F   UNL A   1      40.972  35.640  35.968  1.00  0.00    -0.203 F 
ATOM     81  F   UNL A   1      37.880  33.891  40.109  1.00  0.00    -0.200 F 
ATOM     82  C   UNL A   1      39.295  35.536  39.178  1.00  0.00     0.200 A 
ATOM     83  F   UNL A   1      40.706  37.155  38.195  1.00  0.00    -0.200 F 
ATOM     84  F   UNL A   1      39.139  36.307  40.262  1.00  0.00    -0.200 F 
ENDBRANCH  50  74
BRANCH  62  85
ATOM     85  C   UNL A   1      43.850  28.684  35.141  1.00  0.00     0.064 A 
ATOM     86  C   UNL A   1      43.654  27.562  35.960  1.00  0.00     0.173 A 
ATOM     87  C   UNL A   1      45.163  29.146  34.963  1.00  0.00     0.173 A 
ATOM     88  F   UNL A   1      42.418  27.090  36.178  1.00  0.00    -0.203 F 
ATOM     89  C   UNL A   1      44.729  26.942  36.592  1.00  0.00     0.198 A 
ATOM     90  C   UNL A   1      46.239  28.503  35.569  1.00  0.00     0.198 A 
ATOM     91  F   UNL A   1      45.405  30.211  34.184  1.00  0.00    -0.203 F 
ATOM     92  F   UNL A   1      44.515  25.899  37.407  1.00  0.00    -0.200 F 
ATOM     93  C   UNL A   1      46.021  27.406  36.388  1.00  0.00     0.200 A 
ATOM     94  F   UNL A   1      47.486  28.943  35.357  1.00  0.00    -0.200 F 
ATOM     95  F   UNL A   1      47.055  26.799  36.986  1.00  0.00    -0.200 F 
ENDBRANCH  62  85
ENDBRANCH  36  37
ENDBRANCH  28  31
ENDBRANCH  26  27
ENDBRANCH  25  26
ENDBRANCH  24  25
ENDBRANCH   1  24
TORSDOF 16
ENDMDL
MODEL 2
REMARK VINA RESULT:     -12.4      2.779      4.949
REMARK SMILES C[C@@H](C(=O)NCCCCCCNC(=O)c1ccc(-c2c3nc(c(-c4c(F)c(F)c(F)c(F)c4F)c4ccc([nH]4)c(-c4c(F)c(F)c(F)c(F)c4F)c4nc(c(-c5c(F)c(F)c(F)c(F)c5F)c5ccc2[nH]5)C=C4)C=C3)cc1)c1ccc(C[C@H]2CCCC2=O)cc1F
REMARK SMILES IDX 8 1 7 2 6 3 5 4 3 5 4 6 2 8 1 9 78 10 79 11 90 12 80 13
REMARK SMILES IDX 89 14 91 15 81 16 82 17 83 18 84 19 87 20 85 21 86 22 88 23
REMARK SMILES IDX 9 24 10 25 11 26 12 27 13 28 14 30 15 31 16 32 77 33 17 34
REMARK SMILES IDX 76 35 18 36 19 37 20 38 70 39 21 40 75 41 69 42 71 43 22 44
REMARK SMILES IDX 74 45 68 46 67 47 23 49 55 50 35 51 54 52 36 53 39 54 53 55
REMARK SMILES IDX 72 56 37 57 38 58 52 60 73 61 40 62 24 63 25 64 33 65 26 66
REMARK SMILES IDX 27 67 31 68 34 69 28 70 29 71 32 72 30 73 56 74 57 75 65 76
REMARK SMILES IDX 58 77 59 78 63 79 66 80 60 81 61 82 64 83 62 84 41 85 42 86
REMARK SMILES IDX 50 87 43 88 44 89 48 90 51 91 45 92 46 93 49 94 47 95
REMARK H PARENT 5 7 12 29 71 48 39 59
REMARK Flexibility Score: inf
ROOT
ATOM      1  C   UNL A   1      31.999  29.856  25.424  1.00  0.00     0.002 C 
ENDROOT
BRANCH   1   2
ATOM      2  C   UNL A   1      33.373  29.179  25.532  1.00  0.00     0.021 C 
BRANCH   2   3
ATOM      3  C   UNL A   1      33.396  27.744  25.000  1.00  0.00     0.116 C 
BRANCH   3   4
ATOM      4  N   UNL A   1      32.872  26.838  25.997  1.00  0.00    -0.356 N 
ATOM      5  C   UNL A   1      32.058  25.754  25.850  1.00  0.00     0.227 C 
ATOM      6  O   UNL A   1      31.598  25.265  26.884  1.00  0.00    -0.274 OA
ATOM      7  H   UNL A   1      33.145  27.032  26.922  1.00  0.00     0.163 HD
BRANCH   5   8
ATOM      8  C   UNL A   1      31.784  25.173  24.450  1.00  0.00     0.108 C 
ATOM      9  C   UNL A   1      30.305  25.253  24.051  1.00  0.00     0.023 C 
BRANCH   8  10
ATOM     10  C   UNL A   1      32.299  23.743  24.365  1.00  0.00    -0.000 A 
ATOM     11  C   UNL A   1      31.483  22.647  24.677  1.00  0.00     0.008 A 
ATOM     12  C   UNL A   1      33.638  23.496  24.050  1.00  0.00     0.127 A 
ATOM     13  C   UNL A   1      31.989  21.350  24.650  1.00  0.00     0.004 A 
ATOM     14  C   UNL A   1      34.161  22.204  24.053  1.00  0.00     0.043 A 
ATOM     15  F   UNL A   1      34.452  24.519  23.749  1.00  0.00    -0.207 F 
ATOM     16  C   UNL A   1      33.341  21.114  24.372  1.00  0.00    -0.044 A 
BRANCH  16  17
ATOM     17  C   UNL A   1      33.897  19.714  24.444  1.00  0.00     0.047 C 
BRANCH  17  18
ATOM     18  C   UNL A   1      32.937  18.578  24.061  1.00  0.00     0.060 C 
ATOM     19  C   UNL A   1      33.337  17.733  22.848  1.00  0.00     0.012 C 
ATOM     20  C   UNL A   1      32.796  17.529  25.141  1.00  0.00     0.136 C 
ATOM     21  C   UNL A   1      34.005  16.477  23.397  1.00  0.00     0.009 C 
ATOM     22  C   UNL A   1      33.302  16.177  24.713  1.00  0.00     0.076 C 
ATOM     23  O   UNL A   1      32.313  17.753  26.245  1.00  0.00    -0.299 OA
ENDBRANCH  17  18
ENDBRANCH  16  17
ENDBRANCH   8  10
ENDBRANCH   5   8
ENDBRANCH   3   4
ENDBRANCH   2   3
ENDBRANCH   1   2
BRANCH   1  24
ATOM     24  C   UNL A   1      31.518  30.543  26.707  1.00  0.00     0.002 C 
BRANCH  24  25
ATOM     25  C   UNL A   1      31.497  32.072  26.644  1.00  0.00     0.021 C 
BRANCH  25  26
ATOM     26  C   UNL A   1      32.700  32.740  27.300  1.00  0.00     0.116 C 
BRANCH  26  27
ATOM     27  N   UNL A   1      32.444  34.138  27.611  1.00  0.00    -0.352 N 
ATOM     28  C   UNL A   1      33.006  34.925  28.582  1.00  0.00     0.251 C 
ATOM     29  H   UNL A   1      31.770  34.580  27.046  1.00  0.00     0.163 HD
ATOM     30  O   UNL A   1      32.525  36.024  28.849  1.00  0.00    -0.269 OA
BRANCH  28  31
ATOM     31  C   UNL A   1      34.186  34.438  29.325  1.00  0.00     0.039 A 
ATOM     32  C   UNL A   1      34.001  33.832  30.569  1.00  0.00     0.014 A 
ATOM     33  C   UNL A   1      35.470  34.575  28.790  1.00  0.00     0.014 A 
ATOM     34  C   UNL A   1      35.100  33.302  31.248  1.00  0.00     0.010 A 
ATOM     35  C   UNL A   1      36.552  33.981  29.432  1.00  0.00     0.010 A 
ATOM     36  C   UNL A   1      36.378  33.339  30.666  1.00  0.00    -0.014 A 
BRANCH  36  37
ATOM     37  C   UNL A   1      37.544  32.699  31.327  1.00  0.00     0.031 A 
ATOM     38  C   UNL A   1      38.248  31.547  30.667  1.00  0.00     0.074 A 
ATOM     39  C   UNL A   1      37.917  33.105  32.556  1.00  0.00     0.049 A 
ATOM     40  N   UNL A   1      39.224  30.802  31.123  1.00  0.00    -0.248 NA
ATOM     41  C   UNL A   1      37.776  31.164  29.327  1.00  0.00     0.031 C 
ATOM     42  C   UNL A   1      37.283  34.183  33.319  1.00  0.00     0.029 A 
ATOM     43  N   UNL A   1      38.909  32.650  33.388  1.00  0.00    -0.354 N 
ATOM     44  C   UNL A   1      39.470  29.857  30.135  1.00  0.00     0.074 A 
ATOM     45  C   UNL A   1      38.508  30.088  29.079  1.00  0.00     0.031 C 
ATOM     46  C   UNL A   1      37.912  34.316  34.496  1.00  0.00     0.029 A 
ATOM     47  C   UNL A   1      38.961  33.307  34.594  1.00  0.00     0.049 A 
ATOM     48  H   UNL A   1      39.526  31.923  33.144  1.00  0.00     0.167 HD
ATOM     49  C   UNL A   1      40.424  28.897  30.105  1.00  0.00     0.037 A 
ATOM     50  C   UNL A   1      39.756  33.107  35.664  1.00  0.00     0.037 A 
ATOM     51  C   UNL A   1      41.392  28.687  31.151  1.00  0.00     0.049 A 
ATOM     52  C   UNL A   1      40.795  32.020  35.611  1.00  0.00     0.074 A 
ATOM     53  C   UNL A   1      42.444  27.788  31.183  1.00  0.00     0.029 A 
ATOM     54  N   UNL A   1      41.421  29.380  32.351  1.00  0.00    -0.354 N 
ATOM     55  N   UNL A   1      41.070  31.184  34.640  1.00  0.00    -0.248 NA
ATOM     56  C   UNL A   1      41.638  31.851  36.804  1.00  0.00     0.031 C 
ATOM     57  C   UNL A   1      43.073  27.896  32.427  1.00  0.00     0.029 A 
ATOM     58  C   UNL A   1      42.453  28.905  33.147  1.00  0.00     0.049 A 
ATOM     59  H   UNL A   1      40.802  30.103  32.602  1.00  0.00     0.167 HD
ATOM     60  C   UNL A   1      42.132  30.410  35.091  1.00  0.00     0.074 A 
ATOM     61  C   UNL A   1      42.462  30.888  36.417  1.00  0.00     0.031 C 
ATOM     62  C   UNL A   1      42.774  29.395  34.463  1.00  0.00     0.037 A 
BRANCH  49  63
ATOM     63  C   UNL A   1      40.471  27.995  28.905  1.00  0.00     0.064 A 
ATOM     64  C   UNL A   1      39.755  26.789  28.859  1.00  0.00     0.173 A 
ATOM     65  C   UNL A   1      41.205  28.364  27.768  1.00  0.00     0.173 A 
ATOM     66  F   UNL A   1      39.043  26.385  29.922  1.00  0.00    -0.203 F 
ATOM     67  C   UNL A   1      39.795  25.974  27.730  1.00  0.00     0.198 A 
ATOM     68  C   UNL A   1      41.217  27.562  26.630  1.00  0.00     0.198 A 
ATOM     69  F   UNL A   1      41.904  29.509  27.755  1.00  0.00    -0.203 F 
ATOM     70  F   UNL A   1      39.141  24.804  27.729  1.00  0.00    -0.200 F 
ATOM     71  C   UNL A   1      40.519  26.365  26.615  1.00  0.00     0.200 A 
ATOM     72  F   UNL A   1      41.905  27.949  25.546  1.00  0.00    -0.200 F 
ATOM     73  F   UNL A   1      40.548  25.583  25.527  1.00  0.00    -0.200 F 
ENDBRANCH  49  63
BRANCH  50  74
ATOM     74  C   UNL A   1      39.603  33.959  36.873  1.00  0.00     0.064 A 
ATOM     75  C   UNL A   1      38.811  33.543  37.952  1.00  0.00     0.173 A 
ATOM     76  C   UNL A   1      40.233  35.209  36.971  1.00  0.00     0.173 A 
ATOM     77  F   UNL A   1      38.171  32.366  37.899  1.00  0.00    -0.203 F 
ATOM     78  C   UNL A   1      38.634  34.355  39.071  1.00  0.00     0.198 A 
ATOM     79  C   UNL A   1      40.082  36.005  38.104  1.00  0.00     0.198 A 
ATOM     80  F   UNL A   1      41.007  35.652  35.968  1.00  0.00    -0.203 F 
ATOM     81  F   UNL A   1      37.829  33.956  40.065  1.00  0.00    -0.200 F 
ATOM     82  C   UNL A   1      39.275  35.583  39.149  1.00  0.00     0.200 A 
ATOM     83  F   UNL A   1      40.717  37.183  38.181  1.00  0.00    -0.200 F 
ATOM     84  F   UNL A   1      39.107  36.362  40.225  1.00  0.00    -0.200 F 
ENDBRANCH  50  74
BRANCH  62  85
ATOM     85  C   UNL A   1      43.922  28.751  35.185  1.00  0.00     0.064 A 
ATOM     86  C   UNL A   1      43.737  27.640  36.020  1.00  0.00     0.173 A 
ATOM     87  C   UNL A   1      45.231  29.222  34.999  1.00  0.00     0.173 A 
ATOM     88  F   UNL A   1      42.505  27.161  36.245  1.00  0.00    -0.203 F 
ATOM     89  C   UNL A   1      44.818  27.038  36.660  1.00  0.00     0.198 A 
ATOM     90  C   UNL A   1      46.313  28.597  35.613  1.00  0.00     0.198 A 
ATOM     91  F   UNL A   1      45.463  30.278  34.204  1.00  0.00    -0.203 F 
ATOM     92  F   UNL A   1      44.613  26.005  37.490  1.00  0.00    -0.200 F 
ATOM     93  C   UNL A   1      46.105  27.510  36.448  1.00  0.00     0.200 A 
ATOM     94  F   UNL A   1      47.557  29.045  35.394  1.00  0.00    -0.200 F 
ATOM     95  F   UNL A   1      47.145  26.921  37.054  1.00  0.00    -0.200 F 
ENDBRANCH  62  85
ENDBRANCH  36  37
ENDBRANCH  28  31
ENDBRANCH  26  27
ENDBRANCH  25  26
ENDBRANCH  24  25
ENDBRANCH   1  24
TORSDOF 16
ENDMDL
MODEL 3
REMARK VINA RESULT:     -12.3      1.249      2.403
REMARK SMILES C[C@@H](C(=O)NCCCCCCNC(=O)c1ccc(-c2c3nc(c(-c4c(F)c(F)c(F)c(F)c4F)c4ccc([nH]4)c(-c4c(F)c(F)c(F)c(F)c4F)c4nc(c(-c5c(F)c(F)c(F)c(F)c5F)c5ccc2[nH]5)C=C4)C=C3)cc1)c1ccc(C[C@H]2CCCC2=O)cc1F
REMARK SMILES IDX 8 1 7 2 6 3 5 4 3 5 4 6 2 8 1 9 78 10 79 11 90 12 80 13
REMARK SMILES IDX 89 14 91 15 81 16 82 17 83 18 84 19 87 20 85 21 86 22 88 23
REMARK SMILES IDX 9 24 10 25 11 26 12 27 13 28 14 30 15 31 16 32 77 33 17 34
REMARK SMILES IDX 76 35 18 36 19 37 20 38 70 39 21 40 75 41 69 42 71 43 22 44
REMARK SMILES IDX 74 45 68 46 67 47 23 49 55 50 35 51 54 52 36 53 39 54 53 55
REMARK SMILES IDX 72 56 37 57 38 58 52 60 73 61 40 62 24 63 25 64 33 65 26 66
REMARK SMILES IDX 27 67 31 68 34 69 28 70 29 71 32 72 30 73 56 74 57 75 65 76
REMARK SMILES IDX 58 77 59 78 63 79 66 80 60 81 61 82 64 83 62 84 41 85 42 86
REMARK SMILES IDX 50 87 43 88 44 89 48 90 51 91 45 92 46 93 49 94 47 95
REMARK H PARENT 5 7 12 29 71 48 39 59
REMARK Flexibility Score: inf
ROOT
ATOM      1  C   UNL A   1      32.372  29.704  26.337  1.00  0.00     0.002 C 
ENDROOT
BRANCH   1   2
ATOM      2  C   UNL A   1      31.812  28.517  27.134  1.00  0.00     0.021 C 
BRANCH   2   3
ATOM      3  C   UNL A   1      32.165  27.152  26.537  1.00  0.00     0.116 C 
BRANCH   3   4
ATOM      4  N   UNL A   1      31.204  26.160  26.966  1.00  0.00    -0.356 N 
ATOM      5  C   UNL A   1      30.486  25.266  26.229  1.00  0.00     0.227 C 
ATOM      6  O   UNL A   1      29.587  24.661  26.818  1.00  0.00    -0.274 OA
ATOM      7  H   UNL A   1      31.044  26.126  27.936  1.00  0.00     0.163 HD
BRANCH   5   8
ATOM      8  C   UNL A   1      30.837  25.019  24.750  1.00  0.00     0.108 C 
ATOM      9  C   UNL A   1      32.280  24.533  24.554  1.00  0.00     0.023 C 
BRANCH   8  10
ATOM     10  C   UNL A   1      30.563  26.270  23.928  1.00  0.00    -0.000 A 
ATOM     11  C   UNL A   1      31.591  26.959  23.271  1.00  0.00     0.008 A 
ATOM     12  C   UNL A   1      29.274  26.809  23.879  1.00  0.00     0.127 A 
ATOM     13  C   UNL A   1      31.328  28.135  22.573  1.00  0.00     0.004 A 
ATOM     14  C   UNL A   1      29.009  28.003  23.210  1.00  0.00     0.043 A 
ATOM     15  F   UNL A   1      28.263  26.181  24.498  1.00  0.00    -0.207 F 
ATOM     16  C   UNL A   1      30.043  28.690  22.561  1.00  0.00    -0.044 A 
BRANCH  16  17
ATOM     17  C   UNL A   1      29.795  30.016  21.885  1.00  0.00     0.047 C 
BRANCH  17  18
ATOM     18  C   UNL A   1      28.508  30.753  22.280  1.00  0.00     0.060 C 
ATOM     19  C   UNL A   1      28.606  31.686  23.492  1.00  0.00     0.012 C 
ATOM     20  C   UNL A   1      28.004  31.689  21.204  1.00  0.00     0.136 C 
ATOM     21  C   UNL A   1      28.797  33.094  22.939  1.00  0.00     0.009 C 
ATOM     22  C   UNL A   1      28.020  33.133  21.631  1.00  0.00     0.076 C 
ATOM     23  O   UNL A   1      27.616  31.313  20.104  1.00  0.00    -0.299 OA
ENDBRANCH  17  18
ENDBRANCH  16  17
ENDBRANCH   8  10
ENDBRANCH   5   8
ENDBRANCH   3   4
ENDBRANCH   2   3
ENDBRANCH   1   2
BRANCH   1  24
ATOM     24  C   UNL A   1      31.313  30.579  25.658  1.00  0.00     0.002 C 
BRANCH  24  25
ATOM     25  C   UNL A   1      31.240  32.015  26.180  1.00  0.00     0.021 C 
BRANCH  25  26
ATOM     26  C   UNL A   1      32.388  32.402  27.105  1.00  0.00     0.116 C 
BRANCH  26  27
ATOM     27  N   UNL A   1      32.314  33.798  27.509  1.00  0.00    -0.352 N 
ATOM     28  C   UNL A   1      33.073  34.474  28.429  1.00  0.00     0.251 C 
ATOM     29  H   UNL A   1      31.621  34.332  27.059  1.00  0.00     0.163 HD
ATOM     30  O   UNL A   1      32.742  35.596  28.806  1.00  0.00    -0.269 OA
BRANCH  28  31
ATOM     31  C   UNL A   1      34.285  33.838  28.985  1.00  0.00     0.039 A 
ATOM     32  C   UNL A   1      35.538  34.352  28.643  1.00  0.00     0.014 A 
ATOM     33  C   UNL A   1      34.182  32.742  29.845  1.00  0.00     0.014 A 
ATOM     34  C   UNL A   1      36.687  33.807  29.220  1.00  0.00     0.010 A 
ATOM     35  C   UNL A   1      35.320  32.250  30.475  1.00  0.00     0.010 A 
ATOM     36  C   UNL A   1      36.583  32.777  30.169  1.00  0.00    -0.014 A 
BRANCH  36  37
ATOM     37  C   UNL A   1      37.784  32.247  30.864  1.00  0.00     0.031 A 
ATOM     38  C   UNL A   1      38.608  31.164  30.228  1.00  0.00     0.074 A 
ATOM     39  C   UNL A   1      38.084  32.687  32.102  1.00  0.00     0.049 A 
ATOM     40  N   UNL A   1      39.635  30.512  30.712  1.00  0.00    -0.248 NA
ATOM     41  C   UNL A   1      38.210  30.738  28.876  1.00  0.00     0.031 C 
ATOM     42  C   UNL A   1      37.333  33.702  32.843  1.00  0.00     0.029 A 
ATOM     43  N   UNL A   1      39.091  32.325  32.962  1.00  0.00    -0.354 N 
ATOM     44  C   UNL A   1      39.994  29.593  29.735  1.00  0.00     0.074 A 
ATOM     45  C   UNL A   1      39.045  29.734  28.652  1.00  0.00     0.031 C 
ATOM     46  C   UNL A   1      37.914  33.894  34.037  1.00  0.00     0.029 A 
ATOM     47  C   UNL A   1      39.049  32.985  34.167  1.00  0.00     0.049 A 
ATOM     48  H   UNL A   1      39.777  31.658  32.738  1.00  0.00     0.167 HD
ATOM     49  C   UNL A   1      41.033  28.724  29.735  1.00  0.00     0.037 A 
ATOM     50  C   UNL A   1      39.829  32.860  35.258  1.00  0.00     0.037 A 
ATOM     51  C   UNL A   1      41.987  28.605  30.807  1.00  0.00     0.049 A 
ATOM     52  C   UNL A   1      40.964  31.872  35.238  1.00  0.00     0.074 A 
ATOM     53  C   UNL A   1      43.115  27.806  30.871  1.00  0.00     0.029 A 
ATOM     54  N   UNL A   1      41.919  29.299  32.005  1.00  0.00    -0.354 N 
ATOM     55  N   UNL A   1      41.341  31.064  34.278  1.00  0.00    -0.248 NA
ATOM     56  C   UNL A   1      41.785  31.782  36.454  1.00  0.00     0.031 C 
ATOM     57  C   UNL A   1      43.697  27.972  32.131  1.00  0.00     0.029 A 
ATOM     58  C   UNL A   1      42.968  28.920  32.830  1.00  0.00     0.049 A 
ATOM     59  H   UNL A   1      41.230  29.962  32.237  1.00  0.00     0.167 HD
ATOM     60  C   UNL A   1      42.456  30.391  34.760  1.00  0.00     0.074 A 
ATOM     61  C   UNL A   1      42.705  30.898  36.093  1.00  0.00     0.031 C 
ATOM     62  C   UNL A   1      43.206  29.439  34.153  1.00  0.00     0.037 A 
BRANCH  49  63
ATOM     63  C   UNL A   1      41.195  27.830  28.539  1.00  0.00     0.064 A 
ATOM     64  C   UNL A   1      40.450  26.650  28.393  1.00  0.00     0.173 A 
ATOM     65  C   UNL A   1      42.074  28.181  27.503  1.00  0.00     0.173 A 
ATOM     66  F   UNL A   1      39.602  26.263  29.358  1.00  0.00    -0.203 F 
ATOM     67  C   UNL A   1      40.600  25.841  27.269  1.00  0.00     0.198 A 
ATOM     68  C   UNL A   1      42.198  27.387  26.366  1.00  0.00     0.198 A 
ATOM     69  F   UNL A   1      42.807  29.301  27.588  1.00  0.00    -0.203 F 
ATOM     70  F   UNL A   1      39.913  24.694  27.175  1.00  0.00    -0.200 F 
ATOM     71  C   UNL A   1      41.467  26.214  26.253  1.00  0.00     0.200 A 
ATOM     72  F   UNL A   1      43.024  27.757  25.378  1.00  0.00    -0.200 F 
ATOM     73  F   UNL A   1      41.602  25.440  25.168  1.00  0.00    -0.200 F 
ENDBRANCH  49  63
BRANCH  50  74
ATOM     74  C   UNL A   1      39.565  33.695  36.460  1.00  0.00     0.064 A 
ATOM     75  C   UNL A   1      40.106  34.983  36.575  1.00  0.00     0.173 A 
ATOM     76  C   UNL A   1      38.782  33.220  37.523  1.00  0.00     0.173 A 
ATOM     77  F   UNL A   1      40.879  35.475  35.596  1.00  0.00    -0.203 F 
ATOM     78  C   UNL A   1      39.893  35.754  37.716  1.00  0.00     0.198 A 
ATOM     79  C   UNL A   1      38.543  34.004  38.649  1.00  0.00     0.198 A 
ATOM     80  F   UNL A   1      38.237  31.995  37.461  1.00  0.00    -0.203 F 
ATOM     81  F   UNL A   1      40.466  36.962  37.823  1.00  0.00    -0.200 F 
ATOM     82  C   UNL A   1      39.107  35.267  38.750  1.00  0.00     0.200 A 
ATOM     83  F   UNL A   1      37.769  33.535  39.638  1.00  0.00    -0.200 F 
ATOM     84  F   UNL A   1      38.901  36.009  39.846  1.00  0.00    -0.200 F 
ENDBRANCH  50  74
BRANCH  62  85
ATOM     85  C   UNL A   1      44.388  28.904  34.908  1.00  0.00     0.064 A 
ATOM     86  C   UNL A   1      45.646  29.522  34.841  1.00  0.00     0.173 A 
ATOM     87  C   UNL A   1      44.249  27.788  35.748  1.00  0.00     0.173 A 
ATOM     88  F   UNL A   1      45.837  30.581  34.042  1.00  0.00    -0.203 F 
ATOM     89  C   UNL A   1      46.725  29.028  35.570  1.00  0.00     0.198 A 
ATOM     90  C   UNL A   1      45.321  27.318  36.501  1.00  0.00     0.198 A 
ATOM     91  F   UNL A   1      43.065  27.165  35.853  1.00  0.00    -0.203 F 
ATOM     92  F   UNL A   1      47.929  29.606  35.456  1.00  0.00    -0.200 F 
ATOM     93  C   UNL A   1      46.559  27.934  36.407  1.00  0.00     0.200 A 
ATOM     94  F   UNL A   1      45.154  26.271  37.321  1.00  0.00    -0.200 F 
ATOM     95  F   UNL A   1      47.596  27.469  37.118  1.00  0.00    -0.200 F 
ENDBRANCH  62  85
ENDBRANCH  36  37
ENDBRANCH  28  31
ENDBRANCH  26  27
ENDBRANCH  25  26
ENDBRANCH  24  25
ENDBRANCH   1  24
TORSDOF 16
ENDMDL
