MODEL 1
REMARK VINA RESULT:     -10.9      0.000      0.000
REMARK SMILES O=C(NCCCCCCNC(=O)[C@H]1CCCCN1C(=O)CCl)c1ccc(-c2c3nc(c(-c4c(F)c(F)c(F)c(F)c4F)c4ccc([nH]4)c(-c4c(F)c(F)c(F)c(F)c4F)c4nc(c(-c5c(F)c(F)c(F)c(F)c5F)c5ccc2[nH]5)C=C4)C=C3)cc1
REMARK SMILES IDX 6 1 5 2 4 3 3 4 1 5 2 6 23 8 24 9 85 10 25 11 84 12 26 13
REMARK SMILES IDX 27 14 28 15 78 16 29 17 83 18 77 19 79 20 30 21 82 22 76 23
REMARK SMILES IDX 75 24 31 26 63 27 43 28 62 29 44 30 47 31 61 32 80 33 45 34
REMARK SMILES IDX 46 35 60 37 81 38 48 39 32 40 33 41 41 42 34 43 35 44 39 45
REMARK SMILES IDX 42 46 36 47 37 48 40 49 38 50 64 51 65 52 73 53 66 54 67 55
REMARK SMILES IDX 71 56 74 57 68 58 69 59 72 60 70 61 49 62 50 63 58 64 51 65
REMARK SMILES IDX 52 66 56 67 59 68 53 69 54 70 57 71 55 72 7 73 8 74 9 75
REMARK SMILES IDX 10 76 11 77 12 79 13 80 14 81 18 82 15 83 17 84 16 85 19 86
REMARK SMILES IDX 20 87 21 88 22 89
REMARK H PARENT 3 7 79 25 47 36 10 78
REMARK Flexibility Score: inf
ROOT
ATOM      1  C   UNL A   1      31.546  30.741  26.350  1.00  0.00     0.002 C 
ENDROOT
BRANCH   1   2
ATOM      2  C   UNL A   1      31.393  32.196  26.792  1.00  0.00     0.021 C 
BRANCH   2   3
ATOM      3  C   UNL A   1      32.714  32.892  27.082  1.00  0.00     0.116 C 
BRANCH   3   4
ATOM      4  N   UNL A   1      32.513  34.227  27.625  1.00  0.00    -0.352 N 
ATOM      5  O   UNL A   1      32.646  35.844  29.198  1.00  0.00    -0.269 OA
ATOM      6  C   UNL A   1      33.087  34.798  28.733  1.00  0.00     0.251 C 
ATOM      7  H   UNL A   1      31.880  34.797  27.131  1.00  0.00     0.163 HD
BRANCH   6   8
ATOM      8  C   UNL A   1      34.240  34.131  29.369  1.00  0.00     0.039 A 
ATOM      9  C   UNL A   1      34.031  33.185  30.376  1.00  0.00     0.014 A 
ATOM     10  C   UNL A   1      35.535  34.454  28.958  1.00  0.00     0.014 A 
ATOM     11  C   UNL A   1      35.116  32.663  31.064  1.00  0.00     0.010 A 
ATOM     12  C   UNL A   1      36.627  33.851  29.587  1.00  0.00     0.010 A 
ATOM     13  C   UNL A   1      36.425  32.966  30.658  1.00  0.00    -0.014 A 
BRANCH  13  14
ATOM     14  C   UNL A   1      37.562  32.271  31.312  1.00  0.00     0.031 A 
ATOM     15  C   UNL A   1      38.294  31.155  30.626  1.00  0.00     0.074 A 
ATOM     16  C   UNL A   1      37.936  32.680  32.540  1.00  0.00     0.049 A 
ATOM     17  N   UNL A   1      39.305  30.444  31.062  1.00  0.00    -0.248 NA
ATOM     18  C   UNL A   1      37.833  30.779  29.282  1.00  0.00     0.031 C 
ATOM     19  C   UNL A   1      37.287  33.750  33.304  1.00  0.00     0.029 A 
ATOM     20  N   UNL A   1      38.952  32.261  33.358  1.00  0.00    -0.354 N 
ATOM     21  C   UNL A   1      39.590  29.530  30.057  1.00  0.00     0.074 A 
ATOM     22  C   UNL A   1      38.627  29.755  28.999  1.00  0.00     0.031 C 
ATOM     23  C   UNL A   1      37.945  33.930  34.456  1.00  0.00     0.029 A 
ATOM     24  C   UNL A   1      39.012  32.942  34.547  1.00  0.00     0.049 A 
ATOM     25  H   UNL A   1      39.578  31.540  33.115  1.00  0.00     0.167 HD
ATOM     26  C   UNL A   1      40.571  28.595  30.024  1.00  0.00     0.037 A 
ATOM     27  C   UNL A   1      39.820  32.775  35.610  1.00  0.00     0.037 A 
ATOM     28  C   UNL A   1      41.525  28.385  31.084  1.00  0.00     0.049 A 
ATOM     29  C   UNL A   1      40.868  31.701  35.559  1.00  0.00     0.074 A 
ATOM     30  C   UNL A   1      42.576  27.486  31.132  1.00  0.00     0.029 A 
ATOM     31  N   UNL A   1      41.536  29.075  32.288  1.00  0.00    -0.354 N 
ATOM     32  N   UNL A   1      41.154  30.870  34.587  1.00  0.00    -0.248 NA
ATOM     33  C   UNL A   1      41.705  31.541  36.754  1.00  0.00     0.031 C 
ATOM     34  C   UNL A   1      43.186  27.591  32.386  1.00  0.00     0.029 A 
ATOM     35  C   UNL A   1      42.558  28.602  33.096  1.00  0.00     0.049 A 
ATOM     36  H   UNL A   1      40.911  29.795  32.532  1.00  0.00     0.167 HD
ATOM     37  C   UNL A   1      42.219  30.106  35.041  1.00  0.00     0.074 A 
ATOM     38  C   UNL A   1      42.540  30.587  36.369  1.00  0.00     0.031 C 
ATOM     39  C   UNL A   1      42.870  29.096  34.415  1.00  0.00     0.037 A 
BRANCH  26  40
ATOM     40  C   UNL A   1      40.654  27.708  28.812  1.00  0.00     0.064 A 
ATOM     41  C   UNL A   1      39.877  26.547  28.690  1.00  0.00     0.173 A 
ATOM     42  C   UNL A   1      41.482  28.058  27.734  1.00  0.00     0.173 A 
ATOM     43  F   UNL A   1      39.075  26.161  29.694  1.00  0.00    -0.203 F 
ATOM     44  C   UNL A   1      39.943  25.756  27.544  1.00  0.00     0.198 A 
ATOM     45  C   UNL A   1      41.523  27.282  26.578  1.00  0.00     0.198 A 
ATOM     46  F   UNL A   1      42.242  29.161  27.794  1.00  0.00    -0.203 F 
ATOM     47  F   UNL A   1      39.224  24.628  27.468  1.00  0.00    -0.200 F 
ATOM     48  C   UNL A   1      40.758  26.129  26.486  1.00  0.00     0.200 A 
ATOM     49  F   UNL A   1      42.299  27.653  25.550  1.00  0.00    -0.200 F 
ATOM     50  F   UNL A   1      40.812  25.374  25.380  1.00  0.00    -0.200 F 
ENDBRANCH  26  40
BRANCH  27  51
ATOM     51  C   UNL A   1      39.654  33.636  36.810  1.00  0.00     0.064 A 
ATOM     52  C   UNL A   1      38.825  33.248  37.870  1.00  0.00     0.173 A 
ATOM     53  C   UNL A   1      40.326  34.863  36.923  1.00  0.00     0.173 A 
ATOM     54  F   UNL A   1      38.151  32.090  37.802  1.00  0.00    -0.203 F 
ATOM     55  C   UNL A   1      38.655  34.063  38.986  1.00  0.00     0.198 A 
ATOM     56  C   UNL A   1      40.182  35.662  38.054  1.00  0.00     0.198 A 
ATOM     57  F   UNL A   1      41.139  35.278  35.940  1.00  0.00    -0.203 F 
ATOM     58  F   UNL A   1      37.816  33.691  39.963  1.00  0.00    -0.200 F 
ATOM     59  C   UNL A   1      39.339  35.267  39.081  1.00  0.00     0.200 A 
ATOM     60  F   UNL A   1      40.863  36.813  38.150  1.00  0.00    -0.200 F 
ATOM     61  F   UNL A   1      39.178  36.048  40.157  1.00  0.00    -0.200 F 
ENDBRANCH  27  51
BRANCH  39  62
ATOM     62  C   UNL A   1      44.026  28.472  35.143  1.00  0.00     0.064 A 
ATOM     63  C   UNL A   1      45.304  29.049  35.135  1.00  0.00     0.173 A 
ATOM     64  C   UNL A   1      43.843  27.293  35.883  1.00  0.00     0.173 A 
ATOM     65  F   UNL A   1      45.537  30.166  34.428  1.00  0.00    -0.203 F 
ATOM     66  C   UNL A   1      46.363  28.452  35.813  1.00  0.00     0.198 A 
ATOM     67  C   UNL A   1      44.895  26.719  36.590  1.00  0.00     0.198 A 
ATOM     68  F   UNL A   1      42.639  26.703  35.928  1.00  0.00    -0.203 F 
ATOM     69  F   UNL A   1      47.589  28.990  35.744  1.00  0.00    -0.200 F 
ATOM     70  C   UNL A   1      46.156  27.293  36.546  1.00  0.00     0.200 A 
ATOM     71  F   UNL A   1      44.689  25.608  37.310  1.00  0.00    -0.200 F 
ATOM     72  F   UNL A   1      47.175  26.724  37.206  1.00  0.00    -0.200 F 
ENDBRANCH  39  62
ENDBRANCH  13  14
ENDBRANCH   6   8
ENDBRANCH   3   4
ENDBRANCH   2   3
ENDBRANCH   1   2
BRANCH   1  73
ATOM     73  C   UNL A   1      32.598  29.948  27.133  1.00  0.00     0.002 C 
BRANCH  73  74
ATOM     74  C   UNL A   1      33.691  29.310  26.267  1.00  0.00     0.021 C 
BRANCH  74  75
ATOM     75  C   UNL A   1      33.657  27.781  26.271  1.00  0.00     0.116 C 
BRANCH  75  76
ATOM     76  N   UNL A   1      32.375  27.287  26.719  1.00  0.00    -0.354 N 
ATOM     77  C   UNL A   1      31.338  26.747  26.018  1.00  0.00     0.242 C 
ATOM     78  H   UNL A   1      32.226  27.351  27.691  1.00  0.00     0.163 HD
ATOM     79  O   UNL A   1      30.386  26.331  26.688  1.00  0.00    -0.273 OA
BRANCH  77  80
ATOM     80  C   UNL A   1      31.431  26.508  24.484  1.00  0.00     0.174 C 
ATOM     81  C   UNL A   1      30.201  25.740  23.963  1.00  0.00     0.035 C 
ATOM     82  N   UNL A   1      31.607  27.726  23.666  1.00  0.00    -0.330 N 
ATOM     83  C   UNL A   1      28.955  26.630  23.903  1.00  0.00     0.004 C 
ATOM     84  C   UNL A   1      30.457  28.633  23.666  1.00  0.00     0.120 C 
ATOM     85  C   UNL A   1      29.225  27.918  23.123  1.00  0.00     0.022 C 
BRANCH  82  86
ATOM     86  C   UNL A   1      32.705  27.813  22.815  1.00  0.00     0.238 C 
ATOM     87  O   UNL A   1      33.175  28.902  22.473  1.00  0.00    -0.273 OA
BRANCH  86  88
ATOM     88  C   UNL A   1      33.271  26.541  22.213  1.00  0.00     0.209 C 
ATOM     89  Cl  UNL A   1      32.210  25.950  20.927  1.00  0.00    -0.116 Cl
ENDBRANCH  86  88
ENDBRANCH  82  86
ENDBRANCH  77  80
ENDBRANCH  75  76
ENDBRANCH  74  75
ENDBRANCH  73  74
ENDBRANCH   1  73
TORSDOF 15
ENDMDL
MODEL 2
REMARK VINA RESULT:     -10.8      1.278      7.744
REMARK SMILES O=C(NCCCCCCNC(=O)[C@H]1CCCCN1C(=O)CCl)c1ccc(-c2c3nc(c(-c4c(F)c(F)c(F)c(F)c4F)c4ccc([nH]4)c(-c4c(F)c(F)c(F)c(F)c4F)c4nc(c(-c5c(F)c(F)c(F)c(F)c5F)c5ccc2[nH]5)C=C4)C=C3)cc1
REMARK SMILES IDX 6 1 5 2 4 3 3 4 1 5 2 6 23 8 24 9 85 10 25 11 84 12 26 13
REMARK SMILES IDX 27 14 28 15 78 16 29 17 83 18 77 19 79 20 30 21 82 22 76 23
REMARK SMILES IDX 75 24 31 26 63 27 43 28 62 29 44 30 47 31 61 32 80 33 45 34
REMARK SMILES IDX 46 35 60 37 81 38 48 39 32 40 33 41 41 42 34 43 35 44 39 45
REMARK SMILES IDX 42 46 36 47 37 48 40 49 38 50 64 51 65 52 73 53 66 54 67 55
REMARK SMILES IDX 71 56 74 57 68 58 69 59 72 60 70 61 49 62 50 63 58 64 51 65
REMARK SMILES IDX 52 66 56 67 59 68 53 69 54 70 57 71 55 72 7 73 8 74 9 75
REMARK SMILES IDX 10 76 11 77 12 79 13 80 14 81 18 82 15 83 17 84 16 85 19 86
REMARK SMILES IDX 20 87 21 88 22 89
REMARK H PARENT 3 7 79 25 47 36 10 78
REMARK Flexibility Score: inf
ROOT
ATOM      1  C   UNL A   1      31.420  30.378  26.193  1.00  0.00     0.002 C 
ENDROOT
BRANCH   1   2
ATOM      2  C   UNL A   1      31.321  31.877  26.475  1.00  0.00     0.021 C 
BRANCH   2   3
ATOM      3  C   UNL A   1      32.642  32.515  26.877  1.00  0.00     0.116 C 
BRANCH   3   4
ATOM      4  N   UNL A   1      32.460  33.877  27.355  1.00  0.00    -0.352 N 
ATOM      5  O   UNL A   1      32.645  35.573  28.837  1.00  0.00    -0.269 OA
ATOM      6  C   UNL A   1      33.068  34.502  28.414  1.00  0.00     0.251 C 
ATOM      7  H   UNL A   1      31.813  34.423  26.852  1.00  0.00     0.163 HD
BRANCH   6   8
ATOM      8  C   UNL A   1      34.239  33.866  29.048  1.00  0.00     0.039 A 
ATOM      9  C   UNL A   1      34.061  32.794  29.927  1.00  0.00     0.014 A 
ATOM     10  C   UNL A   1      35.521  34.343  28.765  1.00  0.00     0.014 A 
ATOM     11  C   UNL A   1      35.148  32.289  30.625  1.00  0.00     0.010 A 
ATOM     12  C   UNL A   1      36.625  33.765  29.394  1.00  0.00     0.010 A 
ATOM     13  C   UNL A   1      36.445  32.747  30.344  1.00  0.00    -0.014 A 
BRANCH  13  14
ATOM     14  C   UNL A   1      37.601  32.079  30.991  1.00  0.00     0.031 A 
ATOM     15  C   UNL A   1      38.044  32.452  32.376  1.00  0.00     0.074 A 
ATOM     16  C   UNL A   1      38.241  31.110  30.308  1.00  0.00     0.049 A 
ATOM     17  N   UNL A   1      39.037  31.967  33.080  1.00  0.00    -0.248 NA
ATOM     18  C   UNL A   1      37.285  33.509  33.059  1.00  0.00     0.031 C 
ATOM     19  C   UNL A   1      37.900  30.674  28.951  1.00  0.00     0.029 A 
ATOM     20  N   UNL A   1      39.295  30.308  30.657  1.00  0.00    -0.354 N 
ATOM     21  C   UNL A   1      39.031  32.668  34.279  1.00  0.00     0.074 A 
ATOM     22  C   UNL A   1      37.955  33.633  34.197  1.00  0.00     0.031 C 
ATOM     23  C   UNL A   1      38.701  29.659  28.599  1.00  0.00     0.029 A 
ATOM     24  C   UNL A   1      39.658  29.423  29.672  1.00  0.00     0.049 A 
ATOM     25  H   UNL A   1      39.750  30.363  31.529  1.00  0.00     0.167 HD
ATOM     26  C   UNL A   1      39.849  32.511  35.349  1.00  0.00     0.037 A 
ATOM     27  C   UNL A   1      40.667  28.535  29.624  1.00  0.00     0.037 A 
ATOM     28  C   UNL A   1      40.914  31.542  35.418  1.00  0.00     0.049 A 
ATOM     29  C   UNL A   1      41.582  28.416  30.809  1.00  0.00     0.074 A 
ATOM     30  C   UNL A   1      41.777  31.282  36.469  1.00  0.00     0.029 A 
ATOM     31  N   UNL A   1      41.271  30.681  34.389  1.00  0.00    -0.354 N 
ATOM     32  N   UNL A   1      41.542  29.055  31.952  1.00  0.00    -0.248 NA
ATOM     33  C   UNL A   1      42.684  27.453  30.696  1.00  0.00     0.031 C 
ATOM     34  C   UNL A   1      42.691  30.309  36.056  1.00  0.00     0.029 A 
ATOM     35  C   UNL A   1      42.358  29.911  34.770  1.00  0.00     0.049 A 
ATOM     36  H   UNL A   1      40.818  30.626  33.516  1.00  0.00     0.167 HD
ATOM     37  C   UNL A   1      42.595  28.555  32.705  1.00  0.00     0.074 A 
ATOM     38  C   UNL A   1      43.242  27.545  31.894  1.00  0.00     0.031 C 
ATOM     39  C   UNL A   1      42.989  28.904  33.954  1.00  0.00     0.037 A 
BRANCH  26  40
ATOM     40  C   UNL A   1      39.642  33.418  36.530  1.00  0.00     0.064 A 
ATOM     41  C   UNL A   1      40.247  34.682  36.607  1.00  0.00     0.173 A 
ATOM     42  C   UNL A   1      38.781  33.041  37.572  1.00  0.00     0.173 A 
ATOM     43  F   UNL A   1      41.086  35.090  35.643  1.00  0.00    -0.203 F 
ATOM     44  C   UNL A   1      40.016  35.524  37.693  1.00  0.00     0.198 A 
ATOM     45  C   UNL A   1      38.528  33.897  38.641  1.00  0.00     0.198 A 
ATOM     46  F   UNL A   1      38.170  31.848  37.546  1.00  0.00    -0.203 F 
ATOM     47  F   UNL A   1      40.638  36.708  37.765  1.00  0.00    -0.200 F 
ATOM     48  C   UNL A   1      39.150  35.135  38.704  1.00  0.00     0.200 A 
ATOM     49  F   UNL A   1      37.678  33.526  39.609  1.00  0.00    -0.200 F 
ATOM     50  F   UNL A   1      38.919  35.950  39.742  1.00  0.00    -0.200 F 
ENDBRANCH  26  40
BRANCH  27  51
ATOM     51  C   UNL A   1      40.868  27.706  28.408  1.00  0.00     0.064 A 
ATOM     52  C   UNL A   1      41.668  28.156  27.350  1.00  0.00     0.173 A 
ATOM     53  C   UNL A   1      40.266  26.444  28.281  1.00  0.00     0.173 A 
ATOM     54  F   UNL A   1      42.252  29.361  27.418  1.00  0.00    -0.203 F 
ATOM     55  C   UNL A   1      41.840  27.387  26.201  1.00  0.00     0.198 A 
ATOM     56  C   UNL A   1      40.468  25.661  27.147  1.00  0.00     0.198 A 
ATOM     57  F   UNL A   1      39.498  25.962  29.269  1.00  0.00    -0.203 F 
ATOM     58  F   UNL A   1      42.570  27.863  25.183  1.00  0.00    -0.200 F 
ATOM     59  C   UNL A   1      41.246  26.137  26.103  1.00  0.00     0.200 A 
ATOM     60  F   UNL A   1      39.909  24.445  27.067  1.00  0.00    -0.200 F 
ATOM     61  F   UNL A   1      41.416  25.396  25.001  1.00  0.00    -0.200 F 
ENDBRANCH  27  51
BRANCH  39  62
ATOM     62  C   UNL A   1      44.152  28.153  34.537  1.00  0.00     0.064 A 
ATOM     63  C   UNL A   1      45.468  28.623  34.424  1.00  0.00     0.173 A 
ATOM     64  C   UNL A   1      43.939  26.959  35.243  1.00  0.00     0.173 A 
ATOM     65  F   UNL A   1      45.727  29.750  33.743  1.00  0.00    -0.203 F 
ATOM     66  C   UNL A   1      46.532  27.909  34.968  1.00  0.00     0.198 A 
ATOM     67  C   UNL A   1      45.001  26.266  35.818  1.00  0.00     0.198 A 
ATOM     68  F   UNL A   1      42.700  26.467  35.385  1.00  0.00    -0.203 F 
ATOM     69  F   UNL A   1      47.788  28.347  34.798  1.00  0.00    -0.200 F 
ATOM     70  C   UNL A   1      46.298  26.737  35.672  1.00  0.00     0.200 A 
ATOM     71  F   UNL A   1      44.771  25.142  36.510  1.00  0.00    -0.200 F 
ATOM     72  F   UNL A   1      47.322  26.055  36.202  1.00  0.00    -0.200 F 
ENDBRANCH  39  62
ENDBRANCH  13  14
ENDBRANCH   6   8
ENDBRANCH   3   4
ENDBRANCH   2   3
ENDBRANCH   1   2
BRANCH   1  73
ATOM     73  C   UNL A   1      32.370  29.620  27.126  1.00  0.00     0.002 C 
BRANCH  73  74
ATOM     74  C   UNL A   1      31.863  28.242  27.570  1.00  0.00     0.021 C 
BRANCH  74  75
ATOM     75  C   UNL A   1      31.450  27.340  26.406  1.00  0.00     0.116 C 
BRANCH  75  76
ATOM     76  N   UNL A   1      31.028  26.040  26.876  1.00  0.00    -0.354 N 
ATOM     77  C   UNL A   1      31.541  24.800  26.633  1.00  0.00     0.242 C 
ATOM     78  H   UNL A   1      30.242  26.051  27.468  1.00  0.00     0.163 HD
ATOM     79  O   UNL A   1      31.017  23.864  27.245  1.00  0.00    -0.273 OA
BRANCH  77  80
ATOM     80  C   UNL A   1      32.825  24.605  25.775  1.00  0.00     0.174 C 
ATOM     81  C   UNL A   1      33.592  23.338  26.198  1.00  0.00     0.035 C 
ATOM     82  N   UNL A   1      32.604  24.557  24.315  1.00  0.00    -0.330 N 
ATOM     83  C   UNL A   1      32.894  22.061  25.720  1.00  0.00     0.004 C 
ATOM     84  C   UNL A   1      31.862  23.384  23.847  1.00  0.00     0.120 C 
ATOM     85  C   UNL A   1      32.609  22.108  24.218  1.00  0.00     0.022 C 
BRANCH  82  86
ATOM     86  C   UNL A   1      33.280  25.463  23.502  1.00  0.00     0.238 C 
ATOM     87  O   UNL A   1      33.822  26.470  23.966  1.00  0.00    -0.273 OA
BRANCH  86  88
ATOM     88  C   UNL A   1      33.261  25.259  21.999  1.00  0.00     0.209 C 
ATOM     89  Cl  UNL A   1      31.786  25.951  21.309  1.00  0.00    -0.116 Cl
ENDBRANCH  86  88
ENDBRANCH  82  86
ENDBRANCH  77  80
ENDBRANCH  75  76
ENDBRANCH  74  75
ENDBRANCH  73  74
ENDBRANCH   1  73
TORSDOF 15
ENDMDL
MODEL 3
REMARK VINA RESULT:     -10.8      1.713      2.694
REMARK SMILES O=C(NCCCCCCNC(=O)[C@H]1CCCCN1C(=O)CCl)c1ccc(-c2c3nc(c(-c4c(F)c(F)c(F)c(F)c4F)c4ccc([nH]4)c(-c4c(F)c(F)c(F)c(F)c4F)c4nc(c(-c5c(F)c(F)c(F)c(F)c5F)c5ccc2[nH]5)C=C4)C=C3)cc1
REMARK SMILES IDX 6 1 5 2 4 3 3 4 1 5 2 6 23 8 24 9 85 10 25 11 84 12 26 13
REMARK SMILES IDX 27 14 28 15 78 16 29 17 83 18 77 19 79 20 30 21 82 22 76 23
REMARK SMILES IDX 75 24 31 26 63 27 43 28 62 29 44 30 47 31 61 32 80 33 45 34
REMARK SMILES IDX 46 35 60 37 81 38 48 39 32 40 33 41 41 42 34 43 35 44 39 45
REMARK SMILES IDX 42 46 36 47 37 48 40 49 38 50 64 51 65 52 73 53 66 54 67 55
REMARK SMILES IDX 71 56 74 57 68 58 69 59 72 60 70 61 49 62 50 63 58 64 51 65
REMARK SMILES IDX 52 66 56 67 59 68 53 69 54 70 57 71 55 72 7 73 8 74 9 75
REMARK SMILES IDX 10 76 11 77 12 79 13 80 14 81 18 82 15 83 17 84 16 85 19 86
REMARK SMILES IDX 20 87 21 88 22 89
REMARK H PARENT 3 7 79 25 47 36 10 78
REMARK Flexibility Score: inf
ROOT
ATOM      1  C   UNL A   1      31.426  30.445  25.953  1.00  0.00     0.002 C 
ENDROOT
BRANCH   1   2
ATOM      2  C   UNL A   1      31.272  31.866  26.496  1.00  0.00     0.021 C 
BRANCH   2   3
ATOM      3  C   UNL A   1      32.577  32.488  26.968  1.00  0.00     0.116 C 
BRANCH   3   4
ATOM      4  N   UNL A   1      32.394  33.866  27.398  1.00  0.00    -0.352 N 
ATOM      5  O   UNL A   1      32.593  35.619  28.810  1.00  0.00    -0.269 OA
ATOM      6  C   UNL A   1      33.017  34.535  28.420  1.00  0.00     0.251 C 
ATOM      7  H   UNL A   1      31.734  34.388  26.886  1.00  0.00     0.163 HD
BRANCH   6   8
ATOM      8  C   UNL A   1      34.203  33.931  29.057  1.00  0.00     0.039 A 
ATOM      9  C   UNL A   1      34.049  32.887  29.973  1.00  0.00     0.014 A 
ATOM     10  C   UNL A   1      35.476  34.411  28.739  1.00  0.00     0.014 A 
ATOM     11  C   UNL A   1      35.152  32.415  30.669  1.00  0.00     0.010 A 
ATOM     12  C   UNL A   1      36.595  33.866  29.370  1.00  0.00     0.010 A 
ATOM     13  C   UNL A   1      36.439  32.877  30.355  1.00  0.00    -0.014 A 
BRANCH  13  14
ATOM     14  C   UNL A   1      37.612  32.242  31.006  1.00  0.00     0.031 A 
ATOM     15  C   UNL A   1      38.406  31.172  30.314  1.00  0.00     0.074 A 
ATOM     16  C   UNL A   1      37.961  32.662  32.237  1.00  0.00     0.049 A 
ATOM     17  N   UNL A   1      39.454  30.516  30.747  1.00  0.00    -0.248 NA
ATOM     18  C   UNL A   1      37.968  30.781  28.967  1.00  0.00     0.031 C 
ATOM     19  C   UNL A   1      37.253  33.689  33.007  1.00  0.00     0.029 A 
ATOM     20  N   UNL A   1      38.998  32.295  33.054  1.00  0.00    -0.354 N 
ATOM     21  C   UNL A   1      39.790  29.626  29.736  1.00  0.00     0.074 A 
ATOM     22  C   UNL A   1      38.819  29.804  28.678  1.00  0.00     0.031 C 
ATOM     23  C   UNL A   1      37.898  33.898  34.162  1.00  0.00     0.029 A 
ATOM     24  C   UNL A   1      39.019  32.970  34.248  1.00  0.00     0.049 A 
ATOM     25  H   UNL A   1      39.663  31.611  32.808  1.00  0.00     0.167 HD
ATOM     26  C   UNL A   1      40.822  28.746  29.699  1.00  0.00     0.037 A 
ATOM     27  C   UNL A   1      39.833  32.841  35.312  1.00  0.00     0.037 A 
ATOM     28  C   UNL A   1      41.785  28.583  30.759  1.00  0.00     0.049 A 
ATOM     29  C   UNL A   1      40.939  31.827  35.255  1.00  0.00     0.074 A 
ATOM     30  C   UNL A   1      42.884  27.743  30.803  1.00  0.00     0.029 A 
ATOM     31  N   UNL A   1      41.756  29.264  31.968  1.00  0.00    -0.354 N 
ATOM     32  N   UNL A   1      41.272  31.020  34.278  1.00  0.00    -0.248 NA
ATOM     33  C   UNL A   1      41.782  31.705  36.451  1.00  0.00     0.031 C 
ATOM     34  C   UNL A   1      43.485  27.873  32.059  1.00  0.00     0.029 A 
ATOM     35  C   UNL A   1      42.802  28.843  32.775  1.00  0.00     0.049 A 
ATOM     36  H   UNL A   1      41.091  29.947  32.215  1.00  0.00     0.167 HD
ATOM     37  C   UNL A   1      42.377  30.312  34.729  1.00  0.00     0.074 A 
ATOM     38  C   UNL A   1      42.669  30.802  36.060  1.00  0.00     0.031 C 
ATOM     39  C   UNL A   1      43.084  29.344  34.097  1.00  0.00     0.037 A 
BRANCH  26  40
ATOM     40  C   UNL A   1      40.956  27.874  28.482  1.00  0.00     0.064 A 
ATOM     41  C   UNL A   1      40.305  26.635  28.383  1.00  0.00     0.173 A 
ATOM     42  C   UNL A   1      41.701  28.311  27.375  1.00  0.00     0.173 A 
ATOM     43  F   UNL A   1      39.587  26.165  29.414  1.00  0.00    -0.203 F 
ATOM     44  C   UNL A   1      40.413  25.856  27.232  1.00  0.00     0.198 A 
ATOM     45  C   UNL A   1      41.782  27.544  26.215  1.00  0.00     0.198 A 
ATOM     46  F   UNL A   1      42.338  29.490  27.411  1.00  0.00    -0.203 F 
ATOM     47  F   UNL A   1      39.818  24.657  27.179  1.00  0.00    -0.200 F 
ATOM     48  C   UNL A   1      41.144  26.315  26.147  1.00  0.00     0.200 A 
ATOM     49  F   UNL A   1      42.476  27.997  25.161  1.00  0.00    -0.200 F 
ATOM     50  F   UNL A   1      41.239  25.571  25.037  1.00  0.00    -0.200 F 
ENDBRANCH  26  40
BRANCH  27  51
ATOM     51  C   UNL A   1      39.618  33.683  36.517  1.00  0.00     0.064 A 
ATOM     52  C   UNL A   1      40.220  34.942  36.636  1.00  0.00     0.173 A 
ATOM     53  C   UNL A   1      38.800  33.248  37.572  1.00  0.00     0.173 A 
ATOM     54  F   UNL A   1      41.021  35.396  35.660  1.00  0.00    -0.203 F 
ATOM     55  C   UNL A   1      40.034  35.724  37.774  1.00  0.00     0.198 A 
ATOM     56  C   UNL A   1      38.587  34.045  38.693  1.00  0.00     0.198 A 
ATOM     57  F   UNL A   1      38.192  32.055  37.504  1.00  0.00    -0.203 F 
ATOM     58  F   UNL A   1      40.663  36.902  37.884  1.00  0.00    -0.200 F 
ATOM     59  C   UNL A   1      39.211  35.278  38.798  1.00  0.00     0.200 A 
ATOM     60  F   UNL A   1      37.774  33.619  39.670  1.00  0.00    -0.200 F 
ATOM     61  F   UNL A   1      39.029  36.032  39.890  1.00  0.00    -0.200 F 
ENDBRANCH  27  51
BRANCH  39  62
ATOM     62  C   UNL A   1      44.271  28.781  34.823  1.00  0.00     0.064 A 
ATOM     63  C   UNL A   1      44.172  27.637  35.629  1.00  0.00     0.173 A 
ATOM     64  C   UNL A   1      45.533  29.382  34.688  1.00  0.00     0.173 A 
ATOM     65  F   UNL A   1      42.985  27.036  35.806  1.00  0.00    -0.203 F 
ATOM     66  C   UNL A   1      45.285  27.134  36.297  1.00  0.00     0.198 A 
ATOM     67  C   UNL A   1      46.650  28.855  35.328  1.00  0.00     0.198 A 
ATOM     68  F   UNL A   1      45.684  30.475  33.927  1.00  0.00    -0.203 F 
ATOM     69  F   UNL A   1      45.155  26.074  37.107  1.00  0.00    -0.200 F 
ATOM     70  C   UNL A   1      46.524  27.737  36.140  1.00  0.00     0.200 A 
ATOM     71  F   UNL A   1      47.849  29.430  35.163  1.00  0.00    -0.200 F 
ATOM     72  F   UNL A   1      47.596  27.247  36.778  1.00  0.00    -0.200 F 
ENDBRANCH  39  62
ENDBRANCH  13  14
ENDBRANCH   6   8
ENDBRANCH   3   4
ENDBRANCH   2   3
ENDBRANCH   1   2
BRANCH   1  73
ATOM     73  C   UNL A   1      32.321  29.536  26.802  1.00  0.00     0.002 C 
BRANCH  73  74
ATOM     74  C   UNL A   1      31.654  28.232  27.259  1.00  0.00     0.021 C 
BRANCH  74  75
ATOM     75  C   UNL A   1      31.986  27.034  26.369  1.00  0.00     0.116 C 
BRANCH  75  76
ATOM     76  N   UNL A   1      31.363  25.827  26.864  1.00  0.00    -0.354 N 
ATOM     77  C   UNL A   1      31.614  24.517  26.577  1.00  0.00     0.242 C 
ATOM     78  H   UNL A   1      30.639  25.974  27.514  1.00  0.00     0.163 HD
ATOM     79  O   UNL A   1      30.970  23.685  27.223  1.00  0.00    -0.273 OA
BRANCH  77  80
ATOM     80  C   UNL A   1      32.771  24.102  25.622  1.00  0.00     0.174 C 
ATOM     81  C   UNL A   1      34.115  24.034  26.372  1.00  0.00     0.035 C 
ATOM     82  N   UNL A   1      32.567  22.828  24.903  1.00  0.00    -0.330 N 
ATOM     83  C   UNL A   1      34.206  22.795  27.269  1.00  0.00     0.004 C 
ATOM     84  C   UNL A   1      32.565  21.637  25.756  1.00  0.00     0.120 C 
ATOM     85  C   UNL A   1      33.895  21.516  26.490  1.00  0.00     0.022 C 
BRANCH  82  86
ATOM     86  C   UNL A   1      32.618  22.825  23.511  1.00  0.00     0.238 C 
ATOM     87  O   UNL A   1      31.849  22.135  22.836  1.00  0.00    -0.273 OA
BRANCH  86  88
ATOM     88  C   UNL A   1      33.713  23.609  22.814  1.00  0.00     0.209 C 
ATOM     89  Cl  UNL A   1      35.298  22.933  23.216  1.00  0.00    -0.116 Cl
ENDBRANCH  86  88
ENDBRANCH  82  86
ENDBRANCH  77  80
ENDBRANCH  75  76
ENDBRANCH  74  75
ENDBRANCH  73  74
ENDBRANCH   1  73
TORSDOF 15
ENDMDL
