MODEL 1
REMARK VINA RESULT:     -13.3      0.000      0.000
REMARK SMILES O=C(NCCCCCCNC(=O)[C@H]1Cc2c([nH]c3ccccc23)[C@H](c2c[nH]c3ccccc23)[NH2+]1)c1ccc(-c2c3nc(c(-c4c(F)c(F)c(F)c(F)c4F)c4ccc([nH]4)c(-c4c(F)c(F)c(F)c(F)c4F)c4nc(c(-c5c(F)c(F)c(F)c(F)c5F)c5ccc2[nH]5)C=C4)C=C3)cc1
REMARK SMILES IDX 6 1 5 2 4 3 3 4 1 5 2 6 35 8 36 9 97 10 37 11 96 12 38 13
REMARK SMILES IDX 39 14 40 15 90 16 41 17 95 18 89 19 91 20 42 21 94 22 88 23
REMARK SMILES IDX 87 24 43 26 75 27 55 28 74 29 56 30 59 31 73 32 92 33 57 34
REMARK SMILES IDX 58 35 72 37 93 38 60 39 44 40 45 41 53 42 46 43 47 44 51 45
REMARK SMILES IDX 54 46 48 47 49 48 52 49 50 50 76 51 77 52 85 53 78 54 79 55
REMARK SMILES IDX 83 56 86 57 80 58 81 59 84 60 82 61 61 62 62 63 70 64 63 65
REMARK SMILES IDX 64 66 68 67 71 68 65 69 66 70 69 71 67 72 7 73 8 74 9 75
REMARK SMILES IDX 10 76 11 77 12 79 13 80 14 81 34 82 15 83 24 84 16 87 23 88
REMARK SMILES IDX 17 89 18 90 22 91 19 93 21 94 20 95 25 96 26 97 33 98 27 99
REMARK SMILES IDX 28 100 32 101 29 103 31 104 30 105
REMARK H PARENT 3 7 91 25 59 36 10 78 34 85 34 86 17 92 27 102
REMARK Flexibility Score: inf
ROOT
ATOM      1  C   UNL A   1      33.825  27.302  23.121  1.00  0.00     0.002 C 
ENDROOT
BRANCH   1   2
ATOM      2  C   UNL A   1      33.303  28.633  23.659  1.00  0.00     0.021 C 
BRANCH   2   3
ATOM      3  C   UNL A   1      33.625  28.919  25.119  1.00  0.00     0.116 C 
BRANCH   3   4
ATOM      4  N   UNL A   1      32.937  30.088  25.642  1.00  0.00    -0.352 N 
ATOM      5  O   UNL A   1      32.510  31.757  27.106  1.00  0.00    -0.269 OA
ATOM      6  C   UNL A   1      33.264  30.864  26.730  1.00  0.00     0.251 C 
ATOM      7  H   UNL A   1      32.129  30.363  25.152  1.00  0.00     0.163 HD
BRANCH   6   8
ATOM      8  C   UNL A   1      34.518  30.600  27.470  1.00  0.00     0.039 A 
ATOM      9  C   UNL A   1      34.774  29.337  28.010  1.00  0.00     0.014 A 
ATOM     10  C   UNL A   1      35.451  31.629  27.626  1.00  0.00     0.014 A 
ATOM     11  C   UNL A   1      35.884  29.146  28.822  1.00  0.00     0.010 A 
ATOM     12  C   UNL A   1      36.616  31.409  28.370  1.00  0.00     0.010 A 
ATOM     13  C   UNL A   1      36.829  30.172  28.996  1.00  0.00    -0.014 A 
BRANCH  13  14
ATOM     14  C   UNL A   1      38.065  29.883  29.767  1.00  0.00     0.031 A 
ATOM     15  C   UNL A   1      38.268  30.417  31.157  1.00  0.00     0.074 A 
ATOM     16  C   UNL A   1      38.987  29.076  29.209  1.00  0.00     0.049 A 
ATOM     17  N   UNL A   1      39.265  30.204  31.981  1.00  0.00    -0.248 NA
ATOM     18  C   UNL A   1      37.230  31.311  31.692  1.00  0.00     0.031 C 
ATOM     19  C   UNL A   1      38.905  28.520  27.856  1.00  0.00     0.029 A 
ATOM     20  N   UNL A   1      40.155  28.562  29.708  1.00  0.00    -0.354 N 
ATOM     21  C   UNL A   1      38.979  30.940  33.125  1.00  0.00     0.074 A 
ATOM     22  C   UNL A   1      37.729  31.628  32.880  1.00  0.00     0.031 C 
ATOM     23  C   UNL A   1      39.945  27.698  27.654  1.00  0.00     0.029 A 
ATOM     24  C   UNL A   1      40.797  27.717  28.836  1.00  0.00     0.049 A 
ATOM     25  H   UNL A   1      40.501  28.778  30.605  1.00  0.00     0.167 HD
ATOM     26  C   UNL A   1      39.693  31.021  34.274  1.00  0.00     0.037 A 
ATOM     27  C   UNL A   1      41.952  27.039  28.967  1.00  0.00     0.037 A 
ATOM     28  C   UNL A   1      40.933  30.325  34.514  1.00  0.00     0.049 A 
ATOM     29  C   UNL A   1      42.719  27.154  30.252  1.00  0.00     0.074 A 
ATOM     30  C   UNL A   1      41.721  30.330  35.653  1.00  0.00     0.029 A 
ATOM     31  N   UNL A   1      41.565  29.496  33.598  1.00  0.00    -0.354 N 
ATOM     32  N   UNL A   1      42.421  27.831  31.335  1.00  0.00    -0.248 NA
ATOM     33  C   UNL A   1      43.984  26.413  30.333  1.00  0.00     0.031 C 
ATOM     34  C   UNL A   1      42.848  29.537  35.412  1.00  0.00     0.029 A 
ATOM     35  C   UNL A   1      42.741  28.999  34.141  1.00  0.00     0.049 A 
ATOM     36  H   UNL A   1      41.229  29.292  32.696  1.00  0.00     0.167 HD
ATOM     37  C   UNL A   1      43.458  27.596  32.225  1.00  0.00     0.074 A 
ATOM     38  C   UNL A   1      44.373  26.684  31.570  1.00  0.00     0.031 C 
ATOM     39  C   UNL A   1      43.642  28.099  33.469  1.00  0.00     0.037 A 
BRANCH  26  40
ATOM     40  C   UNL A   1      39.160  31.896  35.371  1.00  0.00     0.064 A 
ATOM     41  C   UNL A   1      38.382  31.372  36.413  1.00  0.00     0.173 A 
ATOM     42  C   UNL A   1      39.497  33.258  35.424  1.00  0.00     0.173 A 
ATOM     43  F   UNL A   1      38.025  30.079  36.405  1.00  0.00    -0.203 F 
ATOM     44  C   UNL A   1      37.952  32.181  37.462  1.00  0.00     0.198 A 
ATOM     45  C   UNL A   1      39.085  34.058  36.487  1.00  0.00     0.198 A 
ATOM     46  F   UNL A   1      40.246  33.807  34.456  1.00  0.00    -0.203 F 
ATOM     47  F   UNL A   1      37.188  31.664  38.435  1.00  0.00    -0.200 F 
ATOM     48  C   UNL A   1      38.311  33.520  37.504  1.00  0.00     0.200 A 
ATOM     49  F   UNL A   1      39.444  35.348  36.531  1.00  0.00    -0.200 F 
ATOM     50  F   UNL A   1      37.910  34.292  38.522  1.00  0.00    -0.200 F 
ENDBRANCH  26  40
BRANCH  27  51
ATOM     51  C   UNL A   1      42.449  26.201  27.847  1.00  0.00     0.064 A 
ATOM     52  C   UNL A   1      42.014  24.880  27.681  1.00  0.00     0.173 A 
ATOM     53  C   UNL A   1      43.370  26.708  26.917  1.00  0.00     0.173 A 
ATOM     54  F   UNL A   1      41.148  24.345  28.555  1.00  0.00    -0.203 F 
ATOM     55  C   UNL A   1      42.497  24.090  26.640  1.00  0.00     0.198 A 
ATOM     56  C   UNL A   1      43.827  25.929  25.858  1.00  0.00     0.198 A 
ATOM     57  F   UNL A   1      43.812  27.969  27.029  1.00  0.00    -0.203 F 
ATOM     58  F   UNL A   1      42.101  22.815  26.531  1.00  0.00    -0.200 F 
ATOM     59  C   UNL A   1      43.398  24.617  25.726  1.00  0.00     0.200 A 
ATOM     60  F   UNL A   1      44.682  26.447  24.968  1.00  0.00    -0.200 F 
ATOM     61  F   UNL A   1      43.856  23.858  24.721  1.00  0.00    -0.200 F 
ENDBRANCH  27  51
BRANCH  39  62
ATOM     62  C   UNL A   1      44.879  27.661  34.197  1.00  0.00     0.064 A 
ATOM     63  C   UNL A   1      44.876  26.529  35.026  1.00  0.00     0.173 A 
ATOM     64  C   UNL A   1      46.076  28.380  34.064  1.00  0.00     0.173 A 
ATOM     65  F   UNL A   1      43.749  25.822  35.197  1.00  0.00    -0.203 F 
ATOM     66  C   UNL A   1      46.019  26.152  35.723  1.00  0.00     0.198 A 
ATOM     67  C   UNL A   1      47.225  27.981  34.742  1.00  0.00     0.198 A 
ATOM     68  F   UNL A   1      46.131  29.466  33.281  1.00  0.00    -0.203 F 
ATOM     69  F   UNL A   1      45.979  25.101  36.555  1.00  0.00    -0.200 F 
ATOM     70  C   UNL A   1      47.193  26.876  35.577  1.00  0.00     0.200 A 
ATOM     71  F   UNL A   1      48.362  28.676  34.594  1.00  0.00    -0.200 F 
ATOM     72  F   UNL A   1      48.293  26.513  36.254  1.00  0.00    -0.200 F 
ENDBRANCH  39  62
ENDBRANCH  13  14
ENDBRANCH   6   8
ENDBRANCH   3   4
ENDBRANCH   2   3
ENDBRANCH   1   2
BRANCH   1  73
ATOM     73  C   UNL A   1      32.930  26.600  22.096  1.00  0.00     0.002 C 
BRANCH  73  74
ATOM     74  C   UNL A   1      31.418  26.729  22.314  1.00  0.00     0.021 C 
BRANCH  74  75
ATOM     75  C   UNL A   1      30.792  25.693  23.245  1.00  0.00     0.116 C 
BRANCH  75  76
ATOM     76  N   UNL A   1      30.820  26.102  24.634  1.00  0.00    -0.351 N 
ATOM     77  C   UNL A   1      31.597  25.645  25.660  1.00  0.00     0.278 C 
ATOM     78  H   UNL A   1      30.183  26.814  24.875  1.00  0.00     0.163 HD
ATOM     79  O   UNL A   1      31.402  26.139  26.773  1.00  0.00    -0.268 OA
BRANCH  77  80
ATOM     80  C   UNL A   1      32.606  24.505  25.411  1.00  0.00     0.277 C 
ATOM     81  C   UNL A   1      33.945  24.792  26.131  1.00  0.00     0.114 C 
ATOM     82  N   UNL A   1      32.026  23.216  25.883  1.00  0.00    -0.324 N 
ATOM     83  C   UNL A   1      34.831  23.608  25.973  1.00  0.00    -0.006 A 
ATOM     84  C   UNL A   1      32.828  22.032  25.558  1.00  0.00     0.264 C 
ATOM     85  H   UNL A   1      31.107  23.104  25.454  1.00  0.00     0.347 HD
ATOM     86  H   UNL A   1      31.988  23.269  26.900  1.00  0.00     0.347 HD
ATOM     87  C   UNL A   1      34.291  22.360  25.724  1.00  0.00     0.083 A 
ATOM     88  C   UNL A   1      36.243  23.485  26.002  1.00  0.00     0.003 A 
ATOM     89  N   UNL A   1      35.328  21.467  25.691  1.00  0.00    -0.353 N 
ATOM     90  C   UNL A   1      36.530  22.129  25.827  1.00  0.00     0.046 A 
ATOM     91  C   UNL A   1      37.310  24.390  26.156  1.00  0.00     0.010 A 
ATOM     92  H   UNL A   1      35.229  20.493  25.586  1.00  0.00     0.166 HD
ATOM     93  C   UNL A   1      37.839  21.633  25.807  1.00  0.00     0.026 A 
ATOM     94  C   UNL A   1      38.625  23.911  26.125  1.00  0.00     0.001 A 
ATOM     95  C   UNL A   1      38.882  22.552  25.957  1.00  0.00     0.002 A 
BRANCH  84  96
ATOM     96  C   UNL A   1      32.493  21.409  24.209  1.00  0.00     0.041 A 
ATOM     97  C   UNL A   1      32.054  22.166  23.125  1.00  0.00     0.093 A 
ATOM     98  C   UNL A   1      32.598  20.050  23.706  1.00  0.00     0.009 A 
ATOM     99  N   UNL A   1      31.820  21.346  22.061  1.00  0.00    -0.361 N 
ATOM    100  C   UNL A   1      32.152  20.055  22.378  1.00  0.00     0.046 A 
ATOM    101  C   UNL A   1      33.034  18.804  24.218  1.00  0.00     0.011 A 
ATOM    102  H   UNL A   1      31.464  21.639  21.192  1.00  0.00     0.166 HD
ATOM    103  C   UNL A   1      32.101  18.910  21.570  1.00  0.00     0.026 A 
ATOM    104  C   UNL A   1      32.994  17.649  23.424  1.00  0.00     0.001 A 
ATOM    105  C   UNL A   1      32.528  17.703  22.119  1.00  0.00     0.002 A 
ENDBRANCH  84  96
ENDBRANCH  77  80
ENDBRANCH  75  76
ENDBRANCH  74  75
ENDBRANCH  73  74
ENDBRANCH   1  73
TORSDOF 14
ENDMDL
MODEL 2
REMARK VINA RESULT:     -13.1      3.898      8.846
REMARK SMILES O=C(NCCCCCCNC(=O)[C@H]1Cc2c([nH]c3ccccc23)[C@H](c2c[nH]c3ccccc23)[NH2+]1)c1ccc(-c2c3nc(c(-c4c(F)c(F)c(F)c(F)c4F)c4ccc([nH]4)c(-c4c(F)c(F)c(F)c(F)c4F)c4nc(c(-c5c(F)c(F)c(F)c(F)c5F)c5ccc2[nH]5)C=C4)C=C3)cc1
REMARK SMILES IDX 6 1 5 2 4 3 3 4 1 5 2 6 35 8 36 9 97 10 37 11 96 12 38 13
REMARK SMILES IDX 39 14 40 15 90 16 41 17 95 18 89 19 91 20 42 21 94 22 88 23
REMARK SMILES IDX 87 24 43 26 75 27 55 28 74 29 56 30 59 31 73 32 92 33 57 34
REMARK SMILES IDX 58 35 72 37 93 38 60 39 44 40 45 41 53 42 46 43 47 44 51 45
REMARK SMILES IDX 54 46 48 47 49 48 52 49 50 50 76 51 77 52 85 53 78 54 79 55
REMARK SMILES IDX 83 56 86 57 80 58 81 59 84 60 82 61 61 62 62 63 70 64 63 65
REMARK SMILES IDX 64 66 68 67 71 68 65 69 66 70 69 71 67 72 7 73 8 74 9 75
REMARK SMILES IDX 10 76 11 77 12 79 13 80 14 81 34 82 15 83 24 84 16 87 23 88
REMARK SMILES IDX 17 89 18 90 22 91 19 93 21 94 20 95 25 96 26 97 33 98 27 99
REMARK SMILES IDX 28 100 32 101 29 103 31 104 30 105
REMARK H PARENT 3 7 91 25 59 36 10 78 34 85 34 86 17 92 27 102
REMARK Flexibility Score: inf
ROOT
ATOM      1  C   UNL A   1      33.977  24.257  26.107  1.00  0.00     0.002 C 
ENDROOT
BRANCH   1   2
ATOM      2  C   UNL A   1      35.124  23.260  26.272  1.00  0.00     0.021 C 
BRANCH   2   3
ATOM      3  C   UNL A   1      36.511  23.801  25.956  1.00  0.00     0.116 C 
BRANCH   3   4
ATOM      4  N   UNL A   1      37.536  22.772  25.922  1.00  0.00    -0.352 N 
ATOM      5  O   UNL A   1      39.624  21.924  26.092  1.00  0.00    -0.269 OA
ATOM      6  C   UNL A   1      38.860  22.863  26.288  1.00  0.00     0.251 C 
ATOM      7  H   UNL A   1      37.246  21.891  25.594  1.00  0.00     0.163 HD
BRANCH   6   8
ATOM      8  C   UNL A   1      39.369  24.113  26.894  1.00  0.00     0.039 A 
ATOM      9  C   UNL A   1      39.221  24.353  28.261  1.00  0.00     0.014 A 
ATOM     10  C   UNL A   1      40.003  25.059  26.082  1.00  0.00     0.014 A 
ATOM     11  C   UNL A   1      39.573  25.590  28.787  1.00  0.00     0.010 A 
ATOM     12  C   UNL A   1      40.440  26.269  26.631  1.00  0.00     0.010 A 
ATOM     13  C   UNL A   1      40.205  26.555  27.984  1.00  0.00    -0.014 A 
BRANCH  13  14
ATOM     14  C   UNL A   1      40.680  27.812  28.616  1.00  0.00     0.031 A 
ATOM     15  C   UNL A   1      42.133  28.038  28.926  1.00  0.00     0.074 A 
ATOM     16  C   UNL A   1      39.776  28.781  28.859  1.00  0.00     0.049 A 
ATOM     17  N   UNL A   1      42.711  29.105  29.422  1.00  0.00    -0.248 NA
ATOM     18  C   UNL A   1      43.058  26.927  28.657  1.00  0.00     0.031 C 
ATOM     19  C   UNL A   1      38.336  28.663  28.619  1.00  0.00     0.029 A 
ATOM     20  N   UNL A   1      39.929  30.058  29.331  1.00  0.00    -0.354 N 
ATOM     21  C   UNL A   1      44.060  28.792  29.530  1.00  0.00     0.074 A 
ATOM     22  C   UNL A   1      44.214  27.427  29.075  1.00  0.00     0.031 C 
ATOM     23  C   UNL A   1      37.746  29.835  28.892  1.00  0.00     0.029 A 
ATOM     24  C   UNL A   1      38.754  30.767  29.381  1.00  0.00     0.049 A 
ATOM     25  H   UNL A   1      40.798  30.432  29.608  1.00  0.00     0.167 HD
ATOM     26  C   UNL A   1      45.075  29.581  29.961  1.00  0.00     0.037 A 
ATOM     27  C   UNL A   1      38.509  32.026  29.787  1.00  0.00     0.037 A 
ATOM     28  C   UNL A   1      44.916  30.944  30.405  1.00  0.00     0.049 A 
ATOM     29  C   UNL A   1      39.656  32.871  30.262  1.00  0.00     0.074 A 
ATOM     30  C   UNL A   1      45.887  31.829  30.843  1.00  0.00     0.029 A 
ATOM     31  N   UNL A   1      43.706  31.620  30.464  1.00  0.00    -0.354 N 
ATOM     32  N   UNL A   1      40.930  32.571  30.332  1.00  0.00    -0.248 NA
ATOM     33  C   UNL A   1      39.330  34.229  30.716  1.00  0.00     0.031 C 
ATOM     34  C   UNL A   1      45.260  33.026  31.204  1.00  0.00     0.029 A 
ATOM     35  C   UNL A   1      43.905  32.905  30.948  1.00  0.00     0.049 A 
ATOM     36  H   UNL A   1      42.835  31.244  30.203  1.00  0.00     0.167 HD
ATOM     37  C   UNL A   1      41.558  33.701  30.834  1.00  0.00     0.074 A 
ATOM     38  C   UNL A   1      40.530  34.705  31.015  1.00  0.00     0.031 C 
ATOM     39  C   UNL A   1      42.867  33.886  31.130  1.00  0.00     0.037 A 
BRANCH  26  40
ATOM     40  C   UNL A   1      46.458  28.997  29.982  1.00  0.00     0.064 A 
ATOM     41  C   UNL A   1      46.948  28.317  31.106  1.00  0.00     0.173 A 
ATOM     42  C   UNL A   1      47.272  29.050  28.840  1.00  0.00     0.173 A 
ATOM     43  F   UNL A   1      46.213  28.246  32.227  1.00  0.00    -0.203 F 
ATOM     44  C   UNL A   1      48.206  27.719  31.090  1.00  0.00     0.198 A 
ATOM     45  C   UNL A   1      48.520  28.430  28.819  1.00  0.00     0.198 A 
ATOM     46  F   UNL A   1      46.848  29.682  27.736  1.00  0.00    -0.203 F 
ATOM     47  F   UNL A   1      48.664  27.096  32.184  1.00  0.00    -0.200 F 
ATOM     48  C   UNL A   1      48.987  27.768  29.944  1.00  0.00     0.200 A 
ATOM     49  F   UNL A   1      49.267  28.468  27.707  1.00  0.00    -0.200 F 
ATOM     50  F   UNL A   1      50.190  27.178  29.925  1.00  0.00    -0.200 F 
ENDBRANCH  26  40
BRANCH  27  51
ATOM     51  C   UNL A   1      37.121  32.554  29.768  1.00  0.00     0.064 A 
ATOM     52  C   UNL A   1      36.262  32.372  30.859  1.00  0.00     0.173 A 
ATOM     53  C   UNL A   1      36.628  33.253  28.656  1.00  0.00     0.173 A 
ATOM     54  F   UNL A   1      36.683  31.694  31.938  1.00  0.00    -0.203 F 
ATOM     55  C   UNL A   1      34.955  32.852  30.830  1.00  0.00     0.198 A 
ATOM     56  C   UNL A   1      35.332  33.761  28.642  1.00  0.00     0.198 A 
ATOM     57  F   UNL A   1      37.414  33.459  27.589  1.00  0.00    -0.203 F 
ATOM     58  F   UNL A   1      34.138  32.624  31.868  1.00  0.00    -0.200 F 
ATOM     59  C   UNL A   1      34.493  33.551  29.725  1.00  0.00     0.200 A 
ATOM     60  F   UNL A   1      34.897  34.451  27.580  1.00  0.00    -0.200 F 
ATOM     61  F   UNL A   1      33.237  34.018  29.702  1.00  0.00    -0.200 F 
ENDBRANCH  27  51
BRANCH  39  62
ATOM     62  C   UNL A   1      43.251  35.232  31.672  1.00  0.00     0.064 A 
ATOM     63  C   UNL A   1      43.652  36.274  30.823  1.00  0.00     0.173 A 
ATOM     64  C   UNL A   1      43.216  35.480  33.052  1.00  0.00     0.173 A 
ATOM     65  F   UNL A   1      43.718  36.077  29.498  1.00  0.00    -0.203 F 
ATOM     66  C   UNL A   1      44.039  37.506  31.340  1.00  0.00     0.198 A 
ATOM     67  C   UNL A   1      43.577  36.724  33.562  1.00  0.00     0.198 A 
ATOM     68  F   UNL A   1      42.836  34.517  33.904  1.00  0.00    -0.203 F 
ATOM     69  F   UNL A   1      44.475  38.469  30.515  1.00  0.00    -0.200 F 
ATOM     70  C   UNL A   1      43.997  37.732  32.707  1.00  0.00     0.200 A 
ATOM     71  F   UNL A   1      43.528  36.944  34.883  1.00  0.00    -0.200 F 
ATOM     72  F   UNL A   1      44.375  38.919  33.203  1.00  0.00    -0.200 F 
ENDBRANCH  39  62
ENDBRANCH  13  14
ENDBRANCH   6   8
ENDBRANCH   3   4
ENDBRANCH   2   3
ENDBRANCH   1   2
BRANCH   1  73
ATOM     73  C   UNL A   1      32.579  23.648  25.967  1.00  0.00     0.002 C 
BRANCH  73  74
ATOM     74  C   UNL A   1      32.295  22.894  24.662  1.00  0.00     0.021 C 
BRANCH  74  75
ATOM     75  C   UNL A   1      31.469  23.652  23.625  1.00  0.00     0.116 C 
BRANCH  75  76
ATOM     76  N   UNL A   1      32.224  23.960  22.428  1.00  0.00    -0.351 N 
ATOM     77  C   UNL A   1      32.684  25.164  21.976  1.00  0.00     0.278 C 
ATOM     78  H   UNL A   1      32.435  23.188  21.854  1.00  0.00     0.163 HD
ATOM     79  O   UNL A   1      33.279  25.167  20.895  1.00  0.00    -0.268 OA
BRANCH  77  80
ATOM     80  C   UNL A   1      32.383  26.450  22.772  1.00  0.00     0.277 C 
ATOM     81  C   UNL A   1      33.529  26.762  23.764  1.00  0.00     0.114 C 
ATOM     82  N   UNL A   1      32.187  27.586  21.828  1.00  0.00    -0.324 N 
ATOM     83  C   UNL A   1      33.256  28.076  24.406  1.00  0.00    -0.006 A 
ATOM     84  C   UNL A   1      31.740  28.832  22.458  1.00  0.00     0.264 C 
ATOM     85  H   UNL A   1      31.487  27.310  21.139  1.00  0.00     0.347 HD
ATOM     86  H   UNL A   1      33.098  27.781  21.415  1.00  0.00     0.347 HD
ATOM     87  C   UNL A   1      32.446  29.003  23.780  1.00  0.00     0.083 A 
ATOM     88  C   UNL A   1      33.671  28.612  25.651  1.00  0.00     0.003 A 
ATOM     89  N   UNL A   1      32.429  30.124  24.565  1.00  0.00    -0.353 N 
ATOM     90  C   UNL A   1      33.142  29.903  25.725  1.00  0.00     0.046 A 
ATOM     91  C   UNL A   1      34.442  28.132  26.726  1.00  0.00     0.010 A 
ATOM     92  H   UNL A   1      31.974  30.967  24.335  1.00  0.00     0.166 HD
ATOM     93  C   UNL A   1      33.355  30.742  26.825  1.00  0.00     0.026 A 
ATOM     94  C   UNL A   1      34.653  28.954  27.839  1.00  0.00     0.001 A 
ATOM     95  C   UNL A   1      34.119  30.240  27.884  1.00  0.00     0.002 A 
BRANCH  84  96
ATOM     96  C   UNL A   1      30.226  28.968  22.554  1.00  0.00     0.041 A 
ATOM     97  C   UNL A   1      29.530  30.017  21.958  1.00  0.00     0.093 A 
ATOM     98  C   UNL A   1      29.203  28.120  23.142  1.00  0.00     0.009 A 
ATOM     99  N   UNL A   1      28.199  29.889  22.219  1.00  0.00    -0.361 N 
ATOM    100  C   UNL A   1      27.965  28.739  22.926  1.00  0.00     0.046 A 
ATOM    101  C   UNL A   1      29.175  26.881  23.827  1.00  0.00     0.011 A 
ATOM    102  H   UNL A   1      27.506  30.529  21.940  1.00  0.00     0.166 HD
ATOM    103  C   UNL A   1      26.744  28.211  23.368  1.00  0.00     0.026 A 
ATOM    104  C   UNL A   1      27.963  26.334  24.272  1.00  0.00     0.001 A 
ATOM    105  C   UNL A   1      26.764  26.995  24.048  1.00  0.00     0.002 A 
ENDBRANCH  84  96
ENDBRANCH  77  80
ENDBRANCH  75  76
ENDBRANCH  74  75
ENDBRANCH  73  74
ENDBRANCH   1  73
TORSDOF 14
ENDMDL
MODEL 3
REMARK VINA RESULT:     -13.1      3.920      9.453
REMARK SMILES O=C(NCCCCCCNC(=O)[C@H]1Cc2c([nH]c3ccccc23)[C@H](c2c[nH]c3ccccc23)[NH2+]1)c1ccc(-c2c3nc(c(-c4c(F)c(F)c(F)c(F)c4F)c4ccc([nH]4)c(-c4c(F)c(F)c(F)c(F)c4F)c4nc(c(-c5c(F)c(F)c(F)c(F)c5F)c5ccc2[nH]5)C=C4)C=C3)cc1
REMARK SMILES IDX 6 1 5 2 4 3 3 4 1 5 2 6 35 8 36 9 97 10 37 11 96 12 38 13
REMARK SMILES IDX 39 14 40 15 90 16 41 17 95 18 89 19 91 20 42 21 94 22 88 23
REMARK SMILES IDX 87 24 43 26 75 27 55 28 74 29 56 30 59 31 73 32 92 33 57 34
REMARK SMILES IDX 58 35 72 37 93 38 60 39 44 40 45 41 53 42 46 43 47 44 51 45
REMARK SMILES IDX 54 46 48 47 49 48 52 49 50 50 76 51 77 52 85 53 78 54 79 55
REMARK SMILES IDX 83 56 86 57 80 58 81 59 84 60 82 61 61 62 62 63 70 64 63 65
REMARK SMILES IDX 64 66 68 67 71 68 65 69 66 70 69 71 67 72 7 73 8 74 9 75
REMARK SMILES IDX 10 76 11 77 12 79 13 80 14 81 34 82 15 83 24 84 16 87 23 88
REMARK SMILES IDX 17 89 18 90 22 91 19 93 21 94 20 95 25 96 26 97 33 98 27 99
REMARK SMILES IDX 28 100 32 101 29 103 31 104 30 105
REMARK H PARENT 3 7 91 25 59 36 10 78 34 85 34 86 17 92 27 102
REMARK Flexibility Score: inf
ROOT
ATOM      1  C   UNL A   1      33.667  23.355  27.039  1.00  0.00     0.002 C 
ENDROOT
BRANCH   1   2
ATOM      2  C   UNL A   1      34.614  22.211  26.677  1.00  0.00     0.021 C 
BRANCH   2   3
ATOM      3  C   UNL A   1      35.954  22.634  26.089  1.00  0.00     0.116 C 
BRANCH   3   4
ATOM      4  N   UNL A   1      36.842  21.516  25.820  1.00  0.00    -0.352 N 
ATOM      5  O   UNL A   1      38.823  20.477  25.495  1.00  0.00    -0.269 OA
ATOM      6  C   UNL A   1      38.217  21.479  25.861  1.00  0.00     0.251 C 
ATOM      7  H   UNL A   1      36.402  20.670  25.575  1.00  0.00     0.163 HD
BRANCH   6   8
ATOM      8  C   UNL A   1      38.969  22.667  26.323  1.00  0.00     0.039 A 
ATOM      9  C   UNL A   1      38.655  23.940  25.841  1.00  0.00     0.014 A 
ATOM     10  C   UNL A   1      40.002  22.506  27.250  1.00  0.00     0.014 A 
ATOM     11  C   UNL A   1      39.461  25.022  26.172  1.00  0.00     0.010 A 
ATOM     12  C   UNL A   1      40.758  23.613  27.654  1.00  0.00     0.010 A 
ATOM     13  C   UNL A   1      40.509  24.876  27.097  1.00  0.00    -0.014 A 
BRANCH  13  14
ATOM     14  C   UNL A   1      41.263  26.084  27.519  1.00  0.00     0.031 A 
ATOM     15  C   UNL A   1      42.684  26.316  27.088  1.00  0.00     0.074 A 
ATOM     16  C   UNL A   1      40.620  27.007  28.261  1.00  0.00     0.049 A 
ATOM     17  N   UNL A   1      43.456  27.348  27.324  1.00  0.00    -0.248 NA
ATOM     18  C   UNL A   1      43.329  25.254  26.301  1.00  0.00     0.031 C 
ATOM     19  C   UNL A   1      39.248  26.876  28.756  1.00  0.00     0.029 A 
ATOM     20  N   UNL A   1      41.016  28.241  28.705  1.00  0.00    -0.354 N 
ATOM     21  C   UNL A   1      44.675  27.060  26.723  1.00  0.00     0.074 A 
ATOM     22  C   UNL A   1      44.551  25.743  26.134  1.00  0.00     0.031 C 
ATOM     23  C   UNL A   1      38.897  28.006  29.386  1.00  0.00     0.029 A 
ATOM     24  C   UNL A   1      40.036  28.915  29.392  1.00  0.00     0.049 A 
ATOM     25  H   UNL A   1      41.916  28.609  28.548  1.00  0.00     0.167 HD
ATOM     26  C   UNL A   1      45.787  27.831  26.662  1.00  0.00     0.037 A 
ATOM     27  C   UNL A   1      40.054  30.128  29.974  1.00  0.00     0.037 A 
ATOM     28  C   UNL A   1      45.900  29.146  27.244  1.00  0.00     0.049 A 
ATOM     29  C   UNL A   1      41.304  30.955  29.891  1.00  0.00     0.074 A 
ATOM     30  C   UNL A   1      46.981  30.011  27.220  1.00  0.00     0.029 A 
ATOM     31  N   UNL A   1      44.894  29.786  27.953  1.00  0.00    -0.354 N 
ATOM     32  N   UNL A   1      42.439  30.679  29.295  1.00  0.00    -0.248 NA
ATOM     33  C   UNL A   1      41.277  32.259  30.564  1.00  0.00     0.031 C 
ATOM     34  C   UNL A   1      46.642  31.158  27.946  1.00  0.00     0.029 A 
ATOM     35  C   UNL A   1      45.335  31.028  28.385  1.00  0.00     0.049 A 
ATOM     36  H   UNL A   1      43.999  29.414  28.124  1.00  0.00     0.167 HD
ATOM     37  C   UNL A   1      43.259  31.775  29.517  1.00  0.00     0.074 A 
ATOM     38  C   UNL A   1      42.478  32.735  30.270  1.00  0.00     0.031 C 
ATOM     39  C   UNL A   1      44.546  31.965  29.141  1.00  0.00     0.037 A 
BRANCH  26  40
ATOM     40  C   UNL A   1      46.986  27.280  25.945  1.00  0.00     0.064 A 
ATOM     41  C   UNL A   1      47.201  27.527  24.582  1.00  0.00     0.173 A 
ATOM     42  C   UNL A   1      47.969  26.564  26.645  1.00  0.00     0.173 A 
ATOM     43  F   UNL A   1      46.287  28.199  23.864  1.00  0.00    -0.203 F 
ATOM     44  C   UNL A   1      48.350  27.070  23.943  1.00  0.00     0.198 A 
ATOM     45  C   UNL A   1      49.129  26.129  26.009  1.00  0.00     0.198 A 
ATOM     46  F   UNL A   1      47.816  26.306  27.953  1.00  0.00    -0.203 F 
ATOM     47  F   UNL A   1      48.523  27.297  22.633  1.00  0.00    -0.200 F 
ATOM     48  C   UNL A   1      49.318  26.379  24.659  1.00  0.00     0.200 A 
ATOM     49  F   UNL A   1      50.068  25.472  26.705  1.00  0.00    -0.200 F 
ATOM     50  F   UNL A   1      50.431  25.954  24.046  1.00  0.00    -0.200 F 
ENDBRANCH  26  40
BRANCH  27  51
ATOM     51  C   UNL A   1      38.850  30.623  30.690  1.00  0.00     0.064 A 
ATOM     52  C   UNL A   1      38.697  30.427  32.068  1.00  0.00     0.173 A 
ATOM     53  C   UNL A   1      37.831  31.304  30.008  1.00  0.00     0.173 A 
ATOM     54  F   UNL A   1      39.636  29.765  32.760  1.00  0.00    -0.203 F 
ATOM     55  C   UNL A   1      37.558  30.875  32.734  1.00  0.00     0.198 A 
ATOM     56  C   UNL A   1      36.709  31.781  30.680  1.00  0.00     0.198 A 
ATOM     57  F   UNL A   1      37.935  31.522  28.689  1.00  0.00    -0.203 F 
ATOM     58  F   UNL A   1      37.413  30.634  34.044  1.00  0.00    -0.200 F 
ATOM     59  C   UNL A   1      36.569  31.558  32.041  1.00  0.00     0.200 A 
ATOM     60  F   UNL A   1      35.766  32.455  30.010  1.00  0.00    -0.200 F 
ATOM     61  F   UNL A   1      35.477  31.994  32.684  1.00  0.00    -0.200 F 
ENDBRANCH  27  51
BRANCH  39  62
ATOM     62  C   UNL A   1      45.179  33.266  29.538  1.00  0.00     0.064 A 
ATOM     63  C   UNL A   1      45.871  33.401  30.751  1.00  0.00     0.173 A 
ATOM     64  C   UNL A   1      45.092  34.387  28.699  1.00  0.00     0.173 A 
ATOM     65  F   UNL A   1      45.964  32.363  31.594  1.00  0.00    -0.203 F 
ATOM     66  C   UNL A   1      46.424  34.622  31.125  1.00  0.00     0.198 A 
ATOM     67  C   UNL A   1      45.672  35.598  29.064  1.00  0.00     0.198 A 
ATOM     68  F   UNL A   1      44.445  34.306  27.527  1.00  0.00    -0.203 F 
ATOM     69  F   UNL A   1      47.031  34.745  32.314  1.00  0.00    -0.200 F 
ATOM     70  C   UNL A   1      46.328  35.718  30.280  1.00  0.00     0.200 A 
ATOM     71  F   UNL A   1      45.586  36.654  28.244  1.00  0.00    -0.200 F 
ATOM     72  F   UNL A   1      46.858  36.894  30.644  1.00  0.00    -0.200 F 
ENDBRANCH  39  62
ENDBRANCH  13  14
ENDBRANCH   6   8
ENDBRANCH   3   4
ENDBRANCH   2   3
ENDBRANCH   1   2
BRANCH   1  73
ATOM     73  C   UNL A   1      32.174  23.067  26.856  1.00  0.00     0.002 C 
BRANCH  73  74
ATOM     74  C   UNL A   1      31.798  22.155  25.682  1.00  0.00     0.021 C 
BRANCH  74  75
ATOM     75  C   UNL A   1      31.673  22.840  24.324  1.00  0.00     0.116 C 
BRANCH  75  76
ATOM     76  N   UNL A   1      32.951  23.004  23.661  1.00  0.00    -0.351 N 
ATOM     77  C   UNL A   1      33.681  24.138  23.448  1.00  0.00     0.278 C 
ATOM     78  H   UNL A   1      33.351  22.174  23.311  1.00  0.00     0.163 HD
ATOM     79  O   UNL A   1      34.735  24.015  22.819  1.00  0.00    -0.268 OA
BRANCH  77  80
ATOM     80  C   UNL A   1      33.137  25.502  23.919  1.00  0.00     0.277 C 
ATOM     81  C   UNL A   1      34.229  26.296  24.674  1.00  0.00     0.114 C 
ATOM     82  N   UNL A   1      32.649  26.276  22.742  1.00  0.00    -0.324 N 
ATOM     83  C   UNL A   1      33.700  27.651  24.987  1.00  0.00    -0.006 A 
ATOM     84  C   UNL A   1      31.965  27.528  23.079  1.00  0.00     0.264 C 
ATOM     85  H   UNL A   1      31.997  25.688  22.223  1.00  0.00     0.347 HD
ATOM     86  H   UNL A   1      33.474  26.533  22.202  1.00  0.00     0.347 HD
ATOM     87  C   UNL A   1      32.675  28.190  24.233  1.00  0.00     0.083 A 
ATOM     88  C   UNL A   1      34.041  28.576  26.005  1.00  0.00     0.003 A 
ATOM     89  N   UNL A   1      32.444  29.454  24.706  1.00  0.00    -0.353 N 
ATOM     90  C   UNL A   1      33.241  29.704  25.804  1.00  0.00     0.046 A 
ATOM     91  C   UNL A   1      34.949  28.571  27.081  1.00  0.00     0.010 A 
ATOM     92  H   UNL A   1      31.802  30.092  24.318  1.00  0.00     0.166 HD
ATOM     93  C   UNL A   1      33.311  30.833  26.627  1.00  0.00     0.026 A 
ATOM     94  C   UNL A   1      35.021  29.688  27.921  1.00  0.00     0.001 A 
ATOM     95  C   UNL A   1      34.216  30.802  27.693  1.00  0.00     0.002 A 
BRANCH  84  96
ATOM     96  C   UNL A   1      30.464  27.375  23.294  1.00  0.00     0.041 A 
ATOM     97  C   UNL A   1      29.893  26.194  23.761  1.00  0.00     0.093 A 
ATOM     98  C   UNL A   1      29.358  28.308  23.170  1.00  0.00     0.009 A 
ATOM     99  N   UNL A   1      28.541  26.342  23.843  1.00  0.00    -0.361 N 
ATOM    100  C   UNL A   1      28.184  27.619  23.501  1.00  0.00     0.046 A 
ATOM    101  C   UNL A   1      29.210  29.674  22.826  1.00  0.00     0.011 A 
ATOM    102  H   UNL A   1      27.912  25.633  24.107  1.00  0.00     0.166 HD
ATOM    103  C   UNL A   1      26.909  28.202  23.483  1.00  0.00     0.026 A 
ATOM    104  C   UNL A   1      27.943  30.275  22.806  1.00  0.00     0.001 A 
ATOM    105  C   UNL A   1      26.808  29.545  23.126  1.00  0.00     0.002 A 
ENDBRANCH  84  96
ENDBRANCH  77  80
ENDBRANCH  75  76
ENDBRANCH  74  75
ENDBRANCH  73  74
ENDBRANCH   1  73
TORSDOF 14
ENDMDL
