MODEL 1
REMARK VINA RESULT:     -12.6      0.000      0.000
REMARK SMILES CCc1ccc2c(c1)C=C(C(=O)NCCCCCCNC(=O)c1ccc(-c3c4nc(c(-c5c(F)c(F)c(F)c(F)c5F)c5ccc([nH]5)c(-c5c(F)c(F)c(F)c(F)c5F)c5nc(c(-c6c(F)c(F)c(F)c(F)c6F)c6ccc3[nH]6)C=C5)C=C4)cc1)[C@H](C(F)(F)F)O2
REMARK SMILES IDX 17 1 16 2 15 3 14 4 13 5 11 6 12 7 10 9 3 10 4 11 8 12 5 13
REMARK SMILES IDX 7 14 6 15 9 16 91 17 86 18 2 19 1 20 87 21 88 22 89 23 90 24
REMARK SMILES IDX 18 25 19 26 20 27 21 28 22 30 23 31 24 32 85 33 25 34 84 35
REMARK SMILES IDX 26 36 27 37 28 38 78 39 29 40 83 41 77 42 79 43 30 44 82 45
REMARK SMILES IDX 76 46 75 47 31 49 63 50 43 51 62 52 44 53 47 54 61 55 80 56
REMARK SMILES IDX 45 57 46 58 60 60 81 61 48 62 32 63 33 64 41 65 34 66 35 67
REMARK SMILES IDX 39 68 42 69 36 70 37 71 40 72 38 73 64 74 65 75 73 76 66 77
REMARK SMILES IDX 67 78 71 79 74 80 68 81 69 82 72 83 70 84 49 85 50 86 58 87
REMARK SMILES IDX 51 88 52 89 56 90 59 91 53 92 54 93 57 94 55 95
REMARK H PARENT 13 8 20 29 79 48 47 59
REMARK Flexibility Score: inf
ROOT
ATOM      1  C   UNL A   1      31.683  30.625  26.385  1.00  0.00     0.002 C 
ENDROOT
BRANCH   1   2
ATOM      2  C   UNL A   1      32.663  29.814  27.241  1.00  0.00     0.002 C 
BRANCH   2   3
ATOM      3  C   UNL A   1      33.848  29.219  26.466  1.00  0.00     0.021 C 
BRANCH   3   4
ATOM      4  C   UNL A   1      33.722  27.706  26.247  1.00  0.00     0.116 C 
BRANCH   4   5
ATOM      5  N   UNL A   1      34.011  27.399  24.856  1.00  0.00    -0.352 N 
ATOM      6  C   UNL A   1      33.221  27.169  23.776  1.00  0.00     0.251 C 
ATOM      7  O   UNL A   1      33.746  26.690  22.776  1.00  0.00    -0.270 OA
ATOM      8  H   UNL A   1      34.975  27.349  24.657  1.00  0.00     0.163 HD
BRANCH   6   9
ATOM      9  C   UNL A   1      31.786  27.556  23.729  1.00  0.00     0.067 C 
ATOM     10  C   UNL A   1      28.185  30.727  23.057  1.00  0.00    -0.047 A 
ATOM     11  C   UNL A   1      27.294  29.657  22.906  1.00  0.00     0.007 A 
ATOM     12  C   UNL A   1      29.527  30.443  23.359  1.00  0.00     0.015 A 
ATOM     13  C   UNL A   1      27.734  28.339  23.054  1.00  0.00     0.047 A 
ATOM     14  C   UNL A   1      29.970  29.123  23.504  1.00  0.00     0.017 A 
ATOM     15  C   UNL A   1      29.070  28.075  23.343  1.00  0.00     0.128 A 
ATOM     16  C   UNL A   1      31.383  28.834  23.695  1.00  0.00     0.025 C 
ATOM     17  O   UNL A   1      29.440  26.763  23.366  1.00  0.00    -0.475 OA
ATOM     18  C   UNL A   1      30.764  26.429  23.875  1.00  0.00     0.314 C 
BRANCH  10  19
ATOM     19  C   UNL A   1      27.768  32.157  22.802  1.00  0.00     0.032 C 
ATOM     20  C   UNL A   1      28.872  33.187  22.997  1.00  0.00     0.009 C 
ENDBRANCH  10  19
BRANCH  18  21
ATOM     21  C   UNL A   1      31.137  25.050  23.279  1.00  0.00     0.429 C 
ATOM     22  F   UNL A   1      32.101  24.416  23.982  1.00  0.00    -0.167 F 
ATOM     23  F   UNL A   1      30.066  24.209  23.304  1.00  0.00    -0.167 F 
ATOM     24  F   UNL A   1      31.534  25.135  21.989  1.00  0.00    -0.167 F 
ENDBRANCH  18  21
ENDBRANCH   6   9
ENDBRANCH   4   5
ENDBRANCH   3   4
ENDBRANCH   2   3
ENDBRANCH   1   2
BRANCH   1  25
ATOM     25  C   UNL A   1      31.480  32.072  26.840  1.00  0.00     0.021 C 
BRANCH  25  26
ATOM     26  C   UNL A   1      32.771  32.792  27.213  1.00  0.00     0.116 C 
BRANCH  26  27
ATOM     27  N   UNL A   1      32.524  34.177  27.581  1.00  0.00    -0.352 N 
ATOM     28  C   UNL A   1      33.043  34.904  28.622  1.00  0.00     0.251 C 
ATOM     29  H   UNL A   1      31.894  34.663  27.000  1.00  0.00     0.163 HD
ATOM     30  O   UNL A   1      32.550  35.980  28.938  1.00  0.00    -0.269 OA
BRANCH  28  31
ATOM     31  C   UNL A   1      34.200  34.374  29.373  1.00  0.00     0.039 A 
ATOM     32  C   UNL A   1      33.975  33.657  30.550  1.00  0.00     0.014 A 
ATOM     33  C   UNL A   1      35.502  34.593  28.917  1.00  0.00     0.014 A 
ATOM     34  C   UNL A   1      35.057  33.109  31.241  1.00  0.00     0.010 A 
ATOM     35  C   UNL A   1      36.573  33.986  29.565  1.00  0.00     0.010 A 
ATOM     36  C   UNL A   1      36.361  33.242  30.736  1.00  0.00    -0.014 A 
BRANCH  36  37
ATOM     37  C   UNL A   1      37.519  32.611  31.417  1.00  0.00     0.031 A 
ATOM     38  C   UNL A   1      38.236  31.458  30.771  1.00  0.00     0.074 A 
ATOM     39  C   UNL A   1      37.882  33.034  32.643  1.00  0.00     0.049 A 
ATOM     40  N   UNL A   1      39.213  30.722  31.239  1.00  0.00    -0.248 NA
ATOM     41  C   UNL A   1      37.777  31.062  29.430  1.00  0.00     0.031 C 
ATOM     42  C   UNL A   1      37.239  34.118  33.387  1.00  0.00     0.029 A 
ATOM     43  N   UNL A   1      38.873  32.596  33.485  1.00  0.00    -0.354 N 
ATOM     44  C   UNL A   1      39.476  29.776  30.258  1.00  0.00     0.074 A 
ATOM     45  C   UNL A   1      38.520  29.992  29.193  1.00  0.00     0.031 C 
ATOM     46  C   UNL A   1      37.865  34.274  34.565  1.00  0.00     0.029 A 
ATOM     47  C   UNL A   1      38.924  33.276  34.678  1.00  0.00     0.049 A 
ATOM     48  H   UNL A   1      39.489  31.863  33.257  1.00  0.00     0.167 HD
ATOM     49  C   UNL A   1      40.445  28.829  30.236  1.00  0.00     0.037 A 
ATOM     50  C   UNL A   1      39.727  33.105  35.745  1.00  0.00     0.037 A 
ATOM     51  C   UNL A   1      41.404  28.632  31.290  1.00  0.00     0.049 A 
ATOM     52  C   UNL A   1      40.775  32.024  35.706  1.00  0.00     0.074 A 
ATOM     53  C   UNL A   1      42.455  27.732  31.343  1.00  0.00     0.029 A 
ATOM     54  N   UNL A   1      41.428  29.346  32.480  1.00  0.00    -0.354 N 
ATOM     55  N   UNL A   1      41.056  31.177  34.746  1.00  0.00    -0.248 NA
ATOM     56  C   UNL A   1      41.621  31.881  36.898  1.00  0.00     0.031 C 
ATOM     57  C   UNL A   1      43.082  27.866  32.586  1.00  0.00     0.029 A 
ATOM     58  C   UNL A   1      42.460  28.888  33.284  1.00  0.00     0.049 A 
ATOM     59  H   UNL A   1      40.805  30.069  32.718  1.00  0.00     0.167 HD
ATOM     60  C   UNL A   1      42.129  30.424  35.204  1.00  0.00     0.074 A 
ATOM     61  C   UNL A   1      42.458  30.924  36.522  1.00  0.00     0.031 C 
ATOM     62  C   UNL A   1      42.782  29.408  34.589  1.00  0.00     0.037 A 
BRANCH  49  63
ATOM     63  C   UNL A   1      40.520  27.938  29.030  1.00  0.00     0.064 A 
ATOM     64  C   UNL A   1      39.764  26.758  28.939  1.00  0.00     0.173 A 
ATOM     65  C   UNL A   1      41.321  28.288  27.932  1.00  0.00     0.173 A 
ATOM     66  F   UNL A   1      38.991  26.371  29.965  1.00  0.00    -0.203 F 
ATOM     67  C   UNL A   1      39.830  25.949  27.807  1.00  0.00     0.198 A 
ATOM     68  C   UNL A   1      41.359  27.494  26.789  1.00  0.00     0.198 A 
ATOM     69  F   UNL A   1      42.059  29.408  27.962  1.00  0.00    -0.203 F 
ATOM     70  F   UNL A   1      39.137  24.803  27.765  1.00  0.00    -0.200 F 
ATOM     71  C   UNL A   1      40.620  26.322  26.730  1.00  0.00     0.200 A 
ATOM     72  F   UNL A   1      42.111  27.863  25.743  1.00  0.00    -0.200 F 
ATOM     73  F   UNL A   1      40.673  25.548  25.637  1.00  0.00    -0.200 F 
ENDBRANCH  49  63
BRANCH  50  74
ATOM     74  C   UNL A   1      39.584  33.983  36.935  1.00  0.00     0.064 A 
ATOM     75  C   UNL A   1      40.240  35.221  36.999  1.00  0.00     0.173 A 
ATOM     76  C   UNL A   1      38.810  33.600  38.041  1.00  0.00     0.173 A 
ATOM     77  F   UNL A   1      41.009  35.624  35.977  1.00  0.00    -0.203 F 
ATOM     78  C   UNL A   1      40.150  36.028  38.132  1.00  0.00     0.198 A 
ATOM     79  C   UNL A   1      38.694  34.421  39.160  1.00  0.00     0.198 A 
ATOM     80  F   UNL A   1      38.158  32.428  38.029  1.00  0.00    -0.203 F 
ATOM     81  F   UNL A   1      40.833  37.180  38.187  1.00  0.00    -0.200 F 
ATOM     82  C   UNL A   1      39.373  35.629  39.209  1.00  0.00     0.200 A 
ATOM     83  F   UNL A   1      37.930  34.040  40.192  1.00  0.00    -0.200 F 
ATOM     84  F   UNL A   1      39.287  36.406  40.299  1.00  0.00    -0.200 F 
ENDBRANCH  50  74
BRANCH  62  85
ATOM     85  C   UNL A   1      43.945  28.796  35.314  1.00  0.00     0.064 A 
ATOM     86  C   UNL A   1      45.255  29.268  35.142  1.00  0.00     0.173 A 
ATOM     87  C   UNL A   1      43.739  27.750  36.228  1.00  0.00     0.173 A 
ATOM     88  F   UNL A   1      45.506  30.255  34.269  1.00  0.00    -0.203 F 
ATOM     89  C   UNL A   1      46.318  28.701  35.840  1.00  0.00     0.198 A 
ATOM     90  C   UNL A   1      44.800  27.207  36.948  1.00  0.00     0.198 A 
ATOM     91  F   UNL A   1      42.506  27.265  36.435  1.00  0.00    -0.203 F 
ATOM     92  F   UNL A   1      47.566  29.135  35.622  1.00  0.00    -0.200 F 
ATOM     93  C   UNL A   1      46.088  27.678  36.748  1.00  0.00     0.200 A 
ATOM     94  F   UNL A   1      44.573  26.230  37.837  1.00  0.00    -0.200 F 
ATOM     95  F   UNL A   1      47.112  27.139  37.426  1.00  0.00    -0.200 F 
ENDBRANCH  62  85
ENDBRANCH  36  37
ENDBRANCH  28  31
ENDBRANCH  26  27
ENDBRANCH  25  26
ENDBRANCH   1  25
TORSDOF 15
ENDMDL
MODEL 2
REMARK VINA RESULT:     -12.6      1.704      3.761
REMARK SMILES CCc1ccc2c(c1)C=C(C(=O)NCCCCCCNC(=O)c1ccc(-c3c4nc(c(-c5c(F)c(F)c(F)c(F)c5F)c5ccc([nH]5)c(-c5c(F)c(F)c(F)c(F)c5F)c5nc(c(-c6c(F)c(F)c(F)c(F)c6F)c6ccc3[nH]6)C=C5)C=C4)cc1)[C@H](C(F)(F)F)O2
REMARK SMILES IDX 17 1 16 2 15 3 14 4 13 5 11 6 12 7 10 9 3 10 4 11 8 12 5 13
REMARK SMILES IDX 7 14 6 15 9 16 91 17 86 18 2 19 1 20 87 21 88 22 89 23 90 24
REMARK SMILES IDX 18 25 19 26 20 27 21 28 22 30 23 31 24 32 85 33 25 34 84 35
REMARK SMILES IDX 26 36 27 37 28 38 78 39 29 40 83 41 77 42 79 43 30 44 82 45
REMARK SMILES IDX 76 46 75 47 31 49 63 50 43 51 62 52 44 53 47 54 61 55 80 56
REMARK SMILES IDX 45 57 46 58 60 60 81 61 48 62 32 63 33 64 41 65 34 66 35 67
REMARK SMILES IDX 39 68 42 69 36 70 37 71 40 72 38 73 64 74 65 75 73 76 66 77
REMARK SMILES IDX 67 78 71 79 74 80 68 81 69 82 72 83 70 84 49 85 50 86 58 87
REMARK SMILES IDX 51 88 52 89 56 90 59 91 53 92 54 93 57 94 55 95
REMARK H PARENT 13 8 20 29 79 48 47 59
REMARK Flexibility Score: inf
ROOT
ATOM      1  C   UNL A   1      31.483  30.805  26.251  1.00  0.00     0.002 C 
ENDROOT
BRANCH   1   2
ATOM      2  C   UNL A   1      32.635  30.072  26.949  1.00  0.00     0.002 C 
BRANCH   2   3
ATOM      3  C   UNL A   1      32.294  28.652  27.423  1.00  0.00     0.021 C 
BRANCH   3   4
ATOM      4  C   UNL A   1      31.614  27.805  26.340  1.00  0.00     0.116 C 
BRANCH   4   5
ATOM      5  N   UNL A   1      31.202  26.535  26.915  1.00  0.00    -0.352 N 
ATOM      6  C   UNL A   1      31.482  25.243  26.599  1.00  0.00     0.251 C 
ATOM      7  O   UNL A   1      30.791  24.368  27.112  1.00  0.00    -0.270 OA
ATOM      8  H   UNL A   1      30.601  26.630  27.689  1.00  0.00     0.163 HD
BRANCH   6   9
ATOM      9  C   UNL A   1      32.633  24.853  25.744  1.00  0.00     0.067 C 
ATOM     10  C   UNL A   1      37.045  22.987  25.024  1.00  0.00    -0.047 A 
ATOM     11  C   UNL A   1      36.741  22.835  23.665  1.00  0.00     0.007 A 
ATOM     12  C   UNL A   1      36.092  23.589  25.860  1.00  0.00     0.015 A 
ATOM     13  C   UNL A   1      35.516  23.275  23.157  1.00  0.00     0.047 A 
ATOM     14  C   UNL A   1      34.862  24.027  25.354  1.00  0.00     0.017 A 
ATOM     15  C   UNL A   1      34.577  23.860  24.003  1.00  0.00     0.128 A 
ATOM     16  C   UNL A   1      33.834  24.537  26.248  1.00  0.00     0.025 C 
ATOM     17  O   UNL A   1      33.368  24.164  23.452  1.00  0.00    -0.475 OA
ATOM     18  C   UNL A   1      32.438  24.972  24.232  1.00  0.00     0.314 C 
BRANCH  10  19
ATOM     19  C   UNL A   1      38.315  22.430  25.625  1.00  0.00     0.032 C 
ATOM     20  C   UNL A   1      38.504  20.931  25.439  1.00  0.00     0.009 C 
ENDBRANCH  10  19
BRANCH  18  21
ATOM     21  C   UNL A   1      31.023  24.688  23.674  1.00  0.00     0.429 C 
ATOM     22  F   UNL A   1      30.486  23.547  24.156  1.00  0.00    -0.167 F 
ATOM     23  F   UNL A   1      30.156  25.672  24.039  1.00  0.00    -0.167 F 
ATOM     24  F   UNL A   1      31.002  24.633  22.323  1.00  0.00    -0.167 F 
ENDBRANCH  18  21
ENDBRANCH   6   9
ENDBRANCH   4   5
ENDBRANCH   3   4
ENDBRANCH   2   3
ENDBRANCH   1   2
BRANCH   1  25
ATOM     25  C   UNL A   1      31.459  32.319  26.474  1.00  0.00     0.021 C 
BRANCH  25  26
ATOM     26  C   UNL A   1      32.538  32.823  27.426  1.00  0.00     0.116 C 
BRANCH  26  27
ATOM     27  N   UNL A   1      32.403  34.249  27.680  1.00  0.00    -0.352 N 
ATOM     28  C   UNL A   1      33.026  35.023  28.627  1.00  0.00     0.251 C 
ATOM     29  H   UNL A   1      31.776  34.726  27.091  1.00  0.00     0.163 HD
ATOM     30  O   UNL A   1      32.622  36.154  28.869  1.00  0.00    -0.269 OA
BRANCH  28  31
ATOM     31  C   UNL A   1      34.185  34.479  29.364  1.00  0.00     0.039 A 
ATOM     32  C   UNL A   1      33.986  33.931  30.633  1.00  0.00     0.014 A 
ATOM     33  C   UNL A   1      35.464  34.519  28.804  1.00  0.00     0.014 A 
ATOM     34  C   UNL A   1      35.065  33.369  31.318  1.00  0.00     0.010 A 
ATOM     35  C   UNL A   1      36.523  33.894  29.455  1.00  0.00     0.010 A 
ATOM     36  C   UNL A   1      36.335  33.317  30.720  1.00  0.00    -0.014 A 
BRANCH  36  37
ATOM     37  C   UNL A   1      37.481  32.665  31.401  1.00  0.00     0.031 A 
ATOM     38  C   UNL A   1      38.162  31.485  30.765  1.00  0.00     0.074 A 
ATOM     39  C   UNL A   1      37.865  33.095  32.618  1.00  0.00     0.049 A 
ATOM     40  N   UNL A   1      39.123  30.730  31.236  1.00  0.00    -0.248 NA
ATOM     41  C   UNL A   1      37.682  31.083  29.433  1.00  0.00     0.031 C 
ATOM     42  C   UNL A   1      37.257  34.205  33.352  1.00  0.00     0.029 A 
ATOM     43  N   UNL A   1      38.850  32.642  33.458  1.00  0.00    -0.354 N 
ATOM     44  C   UNL A   1      39.353  29.764  30.265  1.00  0.00     0.074 A 
ATOM     45  C   UNL A   1      38.394  29.990  29.205  1.00  0.00     0.031 C 
ATOM     46  C   UNL A   1      37.896  34.361  34.523  1.00  0.00     0.029 A 
ATOM     47  C   UNL A   1      38.929  33.336  34.641  1.00  0.00     0.049 A 
ATOM     48  H   UNL A   1      39.446  31.890  33.235  1.00  0.00     0.167 HD
ATOM     49  C   UNL A   1      40.296  28.792  30.249  1.00  0.00     0.037 A 
ATOM     50  C   UNL A   1      39.736  33.158  35.704  1.00  0.00     0.037 A 
ATOM     51  C   UNL A   1      41.259  28.583  31.298  1.00  0.00     0.049 A 
ATOM     52  C   UNL A   1      40.755  32.050  35.672  1.00  0.00     0.074 A 
ATOM     53  C   UNL A   1      42.285  27.656  31.355  1.00  0.00     0.029 A 
ATOM     54  N   UNL A   1      41.311  29.312  32.478  1.00  0.00    -0.354 N 
ATOM     55  N   UNL A   1      41.005  31.182  34.722  1.00  0.00    -0.248 NA
ATOM     56  C   UNL A   1      41.606  31.900  36.860  1.00  0.00     0.031 C 
ATOM     57  C   UNL A   1      42.926  27.791  32.592  1.00  0.00     0.029 A 
ATOM     58  C   UNL A   1      42.336  28.837  33.281  1.00  0.00     0.049 A 
ATOM     59  H   UNL A   1      40.709  30.055  32.711  1.00  0.00     0.167 HD
ATOM     60  C   UNL A   1      42.062  30.407  35.182  1.00  0.00     0.074 A 
ATOM     61  C   UNL A   1      42.414  30.916  36.490  1.00  0.00     0.031 C 
ATOM     62  C   UNL A   1      42.683  29.366  34.576  1.00  0.00     0.037 A 
BRANCH  49  63
ATOM     63  C   UNL A   1      40.338  27.882  29.054  1.00  0.00     0.064 A 
ATOM     64  C   UNL A   1      39.600  26.689  29.012  1.00  0.00     0.173 A 
ATOM     65  C   UNL A   1      41.088  28.228  27.920  1.00  0.00     0.173 A 
ATOM     66  F   UNL A   1      38.875  26.305  30.074  1.00  0.00    -0.203 F 
ATOM     67  C   UNL A   1      39.634  25.864  27.891  1.00  0.00     0.198 A 
ATOM     68  C   UNL A   1      41.094  27.417  26.788  1.00  0.00     0.198 A 
ATOM     69  F   UNL A   1      41.808  29.361  27.903  1.00  0.00    -0.203 F 
ATOM     70  F   UNL A   1      38.959  24.705  27.895  1.00  0.00    -0.200 F 
ATOM     71  C   UNL A   1      40.373  26.232  26.778  1.00  0.00     0.200 A 
ATOM     72  F   UNL A   1      41.797  27.782  25.708  1.00  0.00    -0.200 F 
ATOM     73  F   UNL A   1      40.396  25.442  25.695  1.00  0.00    -0.200 F 
ENDBRANCH  49  63
BRANCH  50  74
ATOM     74  C   UNL A   1      39.626  34.056  36.884  1.00  0.00     0.064 A 
ATOM     75  C   UNL A   1      40.321  35.273  36.930  1.00  0.00     0.173 A 
ATOM     76  C   UNL A   1      38.844  33.711  37.997  1.00  0.00     0.173 A 
ATOM     77  F   UNL A   1      41.098  35.638  35.899  1.00  0.00    -0.203 F 
ATOM     78  C   UNL A   1      40.261  36.097  38.052  1.00  0.00     0.198 A 
ATOM     79  C   UNL A   1      38.759  34.550  39.106  1.00  0.00     0.198 A 
ATOM     80  F   UNL A   1      38.155  32.561  38.003  1.00  0.00    -0.203 F 
ATOM     81  F   UNL A   1      40.980  37.227  38.090  1.00  0.00    -0.200 F 
ATOM     82  C   UNL A   1      39.476  35.737  39.137  1.00  0.00     0.200 A 
ATOM     83  F   UNL A   1      37.987  34.207  40.146  1.00  0.00    -0.200 F 
ATOM     84  F   UNL A   1      39.419  36.529  40.217  1.00  0.00    -0.200 F 
ENDBRANCH  50  74
BRANCH  62  85
ATOM     85  C   UNL A   1      43.835  28.733  35.301  1.00  0.00     0.064 A 
ATOM     86  C   UNL A   1      43.651  27.661  36.186  1.00  0.00     0.173 A 
ATOM     87  C   UNL A   1      45.147  29.179  35.072  1.00  0.00     0.173 A 
ATOM     88  F   UNL A   1      42.416  27.208  36.450  1.00  0.00    -0.203 F 
ATOM     89  C   UNL A   1      44.736  27.073  36.833  1.00  0.00     0.198 A 
ATOM     90  C   UNL A   1      46.231  28.567  35.695  1.00  0.00     0.198 A 
ATOM     91  F   UNL A   1      45.378  30.197  34.229  1.00  0.00    -0.203 F 
ATOM     92  F   UNL A   1      44.532  26.083  37.711  1.00  0.00    -0.200 F 
ATOM     93  C   UNL A   1      46.024  27.521  36.580  1.00  0.00     0.200 A 
ATOM     94  F   UNL A   1      47.475  28.991  35.436  1.00  0.00    -0.200 F 
ATOM     95  F   UNL A   1      47.067  26.948  37.197  1.00  0.00    -0.200 F 
ENDBRANCH  62  85
ENDBRANCH  36  37
ENDBRANCH  28  31
ENDBRANCH  26  27
ENDBRANCH  25  26
ENDBRANCH   1  25
TORSDOF 15
ENDMDL
MODEL 3
REMARK VINA RESULT:     -12.4      0.400      2.013
REMARK SMILES CCc1ccc2c(c1)C=C(C(=O)NCCCCCCNC(=O)c1ccc(-c3c4nc(c(-c5c(F)c(F)c(F)c(F)c5F)c5ccc([nH]5)c(-c5c(F)c(F)c(F)c(F)c5F)c5nc(c(-c6c(F)c(F)c(F)c(F)c6F)c6ccc3[nH]6)C=C5)C=C4)cc1)[C@H](C(F)(F)F)O2
REMARK SMILES IDX 17 1 16 2 15 3 14 4 13 5 11 6 12 7 10 9 3 10 4 11 8 12 5 13
REMARK SMILES IDX 7 14 6 15 9 16 91 17 86 18 2 19 1 20 87 21 88 22 89 23 90 24
REMARK SMILES IDX 18 25 19 26 20 27 21 28 22 30 23 31 24 32 85 33 25 34 84 35
REMARK SMILES IDX 26 36 27 37 28 38 78 39 29 40 83 41 77 42 79 43 30 44 82 45
REMARK SMILES IDX 76 46 75 47 31 49 63 50 43 51 62 52 44 53 47 54 61 55 80 56
REMARK SMILES IDX 45 57 46 58 60 60 81 61 48 62 32 63 33 64 41 65 34 66 35 67
REMARK SMILES IDX 39 68 42 69 36 70 37 71 40 72 38 73 64 74 65 75 73 76 66 77
REMARK SMILES IDX 67 78 71 79 74 80 68 81 69 82 72 83 70 84 49 85 50 86 58 87
REMARK SMILES IDX 51 88 52 89 56 90 59 91 53 92 54 93 57 94 55 95
REMARK H PARENT 13 8 20 29 79 48 47 59
REMARK Flexibility Score: inf
ROOT
ATOM      1  C   UNL A   1      31.608  30.764  26.115  1.00  0.00     0.002 C 
ENDROOT
BRANCH   1   2
ATOM      2  C   UNL A   1      32.386  29.760  26.976  1.00  0.00     0.002 C 
BRANCH   2   3
ATOM      3  C   UNL A   1      33.697  29.263  26.349  1.00  0.00     0.021 C 
BRANCH   3   4
ATOM      4  C   UNL A   1      33.728  27.742  26.152  1.00  0.00     0.116 C 
BRANCH   4   5
ATOM      5  N   UNL A   1      34.029  27.446  24.762  1.00  0.00    -0.352 N 
ATOM      6  C   UNL A   1      33.248  27.238  23.671  1.00  0.00     0.251 C 
ATOM      7  O   UNL A   1      33.778  26.762  22.671  1.00  0.00    -0.270 OA
ATOM      8  H   UNL A   1      34.994  27.384  24.573  1.00  0.00     0.163 HD
BRANCH   6   9
ATOM      9  C   UNL A   1      31.820  27.646  23.612  1.00  0.00     0.067 C 
ATOM     10  C   UNL A   1      28.242  30.703  22.460  1.00  0.00    -0.047 A 
ATOM     11  C   UNL A   1      27.326  29.650  22.580  1.00  0.00     0.007 A 
ATOM     12  C   UNL A   1      29.592  30.452  22.750  1.00  0.00     0.015 A 
ATOM     13  C   UNL A   1      27.751  28.380  22.981  1.00  0.00     0.047 A 
ATOM     14  C   UNL A   1      30.021  29.180  23.149  1.00  0.00     0.017 A 
ATOM     15  C   UNL A   1      29.096  28.146  23.255  1.00  0.00     0.128 A 
ATOM     16  C   UNL A   1      31.436  28.899  23.329  1.00  0.00     0.025 C 
ATOM     17  O   UNL A   1      29.444  26.859  23.535  1.00  0.00    -0.475 OA
ATOM     18  C   UNL A   1      30.788  26.602  24.040  1.00  0.00     0.314 C 
BRANCH  10  19
ATOM     19  C   UNL A   1      27.836  32.059  21.930  1.00  0.00     0.032 C 
ATOM     20  C   UNL A   1      28.021  32.238  20.430  1.00  0.00     0.009 C 
ENDBRANCH  10  19
BRANCH  18  21
ATOM     21  C   UNL A   1      31.106  25.120  23.730  1.00  0.00     0.429 C 
ATOM     22  F   UNL A   1      30.040  24.308  23.894  1.00  0.00    -0.167 F 
ATOM     23  F   UNL A   1      31.473  24.968  22.428  1.00  0.00    -0.167 F 
ATOM     24  F   UNL A   1      32.126  24.643  24.479  1.00  0.00    -0.167 F 
ENDBRANCH  18  21
ENDBRANCH   6   9
ENDBRANCH   4   5
ENDBRANCH   3   4
ENDBRANCH   2   3
ENDBRANCH   1   2
BRANCH   1  25
ATOM     25  C   UNL A   1      31.395  32.133  26.763  1.00  0.00     0.021 C 
BRANCH  25  26
ATOM     26  C   UNL A   1      32.684  32.820  27.202  1.00  0.00     0.116 C 
BRANCH  26  27
ATOM     27  N   UNL A   1      32.451  34.205  27.577  1.00  0.00    -0.352 N 
ATOM     28  C   UNL A   1      33.002  34.930  28.604  1.00  0.00     0.251 C 
ATOM     29  H   UNL A   1      31.806  34.693  27.015  1.00  0.00     0.163 HD
ATOM     30  O   UNL A   1      32.521  36.008  28.934  1.00  0.00    -0.269 OA
BRANCH  28  31
ATOM     31  C   UNL A   1      34.179  34.397  29.321  1.00  0.00     0.039 A 
ATOM     32  C   UNL A   1      33.991  33.730  30.533  1.00  0.00     0.014 A 
ATOM     33  C   UNL A   1      35.464  34.564  28.798  1.00  0.00     0.014 A 
ATOM     34  C   UNL A   1      35.090  33.178  31.193  1.00  0.00     0.010 A 
ATOM     35  C   UNL A   1      36.548  33.952  29.419  1.00  0.00     0.010 A 
ATOM     36  C   UNL A   1      36.372  33.258  30.625  1.00  0.00    -0.014 A 
BRANCH  36  37
ATOM     37  C   UNL A   1      37.544  32.621  31.276  1.00  0.00     0.031 A 
ATOM     38  C   UNL A   1      38.259  31.486  30.596  1.00  0.00     0.074 A 
ATOM     39  C   UNL A   1      37.922  33.021  32.505  1.00  0.00     0.049 A 
ATOM     40  N   UNL A   1      39.248  30.748  31.034  1.00  0.00    -0.248 NA
ATOM     41  C   UNL A   1      37.783  31.115  29.253  1.00  0.00     0.031 C 
ATOM     42  C   UNL A   1      37.283  34.084  33.281  1.00  0.00     0.029 A 
ATOM     43  N   UNL A   1      38.928  32.572  33.323  1.00  0.00    -0.354 N 
ATOM     44  C   UNL A   1      39.503  29.824  30.029  1.00  0.00     0.074 A 
ATOM     45  C   UNL A   1      38.530  30.055  28.984  1.00  0.00     0.031 C 
ATOM     46  C   UNL A   1      37.925  34.221  34.452  1.00  0.00     0.029 A 
ATOM     47  C   UNL A   1      38.992  33.228  34.529  1.00  0.00     0.049 A 
ATOM     48  H   UNL A   1      39.546  31.849  33.070  1.00  0.00     0.167 HD
ATOM     49  C   UNL A   1      40.478  28.885  29.973  1.00  0.00     0.037 A 
ATOM     50  C   UNL A   1      39.812  33.040  35.580  1.00  0.00     0.037 A 
ATOM     51  C   UNL A   1      41.454  28.673  31.009  1.00  0.00     0.049 A 
ATOM     52  C   UNL A   1      40.867  31.968  35.503  1.00  0.00     0.074 A 
ATOM     53  C   UNL A   1      42.511  27.780  31.028  1.00  0.00     0.029 A 
ATOM     54  N   UNL A   1      41.491  29.362  32.213  1.00  0.00    -0.354 N 
ATOM     55  N   UNL A   1      41.139  31.143  34.523  1.00  0.00    -0.248 NA
ATOM     56  C   UNL A   1      41.731  31.806  36.681  1.00  0.00     0.031 C 
ATOM     57  C   UNL A   1      43.155  27.892  32.264  1.00  0.00     0.029 A 
ATOM     58  C   UNL A   1      42.537  28.895  32.993  1.00  0.00     0.049 A 
ATOM     59  H   UNL A   1      40.866  30.076  32.475  1.00  0.00     0.167 HD
ATOM     60  C   UNL A   1      42.224  30.388  34.949  1.00  0.00     0.074 A 
ATOM     61  C   UNL A   1      42.568  30.863  36.272  1.00  0.00     0.031 C 
ATOM     62  C   UNL A   1      42.875  29.390  34.303  1.00  0.00     0.037 A 
BRANCH  49  63
ATOM     63  C   UNL A   1      40.541  28.020  28.748  1.00  0.00     0.064 A 
ATOM     64  C   UNL A   1      41.319  28.376  27.636  1.00  0.00     0.173 A 
ATOM     65  C   UNL A   1      39.854  26.798  28.701  1.00  0.00     0.173 A 
ATOM     66  F   UNL A   1      41.988  29.539  27.623  1.00  0.00    -0.203 F 
ATOM     67  C   UNL A   1      41.384  27.555  26.512  1.00  0.00     0.198 A 
ATOM     68  C   UNL A   1      39.946  25.964  27.590  1.00  0.00     0.198 A 
ATOM     69  F   UNL A   1      39.099  26.405  29.739  1.00  0.00    -0.203 F 
ATOM     70  F   UNL A   1      42.095  27.941  25.443  1.00  0.00    -0.200 F 
ATOM     71  C   UNL A   1      40.704  26.347  26.494  1.00  0.00     0.200 A 
ATOM     72  F   UNL A   1      39.301  24.789  27.580  1.00  0.00    -0.200 F 
ATOM     73  F   UNL A   1      40.776  25.552  25.417  1.00  0.00    -0.200 F 
ENDBRANCH  49  63
BRANCH  50  74
ATOM     74  C   UNL A   1      39.681  33.892  36.791  1.00  0.00     0.064 A 
ATOM     75  C   UNL A   1      38.885  33.489  37.873  1.00  0.00     0.173 A 
ATOM     76  C   UNL A   1      40.326  35.134  36.887  1.00  0.00     0.173 A 
ATOM     77  F   UNL A   1      38.231  32.319  37.823  1.00  0.00    -0.203 F 
ATOM     78  C   UNL A   1      38.719  34.304  38.991  1.00  0.00     0.198 A 
ATOM     79  C   UNL A   1      40.186  35.935  38.018  1.00  0.00     0.198 A 
ATOM     80  F   UNL A   1      41.103  35.566  35.882  1.00  0.00    -0.203 F 
ATOM     81  F   UNL A   1      37.909  33.917  39.986  1.00  0.00    -0.200 F 
ATOM     82  C   UNL A   1      39.373  35.525  39.064  1.00  0.00     0.200 A 
ATOM     83  F   UNL A   1      40.832  37.106  38.091  1.00  0.00    -0.200 F 
ATOM     84  F   UNL A   1      39.213  36.309  40.139  1.00  0.00    -0.200 F 
ENDBRANCH  50  74
BRANCH  62  85
ATOM     85  C   UNL A   1      44.053  28.771  34.999  1.00  0.00     0.064 A 
ATOM     86  C   UNL A   1      43.914  27.648  35.828  1.00  0.00     0.173 A 
ATOM     87  C   UNL A   1      45.344  29.284  34.797  1.00  0.00     0.173 A 
ATOM     88  F   UNL A   1      42.700  27.130  36.065  1.00  0.00    -0.203 F 
ATOM     89  C   UNL A   1      45.022  27.076  36.448  1.00  0.00     0.198 A 
ATOM     90  C   UNL A   1      46.453  28.689  35.392  1.00  0.00     0.198 A 
ATOM     91  F   UNL A   1      45.531  30.352  34.009  1.00  0.00    -0.203 F 
ATOM     92  F   UNL A   1      44.860  26.034  37.274  1.00  0.00    -0.200 F 
ATOM     93  C   UNL A   1      46.290  27.590  36.222  1.00  0.00     0.200 A 
ATOM     94  F   UNL A   1      47.678  29.179  35.160  1.00  0.00    -0.200 F 
ATOM     95  F   UNL A   1      47.357  27.032  36.812  1.00  0.00    -0.200 F 
ENDBRANCH  62  85
ENDBRANCH  36  37
ENDBRANCH  28  31
ENDBRANCH  26  27
ENDBRANCH  25  26
ENDBRANCH   1  25
TORSDOF 15
ENDMDL
