MODEL 1
REMARK VINA RESULT:     -12.7      0.000      0.000
REMARK SMILES CCOc1ccc(-c2cc(Cl)cc3c2O[C@H](C(F)(F)F)C(C(=O)NCCCCCCNC(=O)c2ccc(-c4c5nc(c(-c6c(F)c(F)c(F)c(F)c6F)c6ccc([nH]6)c(-c6c(F)c(F)c(F)c(F)c6F)c6nc(c(-c7c(F)c(F)c(F)c(F)c7F)c7ccc4[nH]7)C=C6)C=C5)cc2)=C3)cc1
REMARK SMILES IDX 27 1 26 2 25 3 24 4 22 5 23 6 21 8 8 9 9 10 14 11 10 12
REMARK SMILES IDX 13 13 15 14 11 15 12 16 97 17 16 18 7 19 4 20 5 21 99 22
REMARK SMILES IDX 6 23 98 24 3 25 2 26 1 27 17 28 18 29 19 30 20 31 28 32
REMARK SMILES IDX 29 33 30 34 31 35 32 36 33 38 34 39 35 40 96 41 36 42 95 43
REMARK SMILES IDX 37 44 38 45 39 46 89 47 40 48 94 49 88 50 90 51 41 52 93 53
REMARK SMILES IDX 87 54 86 55 42 57 74 58 54 59 73 60 55 61 58 62 72 63 91 64
REMARK SMILES IDX 56 65 57 66 71 68 92 69 59 70 43 71 44 72 52 73 45 74 46 75
REMARK SMILES IDX 50 76 53 77 47 78 48 79 51 80 49 81 75 82 76 83 84 84 77 85
REMARK SMILES IDX 78 86 82 87 85 88 79 89 80 90 83 91 81 92 60 93 61 94 69 95
REMARK SMILES IDX 62 96 63 97 67 98 70 99 64 100 65 101 68 102 66 103
REMARK H PARENT 24 7 31 37 90 56 58 67
REMARK Flexibility Score: inf
ROOT
ATOM      1  C   UNL A   1      37.416  22.527  25.534  1.00  0.00     0.002 C 
ENDROOT
BRANCH   1   2
ATOM      2  C   UNL A   1      36.008  23.070  25.830  1.00  0.00     0.021 C 
BRANCH   2   3
ATOM      3  C   UNL A   1      34.879  22.395  25.038  1.00  0.00     0.116 C 
BRANCH   3   4
ATOM      4  N   UNL A   1      34.302  23.337  24.100  1.00  0.00    -0.352 N 
ATOM      5  C   UNL A   1      32.985  23.662  24.064  1.00  0.00     0.251 C 
ATOM      6  O   UNL A   1      32.344  23.557  23.026  1.00  0.00    -0.270 OA
ATOM      7  H   UNL A   1      34.903  23.766  23.448  1.00  0.00     0.163 HD
BRANCH   5   8
ATOM      8  C   UNL A   1      32.434  24.293  25.301  1.00  0.00     0.067 C 
ATOM      9  C   UNL A   1      31.335  27.891  23.753  1.00  0.00     0.026 A 
ATOM     10  C   UNL A   1      32.402  28.363  22.950  1.00  0.00     0.033 A 
ATOM     11  C   UNL A   1      31.620  26.809  24.602  1.00  0.00     0.135 A 
ATOM     12  C   UNL A   1      33.709  27.902  23.101  1.00  0.00     0.042 A 
ATOM     13  C   UNL A   1      32.968  26.435  24.824  1.00  0.00     0.019 A 
ATOM     14  O   UNL A   1      30.631  26.051  25.214  1.00  0.00    -0.475 OA
ATOM     15  Cl  UNL A   1      34.950  28.511  22.081  1.00  0.00    -0.084 Cl
ATOM     16  C   UNL A   1      34.013  26.983  24.088  1.00  0.00     0.032 A 
ATOM     17  C   UNL A   1      33.222  25.297  25.737  1.00  0.00     0.025 C 
ATOM     18  C   UNL A   1      30.941  24.596  25.233  1.00  0.00     0.314 C 
BRANCH   9  19
ATOM     19  C   UNL A   1      30.119  28.740  23.770  1.00  0.00    -0.014 A 
ATOM     20  C   UNL A   1      28.254  30.707  22.964  1.00  0.00     0.119 A 
ATOM     21  C   UNL A   1      28.054  29.375  22.613  1.00  0.00     0.047 A 
ATOM     22  C   UNL A   1      29.297  31.043  23.819  1.00  0.00     0.047 A 
ATOM     23  C   UNL A   1      28.976  28.398  23.019  1.00  0.00     0.013 A 
ATOM     24  C   UNL A   1      30.221  30.067  24.221  1.00  0.00     0.013 A 
BRANCH  20  25
ATOM     25  O   UNL A   1      27.354  31.633  22.513  1.00  0.00    -0.494 OA
BRANCH  25  26
ATOM     26  C   UNL A   1      27.930  32.658  21.687  1.00  0.00     0.226 C 
ATOM     27  C   UNL A   1      27.897  32.267  20.218  1.00  0.00     0.049 C 
ENDBRANCH  25  26
ENDBRANCH  20  25
ENDBRANCH   9  19
BRANCH  18  28
ATOM     28  C   UNL A   1      30.243  23.874  26.406  1.00  0.00     0.429 C 
ATOM     29  F   UNL A   1      31.037  23.753  27.493  1.00  0.00    -0.167 F 
ATOM     30  F   UNL A   1      29.120  24.528  26.786  1.00  0.00    -0.167 F 
ATOM     31  F   UNL A   1      29.849  22.614  26.076  1.00  0.00    -0.167 F 
ENDBRANCH  18  28
ENDBRANCH   5   8
ENDBRANCH   3   4
ENDBRANCH   2   3
ENDBRANCH   1   2
BRANCH   1  32
ATOM     32  C   UNL A   1      37.473  21.413  24.487  1.00  0.00     0.002 C 
BRANCH  32  33
ATOM     33  C   UNL A   1      38.174  20.137  24.951  1.00  0.00     0.021 C 
BRANCH  33  34
ATOM     34  C   UNL A   1      39.398  20.367  25.831  1.00  0.00     0.116 C 
BRANCH  34  35
ATOM     35  N   UNL A   1      40.297  19.222  25.852  1.00  0.00    -0.352 N 
ATOM     36  C   UNL A   1      41.649  19.188  26.088  1.00  0.00     0.251 C 
ATOM     37  H   UNL A   1      39.876  18.349  25.674  1.00  0.00     0.163 HD
ATOM     38  O   UNL A   1      42.290  18.155  25.924  1.00  0.00    -0.269 OA
BRANCH  36  39
ATOM     39  C   UNL A   1      42.338  20.424  26.509  1.00  0.00     0.039 A 
ATOM     40  C   UNL A   1      43.052  21.157  25.558  1.00  0.00     0.014 A 
ATOM     41  C   UNL A   1      42.233  20.882  27.825  1.00  0.00     0.014 A 
ATOM     42  C   UNL A   1      43.584  22.400  25.905  1.00  0.00     0.010 A 
ATOM     43  C   UNL A   1      42.711  22.147  28.152  1.00  0.00     0.010 A 
ATOM     44  C   UNL A   1      43.371  22.926  27.189  1.00  0.00    -0.014 A 
BRANCH  44  45
ATOM     45  C   UNL A   1      43.778  24.313  27.533  1.00  0.00     0.031 A 
ATOM     46  C   UNL A   1      42.744  25.336  27.904  1.00  0.00     0.074 A 
ATOM     47  C   UNL A   1      45.074  24.667  27.414  1.00  0.00     0.049 A 
ATOM     48  N   UNL A   1      42.891  26.619  28.118  1.00  0.00    -0.248 NA
ATOM     49  C   UNL A   1      41.357  24.861  28.028  1.00  0.00     0.031 C 
ATOM     50  C   UNL A   1      46.164  23.771  27.027  1.00  0.00     0.029 A 
ATOM     51  N   UNL A   1      45.690  25.882  27.588  1.00  0.00    -0.354 N 
ATOM     52  C   UNL A   1      41.619  27.105  28.385  1.00  0.00     0.074 A 
ATOM     53  C   UNL A   1      40.705  25.989  28.271  1.00  0.00     0.031 C 
ATOM     54  C   UNL A   1      47.314  24.462  27.004  1.00  0.00     0.029 A 
ATOM     55  C   UNL A   1      47.039  25.858  27.327  1.00  0.00     0.049 A 
ATOM     56  H   UNL A   1      45.211  26.693  27.873  1.00  0.00     0.167 HD
ATOM     57  C   UNL A   1      41.253  28.368  28.708  1.00  0.00     0.037 A 
ATOM     58  C   UNL A   1      47.945  26.853  27.325  1.00  0.00     0.037 A 
ATOM     59  C   UNL A   1      42.171  29.468  28.849  1.00  0.00     0.049 A 
ATOM     60  C   UNL A   1      47.499  28.252  27.653  1.00  0.00     0.074 A 
ATOM     61  C   UNL A   1      41.906  30.762  29.262  1.00  0.00     0.029 A 
ATOM     62  N   UNL A   1      43.528  29.406  28.573  1.00  0.00    -0.354 N 
ATOM     63  N   UNL A   1      46.307  28.684  27.985  1.00  0.00    -0.248 NA
ATOM     64  C   UNL A   1      48.524  29.304  27.601  1.00  0.00     0.031 C 
ATOM     65  C   UNL A   1      43.092  31.499  29.181  1.00  0.00     0.029 A 
ATOM     66  C   UNL A   1      44.106  30.651  28.766  1.00  0.00     0.049 A 
ATOM     67  H   UNL A   1      44.010  28.599  28.282  1.00  0.00     0.167 HD
ATOM     68  C   UNL A   1      46.444  30.049  28.204  1.00  0.00     0.074 A 
ATOM     69  C   UNL A   1      47.839  30.370  27.986  1.00  0.00     0.031 C 
ATOM     70  C   UNL A   1      45.497  30.954  28.549  1.00  0.00     0.037 A 
BRANCH  57  71
ATOM     71  C   UNL A   1      39.796  28.642  28.933  1.00  0.00     0.064 A 
ATOM     72  C   UNL A   1      39.200  28.472  30.191  1.00  0.00     0.173 A 
ATOM     73  C   UNL A   1      39.005  29.158  27.895  1.00  0.00     0.173 A 
ATOM     74  F   UNL A   1      39.911  27.974  31.214  1.00  0.00    -0.203 F 
ATOM     75  C   UNL A   1      37.860  28.792  30.398  1.00  0.00     0.198 A 
ATOM     76  C   UNL A   1      37.673  29.503  28.113  1.00  0.00     0.198 A 
ATOM     77  F   UNL A   1      39.529  29.347  26.675  1.00  0.00    -0.203 F 
ATOM     78  F   UNL A   1      37.303  28.592  31.600  1.00  0.00    -0.200 F 
ATOM     79  C   UNL A   1      37.101  29.317  29.362  1.00  0.00     0.200 A 
ATOM     80  F   UNL A   1      36.946  30.023  27.114  1.00  0.00    -0.200 F 
ATOM     81  F   UNL A   1      35.818  29.643  29.568  1.00  0.00    -0.200 F 
ENDBRANCH  57  71
BRANCH  58  82
ATOM     82  C   UNL A   1      49.369  26.573  26.995  1.00  0.00     0.064 A 
ATOM     83  C   UNL A   1      50.302  26.313  28.008  1.00  0.00     0.173 A 
ATOM     84  C   UNL A   1      49.832  26.594  25.672  1.00  0.00     0.173 A 
ATOM     85  F   UNL A   1      49.912  26.306  29.292  1.00  0.00    -0.203 F 
ATOM     86  C   UNL A   1      51.649  26.112  27.713  1.00  0.00     0.198 A 
ATOM     87  C   UNL A   1      51.173  26.362  25.375  1.00  0.00     0.198 A 
ATOM     88  F   UNL A   1      48.981  26.837  24.664  1.00  0.00    -0.203 F 
ATOM     89  F   UNL A   1      52.528  25.923  28.705  1.00  0.00    -0.200 F 
ATOM     90  C   UNL A   1      52.083  26.133  26.396  1.00  0.00     0.200 A 
ATOM     91  F   UNL A   1      51.586  26.370  24.100  1.00  0.00    -0.200 F 
ATOM     92  F   UNL A   1      53.378  25.942  26.113  1.00  0.00    -0.200 F 
ENDBRANCH  58  82
BRANCH  70  93
ATOM     93  C   UNL A   1      45.941  32.376  28.736  1.00  0.00     0.064 A 
ATOM     94  C   UNL A   1      45.896  33.302  27.684  1.00  0.00     0.173 A 
ATOM     95  C   UNL A   1      46.376  32.827  29.992  1.00  0.00     0.173 A 
ATOM     96  F   UNL A   1      45.505  32.915  26.460  1.00  0.00    -0.203 F 
ATOM     97  C   UNL A   1      46.290  34.623  27.877  1.00  0.00     0.198 A 
ATOM     98  C   UNL A   1      46.740  34.156  30.188  1.00  0.00     0.198 A 
ATOM     99  F   UNL A   1      46.432  31.983  31.032  1.00  0.00    -0.203 F 
ATOM    100  F   UNL A   1      46.282  35.480  26.846  1.00  0.00    -0.200 F 
ATOM    101  C   UNL A   1      46.703  35.051  29.130  1.00  0.00     0.200 A 
ATOM    102  F   UNL A   1      47.125  34.571  31.403  1.00  0.00    -0.200 F 
ATOM    103  F   UNL A   1      47.072  36.326  29.316  1.00  0.00    -0.200 F 
ENDBRANCH  70  93
ENDBRANCH  44  45
ENDBRANCH  36  39
ENDBRANCH  34  35
ENDBRANCH  33  34
ENDBRANCH  32  33
ENDBRANCH   1  32
TORSDOF 17
ENDMDL
MODEL 2
REMARK VINA RESULT:     -12.6      0.416      7.023
REMARK SMILES CCOc1ccc(-c2cc(Cl)cc3c2O[C@H](C(F)(F)F)C(C(=O)NCCCCCCNC(=O)c2ccc(-c4c5nc(c(-c6c(F)c(F)c(F)c(F)c6F)c6ccc([nH]6)c(-c6c(F)c(F)c(F)c(F)c6F)c6nc(c(-c7c(F)c(F)c(F)c(F)c7F)c7ccc4[nH]7)C=C6)C=C5)cc2)=C3)cc1
REMARK SMILES IDX 27 1 26 2 25 3 24 4 22 5 23 6 21 8 8 9 9 10 14 11 10 12
REMARK SMILES IDX 13 13 15 14 11 15 12 16 97 17 16 18 7 19 4 20 5 21 99 22
REMARK SMILES IDX 6 23 98 24 3 25 2 26 1 27 17 28 18 29 19 30 20 31 28 32
REMARK SMILES IDX 29 33 30 34 31 35 32 36 33 38 34 39 35 40 96 41 36 42 95 43
REMARK SMILES IDX 37 44 38 45 39 46 89 47 40 48 94 49 88 50 90 51 41 52 93 53
REMARK SMILES IDX 87 54 86 55 42 57 74 58 54 59 73 60 55 61 58 62 72 63 91 64
REMARK SMILES IDX 56 65 57 66 71 68 92 69 59 70 43 71 44 72 52 73 45 74 46 75
REMARK SMILES IDX 50 76 53 77 47 78 48 79 51 80 49 81 75 82 76 83 84 84 77 85
REMARK SMILES IDX 78 86 82 87 85 88 79 89 80 90 83 91 81 92 60 93 61 94 69 95
REMARK SMILES IDX 62 96 63 97 67 98 70 99 64 100 65 101 68 102 66 103
REMARK H PARENT 24 7 31 37 90 56 58 67
REMARK Flexibility Score: inf
ROOT
ATOM      1  C   UNL A   1      37.361  22.054  25.550  1.00  0.00     0.002 C 
ENDROOT
BRANCH   1   2
ATOM      2  C   UNL A   1      36.047  22.844  25.671  1.00  0.00     0.021 C 
BRANCH   2   3
ATOM      3  C   UNL A   1      34.853  22.223  24.932  1.00  0.00     0.116 C 
BRANCH   3   4
ATOM      4  N   UNL A   1      34.285  23.189  24.013  1.00  0.00    -0.352 N 
ATOM      5  C   UNL A   1      32.974  23.544  23.999  1.00  0.00     0.251 C 
ATOM      6  O   UNL A   1      32.318  23.465  22.969  1.00  0.00    -0.270 OA
ATOM      7  H   UNL A   1      34.886  23.613  23.359  1.00  0.00     0.163 HD
BRANCH   5   8
ATOM      8  C   UNL A   1      32.454  24.171  25.251  1.00  0.00     0.067 C 
ATOM      9  C   UNL A   1      31.320  27.774  23.741  1.00  0.00     0.026 A 
ATOM     10  C   UNL A   1      32.367  28.248  22.913  1.00  0.00     0.033 A 
ATOM     11  C   UNL A   1      31.625  26.689  24.579  1.00  0.00     0.135 A 
ATOM     12  C   UNL A   1      33.677  27.786  23.031  1.00  0.00     0.042 A 
ATOM     13  C   UNL A   1      32.978  26.314  24.767  1.00  0.00     0.019 A 
ATOM     14  O   UNL A   1      30.650  25.931  25.213  1.00  0.00    -0.475 OA
ATOM     15  Cl  UNL A   1      34.894  28.397  21.983  1.00  0.00    -0.084 Cl
ATOM     16  C   UNL A   1      34.004  26.864  24.008  1.00  0.00     0.032 A 
ATOM     17  C   UNL A   1      33.252  25.173  25.670  1.00  0.00     0.025 C 
ATOM     18  C   UNL A   1      30.960  24.475  25.220  1.00  0.00     0.314 C 
BRANCH   9  19
ATOM     19  C   UNL A   1      30.105  28.623  23.789  1.00  0.00    -0.014 A 
ATOM     20  C   UNL A   1      28.209  30.577  23.021  1.00  0.00     0.119 A 
ATOM     21  C   UNL A   1      27.997  29.240  22.701  1.00  0.00     0.047 A 
ATOM     22  C   UNL A   1      29.285  30.928  23.831  1.00  0.00     0.047 A 
ATOM     23  C   UNL A   1      28.934  28.270  23.089  1.00  0.00     0.013 A 
ATOM     24  C   UNL A   1      30.223  29.958  24.214  1.00  0.00     0.013 A 
BRANCH  20  25
ATOM     25  O   UNL A   1      27.293  31.496  22.589  1.00  0.00    -0.494 OA
BRANCH  25  26
ATOM     26  C   UNL A   1      27.847  32.537  21.770  1.00  0.00     0.226 C 
ATOM     27  C   UNL A   1      27.939  32.105  20.315  1.00  0.00     0.049 C 
ENDBRANCH  25  26
ENDBRANCH  20  25
ENDBRANCH   9  19
BRANCH  18  28
ATOM     28  C   UNL A   1      30.290  23.750  26.408  1.00  0.00     0.429 C 
ATOM     29  F   UNL A   1      29.169  24.373  26.835  1.00  0.00    -0.167 F 
ATOM     30  F   UNL A   1      29.956  22.479  26.081  1.00  0.00    -0.167 F 
ATOM     31  F   UNL A   1      31.114  23.655  27.486  1.00  0.00    -0.167 F 
ENDBRANCH  18  28
ENDBRANCH   5   8
ENDBRANCH   3   4
ENDBRANCH   2   3
ENDBRANCH   1   2
BRANCH   1  32
ATOM     32  C   UNL A   1      37.306  20.846  24.612  1.00  0.00     0.002 C 
BRANCH  32  33
ATOM     33  C   UNL A   1      38.220  19.688  25.009  1.00  0.00     0.021 C 
BRANCH  33  34
ATOM     34  C   UNL A   1      39.479  20.102  25.765  1.00  0.00     0.116 C 
BRANCH  34  35
ATOM     35  N   UNL A   1      40.440  19.015  25.889  1.00  0.00    -0.352 N 
ATOM     36  C   UNL A   1      41.796  19.079  26.098  1.00  0.00     0.251 C 
ATOM     37  H   UNL A   1      40.066  18.107  25.814  1.00  0.00     0.163 HD
ATOM     38  O   UNL A   1      42.491  18.071  26.031  1.00  0.00    -0.269 OA
BRANCH  36  39
ATOM     39  C   UNL A   1      42.421  20.389  26.369  1.00  0.00     0.039 A 
ATOM     40  C   UNL A   1      43.017  21.084  25.314  1.00  0.00     0.014 A 
ATOM     41  C   UNL A   1      42.371  20.949  27.648  1.00  0.00     0.014 A 
ATOM     42  C   UNL A   1      43.482  22.384  25.522  1.00  0.00     0.010 A 
ATOM     43  C   UNL A   1      42.778  22.265  27.839  1.00  0.00     0.010 A 
ATOM     44  C   UNL A   1      43.317  23.002  26.772  1.00  0.00    -0.014 A 
BRANCH  44  45
ATOM     45  C   UNL A   1      43.645  24.436  26.975  1.00  0.00     0.031 A 
ATOM     46  C   UNL A   1      45.054  24.924  26.797  1.00  0.00     0.074 A 
ATOM     47  C   UNL A   1      42.685  25.275  27.415  1.00  0.00     0.049 A 
ATOM     48  N   UNL A   1      45.555  26.108  27.044  1.00  0.00    -0.248 NA
ATOM     49  C   UNL A   1      46.034  23.947  26.298  1.00  0.00     0.031 C 
ATOM     50  C   UNL A   1      41.289  24.910  27.660  1.00  0.00     0.029 A 
ATOM     51  N   UNL A   1      42.744  26.605  27.754  1.00  0.00    -0.354 N 
ATOM     52  C   UNL A   1      46.908  26.014  26.747  1.00  0.00     0.074 A 
ATOM     53  C   UNL A   1      47.158  24.649  26.335  1.00  0.00     0.031 C 
ATOM     54  C   UNL A   1      40.622  25.989  28.097  1.00  0.00     0.029 A 
ATOM     55  C   UNL A   1      41.550  27.109  28.210  1.00  0.00     0.049 A 
ATOM     56  H   UNL A   1      43.562  27.144  27.677  1.00  0.00     0.167 HD
ATOM     57  C   UNL A   1      47.849  26.985  26.802  1.00  0.00     0.037 A 
ATOM     58  C   UNL A   1      41.244  28.330  28.688  1.00  0.00     0.037 A 
ATOM     59  C   UNL A   1      47.587  28.349  27.182  1.00  0.00     0.049 A 
ATOM     60  C   UNL A   1      42.323  29.377  28.770  1.00  0.00     0.074 A 
ATOM     61  C   UNL A   1      48.458  29.425  27.180  1.00  0.00     0.029 A 
ATOM     62  N   UNL A   1      46.368  28.821  27.642  1.00  0.00    -0.354 N 
ATOM     63  N   UNL A   1      43.579  29.300  28.408  1.00  0.00    -0.248 NA
ATOM     64  C   UNL A   1      41.941  30.680  29.333  1.00  0.00     0.031 C 
ATOM     65  C   UNL A   1      47.781  30.536  27.693  1.00  0.00     0.029 A 
ATOM     66  C   UNL A   1      46.474  30.165  27.966  1.00  0.00     0.049 A 
ATOM     67  H   UNL A   1      45.548  28.283  27.726  1.00  0.00     0.167 HD
ATOM     68  C   UNL A   1      44.130  30.546  28.675  1.00  0.00     0.074 A 
ATOM     69  C   UNL A   1      43.066  31.368  29.212  1.00  0.00     0.031 C 
ATOM     70  C   UNL A   1      45.405  30.970  28.496  1.00  0.00     0.037 A 
BRANCH  57  71
ATOM     71  C   UNL A   1      49.259  26.619  26.443  1.00  0.00     0.064 A 
ATOM     72  C   UNL A   1      49.746  26.758  25.135  1.00  0.00     0.173 A 
ATOM     73  C   UNL A   1      50.155  26.200  27.437  1.00  0.00     0.173 A 
ATOM     74  F   UNL A   1      48.927  27.148  24.147  1.00  0.00    -0.203 F 
ATOM     75  C   UNL A   1      51.076  26.475  24.832  1.00  0.00     0.198 A 
ATOM     76  C   UNL A   1      51.491  25.944  27.137  1.00  0.00     0.198 A 
ATOM     77  F   UNL A   1      49.741  26.057  28.705  1.00  0.00    -0.203 F 
ATOM     78  F   UNL A   1      51.512  26.585  23.571  1.00  0.00    -0.200 F 
ATOM     79  C   UNL A   1      51.949  26.078  25.836  1.00  0.00     0.200 A 
ATOM     80  F   UNL A   1      52.336  25.573  28.109  1.00  0.00    -0.200 F 
ATOM     81  F   UNL A   1      53.233  25.824  25.546  1.00  0.00    -0.200 F 
ENDBRANCH  57  71
BRANCH  58  82
ATOM     82  C   UNL A   1      39.860  28.637  29.137  1.00  0.00     0.064 A 
ATOM     83  C   UNL A   1      39.454  28.366  30.451  1.00  0.00     0.173 A 
ATOM     84  C   UNL A   1      38.906  29.173  28.259  1.00  0.00     0.173 A 
ATOM     85  F   UNL A   1      40.323  27.829  31.322  1.00  0.00    -0.203 F 
ATOM     86  C   UNL A   1      38.142  28.591  30.862  1.00  0.00     0.198 A 
ATOM     87  C   UNL A   1      37.603  29.428  28.680  1.00  0.00     0.198 A 
ATOM     88  F   UNL A   1      39.241  29.453  26.991  1.00  0.00    -0.203 F 
ATOM     89  F   UNL A   1      37.769  28.268  32.108  1.00  0.00    -0.200 F 
ATOM     90  C   UNL A   1      37.219  29.126  29.978  1.00  0.00     0.200 A 
ATOM     91  F   UNL A   1      36.717  29.958  27.825  1.00  0.00    -0.200 F 
ATOM     92  F   UNL A   1      35.957  29.341  30.372  1.00  0.00    -0.200 F 
ENDBRANCH  58  82
BRANCH  70  93
ATOM     93  C   UNL A   1      45.714  32.392  28.863  1.00  0.00     0.064 A 
ATOM     94  C   UNL A   1      46.236  32.727  30.121  1.00  0.00     0.173 A 
ATOM     95  C   UNL A   1      45.528  33.424  27.931  1.00  0.00     0.173 A 
ATOM     96  F   UNL A   1      46.415  31.778  31.052  1.00  0.00    -0.203 F 
ATOM     97  C   UNL A   1      46.539  34.048  30.440  1.00  0.00     0.198 A 
ATOM     98  C   UNL A   1      45.861  34.740  28.243  1.00  0.00     0.198 A 
ATOM     99  F   UNL A   1      45.038  33.156  26.712  1.00  0.00    -0.203 F 
ATOM    100  F   UNL A   1      46.993  34.352  31.664  1.00  0.00    -0.200 F 
ATOM    101  C   UNL A   1      46.360  35.051  29.499  1.00  0.00     0.200 A 
ATOM    102  F   UNL A   1      45.701  35.705  27.327  1.00  0.00    -0.200 F 
ATOM    103  F   UNL A   1      46.662  36.320  29.804  1.00  0.00    -0.200 F 
ENDBRANCH  70  93
ENDBRANCH  44  45
ENDBRANCH  36  39
ENDBRANCH  34  35
ENDBRANCH  33  34
ENDBRANCH  32  33
ENDBRANCH   1  32
TORSDOF 17
ENDMDL
MODEL 3
REMARK VINA RESULT:     -12.5      1.352      7.185
REMARK SMILES CCOc1ccc(-c2cc(Cl)cc3c2O[C@H](C(F)(F)F)C(C(=O)NCCCCCCNC(=O)c2ccc(-c4c5nc(c(-c6c(F)c(F)c(F)c(F)c6F)c6ccc([nH]6)c(-c6c(F)c(F)c(F)c(F)c6F)c6nc(c(-c7c(F)c(F)c(F)c(F)c7F)c7ccc4[nH]7)C=C6)C=C5)cc2)=C3)cc1
REMARK SMILES IDX 27 1 26 2 25 3 24 4 22 5 23 6 21 8 8 9 9 10 14 11 10 12
REMARK SMILES IDX 13 13 15 14 11 15 12 16 97 17 16 18 7 19 4 20 5 21 99 22
REMARK SMILES IDX 6 23 98 24 3 25 2 26 1 27 17 28 18 29 19 30 20 31 28 32
REMARK SMILES IDX 29 33 30 34 31 35 32 36 33 38 34 39 35 40 96 41 36 42 95 43
REMARK SMILES IDX 37 44 38 45 39 46 89 47 40 48 94 49 88 50 90 51 41 52 93 53
REMARK SMILES IDX 87 54 86 55 42 57 74 58 54 59 73 60 55 61 58 62 72 63 91 64
REMARK SMILES IDX 56 65 57 66 71 68 92 69 59 70 43 71 44 72 52 73 45 74 46 75
REMARK SMILES IDX 50 76 53 77 47 78 48 79 51 80 49 81 75 82 76 83 84 84 77 85
REMARK SMILES IDX 78 86 82 87 85 88 79 89 80 90 83 91 81 92 60 93 61 94 69 95
REMARK SMILES IDX 62 96 63 97 67 98 70 99 64 100 65 101 68 102 66 103
REMARK H PARENT 24 7 31 37 90 56 58 67
REMARK Flexibility Score: inf
ROOT
ATOM      1  C   UNL A   1      37.701  22.826  25.780  1.00  0.00     0.002 C 
ENDROOT
BRANCH   1   2
ATOM      2  C   UNL A   1      36.663  21.724  25.506  1.00  0.00     0.021 C 
BRANCH   2   3
ATOM      3  C   UNL A   1      35.277  21.980  26.117  1.00  0.00     0.116 C 
BRANCH   3   4
ATOM      4  N   UNL A   1      35.027  23.405  26.193  1.00  0.00    -0.352 N 
ATOM      5  C   UNL A   1      34.318  24.102  25.267  1.00  0.00     0.251 C 
ATOM      6  O   UNL A   1      34.800  25.087  24.725  1.00  0.00    -0.270 OA
ATOM      7  H   UNL A   1      35.395  23.899  26.961  1.00  0.00     0.163 HD
BRANCH   5   8
ATOM      8  C   UNL A   1      32.895  23.687  25.088  1.00  0.00     0.067 C 
ATOM      9  C   UNL A   1      31.256  27.329  24.315  1.00  0.00     0.026 A 
ATOM     10  C   UNL A   1      31.771  28.247  25.263  1.00  0.00     0.033 A 
ATOM     11  C   UNL A   1      31.472  25.967  24.581  1.00  0.00     0.135 A 
ATOM     12  C   UNL A   1      32.315  27.837  26.479  1.00  0.00     0.042 A 
ATOM     13  C   UNL A   1      31.920  25.570  25.865  1.00  0.00     0.019 A 
ATOM     14  O   UNL A   1      31.302  24.977  23.622  1.00  0.00    -0.475 OA
ATOM     15  Cl  UNL A   1      32.933  29.007  27.574  1.00  0.00    -0.084 Cl
ATOM     16  C   UNL A   1      32.330  26.497  26.817  1.00  0.00     0.032 A 
ATOM     17  C   UNL A   1      32.120  24.123  26.103  1.00  0.00     0.025 C 
ATOM     18  C   UNL A   1      32.350  23.922  23.684  1.00  0.00     0.314 C 
BRANCH   9  19
ATOM     19  C   UNL A   1      30.357  27.905  23.285  1.00  0.00    -0.014 A 
ATOM     20  C   UNL A   1      28.564  29.707  22.046  1.00  0.00     0.119 A 
ATOM     21  C   UNL A   1      29.925  29.778  21.765  1.00  0.00     0.047 A 
ATOM     22  C   UNL A   1      28.078  28.667  22.831  1.00  0.00     0.047 A 
ATOM     23  C   UNL A   1      30.814  28.879  22.375  1.00  0.00     0.013 A 
ATOM     24  C   UNL A   1      28.966  27.772  23.443  1.00  0.00     0.013 A 
BRANCH  20  25
ATOM     25  O   UNL A   1      27.738  30.628  21.463  1.00  0.00    -0.494 OA
BRANCH  25  26
ATOM     26  C   UNL A   1      28.098  31.993  21.733  1.00  0.00     0.226 C 
ATOM     27  C   UNL A   1      28.128  32.271  23.228  1.00  0.00     0.049 C 
ENDBRANCH  25  26
ENDBRANCH  20  25
ENDBRANCH   9  19
BRANCH  18  28
ATOM     28  C   UNL A   1      31.843  22.575  23.124  1.00  0.00     0.429 C 
ATOM     29  F   UNL A   1      30.544  22.618  22.753  1.00  0.00    -0.167 F 
ATOM     30  F   UNL A   1      32.567  22.188  22.048  1.00  0.00    -0.167 F 
ATOM     31  F   UNL A   1      31.952  21.566  24.031  1.00  0.00    -0.167 F 
ENDBRANCH  18  28
ENDBRANCH   5   8
ENDBRANCH   3   4
ENDBRANCH   2   3
ENDBRANCH   1   2
BRANCH   1  32
ATOM     32  C   UNL A   1      39.093  22.322  26.166  1.00  0.00     0.002 C 
BRANCH  32  33
ATOM     33  C   UNL A   1      39.166  20.827  26.475  1.00  0.00     0.021 C 
BRANCH  33  34
ATOM     34  C   UNL A   1      39.688  19.964  25.331  1.00  0.00     0.116 C 
BRANCH  34  35
ATOM     35  N   UNL A   1      40.576  18.905  25.787  1.00  0.00    -0.352 N 
ATOM     36  C   UNL A   1      41.865  18.997  26.252  1.00  0.00     0.251 C 
ATOM     37  H   UNL A   1      40.200  17.995  25.760  1.00  0.00     0.163 HD
ATOM     38  O   UNL A   1      42.532  17.989  26.459  1.00  0.00    -0.269 OA
BRANCH  36  39
ATOM     39  C   UNL A   1      42.459  20.332  26.466  1.00  0.00     0.039 A 
ATOM     40  C   UNL A   1      42.989  21.019  25.371  1.00  0.00     0.014 A 
ATOM     41  C   UNL A   1      42.444  20.921  27.733  1.00  0.00     0.014 A 
ATOM     42  C   UNL A   1      43.420  22.337  25.529  1.00  0.00     0.010 A 
ATOM     43  C   UNL A   1      42.816  22.254  27.875  1.00  0.00     0.010 A 
ATOM     44  C   UNL A   1      43.287  22.980  26.770  1.00  0.00    -0.014 A 
BRANCH  44  45
ATOM     45  C   UNL A   1      43.578  24.428  26.925  1.00  0.00     0.031 A 
ATOM     46  C   UNL A   1      44.967  24.951  26.699  1.00  0.00     0.074 A 
ATOM     47  C   UNL A   1      42.605  25.251  27.366  1.00  0.00     0.049 A 
ATOM     48  N   UNL A   1      45.439  26.155  26.901  1.00  0.00    -0.248 NA
ATOM     49  C   UNL A   1      45.963  23.989  26.203  1.00  0.00     0.031 C 
ATOM     50  C   UNL A   1      41.226  24.853  27.655  1.00  0.00     0.029 A 
ATOM     51  N   UNL A   1      42.632  26.591  27.667  1.00  0.00    -0.354 N 
ATOM     52  C   UNL A   1      46.786  26.092  26.573  1.00  0.00     0.074 A 
ATOM     53  C   UNL A   1      47.067  24.724  26.193  1.00  0.00     0.031 C 
ATOM     54  C   UNL A   1      40.538  25.924  28.079  1.00  0.00     0.029 A 
ATOM     55  C   UNL A   1      41.435  27.074  28.139  1.00  0.00     0.049 A 
ATOM     56  H   UNL A   1      43.433  27.152  27.555  1.00  0.00     0.167 HD
ATOM     57  C   UNL A   1      47.700  27.091  26.578  1.00  0.00     0.037 A 
ATOM     58  C   UNL A   1      41.106  28.298  28.591  1.00  0.00     0.037 A 
ATOM     59  C   UNL A   1      47.407  28.457  26.928  1.00  0.00     0.049 A 
ATOM     60  C   UNL A   1      42.155  29.377  28.617  1.00  0.00     0.074 A 
ATOM     61  C   UNL A   1      48.246  29.557  26.875  1.00  0.00     0.029 A 
ATOM     62  N   UNL A   1      46.186  28.906  27.405  1.00  0.00    -0.354 N 
ATOM     63  N   UNL A   1      43.404  29.326  28.226  1.00  0.00    -0.248 NA
ATOM     64  C   UNL A   1      41.748  30.684  29.154  1.00  0.00     0.031 C 
ATOM     65  C   UNL A   1      47.549  30.662  27.374  1.00  0.00     0.029 A 
ATOM     66  C   UNL A   1      46.261  30.261  27.689  1.00  0.00     0.049 A 
ATOM     67  H   UNL A   1      45.385  28.348  27.524  1.00  0.00     0.167 HD
ATOM     68  C   UNL A   1      43.925  30.595  28.445  1.00  0.00     0.074 A 
ATOM     69  C   UNL A   1      42.850  31.400  28.986  1.00  0.00     0.031 C 
ATOM     70  C   UNL A   1      45.181  31.050  28.223  1.00  0.00     0.037 A 
BRANCH  57  71
ATOM     71  C   UNL A   1      49.111  26.756  26.195  1.00  0.00     0.064 A 
ATOM     72  C   UNL A   1      49.562  26.869  24.871  1.00  0.00     0.173 A 
ATOM     73  C   UNL A   1      50.044  26.392  27.178  1.00  0.00     0.173 A 
ATOM     74  F   UNL A   1      48.708  27.205  23.893  1.00  0.00    -0.203 F 
ATOM     75  C   UNL A   1      50.891  26.616  24.544  1.00  0.00     0.198 A 
ATOM     76  C   UNL A   1      51.378  26.166  26.851  1.00  0.00     0.198 A 
ATOM     77  F   UNL A   1      49.665  26.276  28.460  1.00  0.00    -0.203 F 
ATOM     78  F   UNL A   1      51.293  26.701  23.269  1.00  0.00    -0.200 F 
ATOM     79  C   UNL A   1      51.800  26.275  25.535  1.00  0.00     0.200 A 
ATOM     80  F   UNL A   1      52.257  25.850  27.812  1.00  0.00    -0.200 F 
ATOM     81  F   UNL A   1      53.084  26.050  25.221  1.00  0.00    -0.200 F 
ENDBRANCH  57  71
BRANCH  58  82
ATOM     82  C   UNL A   1      39.724  28.578  29.065  1.00  0.00     0.064 A 
ATOM     83  C   UNL A   1      38.763  29.118  28.198  1.00  0.00     0.173 A 
ATOM     84  C   UNL A   1      39.344  28.346  30.395  1.00  0.00     0.173 A 
ATOM     85  F   UNL A   1      39.085  29.381  26.922  1.00  0.00    -0.203 F 
ATOM     86  C   UNL A   1      37.485  29.442  28.650  1.00  0.00     0.198 A 
ATOM     87  C   UNL A   1      38.057  28.641  30.838  1.00  0.00     0.198 A 
ATOM     88  F   UNL A   1      40.224  27.830  31.266  1.00  0.00    -0.203 F 
ATOM     89  F   UNL A   1      36.607  30.010  27.814  1.00  0.00    -0.200 F 
ATOM     90  C   UNL A   1      37.132  29.199  29.968  1.00  0.00     0.200 A 
ATOM     91  F   UNL A   1      37.715  28.393  32.110  1.00  0.00    -0.200 F 
ATOM     92  F   UNL A   1      35.904  29.513  30.403  1.00  0.00    -0.200 F 
ENDBRANCH  58  82
BRANCH  70  93
ATOM     93  C   UNL A   1      45.458  32.490  28.543  1.00  0.00     0.064 A 
ATOM     94  C   UNL A   1      45.221  33.507  27.608  1.00  0.00     0.173 A 
ATOM     95  C   UNL A   1      45.923  32.860  29.814  1.00  0.00     0.173 A 
ATOM     96  F   UNL A   1      44.794  33.202  26.373  1.00  0.00    -0.203 F 
ATOM     97  C   UNL A   1      45.462  34.841  27.925  1.00  0.00     0.198 A 
ATOM     98  C   UNL A   1      46.133  34.198  30.139  1.00  0.00     0.198 A 
ATOM     99  F   UNL A   1      46.159  31.926  30.748  1.00  0.00    -0.203 F 
ATOM    100  F   UNL A   1      45.273  35.792  27.000  1.00  0.00    -0.200 F 
ATOM    101  C   UNL A   1      45.909  35.185  29.192  1.00  0.00     0.200 A 
ATOM    102  F   UNL A   1      46.550  34.530  31.368  1.00  0.00    -0.200 F 
ATOM    103  F   UNL A   1      46.129  36.471  29.500  1.00  0.00    -0.200 F 
ENDBRANCH  70  93
ENDBRANCH  44  45
ENDBRANCH  36  39
ENDBRANCH  34  35
ENDBRANCH  33  34
ENDBRANCH  32  33
ENDBRANCH   1  32
TORSDOF 17
ENDMDL
