MODEL 1
REMARK VINA RESULT:      -8.9      0.000      0.000
REMARK SMILES CCOC(=O)[C@H](c1ccccc1)N1C(=O)/C(=C/c2ccc(C(=O)NCCCCCCNC(=O)c3ccc(-c4c5nc(c(-c6c(F)c(F)c(F)c(F)c6F)c6ccc([nH]6)c(-c6c(F)c(F)c(F)c(F)c6F)c6nc(c(-c7c(F)c(F)c(F)c(F)c7F)c7ccc4[nH]7)C=C6)C=C5)cc3)cc2)SC1=S
REMARK SMILES IDX 26 1 25 2 24 3 22 4 23 5 21 7 18 8 19 9 98 10 20 11 97 12
REMARK SMILES IDX 17 13 13 14 14 15 100 16 15 17 16 18 99 19 101 20 6 21 4 22
REMARK SMILES IDX 5 23 3 24 2 25 1 26 7 27 8 28 12 29 9 30 11 31 10 32 27 33
REMARK SMILES IDX 28 34 29 35 30 36 31 37 32 38 33 40 34 41 35 42 96 43 36 44
REMARK SMILES IDX 95 45 37 46 38 47 39 48 89 49 40 50 94 51 88 52 90 53 41 54
REMARK SMILES IDX 93 55 87 56 86 57 42 59 74 60 54 61 73 62 55 63 58 64 72 65
REMARK SMILES IDX 91 66 56 67 57 68 71 70 92 71 59 72 43 73 44 74 52 75 45 76
REMARK SMILES IDX 46 77 50 78 53 79 47 80 48 81 51 82 49 83 75 84 76 85 84 86
REMARK SMILES IDX 77 87 78 88 82 89 85 90 79 91 80 92 83 93 81 94 60 95 61 96
REMARK SMILES IDX 69 97 62 98 63 99 67 100 70 101 64 102 65 103 68 104 66 105
REMARK H PARENT 24 6 31 39 90 58 58 69
REMARK Flexibility Score: inf
ROOT
ATOM      1  C   UNL A   1      44.189  23.079  29.993  1.00  0.00     0.021 C 
ENDROOT
BRANCH   1   2
ATOM      2  C   UNL A   1      42.990  22.752  29.100  1.00  0.00     0.116 C 
BRANCH   2   3
ATOM      3  N   UNL A   1      43.203  23.269  27.761  1.00  0.00    -0.352 N 
ATOM      4  C   UNL A   1      42.622  24.308  27.081  1.00  0.00     0.251 C 
ATOM      5  O   UNL A   1      43.022  24.565  25.947  1.00  0.00    -0.269 OA
ATOM      6  H   UNL A   1      43.888  22.784  27.246  1.00  0.00     0.163 HD
BRANCH   4   7
ATOM      7  C   UNL A   1      41.571  25.165  27.689  1.00  0.00     0.039 A 
ATOM      8  C   UNL A   1      39.689  26.809  28.959  1.00  0.00    -0.024 A 
ATOM      9  C   UNL A   1      41.051  27.022  29.174  1.00  0.00     0.009 A 
ATOM     10  C   UNL A   1      39.272  25.809  28.075  1.00  0.00     0.009 A 
ATOM     11  C   UNL A   1      41.988  26.199  28.541  1.00  0.00     0.014 A 
ATOM     12  C   UNL A   1      40.210  25.012  27.421  1.00  0.00     0.014 A 
BRANCH   8  13
ATOM     13  C   UNL A   1      38.664  27.631  29.593  1.00  0.00     0.029 C 
ATOM     14  N   UNL A   1      38.147  30.817  31.198  1.00  0.00    -0.274 N 
ATOM     15  C   UNL A   1      37.797  29.514  30.895  1.00  0.00     0.267 C 
ATOM     16  C   UNL A   1      39.415  31.201  30.806  1.00  0.00     0.149 C 
ATOM     17  O   UNL A   1      36.827  28.889  31.291  1.00  0.00    -0.268 OA
ATOM     18  C   UNL A   1      38.844  28.869  30.067  1.00  0.00     0.081 C 
ATOM     19  S   UNL A   1      40.211  29.886  29.939  1.00  0.00    -0.054 SA
ATOM     20  S   UNL A   1      40.191  32.659  31.054  1.00  0.00    -0.052 S 
BRANCH  14  21
ATOM     21  C   UNL A   1      37.253  31.655  32.028  1.00  0.00     0.232 C 
BRANCH  21  22
ATOM     22  C   UNL A   1      36.927  32.959  31.278  1.00  0.00     0.333 C 
ATOM     23  O   UNL A   1      37.133  34.101  31.663  1.00  0.00    -0.249 OA
BRANCH  22  24
ATOM     24  O   UNL A   1      36.466  32.651  30.024  1.00  0.00    -0.464 OA
BRANCH  24  25
ATOM     25  C   UNL A   1      35.138  33.089  29.700  1.00  0.00     0.229 C 
ATOM     26  C   UNL A   1      35.176  33.833  28.380  1.00  0.00     0.049 C 
ENDBRANCH  24  25
ENDBRANCH  22  24
ENDBRANCH  21  22
BRANCH  21  27
ATOM     27  C   UNL A   1      37.712  31.808  33.479  1.00  0.00    -0.014 A 
ATOM     28  C   UNL A   1      38.675  30.975  34.071  1.00  0.00     0.006 A 
ATOM     29  C   UNL A   1      37.113  32.793  34.288  1.00  0.00     0.006 A 
ATOM     30  C   UNL A   1      38.999  31.087  35.424  1.00  0.00     0.000 A 
ATOM     31  C   UNL A   1      37.458  32.923  35.636  1.00  0.00     0.000 A 
ATOM     32  C   UNL A   1      38.390  32.063  36.207  1.00  0.00     0.000 A 
ENDBRANCH  21  27
ENDBRANCH  14  21
ENDBRANCH   8  13
ENDBRANCH   4   7
ENDBRANCH   2   3
ENDBRANCH   1   2
BRANCH   1  33
ATOM     33  C   UNL A   1      43.858  24.067  31.119  1.00  0.00     0.002 C 
BRANCH  33  34
ATOM     34  C   UNL A   1      44.545  23.771  32.457  1.00  0.00     0.002 C 
BRANCH  34  35
ATOM     35  C   UNL A   1      43.669  23.063  33.494  1.00  0.00     0.021 C 
BRANCH  35  36
ATOM     36  C   UNL A   1      44.069  23.325  34.943  1.00  0.00     0.116 C 
BRANCH  36  37
ATOM     37  N   UNL A   1      42.908  23.413  35.817  1.00  0.00    -0.352 N 
ATOM     38  C   UNL A   1      42.205  24.522  36.217  1.00  0.00     0.251 C 
ATOM     39  H   UNL A   1      42.581  22.555  36.172  1.00  0.00     0.163 HD
ATOM     40  O   UNL A   1      41.388  24.449  37.127  1.00  0.00    -0.269 OA
BRANCH  38  41
ATOM     41  C   UNL A   1      42.450  25.818  35.551  1.00  0.00     0.039 A 
ATOM     42  C   UNL A   1      43.680  26.455  35.732  1.00  0.00     0.014 A 
ATOM     43  C   UNL A   1      41.463  26.402  34.752  1.00  0.00     0.014 A 
ATOM     44  C   UNL A   1      43.950  27.643  35.051  1.00  0.00     0.010 A 
ATOM     45  C   UNL A   1      41.752  27.556  34.031  1.00  0.00     0.010 A 
ATOM     46  C   UNL A   1      43.001  28.183  34.167  1.00  0.00    -0.014 A 
BRANCH  46  47
ATOM     47  C   UNL A   1      43.295  29.386  33.352  1.00  0.00     0.031 A 
ATOM     48  C   UNL A   1      43.025  30.755  33.907  1.00  0.00     0.074 A 
ATOM     49  C   UNL A   1      43.712  29.240  32.081  1.00  0.00     0.049 A 
ATOM     50  N   UNL A   1      43.085  31.917  33.309  1.00  0.00    -0.248 NA
ATOM     51  C   UNL A   1      42.609  30.823  35.317  1.00  0.00     0.031 C 
ATOM     52  C   UNL A   1      43.976  27.961  31.419  1.00  0.00     0.029 A 
ATOM     53  N   UNL A   1      43.964  30.176  31.107  1.00  0.00    -0.354 N 
ATOM     54  C   UNL A   1      42.699  32.851  34.261  1.00  0.00     0.074 A 
ATOM     55  C   UNL A   1      42.369  32.118  35.465  1.00  0.00     0.031 C 
ATOM     56  C   UNL A   1      44.357  28.191  30.153  1.00  0.00     0.029 A 
ATOM     57  C   UNL A   1      44.322  29.629  29.900  1.00  0.00     0.049 A 
ATOM     58  H   UNL A   1      43.895  31.146  31.261  1.00  0.00     0.167 HD
ATOM     59  C   UNL A   1      42.641  34.199  34.143  1.00  0.00     0.037 A 
ATOM     60  C   UNL A   1      44.571  30.219  28.716  1.00  0.00     0.037 A 
ATOM     61  C   UNL A   1      42.996  34.924  32.952  1.00  0.00     0.049 A 
ATOM     62  C   UNL A   1      44.471  31.715  28.604  1.00  0.00     0.074 A 
ATOM     63  C   UNL A   1      43.049  36.293  32.759  1.00  0.00     0.029 A 
ATOM     64  N   UNL A   1      43.355  34.335  31.748  1.00  0.00    -0.354 N 
ATOM     65  N   UNL A   1      44.166  32.594  29.527  1.00  0.00    -0.248 NA
ATOM     66  C   UNL A   1      44.742  32.302  27.284  1.00  0.00     0.031 C 
ATOM     67  C   UNL A   1      43.395  36.533  31.425  1.00  0.00     0.029 A 
ATOM     68  C   UNL A   1      43.598  35.314  30.797  1.00  0.00     0.049 A 
ATOM     69  H   UNL A   1      43.426  33.366  31.592  1.00  0.00     0.167 HD
ATOM     70  C   UNL A   1      44.223  33.834  28.908  1.00  0.00     0.074 A 
ATOM     71  C   UNL A   1      44.608  33.597  27.532  1.00  0.00     0.031 C 
ATOM     72  C   UNL A   1      43.975  35.059  29.432  1.00  0.00     0.037 A 
BRANCH  59  73
ATOM     73  C   UNL A   1      42.178  34.981  35.337  1.00  0.00     0.064 A 
ATOM     74  C   UNL A   1      43.087  35.563  36.233  1.00  0.00     0.173 A 
ATOM     75  C   UNL A   1      40.809  35.189  35.563  1.00  0.00     0.173 A 
ATOM     76  F   UNL A   1      44.406  35.386  36.065  1.00  0.00    -0.203 F 
ATOM     77  C   UNL A   1      42.642  36.303  37.325  1.00  0.00     0.198 A 
ATOM     78  C   UNL A   1      40.368  35.951  36.641  1.00  0.00     0.198 A 
ATOM     79  F   UNL A   1      39.898  34.658  34.732  1.00  0.00    -0.203 F 
ATOM     80  F   UNL A   1      43.528  36.814  38.191  1.00  0.00    -0.200 F 
ATOM     81  C   UNL A   1      41.285  36.502  37.524  1.00  0.00     0.200 A 
ATOM     82  F   UNL A   1      39.056  36.152  36.826  1.00  0.00    -0.200 F 
ATOM     83  F   UNL A   1      40.858  37.220  38.572  1.00  0.00    -0.200 F 
ENDBRANCH  59  73
BRANCH  60  84
ATOM     84  C   UNL A   1      44.937  29.390  27.538  1.00  0.00     0.064 A 
ATOM     85  C   UNL A   1      46.280  29.167  27.208  1.00  0.00     0.173 A 
ATOM     86  C   UNL A   1      43.957  28.806  26.723  1.00  0.00     0.173 A 
ATOM     87  F   UNL A   1      47.252  29.724  27.945  1.00  0.00    -0.203 F 
ATOM     88  C   UNL A   1      46.630  28.400  26.098  1.00  0.00     0.198 A 
ATOM     89  C   UNL A   1      44.308  28.019  25.628  1.00  0.00     0.198 A 
ATOM     90  F   UNL A   1      42.657  28.990  26.998  1.00  0.00    -0.203 F 
ATOM     91  F   UNL A   1      47.921  28.234  25.782  1.00  0.00    -0.200 F 
ATOM     92  C   UNL A   1      45.644  27.822  25.313  1.00  0.00     0.200 A 
ATOM     93  F   UNL A   1      43.352  27.453  24.879  1.00  0.00    -0.200 F 
ATOM     94  F   UNL A   1      45.981  27.081  24.248  1.00  0.00    -0.200 F 
ENDBRANCH  60  84
BRANCH  72  95
ATOM     95  C   UNL A   1      44.119  36.239  28.516  1.00  0.00     0.064 A 
ATOM     96  C   UNL A   1      43.004  36.828  27.905  1.00  0.00     0.173 A 
ATOM     97  C   UNL A   1      45.378  36.817  28.292  1.00  0.00     0.173 A 
ATOM     98  F   UNL A   1      41.783  36.299  28.075  1.00  0.00    -0.203 F 
ATOM     99  C   UNL A   1      43.145  37.946  27.088  1.00  0.00     0.198 A 
ATOM    100  C   UNL A   1      45.512  37.951  27.496  1.00  0.00     0.198 A 
ATOM    101  F   UNL A   1      46.474  36.292  28.859  1.00  0.00    -0.203 F 
ATOM    102  F   UNL A   1      42.070  38.472  26.484  1.00  0.00    -0.200 F 
ATOM    103  C   UNL A   1      44.396  38.512  26.891  1.00  0.00     0.200 A 
ATOM    104  F   UNL A   1      46.720  38.503  27.316  1.00  0.00    -0.200 F 
ATOM    105  F   UNL A   1      44.528  39.595  26.114  1.00  0.00    -0.200 F 
ENDBRANCH  72  95
ENDBRANCH  46  47
ENDBRANCH  38  41
ENDBRANCH  36  37
ENDBRANCH  35  36
ENDBRANCH  34  35
ENDBRANCH  33  34
ENDBRANCH   1  33
TORSDOF 19
ENDMDL
MODEL 2
REMARK VINA RESULT:      -8.8      1.254      7.160
REMARK SMILES CCOC(=O)[C@H](c1ccccc1)N1C(=O)/C(=C/c2ccc(C(=O)NCCCCCCNC(=O)c3ccc(-c4c5nc(c(-c6c(F)c(F)c(F)c(F)c6F)c6ccc([nH]6)c(-c6c(F)c(F)c(F)c(F)c6F)c6nc(c(-c7c(F)c(F)c(F)c(F)c7F)c7ccc4[nH]7)C=C6)C=C5)cc3)cc2)SC1=S
REMARK SMILES IDX 26 1 25 2 24 3 22 4 23 5 21 7 18 8 19 9 98 10 20 11 97 12
REMARK SMILES IDX 17 13 13 14 14 15 100 16 15 17 16 18 99 19 101 20 6 21 4 22
REMARK SMILES IDX 5 23 3 24 2 25 1 26 7 27 8 28 12 29 9 30 11 31 10 32 27 33
REMARK SMILES IDX 28 34 29 35 30 36 31 37 32 38 33 40 34 41 35 42 96 43 36 44
REMARK SMILES IDX 95 45 37 46 38 47 39 48 89 49 40 50 94 51 88 52 90 53 41 54
REMARK SMILES IDX 93 55 87 56 86 57 42 59 74 60 54 61 73 62 55 63 58 64 72 65
REMARK SMILES IDX 91 66 56 67 57 68 71 70 92 71 59 72 43 73 44 74 52 75 45 76
REMARK SMILES IDX 46 77 50 78 53 79 47 80 48 81 51 82 49 83 75 84 76 85 84 86
REMARK SMILES IDX 77 87 78 88 82 89 85 90 79 91 80 92 83 93 81 94 60 95 61 96
REMARK SMILES IDX 69 97 62 98 63 99 67 100 70 101 64 102 65 103 68 104 66 105
REMARK H PARENT 24 6 31 39 90 58 58 69
REMARK Flexibility Score: inf
ROOT
ATOM      1  C   UNL A   1      44.065  23.092  29.411  1.00  0.00     0.021 C 
ENDROOT
BRANCH   1   2
ATOM      2  C   UNL A   1      42.864  22.201  29.083  1.00  0.00     0.116 C 
BRANCH   2   3
ATOM      3  N   UNL A   1      42.673  22.122  27.646  1.00  0.00    -0.352 N 
ATOM      4  C   UNL A   1      42.103  22.993  26.753  1.00  0.00     0.251 C 
ATOM      5  O   UNL A   1      42.105  22.695  25.560  1.00  0.00    -0.269 OA
ATOM      6  H   UNL A   1      43.013  21.293  27.239  1.00  0.00     0.163 HD
BRANCH   4   7
ATOM      7  C   UNL A   1      41.538  24.301  27.172  1.00  0.00     0.039 A 
ATOM      8  C   UNL A   1      40.325  26.717  27.914  1.00  0.00    -0.024 A 
ATOM      9  C   UNL A   1      39.581  25.537  27.927  1.00  0.00     0.009 A 
ATOM     10  C   UNL A   1      41.681  26.681  27.577  1.00  0.00     0.009 A 
ATOM     11  C   UNL A   1      40.188  24.333  27.555  1.00  0.00     0.014 A 
ATOM     12  C   UNL A   1      42.291  25.474  27.237  1.00  0.00     0.014 A 
BRANCH   8  13
ATOM     13  C   UNL A   1      39.749  28.004  28.289  1.00  0.00     0.029 C 
ATOM     14  N   UNL A   1      38.919  30.038  31.147  1.00  0.00    -0.274 N 
ATOM     15  C   UNL A   1      38.826  29.681  29.814  1.00  0.00     0.267 C 
ATOM     16  C   UNL A   1      39.605  29.151  31.955  1.00  0.00     0.149 C 
ATOM     17  O   UNL A   1      38.126  30.188  28.953  1.00  0.00    -0.268 OA
ATOM     18  C   UNL A   1      39.634  28.470  29.538  1.00  0.00     0.081 C 
ATOM     19  S   UNL A   1      40.243  27.816  30.994  1.00  0.00    -0.054 SA
ATOM     20  S   UNL A   1      39.863  29.221  33.604  1.00  0.00    -0.052 S 
BRANCH  14  21
ATOM     21  C   UNL A   1      38.182  31.216  31.658  1.00  0.00     0.232 C 
BRANCH  21  22
ATOM     22  C   UNL A   1      36.707  30.840  31.887  1.00  0.00     0.333 C 
ATOM     23  O   UNL A   1      36.098  29.907  31.382  1.00  0.00    -0.249 OA
BRANCH  22  24
ATOM     24  O   UNL A   1      36.184  31.653  32.859  1.00  0.00    -0.464 OA
BRANCH  24  25
ATOM     25  C   UNL A   1      37.037  31.956  33.973  1.00  0.00     0.229 C 
ATOM     26  C   UNL A   1      37.030  33.454  34.204  1.00  0.00     0.049 C 
ENDBRANCH  24  25
ENDBRANCH  22  24
ENDBRANCH  21  22
BRANCH  21  27
ATOM     27  C   UNL A   1      38.436  32.500  30.866  1.00  0.00    -0.014 A 
ATOM     28  C   UNL A   1      37.467  33.098  30.044  1.00  0.00     0.006 A 
ATOM     29  C   UNL A   1      39.712  33.091  30.910  1.00  0.00     0.006 A 
ATOM     30  C   UNL A   1      37.767  34.216  29.264  1.00  0.00     0.000 A 
ATOM     31  C   UNL A   1      40.005  34.228  30.151  1.00  0.00     0.000 A 
ATOM     32  C   UNL A   1      39.037  34.782  29.319  1.00  0.00     0.000 A 
ENDBRANCH  21  27
ENDBRANCH  14  21
ENDBRANCH   8  13
ENDBRANCH   4   7
ENDBRANCH   2   3
ENDBRANCH   1   2
BRANCH   1  33
ATOM     33  C   UNL A   1      43.780  24.110  30.523  1.00  0.00     0.002 C 
BRANCH  33  34
ATOM     34  C   UNL A   1      44.765  24.073  31.697  1.00  0.00     0.002 C 
BRANCH  34  35
ATOM     35  C   UNL A   1      44.267  23.328  32.938  1.00  0.00     0.021 C 
BRANCH  35  36
ATOM     36  C   UNL A   1      45.348  23.036  33.976  1.00  0.00     0.116 C 
BRANCH  36  37
ATOM     37  N   UNL A   1      44.833  23.129  35.334  1.00  0.00    -0.352 N 
ATOM     38  C   UNL A   1      44.440  24.240  36.038  1.00  0.00     0.251 C 
ATOM     39  H   UNL A   1      44.755  22.275  35.816  1.00  0.00     0.163 HD
ATOM     40  O   UNL A   1      44.236  24.174  37.245  1.00  0.00    -0.269 OA
BRANCH  38  41
ATOM     41  C   UNL A   1      44.276  25.528  35.334  1.00  0.00     0.039 A 
ATOM     42  C   UNL A   1      45.376  26.380  35.206  1.00  0.00     0.014 A 
ATOM     43  C   UNL A   1      43.035  25.893  34.804  1.00  0.00     0.014 A 
ATOM     44  C   UNL A   1      45.253  27.566  34.482  1.00  0.00     0.010 A 
ATOM     45  C   UNL A   1      42.926  27.047  34.035  1.00  0.00     0.010 A 
ATOM     46  C   UNL A   1      44.036  27.890  33.860  1.00  0.00    -0.014 A 
BRANCH  46  47
ATOM     47  C   UNL A   1      43.899  29.090  32.999  1.00  0.00     0.031 A 
ATOM     48  C   UNL A   1      44.319  29.034  31.559  1.00  0.00     0.074 A 
ATOM     49  C   UNL A   1      43.488  30.252  33.541  1.00  0.00     0.049 A 
ATOM     50  N   UNL A   1      44.406  30.004  30.684  1.00  0.00    -0.248 NA
ATOM     51  C   UNL A   1      44.716  27.716  31.040  1.00  0.00     0.031 C 
ATOM     52  C   UNL A   1      43.087  30.438  34.937  1.00  0.00     0.029 A 
ATOM     53  N   UNL A   1      43.364  31.504  32.990  1.00  0.00    -0.354 N 
ATOM     54  C   UNL A   1      44.884  29.419  29.519  1.00  0.00     0.074 A 
ATOM     55  C   UNL A   1      45.105  28.017  29.809  1.00  0.00     0.031 C 
ATOM     56  C   UNL A   1      42.756  31.724  35.131  1.00  0.00     0.029 A 
ATOM     57  C   UNL A   1      42.964  32.462  33.888  1.00  0.00     0.049 A 
ATOM     58  H   UNL A   1      43.544  31.695  32.041  1.00  0.00     0.167 HD
ATOM     59  C   UNL A   1      45.101  29.996  28.314  1.00  0.00     0.037 A 
ATOM     60  C   UNL A   1      42.806  33.790  33.733  1.00  0.00     0.037 A 
ATOM     61  C   UNL A   1      44.853  31.384  28.025  1.00  0.00     0.049 A 
ATOM     62  C   UNL A   1      43.084  34.412  32.392  1.00  0.00     0.074 A 
ATOM     63  C   UNL A   1      44.965  32.046  26.815  1.00  0.00     0.029 A 
ATOM     64  N   UNL A   1      44.447  32.324  28.960  1.00  0.00    -0.354 N 
ATOM     65  N   UNL A   1      43.475  33.838  31.281  1.00  0.00    -0.248 NA
ATOM     66  C   UNL A   1      42.905  35.867  32.286  1.00  0.00     0.031 C 
ATOM     67  C   UNL A   1      44.672  33.398  27.028  1.00  0.00     0.029 A 
ATOM     68  C   UNL A   1      44.338  33.570  28.362  1.00  0.00     0.049 A 
ATOM     69  H   UNL A   1      44.266  32.135  29.909  1.00  0.00     0.167 HD
ATOM     70  C   UNL A   1      43.574  34.854  30.341  1.00  0.00     0.074 A 
ATOM     71  C   UNL A   1      43.186  36.080  31.008  1.00  0.00     0.031 C 
ATOM     72  C   UNL A   1      43.956  34.779  29.043  1.00  0.00     0.037 A 
BRANCH  59  73
ATOM     73  C   UNL A   1      45.633  29.127  27.213  1.00  0.00     0.064 A 
ATOM     74  C   UNL A   1      47.011  28.975  26.997  1.00  0.00     0.173 A 
ATOM     75  C   UNL A   1      44.756  28.404  26.392  1.00  0.00     0.173 A 
ATOM     76  F   UNL A   1      47.891  29.653  27.750  1.00  0.00    -0.203 F 
ATOM     77  C   UNL A   1      47.490  28.149  25.984  1.00  0.00     0.198 A 
ATOM     78  C   UNL A   1      45.238  27.558  25.396  1.00  0.00     0.198 A 
ATOM     79  F   UNL A   1      43.429  28.510  26.560  1.00  0.00    -0.203 F 
ATOM     80  F   UNL A   1      48.809  28.052  25.770  1.00  0.00    -0.200 F 
ATOM     81  C   UNL A   1      46.605  27.437  25.190  1.00  0.00     0.200 A 
ATOM     82  F   UNL A   1      44.383  26.862  24.636  1.00  0.00    -0.200 F 
ATOM     83  F   UNL A   1      47.068  26.638  24.219  1.00  0.00    -0.200 F 
ENDBRANCH  59  73
BRANCH  60  84
ATOM     84  C   UNL A   1      42.364  34.622  34.882  1.00  0.00     0.064 A 
ATOM     85  C   UNL A   1      41.007  34.906  35.082  1.00  0.00     0.173 A 
ATOM     86  C   UNL A   1      43.285  35.147  35.801  1.00  0.00     0.173 A 
ATOM     87  F   UNL A   1      40.092  34.446  34.216  1.00  0.00    -0.203 F 
ATOM     88  C   UNL A   1      40.587  35.696  36.151  1.00  0.00     0.198 A 
ATOM     89  C   UNL A   1      42.862  35.915  36.884  1.00  0.00     0.198 A 
ATOM     90  F   UNL A   1      44.595  34.902  35.653  1.00  0.00    -0.203 F 
ATOM     91  F   UNL A   1      39.288  35.986  36.297  1.00  0.00    -0.200 F 
ATOM     92  C   UNL A   1      41.514  36.195  37.054  1.00  0.00     0.200 A 
ATOM     93  F   UNL A   1      43.761  36.384  37.760  1.00  0.00    -0.200 F 
ATOM     94  F   UNL A   1      41.110  36.950  38.084  1.00  0.00    -0.200 F 
ENDBRANCH  60  84
BRANCH  72  95
ATOM     95  C   UNL A   1      43.966  36.056  28.256  1.00  0.00     0.064 A 
ATOM     96  C   UNL A   1      42.795  36.566  27.679  1.00  0.00     0.173 A 
ATOM     97  C   UNL A   1      45.147  36.802  28.123  1.00  0.00     0.173 A 
ATOM     98  F   UNL A   1      41.646  35.879  27.764  1.00  0.00    -0.203 F 
ATOM     99  C   UNL A   1      42.809  37.772  26.983  1.00  0.00     0.198 A 
ATOM    100  C   UNL A   1      45.151  38.020  27.450  1.00  0.00     0.198 A 
ATOM    101  F   UNL A   1      46.292  36.357  28.662  1.00  0.00    -0.203 F 
ATOM    102  F   UNL A   1      41.685  38.224  26.408  1.00  0.00    -0.200 F 
ATOM    103  C   UNL A   1      43.983  38.502  26.876  1.00  0.00     0.200 A 
ATOM    104  F   UNL A   1      46.284  38.729  27.357  1.00  0.00    -0.200 F 
ATOM    105  F   UNL A   1      43.991  39.668  26.217  1.00  0.00    -0.200 F 
ENDBRANCH  72  95
ENDBRANCH  46  47
ENDBRANCH  38  41
ENDBRANCH  36  37
ENDBRANCH  35  36
ENDBRANCH  34  35
ENDBRANCH  33  34
ENDBRANCH   1  33
TORSDOF 19
ENDMDL
MODEL 3
REMARK VINA RESULT:      -8.5      2.916      7.586
REMARK SMILES CCOC(=O)[C@H](c1ccccc1)N1C(=O)/C(=C/c2ccc(C(=O)NCCCCCCNC(=O)c3ccc(-c4c5nc(c(-c6c(F)c(F)c(F)c(F)c6F)c6ccc([nH]6)c(-c6c(F)c(F)c(F)c(F)c6F)c6nc(c(-c7c(F)c(F)c(F)c(F)c7F)c7ccc4[nH]7)C=C6)C=C5)cc3)cc2)SC1=S
REMARK SMILES IDX 26 1 25 2 24 3 22 4 23 5 21 7 18 8 19 9 98 10 20 11 97 12
REMARK SMILES IDX 17 13 13 14 14 15 100 16 15 17 16 18 99 19 101 20 6 21 4 22
REMARK SMILES IDX 5 23 3 24 2 25 1 26 7 27 8 28 12 29 9 30 11 31 10 32 27 33
REMARK SMILES IDX 28 34 29 35 30 36 31 37 32 38 33 40 34 41 35 42 96 43 36 44
REMARK SMILES IDX 95 45 37 46 38 47 39 48 89 49 40 50 94 51 88 52 90 53 41 54
REMARK SMILES IDX 93 55 87 56 86 57 42 59 74 60 54 61 73 62 55 63 58 64 72 65
REMARK SMILES IDX 91 66 56 67 57 68 71 70 92 71 59 72 43 73 44 74 52 75 45 76
REMARK SMILES IDX 46 77 50 78 53 79 47 80 48 81 51 82 49 83 75 84 76 85 84 86
REMARK SMILES IDX 77 87 78 88 82 89 85 90 79 91 80 92 83 93 81 94 60 95 61 96
REMARK SMILES IDX 69 97 62 98 63 99 67 100 70 101 64 102 65 103 68 104 66 105
REMARK H PARENT 24 6 31 39 90 58 58 69
REMARK Flexibility Score: inf
ROOT
ATOM      1  C   UNL A   1      44.649  21.684  26.369  1.00  0.00     0.021 C 
ENDROOT
BRANCH   1   2
ATOM      2  C   UNL A   1      43.290  21.722  25.666  1.00  0.00     0.116 C 
BRANCH   2   3
ATOM      3  N   UNL A   1      42.262  21.169  26.527  1.00  0.00    -0.352 N 
ATOM      4  C   UNL A   1      41.402  21.761  27.416  1.00  0.00     0.251 C 
ATOM      5  O   UNL A   1      40.584  21.053  28.002  1.00  0.00    -0.269 OA
ATOM      6  H   UNL A   1      42.164  20.191  26.463  1.00  0.00     0.163 HD
BRANCH   4   7
ATOM      7  C   UNL A   1      41.388  23.227  27.650  1.00  0.00     0.039 A 
ATOM      8  C   UNL A   1      41.398  25.967  28.248  1.00  0.00    -0.024 A 
ATOM      9  C   UNL A   1      42.170  25.090  29.010  1.00  0.00     0.009 A 
ATOM     10  C   UNL A   1      40.661  25.482  27.163  1.00  0.00     0.009 A 
ATOM     11  C   UNL A   1      42.163  23.724  28.711  1.00  0.00     0.014 A 
ATOM     12  C   UNL A   1      40.681  24.124  26.848  1.00  0.00     0.014 A 
BRANCH   8  13
ATOM     13  C   UNL A   1      41.361  27.401  28.512  1.00  0.00     0.029 C 
ATOM     14  N   UNL A   1      39.429  29.950  30.175  1.00  0.00    -0.274 N 
ATOM     15  C   UNL A   1      40.375  29.510  29.268  1.00  0.00     0.267 C 
ATOM     16  C   UNL A   1      38.668  28.961  30.769  1.00  0.00     0.149 C 
ATOM     17  O   UNL A   1      41.029  30.182  28.486  1.00  0.00    -0.268 OA
ATOM     18  C   UNL A   1      40.447  28.030  29.261  1.00  0.00     0.081 C 
ATOM     19  S   UNL A   1      39.203  27.369  30.226  1.00  0.00    -0.054 SA
ATOM     20  S   UNL A   1      37.408  29.119  31.854  1.00  0.00    -0.052 S 
BRANCH  14  21
ATOM     21  C   UNL A   1      39.174  31.398  30.345  1.00  0.00     0.232 C 
BRANCH  21  22
ATOM     22  C   UNL A   1      39.207  31.753  31.843  1.00  0.00     0.333 C 
ATOM     23  O   UNL A   1      40.133  31.575  32.621  1.00  0.00    -0.249 OA
BRANCH  22  24
ATOM     24  O   UNL A   1      38.058  32.426  32.168  1.00  0.00    -0.464 OA
BRANCH  24  25
ATOM     25  C   UNL A   1      38.002  33.009  33.478  1.00  0.00     0.229 C 
ATOM     26  C   UNL A   1      38.164  34.511  33.354  1.00  0.00     0.049 C 
ENDBRANCH  24  25
ENDBRANCH  22  24
ENDBRANCH  21  22
BRANCH  21  27
ATOM     27  C   UNL A   1      37.972  31.916  29.555  1.00  0.00    -0.014 A 
ATOM     28  C   UNL A   1      37.121  31.078  28.816  1.00  0.00     0.006 A 
ATOM     29  C   UNL A   1      37.725  33.302  29.513  1.00  0.00     0.006 A 
ATOM     30  C   UNL A   1      36.090  31.601  28.033  1.00  0.00     0.000 A 
ATOM     31  C   UNL A   1      36.675  33.822  28.750  1.00  0.00     0.000 A 
ATOM     32  C   UNL A   1      35.867  32.973  28.001  1.00  0.00     0.000 A 
ENDBRANCH  21  27
ENDBRANCH  14  21
ENDBRANCH   8  13
ENDBRANCH   4   7
ENDBRANCH   2   3
ENDBRANCH   1   2
BRANCH   1  33
ATOM     33  C   UNL A   1      45.014  23.006  27.057  1.00  0.00     0.002 C 
BRANCH  33  34
ATOM     34  C   UNL A   1      44.644  24.266  26.266  1.00  0.00     0.002 C 
BRANCH  34  35
ATOM     35  C   UNL A   1      45.552  24.572  25.072  1.00  0.00     0.021 C 
BRANCH  35  36
ATOM     36  C   UNL A   1      46.874  25.242  25.440  1.00  0.00     0.116 C 
BRANCH  36  37
ATOM     37  N   UNL A   1      47.266  26.240  24.455  1.00  0.00    -0.352 N 
ATOM     38  C   UNL A   1      46.950  27.575  24.401  1.00  0.00     0.251 C 
ATOM     39  H   UNL A   1      47.839  25.911  23.725  1.00  0.00     0.163 HD
ATOM     40  O   UNL A   1      47.180  28.229  23.390  1.00  0.00    -0.269 OA
BRANCH  38  41
ATOM     41  C   UNL A   1      46.315  28.221  25.567  1.00  0.00     0.039 A 
ATOM     42  C   UNL A   1      44.927  28.152  25.712  1.00  0.00     0.014 A 
ATOM     43  C   UNL A   1      47.091  28.895  26.514  1.00  0.00     0.014 A 
ATOM     44  C   UNL A   1      44.322  28.696  26.846  1.00  0.00     0.010 A 
ATOM     45  C   UNL A   1      46.496  29.388  27.670  1.00  0.00     0.010 A 
ATOM     46  C   UNL A   1      45.107  29.286  27.851  1.00  0.00    -0.014 A 
BRANCH  46  47
ATOM     47  C   UNL A   1      44.507  29.781  29.113  1.00  0.00     0.031 A 
ATOM     48  C   UNL A   1      44.174  31.237  29.267  1.00  0.00     0.074 A 
ATOM     49  C   UNL A   1      44.354  28.937  30.151  1.00  0.00     0.049 A 
ATOM     50  N   UNL A   1      43.774  31.886  30.331  1.00  0.00    -0.248 NA
ATOM     51  C   UNL A   1      44.334  32.079  28.071  1.00  0.00     0.031 C 
ATOM     52  C   UNL A   1      44.675  27.509  30.133  1.00  0.00     0.029 A 
ATOM     53  N   UNL A   1      43.913  29.162  31.432  1.00  0.00    -0.354 N 
ATOM     54  C   UNL A   1      43.652  33.213  29.939  1.00  0.00     0.074 A 
ATOM     55  C   UNL A   1      44.058  33.283  28.551  1.00  0.00     0.031 C 
ATOM     56  C   UNL A   1      44.417  26.985  31.341  1.00  0.00     0.029 A 
ATOM     57  C   UNL A   1      43.954  28.046  32.231  1.00  0.00     0.049 A 
ATOM     58  H   UNL A   1      43.599  30.040  31.747  1.00  0.00     0.167 HD
ATOM     59  C   UNL A   1      43.225  34.271  30.668  1.00  0.00     0.037 A 
ATOM     60  C   UNL A   1      43.673  27.900  33.539  1.00  0.00     0.037 A 
ATOM     61  C   UNL A   1      42.797  34.189  32.039  1.00  0.00     0.049 A 
ATOM     62  C   UNL A   1      43.230  29.098  34.334  1.00  0.00     0.074 A 
ATOM     63  C   UNL A   1      42.271  35.188  32.840  1.00  0.00     0.029 A 
ATOM     64  N   UNL A   1      42.852  33.041  32.816  1.00  0.00    -0.354 N 
ATOM     65  N   UNL A   1      43.058  30.335  33.938  1.00  0.00    -0.248 NA
ATOM     66  C   UNL A   1      42.948  28.881  35.760  1.00  0.00     0.031 C 
ATOM     67  C   UNL A   1      42.052  34.656  34.115  1.00  0.00     0.029 A 
ATOM     68  C   UNL A   1      42.401  33.315  34.097  1.00  0.00     0.049 A 
ATOM     69  H   UNL A   1      43.166  32.162  32.503  1.00  0.00     0.167 HD
ATOM     70  C   UNL A   1      42.635  31.040  35.056  1.00  0.00     0.074 A 
ATOM     71  C   UNL A   1      42.560  30.088  36.145  1.00  0.00     0.031 C 
ATOM     72  C   UNL A   1      42.339  32.357  35.170  1.00  0.00     0.037 A 
BRANCH  59  73
ATOM     73  C   UNL A   1      43.196  35.611  29.996  1.00  0.00     0.064 A 
ATOM     74  C   UNL A   1      44.173  36.584  30.253  1.00  0.00     0.173 A 
ATOM     75  C   UNL A   1      42.205  35.911  29.049  1.00  0.00     0.173 A 
ATOM     76  F   UNL A   1      45.136  36.350  31.157  1.00  0.00    -0.203 F 
ATOM     77  C   UNL A   1      44.145  37.817  29.607  1.00  0.00     0.198 A 
ATOM     78  C   UNL A   1      42.194  37.134  28.384  1.00  0.00     0.198 A 
ATOM     79  F   UNL A   1      41.250  35.012  28.761  1.00  0.00    -0.203 F 
ATOM     80  F   UNL A   1      45.064  38.747  29.900  1.00  0.00    -0.200 F 
ATOM     81  C   UNL A   1      43.161  38.088  28.668  1.00  0.00     0.200 A 
ATOM     82  F   UNL A   1      41.250  37.391  27.469  1.00  0.00    -0.200 F 
ATOM     83  F   UNL A   1      43.138  39.272  28.042  1.00  0.00    -0.200 F 
ENDBRANCH  59  73
BRANCH  60  84
ATOM     84  C   UNL A   1      43.806  26.567  34.181  1.00  0.00     0.064 A 
ATOM     85  C   UNL A   1      42.671  25.822  34.528  1.00  0.00     0.173 A 
ATOM     86  C   UNL A   1      45.064  26.012  34.458  1.00  0.00     0.173 A 
ATOM     87  F   UNL A   1      41.448  26.322  34.304  1.00  0.00    -0.203 F 
ATOM     88  C   UNL A   1      42.789  24.576  35.141  1.00  0.00     0.198 A 
ATOM     89  C   UNL A   1      45.181  24.755  35.048  1.00  0.00     0.198 A 
ATOM     90  F   UNL A   1      46.180  26.686  34.144  1.00  0.00    -0.203 F 
ATOM     91  F   UNL A   1      41.689  23.901  35.499  1.00  0.00    -0.200 F 
ATOM     92  C   UNL A   1      44.043  24.041  35.395  1.00  0.00     0.200 A 
ATOM     93  F   UNL A   1      46.395  24.237  35.280  1.00  0.00    -0.200 F 
ATOM     94  F   UNL A   1      44.156  22.841  35.980  1.00  0.00    -0.200 F 
ENDBRANCH  60  84
BRANCH  72  95
ATOM     95  C   UNL A   1      41.899  32.847  36.518  1.00  0.00     0.064 A 
ATOM     96  C   UNL A   1      40.578  32.684  36.957  1.00  0.00     0.173 A 
ATOM     97  C   UNL A   1      42.820  33.436  37.398  1.00  0.00     0.173 A 
ATOM     98  F   UNL A   1      39.658  32.143  36.144  1.00  0.00    -0.203 F 
ATOM     99  C   UNL A   1      40.190  33.108  38.226  1.00  0.00     0.198 A 
ATOM    100  C   UNL A   1      42.435  33.833  38.675  1.00  0.00     0.198 A 
ATOM    101  F   UNL A   1      44.096  33.608  37.024  1.00  0.00    -0.203 F 
ATOM    102  F   UNL A   1      38.913  32.976  38.612  1.00  0.00    -0.200 F 
ATOM    103  C   UNL A   1      41.120  33.673  39.086  1.00  0.00     0.200 A 
ATOM    104  F   UNL A   1      43.337  34.369  39.508  1.00  0.00    -0.200 F 
ATOM    105  F   UNL A   1      40.747  34.069  40.310  1.00  0.00    -0.200 F 
ENDBRANCH  72  95
ENDBRANCH  46  47
ENDBRANCH  38  41
ENDBRANCH  36  37
ENDBRANCH  35  36
ENDBRANCH  34  35
ENDBRANCH  33  34
ENDBRANCH   1  33
TORSDOF 19
ENDMDL
