MODEL 1
REMARK VINA RESULT:     -10.3      0.000      0.000
REMARK SMILES Cc1cc(C)n(C)c(=O)c1C(=O)N1CCC2(CC1)C[NH2+][C@@H](C(=O)NCCCCCCNC(=O)c1ccc(-c3c4nc(c(-c5c(F)c(F)c(F)c(F)c5F)c5ccc([nH]5)c(-c5c(F)c(F)c(F)c(F)c5F)c5nc(c(-c6c(F)c(F)c(F)c(F)c6F)c6ccc3[nH]6)C=C5)C=C4)cc1)C2
REMARK SMILES IDX 28 1 27 2 26 3 25 4 24 5 22 6 23 7 21 9 11 10 12 11 13 12
REMARK SMILES IDX 14 13 18 14 15 15 17 16 16 17 19 18 97 19 20 20 10 23 1 24
REMARK SMILES IDX 2 25 3 26 4 27 8 28 5 29 6 30 9 31 7 32 29 33 30 34 31 35
REMARK SMILES IDX 32 36 33 38 34 39 35 40 96 41 36 42 95 43 37 44 38 45 39 46
REMARK SMILES IDX 89 47 40 48 94 49 88 50 90 51 41 52 93 53 87 54 86 55 42 57
REMARK SMILES IDX 74 58 54 59 73 60 55 61 58 62 72 63 91 64 56 65 57 66 71 68
REMARK SMILES IDX 92 69 59 70 43 71 44 72 52 73 45 74 46 75 50 76 53 77 47 78
REMARK SMILES IDX 48 79 51 80 49 81 75 82 76 83 84 84 77 85 78 86 82 87 85 88
REMARK SMILES IDX 79 89 80 90 83 91 81 92 60 93 61 94 69 95 62 96 63 97 67 98
REMARK SMILES IDX 70 99 64 100 65 101 68 102 66 103
REMARK H PARENT 24 8 20 21 20 22 31 37 90 56 58 67
REMARK Flexibility Score: inf
ROOT
ATOM      1  C   UNL A   1      37.592  33.233  29.129  1.00  0.00     0.002 C 
ENDROOT
BRANCH   1   2
ATOM      2  C   UNL A   1      37.931  33.703  30.546  1.00  0.00     0.002 C 
BRANCH   2   3
ATOM      3  C   UNL A   1      37.824  32.616  31.617  1.00  0.00     0.021 C 
BRANCH   3   4
ATOM      4  C   UNL A   1      38.765  32.829  32.798  1.00  0.00     0.116 C 
BRANCH   4   5
ATOM      5  N   UNL A   1      38.315  32.103  33.969  1.00  0.00    -0.351 N 
ATOM      6  C   UNL A   1      38.692  30.877  34.432  1.00  0.00     0.278 C 
ATOM      7  O   UNL A   1      38.152  30.453  35.458  1.00  0.00    -0.268 OA
ATOM      8  H   UNL A   1      37.635  32.565  34.512  1.00  0.00     0.163 HD
BRANCH   6   9
ATOM      9  C   UNL A   1      39.738  30.034  33.695  1.00  0.00     0.273 C 
ATOM     10  C   UNL A   1      44.950  26.194  34.922  1.00  0.00     0.259 C 
ATOM     11  O   UNL A   1      46.062  26.701  34.747  1.00  0.00    -0.269 OA
ATOM     12  N   UNL A   1      43.839  27.023  34.982  1.00  0.00    -0.338 N 
ATOM     13  C   UNL A   1      43.915  28.289  34.274  1.00  0.00     0.120 C 
ATOM     14  C   UNL A   1      42.717  26.918  35.898  1.00  0.00     0.120 C 
ATOM     15  C   UNL A   1      42.740  28.348  33.319  1.00  0.00     0.034 C 
ATOM     16  C   UNL A   1      41.366  27.236  35.230  1.00  0.00     0.034 C 
ATOM     17  C   UNL A   1      41.380  28.259  34.045  1.00  0.00     0.029 C 
ATOM     18  C   UNL A   1      40.309  27.897  32.981  1.00  0.00     0.268 C 
ATOM     19  C   UNL A   1      40.951  29.662  34.540  1.00  0.00     0.088 C 
ATOM     20  N   UNL A   1      39.167  28.749  33.251  1.00  0.00    -0.336 N 
ATOM     21  H   UNL A   1      38.585  28.345  33.985  1.00  0.00     0.346 HD
ATOM     22  H   UNL A   1      38.572  28.861  32.430  1.00  0.00     0.346 HD
BRANCH  10  23
ATOM     23  C   UNL A   1      44.819  24.686  34.875  1.00  0.00     0.108 A 
ATOM     24  C   UNL A   1      44.529  24.381  32.336  1.00  0.00     0.045 C 
ATOM     25  C   UNL A   1      44.679  23.934  33.756  1.00  0.00    -0.031 A 
ATOM     26  C   UNL A   1      44.791  22.489  33.811  1.00  0.00     0.026 A 
ATOM     27  C   UNL A   1      45.258  21.852  34.889  1.00  0.00     0.018 A 
ATOM     28  C   UNL A   1      45.145  23.935  36.161  1.00  0.00     0.263 A 
ATOM     29  C   UNL A   1      45.502  20.370  34.798  1.00  0.00     0.064 C 
ATOM     30  N   UNL A   1      45.485  22.574  36.051  1.00  0.00    -0.315 N 
ATOM     31  O   UNL A   1      45.110  24.506  37.251  1.00  0.00    -0.268 OA
ATOM     32  C   UNL A   1      46.028  21.916  37.233  1.00  0.00     0.153 C 
ENDBRANCH  10  23
ENDBRANCH   6   9
ENDBRANCH   4   5
ENDBRANCH   3   4
ENDBRANCH   2   3
ENDBRANCH   1   2
BRANCH   1  33
ATOM     33  C   UNL A   1      36.113  33.344  28.753  1.00  0.00     0.021 C 
BRANCH  33  34
ATOM     34  C   UNL A   1      35.188  32.477  29.602  1.00  0.00     0.116 C 
BRANCH  34  35
ATOM     35  N   UNL A   1      34.404  31.564  28.785  1.00  0.00    -0.352 N 
ATOM     36  C   UNL A   1      34.816  30.465  28.072  1.00  0.00     0.251 C 
ATOM     37  H   UNL A   1      33.440  31.762  28.738  1.00  0.00     0.163 HD
ATOM     38  O   UNL A   1      34.069  29.928  27.267  1.00  0.00    -0.269 OA
BRANCH  36  39
ATOM     39  C   UNL A   1      36.183  29.946  28.276  1.00  0.00     0.039 A 
ATOM     40  C   UNL A   1      37.120  30.092  27.251  1.00  0.00     0.014 A 
ATOM     41  C   UNL A   1      36.534  29.328  29.479  1.00  0.00     0.014 A 
ATOM     42  C   UNL A   1      38.434  29.673  27.459  1.00  0.00     0.010 A 
ATOM     43  C   UNL A   1      37.859  28.979  29.711  1.00  0.00     0.010 A 
ATOM     44  C   UNL A   1      38.820  29.147  28.704  1.00  0.00    -0.014 A 
BRANCH  44  45
ATOM     45  C   UNL A   1      40.229  28.777  28.977  1.00  0.00     0.031 A 
ATOM     46  C   UNL A   1      41.131  29.730  29.704  1.00  0.00     0.074 A 
ATOM     47  C   UNL A   1      40.708  27.607  28.517  1.00  0.00     0.049 A 
ATOM     48  N   UNL A   1      42.406  29.615  29.979  1.00  0.00    -0.248 NA
ATOM     49  C   UNL A   1      40.528  30.991  30.160  1.00  0.00     0.031 C 
ATOM     50  C   UNL A   1      39.931  26.613  27.775  1.00  0.00     0.029 A 
ATOM     51  N   UNL A   1      41.962  27.057  28.600  1.00  0.00    -0.354 N 
ATOM     52  C   UNL A   1      42.753  30.784  30.642  1.00  0.00     0.074 A 
ATOM     53  C   UNL A   1      41.575  31.624  30.665  1.00  0.00     0.031 C 
ATOM     54  C   UNL A   1      40.715  25.559  27.501  1.00  0.00     0.029 A 
ATOM     55  C   UNL A   1      42.059  25.822  28.008  1.00  0.00     0.049 A 
ATOM     56  H   UNL A   1      42.719  27.504  29.041  1.00  0.00     0.167 HD
ATOM     57  C   UNL A   1      43.940  31.113  31.206  1.00  0.00     0.037 A 
ATOM     58  C   UNL A   1      43.115  24.995  27.885  1.00  0.00     0.037 A 
ATOM     59  C   UNL A   1      45.109  30.272  31.174  1.00  0.00     0.049 A 
ATOM     60  C   UNL A   1      44.437  25.402  28.472  1.00  0.00     0.074 A 
ATOM     61  C   UNL A   1      46.354  30.505  31.728  1.00  0.00     0.029 A 
ATOM     62  N   UNL A   1      45.175  29.035  30.546  1.00  0.00    -0.354 N 
ATOM     63  N   UNL A   1      44.749  26.494  29.128  1.00  0.00    -0.248 NA
ATOM     64  C   UNL A   1      45.553  24.462  28.306  1.00  0.00     0.031 C 
ATOM     65  C   UNL A   1      47.191  29.437  31.388  1.00  0.00     0.029 A 
ATOM     66  C   UNL A   1      46.449  28.503  30.681  1.00  0.00     0.049 A 
ATOM     67  H   UNL A   1      44.429  28.599  30.075  1.00  0.00     0.167 HD
ATOM     68  C   UNL A   1      46.085  26.360  29.481  1.00  0.00     0.074 A 
ATOM     69  C   UNL A   1      46.523  25.076  28.971  1.00  0.00     0.031 C 
ATOM     70  C   UNL A   1      46.872  27.222  30.171  1.00  0.00     0.037 A 
BRANCH  57  71
ATOM     71  C   UNL A   1      44.029  32.441  31.905  1.00  0.00     0.064 A 
ATOM     72  C   UNL A   1      43.764  32.567  33.278  1.00  0.00     0.173 A 
ATOM     73  C   UNL A   1      44.407  33.596  31.204  1.00  0.00     0.173 A 
ATOM     74  F   UNL A   1      43.387  31.497  33.995  1.00  0.00    -0.203 F 
ATOM     75  C   UNL A   1      43.841  33.803  33.914  1.00  0.00     0.198 A 
ATOM     76  C   UNL A   1      44.518  34.824  31.851  1.00  0.00     0.198 A 
ATOM     77  F   UNL A   1      44.677  33.534  29.891  1.00  0.00    -0.203 F 
ATOM     78  F   UNL A   1      43.526  33.907  35.213  1.00  0.00    -0.200 F 
ATOM     79  C   UNL A   1      44.226  34.929  33.203  1.00  0.00     0.200 A 
ATOM     80  F   UNL A   1      44.906  35.908  31.165  1.00  0.00    -0.200 F 
ATOM     81  F   UNL A   1      44.307  36.117  33.818  1.00  0.00    -0.200 F 
ENDBRANCH  57  71
BRANCH  58  82
ATOM     82  C   UNL A   1      42.929  23.676  27.227  1.00  0.00     0.064 A 
ATOM     83  C   UNL A   1      43.391  23.459  25.922  1.00  0.00     0.173 A 
ATOM     84  C   UNL A   1      42.354  22.592  27.905  1.00  0.00     0.173 A 
ATOM     85  F   UNL A   1      43.931  24.471  25.227  1.00  0.00    -0.203 F 
ATOM     86  C   UNL A   1      43.289  22.207  25.321  1.00  0.00     0.198 A 
ATOM     87  C   UNL A   1      42.278  21.333  27.313  1.00  0.00     0.198 A 
ATOM     88  F   UNL A   1      41.904  22.745  29.159  1.00  0.00    -0.203 F 
ATOM     89  F   UNL A   1      43.723  22.031  24.066  1.00  0.00    -0.200 F 
ATOM     90  C   UNL A   1      42.744  21.142  26.022  1.00  0.00     0.200 A 
ATOM     91  F   UNL A   1      41.768  20.301  28.001  1.00  0.00    -0.200 F 
ATOM     92  F   UNL A   1      42.671  19.930  25.454  1.00  0.00    -0.200 F 
ENDBRANCH  58  82
BRANCH  70  93
ATOM     93  C   UNL A   1      48.288  26.800  30.450  1.00  0.00     0.064 A 
ATOM     94  C   UNL A   1      48.610  25.953  31.519  1.00  0.00     0.173 A 
ATOM     95  C   UNL A   1      49.327  27.196  29.592  1.00  0.00     0.173 A 
ATOM     96  F   UNL A   1      47.657  25.555  32.377  1.00  0.00    -0.203 F 
ATOM     97  C   UNL A   1      49.921  25.535  31.732  1.00  0.00     0.198 A 
ATOM     98  C   UNL A   1      50.629  26.748  29.787  1.00  0.00     0.198 A 
ATOM     99  F   UNL A   1      49.071  28.000  28.548  1.00  0.00    -0.203 F 
ATOM    100  F   UNL A   1      50.211  24.758  32.786  1.00  0.00    -0.200 F 
ATOM    101  C   UNL A   1      50.927  25.922  30.860  1.00  0.00     0.200 A 
ATOM    102  F   UNL A   1      51.596  27.111  28.932  1.00  0.00    -0.200 F 
ATOM    103  F   UNL A   1      52.185  25.505  31.056  1.00  0.00    -0.200 F 
ENDBRANCH  70  93
ENDBRANCH  44  45
ENDBRANCH  36  39
ENDBRANCH  34  35
ENDBRANCH  33  34
ENDBRANCH   1  33
TORSDOF 14
ENDMDL
MODEL 2
REMARK VINA RESULT:     -10.2      4.992     11.586
REMARK SMILES Cc1cc(C)n(C)c(=O)c1C(=O)N1CCC2(CC1)C[NH2+][C@@H](C(=O)NCCCCCCNC(=O)c1ccc(-c3c4nc(c(-c5c(F)c(F)c(F)c(F)c5F)c5ccc([nH]5)c(-c5c(F)c(F)c(F)c(F)c5F)c5nc(c(-c6c(F)c(F)c(F)c(F)c6F)c6ccc3[nH]6)C=C5)C=C4)cc1)C2
REMARK SMILES IDX 28 1 27 2 26 3 25 4 24 5 22 6 23 7 21 9 11 10 12 11 13 12
REMARK SMILES IDX 14 13 18 14 15 15 17 16 16 17 19 18 97 19 20 20 10 23 1 24
REMARK SMILES IDX 2 25 3 26 4 27 8 28 5 29 6 30 9 31 7 32 29 33 30 34 31 35
REMARK SMILES IDX 32 36 33 38 34 39 35 40 96 41 36 42 95 43 37 44 38 45 39 46
REMARK SMILES IDX 89 47 40 48 94 49 88 50 90 51 41 52 93 53 87 54 86 55 42 57
REMARK SMILES IDX 74 58 54 59 73 60 55 61 58 62 72 63 91 64 56 65 57 66 71 68
REMARK SMILES IDX 92 69 59 70 43 71 44 72 52 73 45 74 46 75 50 76 53 77 47 78
REMARK SMILES IDX 48 79 51 80 49 81 75 82 76 83 84 84 77 85 78 86 82 87 85 88
REMARK SMILES IDX 79 89 80 90 83 91 81 92 60 93 61 94 69 95 62 96 63 97 67 98
REMARK SMILES IDX 70 99 64 100 65 101 68 102 66 103
REMARK H PARENT 24 8 20 21 20 22 31 37 90 56 58 67
REMARK Flexibility Score: inf
ROOT
ATOM      1  C   UNL A   1      30.507  31.953  25.208  1.00  0.00     0.002 C 
ENDROOT
BRANCH   1   2
ATOM      2  C   UNL A   1      30.229  33.327  24.590  1.00  0.00     0.002 C 
BRANCH   2   3
ATOM      3  C   UNL A   1      29.234  33.308  23.428  1.00  0.00     0.021 C 
BRANCH   3   4
ATOM      4  C   UNL A   1      28.172  32.220  23.554  1.00  0.00     0.116 C 
BRANCH   4   5
ATOM      5  N   UNL A   1      28.105  31.407  22.355  1.00  0.00    -0.351 N 
ATOM      6  C   UNL A   1      28.838  30.312  22.002  1.00  0.00     0.278 C 
ATOM      7  O   UNL A   1      28.609  29.787  20.910  1.00  0.00    -0.268 OA
ATOM      8  H   UNL A   1      27.428  31.687  21.696  1.00  0.00     0.163 HD
BRANCH   6   9
ATOM      9  C   UNL A   1      29.932  29.758  22.921  1.00  0.00     0.273 C 
ATOM     10  C   UNL A   1      31.598  24.206  26.057  1.00  0.00     0.259 C 
ATOM     11  O   UNL A   1      31.350  24.161  27.266  1.00  0.00    -0.269 OA
ATOM     12  N   UNL A   1      31.004  25.198  25.290  1.00  0.00    -0.338 N 
ATOM     13  C   UNL A   1      30.637  26.432  25.966  1.00  0.00     0.120 C 
ATOM     14  C   UNL A   1      30.438  25.055  23.960  1.00  0.00     0.120 C 
ATOM     15  C   UNL A   1      31.309  27.572  25.228  1.00  0.00     0.034 C 
ATOM     16  C   UNL A   1      30.728  26.266  23.053  1.00  0.00     0.034 C 
ATOM     17  C   UNL A   1      30.875  27.660  23.749  1.00  0.00     0.029 C 
ATOM     18  C   UNL A   1      31.915  28.546  23.013  1.00  0.00     0.268 C 
ATOM     19  C   UNL A   1      29.555  28.463  23.632  1.00  0.00     0.088 C 
ATOM     20  N   UNL A   1      31.154  29.438  22.158  1.00  0.00    -0.336 N 
ATOM     21  H   UNL A   1      30.915  28.976  21.281  1.00  0.00     0.346 HD
ATOM     22  H   UNL A   1      31.681  30.276  21.917  1.00  0.00     0.346 HD
BRANCH  10  23
ATOM     23  C   UNL A   1      32.678  23.304  25.498  1.00  0.00     0.108 A 
ATOM     24  C   UNL A   1      34.619  24.993  25.420  1.00  0.00     0.045 C 
ATOM     25  C   UNL A   1      33.968  23.654  25.271  1.00  0.00    -0.031 A 
ATOM     26  C   UNL A   1      34.966  22.651  24.950  1.00  0.00     0.026 A 
ATOM     27  C   UNL A   1      34.728  21.343  25.085  1.00  0.00     0.018 A 
ATOM     28  C   UNL A   1      32.358  21.815  25.443  1.00  0.00     0.263 A 
ATOM     29  C   UNL A   1      35.871  20.383  24.895  1.00  0.00     0.064 C 
ATOM     30  N   UNL A   1      33.442  20.919  25.380  1.00  0.00    -0.315 N 
ATOM     31  O   UNL A   1      31.193  21.419  25.453  1.00  0.00    -0.268 OA
ATOM     32  C   UNL A   1      33.157  19.502  25.571  1.00  0.00     0.153 C 
ENDBRANCH  10  23
ENDBRANCH   6   9
ENDBRANCH   4   5
ENDBRANCH   3   4
ENDBRANCH   2   3
ENDBRANCH   1   2
BRANCH   1  33
ATOM     33  C   UNL A   1      30.987  31.990  26.660  1.00  0.00     0.021 C 
BRANCH  33  34
ATOM     34  C   UNL A   1      32.361  32.624  26.846  1.00  0.00     0.116 C 
BRANCH  34  35
ATOM     35  N   UNL A   1      32.264  33.990  27.340  1.00  0.00    -0.352 N 
ATOM     36  C   UNL A   1      32.976  34.602  28.341  1.00  0.00     0.251 C 
ATOM     37  H   UNL A   1      31.593  34.554  26.892  1.00  0.00     0.163 HD
ATOM     38  O   UNL A   1      32.627  35.690  28.778  1.00  0.00    -0.269 OA
BRANCH  36  39
ATOM     39  C   UNL A   1      34.161  33.924  28.901  1.00  0.00     0.039 A 
ATOM     40  C   UNL A   1      35.427  34.456  28.647  1.00  0.00     0.014 A 
ATOM     41  C   UNL A   1      34.017  32.773  29.682  1.00  0.00     0.014 A 
ATOM     42  C   UNL A   1      36.549  33.868  29.232  1.00  0.00     0.010 A 
ATOM     43  C   UNL A   1      35.125  32.233  30.322  1.00  0.00     0.010 A 
ATOM     44  C   UNL A   1      36.400  32.775  30.103  1.00  0.00    -0.014 A 
BRANCH  44  45
ATOM     45  C   UNL A   1      37.567  32.188  30.805  1.00  0.00     0.031 A 
ATOM     46  C   UNL A   1      38.369  31.101  30.154  1.00  0.00     0.074 A 
ATOM     47  C   UNL A   1      37.862  32.596  32.053  1.00  0.00     0.049 A 
ATOM     48  N   UNL A   1      39.380  30.420  30.632  1.00  0.00    -0.248 NA
ATOM     49  C   UNL A   1      37.968  30.709  28.794  1.00  0.00     0.031 C 
ATOM     50  C   UNL A   1      37.137  33.627  32.796  1.00  0.00     0.029 A 
ATOM     51  N   UNL A   1      38.847  32.191  32.918  1.00  0.00    -0.354 N 
ATOM     52  C   UNL A   1      39.735  29.525  29.632  1.00  0.00     0.074 A 
ATOM     53  C   UNL A   1      38.790  29.700  28.551  1.00  0.00     0.031 C 
ATOM     54  C   UNL A   1      37.722  33.799  33.991  1.00  0.00     0.029 A 
ATOM     55  C   UNL A   1      38.834  32.861  34.116  1.00  0.00     0.049 A 
ATOM     56  H   UNL A   1      39.501  31.488  32.701  1.00  0.00     0.167 HD
ATOM     57  C   UNL A   1      40.774  28.657  29.608  1.00  0.00     0.037 A 
ATOM     58  C   UNL A   1      39.628  32.731  35.196  1.00  0.00     0.037 A 
ATOM     59  C   UNL A   1      41.708  28.486  30.692  1.00  0.00     0.049 A 
ATOM     60  C   UNL A   1      40.743  31.725  35.170  1.00  0.00     0.074 A 
ATOM     61  C   UNL A   1      42.804  27.646  30.761  1.00  0.00     0.029 A 
ATOM     62  N   UNL A   1      41.650  29.169  31.900  1.00  0.00    -0.354 N 
ATOM     63  N   UNL A   1      41.094  30.906  34.207  1.00  0.00    -0.248 NA
ATOM     64  C   UNL A   1      41.576  31.626  36.376  1.00  0.00     0.031 C 
ATOM     65  C   UNL A   1      43.376  27.777  32.030  1.00  0.00     0.029 A 
ATOM     66  C   UNL A   1      42.680  28.751  32.730  1.00  0.00     0.049 A 
ATOM     67  H   UNL A   1      40.978  29.849  32.133  1.00  0.00     0.167 HD
ATOM     68  C   UNL A   1      42.206  30.218  34.676  1.00  0.00     0.074 A 
ATOM     69  C   UNL A   1      42.474  30.721  36.009  1.00  0.00     0.031 C 
ATOM     70  C   UNL A   1      42.938  29.261  34.054  1.00  0.00     0.037 A 
BRANCH  57  71
ATOM     71  C   UNL A   1      40.952  27.826  28.368  1.00  0.00     0.064 A 
ATOM     72  C   UNL A   1      40.348  26.566  28.236  1.00  0.00     0.173 A 
ATOM     73  C   UNL A   1      41.712  28.302  27.290  1.00  0.00     0.173 A 
ATOM     74  F   UNL A   1      39.620  26.056  29.242  1.00  0.00    -0.203 F 
ATOM     75  C   UNL A   1      40.527  25.800  27.087  1.00  0.00     0.198 A 
ATOM     76  C   UNL A   1      41.859  27.549  26.127  1.00  0.00     0.198 A 
ATOM     77  F   UNL A   1      42.309  29.502  27.358  1.00  0.00    -0.203 F 
ATOM     78  F   UNL A   1      39.988  24.575  27.010  1.00  0.00    -0.200 F 
ATOM     79  C   UNL A   1      41.274  26.296  26.030  1.00  0.00     0.200 A 
ATOM     80  F   UNL A   1      42.569  28.038  25.100  1.00  0.00    -0.200 F 
ATOM     81  F   UNL A   1      41.439  25.561  24.921  1.00  0.00    -0.200 F 
ENDBRANCH  57  71
BRANCH  58  82
ATOM     82  C   UNL A   1      39.419  33.629  36.361  1.00  0.00     0.064 A 
ATOM     83  C   UNL A   1      38.659  33.206  37.460  1.00  0.00     0.173 A 
ATOM     84  C   UNL A   1      40.024  34.892  36.432  1.00  0.00     0.173 A 
ATOM     85  F   UNL A   1      38.045  32.015  37.429  1.00  0.00    -0.203 F 
ATOM     86  C   UNL A   1      38.516  34.010  38.589  1.00  0.00     0.198 A 
ATOM     87  C   UNL A   1      39.904  35.683  37.573  1.00  0.00     0.198 A 
ATOM     88  F   UNL A   1      40.768  35.340  35.410  1.00  0.00    -0.203 F 
ATOM     89  F   UNL A   1      37.771  33.588  39.618  1.00  0.00    -0.200 F 
ATOM     90  C   UNL A   1      39.150  35.242  38.649  1.00  0.00     0.200 A 
ATOM     91  F   UNL A   1      40.533  36.865  37.636  1.00  0.00    -0.200 F 
ATOM     92  F   UNL A   1      39.035  36.004  39.747  1.00  0.00    -0.200 F 
ENDBRANCH  58  82
BRANCH  70  93
ATOM     93  C   UNL A   1      44.128  28.709  34.788  1.00  0.00     0.064 A 
ATOM     94  C   UNL A   1      45.387  29.320  34.721  1.00  0.00     0.173 A 
ATOM     95  C   UNL A   1      43.985  27.590  35.626  1.00  0.00     0.173 A 
ATOM     96  F   UNL A   1      45.581  30.384  33.926  1.00  0.00    -0.203 F 
ATOM     97  C   UNL A   1      46.465  28.820  35.448  1.00  0.00     0.198 A 
ATOM     98  C   UNL A   1      45.056  27.115  36.377  1.00  0.00     0.198 A 
ATOM     99  F   UNL A   1      42.799  26.973  35.733  1.00  0.00    -0.203 F 
ATOM    100  F   UNL A   1      47.671  29.396  35.334  1.00  0.00    -0.200 F 
ATOM    101  C   UNL A   1      46.296  27.726  36.283  1.00  0.00     0.200 A 
ATOM    102  F   UNL A   1      44.885  26.068  37.197  1.00  0.00    -0.200 F 
ATOM    103  F   UNL A   1      47.331  27.258  36.994  1.00  0.00    -0.200 F 
ENDBRANCH  70  93
ENDBRANCH  44  45
ENDBRANCH  36  39
ENDBRANCH  34  35
ENDBRANCH  33  34
ENDBRANCH   1  33
TORSDOF 14
ENDMDL
MODEL 3
REMARK VINA RESULT:     -10.2      4.947      9.531
REMARK SMILES Cc1cc(C)n(C)c(=O)c1C(=O)N1CCC2(CC1)C[NH2+][C@@H](C(=O)NCCCCCCNC(=O)c1ccc(-c3c4nc(c(-c5c(F)c(F)c(F)c(F)c5F)c5ccc([nH]5)c(-c5c(F)c(F)c(F)c(F)c5F)c5nc(c(-c6c(F)c(F)c(F)c(F)c6F)c6ccc3[nH]6)C=C5)C=C4)cc1)C2
REMARK SMILES IDX 28 1 27 2 26 3 25 4 24 5 22 6 23 7 21 9 11 10 12 11 13 12
REMARK SMILES IDX 14 13 18 14 15 15 17 16 16 17 19 18 97 19 20 20 10 23 1 24
REMARK SMILES IDX 2 25 3 26 4 27 8 28 5 29 6 30 9 31 7 32 29 33 30 34 31 35
REMARK SMILES IDX 32 36 33 38 34 39 35 40 96 41 36 42 95 43 37 44 38 45 39 46
REMARK SMILES IDX 89 47 40 48 94 49 88 50 90 51 41 52 93 53 87 54 86 55 42 57
REMARK SMILES IDX 74 58 54 59 73 60 55 61 58 62 72 63 91 64 56 65 57 66 71 68
REMARK SMILES IDX 92 69 59 70 43 71 44 72 52 73 45 74 46 75 50 76 53 77 47 78
REMARK SMILES IDX 48 79 51 80 49 81 75 82 76 83 84 84 77 85 78 86 82 87 85 88
REMARK SMILES IDX 79 89 80 90 83 91 81 92 60 93 61 94 69 95 62 96 63 97 67 98
REMARK SMILES IDX 70 99 64 100 65 101 68 102 66 103
REMARK H PARENT 24 8 20 21 20 22 31 37 90 56 58 67
REMARK Flexibility Score: inf
ROOT
ATOM      1  C   UNL A   1      30.682  31.920  25.478  1.00  0.00     0.002 C 
ENDROOT
BRANCH   1   2
ATOM      2  C   UNL A   1      30.294  33.278  24.886  1.00  0.00     0.002 C 
BRANCH   2   3
ATOM      3  C   UNL A   1      29.517  33.197  23.572  1.00  0.00     0.021 C 
BRANCH   3   4
ATOM      4  C   UNL A   1      28.325  32.247  23.627  1.00  0.00     0.116 C 
BRANCH   4   5
ATOM      5  N   UNL A   1      28.240  31.436  22.428  1.00  0.00    -0.351 N 
ATOM      6  C   UNL A   1      28.953  30.328  22.074  1.00  0.00     0.278 C 
ATOM      7  O   UNL A   1      28.712  29.808  20.982  1.00  0.00    -0.268 OA
ATOM      8  H   UNL A   1      27.567  31.729  21.771  1.00  0.00     0.163 HD
BRANCH   6   9
ATOM      9  C   UNL A   1      30.039  29.753  22.990  1.00  0.00     0.273 C 
ATOM     10  C   UNL A   1      31.630  24.160  26.091  1.00  0.00     0.259 C 
ATOM     11  O   UNL A   1      31.380  24.110  27.299  1.00  0.00    -0.269 OA
ATOM     12  N   UNL A   1      31.049  25.165  25.330  1.00  0.00    -0.338 N 
ATOM     13  C   UNL A   1      30.697  26.398  26.013  1.00  0.00     0.120 C 
ATOM     14  C   UNL A   1      30.484  25.038  23.998  1.00  0.00     0.120 C 
ATOM     15  C   UNL A   1      31.385  27.535  25.285  1.00  0.00     0.034 C 
ATOM     16  C   UNL A   1      30.790  26.251  23.099  1.00  0.00     0.034 C 
ATOM     17  C   UNL A   1      30.953  27.638  23.805  1.00  0.00     0.029 C 
ATOM     18  C   UNL A   1      32.006  28.516  23.076  1.00  0.00     0.268 C 
ATOM     19  C   UNL A   1      29.645  28.459  23.692  1.00  0.00     0.088 C 
ATOM     20  N   UNL A   1      31.257  29.424  22.227  1.00  0.00    -0.336 N 
ATOM     21  H   UNL A   1      31.014  28.970  21.346  1.00  0.00     0.346 HD
ATOM     22  H   UNL A   1      31.795  30.257  21.992  1.00  0.00     0.346 HD
BRANCH  10  23
ATOM     23  C   UNL A   1      32.699  23.248  25.527  1.00  0.00     0.108 A 
ATOM     24  C   UNL A   1      34.664  24.909  25.475  1.00  0.00     0.045 C 
ATOM     25  C   UNL A   1      33.995  23.582  25.309  1.00  0.00    -0.031 A 
ATOM     26  C   UNL A   1      34.980  22.568  24.982  1.00  0.00     0.026 A 
ATOM     27  C   UNL A   1      34.723  21.262  25.102  1.00  0.00     0.018 A 
ATOM     28  C   UNL A   1      32.358  21.765  25.454  1.00  0.00     0.263 A 
ATOM     29  C   UNL A   1      35.852  20.287  24.907  1.00  0.00     0.064 C 
ATOM     30  N   UNL A   1      33.429  20.854  25.387  1.00  0.00    -0.315 N 
ATOM     31  O   UNL A   1      31.187  21.385  25.456  1.00  0.00    -0.268 OA
ATOM     32  C   UNL A   1      33.123  19.439  25.561  1.00  0.00     0.153 C 
ENDBRANCH  10  23
ENDBRANCH   6   9
ENDBRANCH   4   5
ENDBRANCH   3   4
ENDBRANCH   2   3
ENDBRANCH   1   2
BRANCH   1  33
ATOM     33  C   UNL A   1      31.237  31.977  26.903  1.00  0.00     0.021 C 
BRANCH  33  34
ATOM     34  C   UNL A   1      32.553  32.736  27.028  1.00  0.00     0.116 C 
BRANCH  34  35
ATOM     35  N   UNL A   1      32.344  34.118  27.433  1.00  0.00    -0.352 N 
ATOM     36  C   UNL A   1      32.925  34.818  28.460  1.00  0.00     0.251 C 
ATOM     37  H   UNL A   1      31.692  34.622  26.893  1.00  0.00     0.163 HD
ATOM     38  O   UNL A   1      32.485  35.907  28.801  1.00  0.00    -0.269 OA
BRANCH  36  39
ATOM     39  C   UNL A   1      34.083  34.234  29.166  1.00  0.00     0.039 A 
ATOM     40  C   UNL A   1      33.856  33.355  30.226  1.00  0.00     0.014 A 
ATOM     41  C   UNL A   1      35.387  34.550  28.771  1.00  0.00     0.014 A 
ATOM     42  C   UNL A   1      34.939  32.739  30.852  1.00  0.00     0.010 A 
ATOM     43  C   UNL A   1      36.460  33.880  29.345  1.00  0.00     0.010 A 
ATOM     44  C   UNL A   1      36.247  32.970  30.390  1.00  0.00    -0.014 A 
BRANCH  44  45
ATOM     45  C   UNL A   1      37.406  32.260  30.981  1.00  0.00     0.031 A 
ATOM     46  C   UNL A   1      37.914  32.647  32.339  1.00  0.00     0.074 A 
ATOM     47  C   UNL A   1      38.036  31.311  30.266  1.00  0.00     0.049 A 
ATOM     48  N   UNL A   1      38.951  32.190  32.994  1.00  0.00    -0.248 NA
ATOM     49  C   UNL A   1      37.173  33.703  33.044  1.00  0.00     0.031 C 
ATOM     50  C   UNL A   1      37.648  30.870  28.925  1.00  0.00     0.029 A 
ATOM     51  N   UNL A   1      39.136  30.548  30.563  1.00  0.00    -0.354 N 
ATOM     52  C   UNL A   1      38.983  32.901  34.187  1.00  0.00     0.074 A 
ATOM     53  C   UNL A   1      37.906  33.865  34.134  1.00  0.00     0.031 C 
ATOM     54  C   UNL A   1      38.475  29.891  28.529  1.00  0.00     0.029 A 
ATOM     55  C   UNL A   1      39.477  29.666  29.568  1.00  0.00     0.049 A 
ATOM     56  H   UNL A   1      39.634  30.625  31.408  1.00  0.00     0.167 HD
ATOM     57  C   UNL A   1      39.818  32.741  35.241  1.00  0.00     0.037 A 
ATOM     58  C   UNL A   1      40.486  28.776  29.498  1.00  0.00     0.037 A 
ATOM     59  C   UNL A   1      40.891  31.780  35.282  1.00  0.00     0.049 A 
ATOM     60  C   UNL A   1      41.434  28.650  30.658  1.00  0.00     0.074 A 
ATOM     61  C   UNL A   1      41.783  31.527  36.308  1.00  0.00     0.029 A 
ATOM     62  N   UNL A   1      41.219  30.916  34.245  1.00  0.00    -0.354 N 
ATOM     63  N   UNL A   1      41.437  29.302  31.796  1.00  0.00    -0.248 NA
ATOM     64  C   UNL A   1      42.515  27.666  30.526  1.00  0.00     0.031 C 
ATOM     65  C   UNL A   1      42.686  30.552  35.872  1.00  0.00     0.029 A 
ATOM     66  C   UNL A   1      42.315  30.145  34.600  1.00  0.00     0.049 A 
ATOM     67  H   UNL A   1      40.743  30.859  33.385  1.00  0.00     0.167 HD
ATOM     68  C   UNL A   1      42.496  28.785  32.530  1.00  0.00     0.074 A 
ATOM     69  C   UNL A   1      43.110  27.761  31.708  1.00  0.00     0.031 C 
ATOM     70  C   UNL A   1      42.916  29.127  33.773  1.00  0.00     0.037 A 
BRANCH  57  71
ATOM     71  C   UNL A   1      39.601  33.627  36.435  1.00  0.00     0.064 A 
ATOM     72  C   UNL A   1      38.802  33.221  37.516  1.00  0.00     0.173 A 
ATOM     73  C   UNL A   1      40.217  34.885  36.516  1.00  0.00     0.173 A 
ATOM     74  F   UNL A   1      38.179  32.032  37.486  1.00  0.00    -0.203 F 
ATOM     75  C   UNL A   1      38.600  34.053  38.613  1.00  0.00     0.198 A 
ATOM     76  C   UNL A   1      40.042  35.700  37.632  1.00  0.00     0.198 A 
ATOM     77  F   UNL A   1      40.996  35.323  35.515  1.00  0.00    -0.203 F 
ATOM     78  F   UNL A   1      37.785  33.666  39.605  1.00  0.00    -0.200 F 
ATOM     79  C   UNL A   1      39.227  35.288  38.675  1.00  0.00     0.200 A 
ATOM     80  F   UNL A   1      40.663  36.887  37.696  1.00  0.00    -0.200 F 
ATOM     81  F   UNL A   1      39.038  36.085  39.735  1.00  0.00    -0.200 F 
ENDBRANCH  57  71
BRANCH  58  82
ATOM     82  C   UNL A   1      40.598  27.899  28.304  1.00  0.00     0.064 A 
ATOM     83  C   UNL A   1      41.340  28.307  27.188  1.00  0.00     0.173 A 
ATOM     84  C   UNL A   1      40.029  26.617  28.279  1.00  0.00     0.173 A 
ATOM     85  F   UNL A   1      41.885  29.531  27.159  1.00  0.00    -0.203 F 
ATOM     86  C   UNL A   1      41.513  27.464  26.092  1.00  0.00     0.198 A 
ATOM     87  C   UNL A   1      40.227  25.765  27.194  1.00  0.00     0.198 A 
ATOM     88  F   UNL A   1      39.316  26.177  29.326  1.00  0.00    -0.203 F 
ATOM     89  F   UNL A   1      42.213  27.885  25.031  1.00  0.00    -0.200 F 
ATOM     90  C   UNL A   1      40.968  26.189  26.102  1.00  0.00     0.200 A 
ATOM     91  F   UNL A   1      39.714  24.527  27.216  1.00  0.00    -0.200 F 
ATOM     92  F   UNL A   1      41.158  25.369  25.059  1.00  0.00    -0.200 F 
ENDBRANCH  58  82
BRANCH  70  93
ATOM     93  C   UNL A   1      44.079  28.367  34.348  1.00  0.00     0.064 A 
ATOM     94  C   UNL A   1      45.395  28.839  34.244  1.00  0.00     0.173 A 
ATOM     95  C   UNL A   1      43.862  27.183  35.071  1.00  0.00     0.173 A 
ATOM     96  F   UNL A   1      45.659  29.959  33.553  1.00  0.00    -0.203 F 
ATOM     97  C   UNL A   1      46.453  28.144  34.825  1.00  0.00     0.198 A 
ATOM     98  C   UNL A   1      44.918  26.510  35.680  1.00  0.00     0.198 A 
ATOM     99  F   UNL A   1      42.621  26.692  35.208  1.00  0.00    -0.203 F 
ATOM    100  F   UNL A   1      47.707  28.593  34.677  1.00  0.00    -0.200 F 
ATOM    101  C   UNL A   1      46.212  26.988  35.551  1.00  0.00     0.200 A 
ATOM    102  F   UNL A   1      44.680  25.402  36.396  1.00  0.00    -0.200 F 
ATOM    103  F   UNL A   1      47.230  26.330  36.124  1.00  0.00    -0.200 F 
ENDBRANCH  70  93
ENDBRANCH  44  45
ENDBRANCH  36  39
ENDBRANCH  34  35
ENDBRANCH  33  34
ENDBRANCH   1  33
TORSDOF 14
ENDMDL
