MODEL 1
REMARK VINA RESULT:     -13.4      0.000      0.000
REMARK SMILES CN1C(=O)C[C@@H](C(=O)NCCCCCCNC(=O)c2ccc(-c3c4nc(c(-c5c(F)c(F)c(F)c(F)c5F)c5ccc([nH]5)c(-c5c(F)c(F)c(F)c(F)c5F)c5nc(c(-c6c(F)c(F)c(F)c(F)c6F)c6ccc3[nH]6)C=C5)C=C4)cc2)C12CCN(C(=O)c1ccccc1-n1cccn1)CC2
REMARK SMILES IDX 12 1 11 2 10 3 9 4 7 5 8 6 6 8 1 9 2 10 3 11 82 12 4 13 5 14
REMARK SMILES IDX 83 15 100 16 84 17 99 18 85 19 86 20 87 21 88 22 89 23 93 24
REMARK SMILES IDX 90 25 92 26 91 27 94 28 95 29 98 30 96 31 97 32 13 33 14 34
REMARK SMILES IDX 15 35 16 36 17 37 18 39 19 40 20 41 81 42 21 43 80 44 22 45
REMARK SMILES IDX 23 46 24 47 74 48 25 49 79 50 73 51 75 52 26 53 78 54 72 55
REMARK SMILES IDX 71 56 27 58 59 59 39 60 58 61 40 62 43 63 57 64 76 65 41 66
REMARK SMILES IDX 42 67 56 69 77 70 44 71 28 72 29 73 37 74 30 75 31 76 35 77
REMARK SMILES IDX 38 78 32 79 33 80 36 81 34 82 60 83 61 84 69 85 62 86 63 87
REMARK SMILES IDX 67 88 70 89 64 90 65 91 68 92 66 93 45 94 46 95 54 96 47 97
REMARK SMILES IDX 48 98 52 99 55 100 49 101 50 102 53 103 51 104
REMARK H PARENT 9 7 16 38 75 57 43 68
REMARK Flexibility Score: inf
ROOT
ATOM      1  C   UNL A   1      33.680  29.902  27.254  1.00  0.00     0.002 C 
ENDROOT
BRANCH   1   2
ATOM      2  C   UNL A   1      32.187  29.761  26.968  1.00  0.00     0.021 C 
BRANCH   2   3
ATOM      3  C   UNL A   1      31.815  29.773  25.480  1.00  0.00     0.116 C 
BRANCH   3   4
ATOM      4  N   UNL A   1      32.962  29.685  24.590  1.00  0.00    -0.356 N 
ATOM      5  C   UNL A   1      33.158  29.132  23.365  1.00  0.00     0.226 C 
ATOM      6  O   UNL A   1      34.295  29.254  22.892  1.00  0.00    -0.275 OA
ATOM      7  H   UNL A   1      33.768  30.120  24.953  1.00  0.00     0.163 HD
BRANCH   5   8
ATOM      8  C   UNL A   1      32.105  28.370  22.545  1.00  0.00     0.113 C 
ATOM      9  C   UNL A   1      29.376  26.630  24.445  1.00  0.00     0.147 C 
ATOM     10  N   UNL A   1      30.258  27.448  23.639  1.00  0.00    -0.339 N 
ATOM     11  C   UNL A   1      29.807  28.656  23.124  1.00  0.00     0.223 C 
ATOM     12  C   UNL A   1      31.565  27.028  23.099  1.00  0.00     0.058 C 
ATOM     13  O   UNL A   1      28.722  29.176  23.344  1.00  0.00    -0.275 OA
ATOM     14  C   UNL A   1      30.883  29.243  22.261  1.00  0.00     0.116 C 
ATOM     15  C   UNL A   1      32.515  26.407  24.137  1.00  0.00     0.051 C 
ATOM     16  C   UNL A   1      31.310  25.965  21.988  1.00  0.00     0.051 C 
ATOM     17  C   UNL A   1      33.788  25.842  23.521  1.00  0.00     0.122 C 
ATOM     18  C   UNL A   1      32.572  25.244  21.493  1.00  0.00     0.122 C 
ATOM     19  N   UNL A   1      33.407  24.786  22.601  1.00  0.00    -0.338 N 
ATOM     20  C   UNL A   1      33.785  23.446  22.698  1.00  0.00     0.256 C 
ATOM     21  O   UNL A   1      33.433  22.588  21.892  1.00  0.00    -0.269 OA
BRANCH  20  22
ATOM     22  C   UNL A   1      34.702  23.007  23.784  1.00  0.00     0.065 A 
ATOM     23  C   UNL A   1      36.043  22.822  23.402  1.00  0.00     0.016 A 
ATOM     24  C   UNL A   1      34.346  22.832  25.132  1.00  0.00     0.077 A 
ATOM     25  C   UNL A   1      37.018  22.499  24.350  1.00  0.00     0.001 A 
ATOM     26  C   UNL A   1      35.347  22.568  26.087  1.00  0.00     0.029 A 
ATOM     27  C   UNL A   1      36.672  22.388  25.694  1.00  0.00     0.002 A 
BRANCH  24  28
ATOM     28  N   UNL A   1      33.010  22.879  25.591  1.00  0.00    -0.240 N 
ATOM     29  C   UNL A   1      31.979  22.006  25.328  1.00  0.00     0.115 A 
ATOM     30  N   UNL A   1      32.611  23.873  26.433  1.00  0.00    -0.177 NA
ATOM     31  C   UNL A   1      30.878  22.466  26.013  1.00  0.00     0.042 A 
ATOM     32  C   UNL A   1      31.318  23.634  26.648  1.00  0.00     0.135 A 
ENDBRANCH  24  28
ENDBRANCH  20  22
ENDBRANCH   5   8
ENDBRANCH   3   4
ENDBRANCH   2   3
ENDBRANCH   1   2
BRANCH   1  33
ATOM     33  C   UNL A   1      34.055  31.178  28.006  1.00  0.00     0.002 C 
BRANCH  33  34
ATOM     34  C   UNL A   1      33.677  32.478  27.291  1.00  0.00     0.021 C 
BRANCH  34  35
ATOM     35  C   UNL A   1      32.339  33.071  27.722  1.00  0.00     0.116 C 
BRANCH  35  36
ATOM     36  N   UNL A   1      32.409  34.516  27.854  1.00  0.00    -0.352 N 
ATOM     37  C   UNL A   1      33.190  35.270  28.689  1.00  0.00     0.251 C 
ATOM     38  H   UNL A   1      31.813  35.024  27.257  1.00  0.00     0.163 HD
ATOM     39  O   UNL A   1      32.959  36.465  28.844  1.00  0.00    -0.269 OA
BRANCH  37  40
ATOM     40  C   UNL A   1      34.309  34.634  29.412  1.00  0.00     0.039 A 
ATOM     41  C   UNL A   1      34.054  34.005  30.632  1.00  0.00     0.014 A 
ATOM     42  C   UNL A   1      35.608  34.676  28.896  1.00  0.00     0.014 A 
ATOM     43  C   UNL A   1      35.097  33.382  31.317  1.00  0.00     0.010 A 
ATOM     44  C   UNL A   1      36.631  33.986  29.540  1.00  0.00     0.010 A 
ATOM     45  C   UNL A   1      36.389  33.346  30.765  1.00  0.00    -0.014 A 
BRANCH  45  46
ATOM     46  C   UNL A   1      37.502  32.659  31.466  1.00  0.00     0.031 A 
ATOM     47  C   UNL A   1      38.180  31.479  30.828  1.00  0.00     0.074 A 
ATOM     48  C   UNL A   1      37.868  33.069  32.696  1.00  0.00     0.049 A 
ATOM     49  N   UNL A   1      39.135  30.717  31.300  1.00  0.00    -0.248 NA
ATOM     50  C   UNL A   1      37.705  31.084  29.493  1.00  0.00     0.031 C 
ATOM     51  C   UNL A   1      37.254  34.173  33.436  1.00  0.00     0.029 A 
ATOM     52  N   UNL A   1      38.839  32.600  33.545  1.00  0.00    -0.354 N 
ATOM     53  C   UNL A   1      39.364  29.752  30.328  1.00  0.00     0.074 A 
ATOM     54  C   UNL A   1      38.408  29.984  29.268  1.00  0.00     0.031 C 
ATOM     55  C   UNL A   1      37.880  34.314  34.615  1.00  0.00     0.029 A 
ATOM     56  C   UNL A   1      38.909  33.284  34.733  1.00  0.00     0.049 A 
ATOM     57  H   UNL A   1      39.429  31.844  33.322  1.00  0.00     0.167 HD
ATOM     58  C   UNL A   1      40.303  28.777  30.311  1.00  0.00     0.037 A 
ATOM     59  C   UNL A   1      39.709  33.097  35.800  1.00  0.00     0.037 A 
ATOM     60  C   UNL A   1      41.264  28.563  31.361  1.00  0.00     0.049 A 
ATOM     61  C   UNL A   1      40.732  31.995  35.762  1.00  0.00     0.074 A 
ATOM     62  C   UNL A   1      42.291  27.638  31.417  1.00  0.00     0.029 A 
ATOM     63  N   UNL A   1      41.311  29.284  32.546  1.00  0.00    -0.354 N 
ATOM     64  N   UNL A   1      40.987  31.132  34.808  1.00  0.00    -0.248 NA
ATOM     65  C   UNL A   1      41.589  31.846  36.947  1.00  0.00     0.031 C 
ATOM     66  C   UNL A   1      42.922  27.760  32.658  1.00  0.00     0.029 A 
ATOM     67  C   UNL A   1      42.333  28.806  33.350  1.00  0.00     0.049 A 
ATOM     68  H   UNL A   1      40.708  30.026  32.781  1.00  0.00     0.167 HD
ATOM     69  C   UNL A   1      42.050  30.364  35.261  1.00  0.00     0.074 A 
ATOM     70  C   UNL A   1      42.403  30.871  36.570  1.00  0.00     0.031 C 
ATOM     71  C   UNL A   1      42.679  29.330  34.647  1.00  0.00     0.037 A 
BRANCH  58  72
ATOM     72  C   UNL A   1      40.337  27.863  29.117  1.00  0.00     0.064 A 
ATOM     73  C   UNL A   1      39.584  26.680  29.070  1.00  0.00     0.173 A 
ATOM     74  C   UNL A   1      41.107  28.194  27.991  1.00  0.00     0.173 A 
ATOM     75  F   UNL A   1      38.840  26.309  30.123  1.00  0.00    -0.203 F 
ATOM     76  C   UNL A   1      39.626  25.846  27.954  1.00  0.00     0.198 A 
ATOM     77  C   UNL A   1      41.118  27.377  26.863  1.00  0.00     0.198 A 
ATOM     78  F   UNL A   1      41.842  29.317  27.979  1.00  0.00    -0.203 F 
ATOM     79  F   UNL A   1      38.942  24.694  27.955  1.00  0.00    -0.200 F 
ATOM     80  C   UNL A   1      40.386  26.200  26.849  1.00  0.00     0.200 A 
ATOM     81  F   UNL A   1      41.840  27.728  25.790  1.00  0.00    -0.200 F 
ATOM     82  F   UNL A   1      40.417  25.402  25.773  1.00  0.00    -0.200 F 
ENDBRANCH  58  72
BRANCH  59  83
ATOM     83  C   UNL A   1      39.587  33.988  36.985  1.00  0.00     0.064 A 
ATOM     84  C   UNL A   1      40.267  35.213  37.039  1.00  0.00     0.173 A 
ATOM     85  C   UNL A   1      38.802  33.630  38.090  1.00  0.00     0.173 A 
ATOM     86  F   UNL A   1      41.047  35.592  36.016  1.00  0.00    -0.203 F 
ATOM     87  C   UNL A   1      40.185  36.034  38.163  1.00  0.00     0.198 A 
ATOM     88  C   UNL A   1      38.694  34.466  39.199  1.00  0.00     0.198 A 
ATOM     89  F   UNL A   1      38.125  32.471  38.088  1.00  0.00    -0.203 F 
ATOM     90  F   UNL A   1      40.887  37.175  38.208  1.00  0.00    -0.200 F 
ATOM     91  C   UNL A   1      39.394  35.663  39.239  1.00  0.00     0.200 A 
ATOM     92  F   UNL A   1      37.914  34.112  40.229  1.00  0.00    -0.200 F 
ATOM     93  F   UNL A   1      39.313  36.454  40.317  1.00  0.00    -0.200 F 
ENDBRANCH  59  83
BRANCH  71  94
ATOM     94  C   UNL A   1      43.847  28.710  35.362  1.00  0.00     0.064 A 
ATOM     95  C   UNL A   1      45.160  29.157  35.162  1.00  0.00     0.173 A 
ATOM     96  C   UNL A   1      43.639  27.679  36.292  1.00  0.00     0.173 A 
ATOM     97  F   UNL A   1      45.415  30.131  34.274  1.00  0.00    -0.203 F 
ATOM     98  C   UNL A   1      46.227  28.575  35.845  1.00  0.00     0.198 A 
ATOM     99  C   UNL A   1      44.702  27.125  36.999  1.00  0.00     0.198 A 
ATOM    100  F   UNL A   1      42.400  27.219  36.527  1.00  0.00    -0.203 F 
ATOM    101  F   UNL A   1      47.479  28.983  35.597  1.00  0.00    -0.200 F 
ATOM    102  C   UNL A   1      45.995  27.567  36.768  1.00  0.00     0.200 A 
ATOM    103  F   UNL A   1      44.474  26.164  37.904  1.00  0.00    -0.200 F 
ATOM    104  F   UNL A   1      47.020  27.016  37.431  1.00  0.00    -0.200 F 
ENDBRANCH  71  94
ENDBRANCH  45  46
ENDBRANCH  37  40
ENDBRANCH  35  36
ENDBRANCH  34  35
ENDBRANCH  33  34
ENDBRANCH   1  33
TORSDOF 15
ENDMDL
MODEL 2
REMARK VINA RESULT:     -13.3      5.915     10.701
REMARK SMILES CN1C(=O)C[C@@H](C(=O)NCCCCCCNC(=O)c2ccc(-c3c4nc(c(-c5c(F)c(F)c(F)c(F)c5F)c5ccc([nH]5)c(-c5c(F)c(F)c(F)c(F)c5F)c5nc(c(-c6c(F)c(F)c(F)c(F)c6F)c6ccc3[nH]6)C=C5)C=C4)cc2)C12CCN(C(=O)c1ccccc1-n1cccn1)CC2
REMARK SMILES IDX 12 1 11 2 10 3 9 4 7 5 8 6 6 8 1 9 2 10 3 11 82 12 4 13 5 14
REMARK SMILES IDX 83 15 100 16 84 17 99 18 85 19 86 20 87 21 88 22 89 23 93 24
REMARK SMILES IDX 90 25 92 26 91 27 94 28 95 29 98 30 96 31 97 32 13 33 14 34
REMARK SMILES IDX 15 35 16 36 17 37 18 39 19 40 20 41 81 42 21 43 80 44 22 45
REMARK SMILES IDX 23 46 24 47 74 48 25 49 79 50 73 51 75 52 26 53 78 54 72 55
REMARK SMILES IDX 71 56 27 58 59 59 39 60 58 61 40 62 43 63 57 64 76 65 41 66
REMARK SMILES IDX 42 67 56 69 77 70 44 71 28 72 29 73 37 74 30 75 31 76 35 77
REMARK SMILES IDX 38 78 32 79 33 80 36 81 34 82 60 83 61 84 69 85 62 86 63 87
REMARK SMILES IDX 67 88 70 89 64 90 65 91 68 92 66 93 45 94 46 95 54 96 47 97
REMARK SMILES IDX 48 98 52 99 55 100 49 101 50 102 53 103 51 104
REMARK H PARENT 9 7 16 38 75 57 43 68
REMARK Flexibility Score: inf
ROOT
ATOM      1  C   UNL A   1      39.619  21.839  26.173  1.00  0.00     0.002 C 
ENDROOT
BRANCH   1   2
ATOM      2  C   UNL A   1      39.506  23.326  26.499  1.00  0.00     0.021 C 
BRANCH   2   3
ATOM      3  C   UNL A   1      38.104  23.919  26.313  1.00  0.00     0.116 C 
BRANCH   3   4
ATOM      4  N   UNL A   1      37.540  23.682  24.994  1.00  0.00    -0.356 N 
ATOM      5  C   UNL A   1      36.408  23.074  24.553  1.00  0.00     0.226 C 
ATOM      6  O   UNL A   1      36.244  23.060  23.327  1.00  0.00    -0.275 OA
ATOM      7  H   UNL A   1      38.097  24.040  24.265  1.00  0.00     0.163 HD
BRANCH   5   8
ATOM      8  C   UNL A   1      35.347  22.404  25.439  1.00  0.00     0.113 C 
ATOM      9  C   UNL A   1      32.518  20.652  23.704  1.00  0.00     0.147 C 
ATOM     10  N   UNL A   1      33.678  21.111  24.438  1.00  0.00    -0.339 N 
ATOM     11  C   UNL A   1      34.634  20.199  24.867  1.00  0.00     0.223 C 
ATOM     12  C   UNL A   1      33.865  22.465  24.992  1.00  0.00     0.058 C 
ATOM     13  O   UNL A   1      34.652  19.001  24.622  1.00  0.00    -0.275 OA
ATOM     14  C   UNL A   1      35.667  20.927  25.672  1.00  0.00     0.116 C 
ATOM     15  C   UNL A   1      33.609  23.605  23.993  1.00  0.00     0.051 C 
ATOM     16  C   UNL A   1      32.873  22.640  26.182  1.00  0.00     0.051 C 
ATOM     17  C   UNL A   1      33.654  24.985  24.634  1.00  0.00     0.122 C 
ATOM     18  C   UNL A   1      32.763  24.076  26.715  1.00  0.00     0.122 C 
ATOM     19  N   UNL A   1      32.604  25.047  25.634  1.00  0.00    -0.338 N 
ATOM     20  C   UNL A   1      31.530  25.937  25.632  1.00  0.00     0.256 C 
ATOM     21  O   UNL A   1      30.663  25.947  26.504  1.00  0.00    -0.269 OA
BRANCH  20  22
ATOM     22  C   UNL A   1      31.423  26.975  24.571  1.00  0.00     0.065 A 
ATOM     23  C   UNL A   1      30.740  26.578  23.407  1.00  0.00     0.016 A 
ATOM     24  C   UNL A   1      31.885  28.297  24.673  1.00  0.00     0.077 A 
ATOM     25  C   UNL A   1      30.495  27.490  22.377  1.00  0.00     0.001 A 
ATOM     26  C   UNL A   1      31.578  29.223  23.657  1.00  0.00     0.029 A 
ATOM     27  C   UNL A   1      30.900  28.814  22.509  1.00  0.00     0.002 A 
BRANCH  24  28
ATOM     28  N   UNL A   1      32.682  28.757  25.747  1.00  0.00    -0.240 N 
ATOM     29  C   UNL A   1      33.985  28.435  26.050  1.00  0.00     0.115 A 
ATOM     30  N   UNL A   1      32.180  29.663  26.632  1.00  0.00    -0.177 NA
ATOM     31  C   UNL A   1      34.324  29.147  27.178  1.00  0.00     0.042 A 
ATOM     32  C   UNL A   1      33.164  29.861  27.508  1.00  0.00     0.135 A 
ENDBRANCH  24  28
ENDBRANCH  20  22
ENDBRANCH   5   8
ENDBRANCH   3   4
ENDBRANCH   2   3
ENDBRANCH   1   2
BRANCH   1  33
ATOM     33  C   UNL A   1      40.938  21.202  26.606  1.00  0.00     0.002 C 
BRANCH  33  34
ATOM     34  C   UNL A   1      41.170  19.785  26.072  1.00  0.00     0.021 C 
BRANCH  34  35
ATOM     35  C   UNL A   1      42.467  19.135  26.544  1.00  0.00     0.116 C 
BRANCH  35  36
ATOM     36  N   UNL A   1      43.317  18.760  25.429  1.00  0.00    -0.352 N 
ATOM     37  C   UNL A   1      44.088  19.557  24.625  1.00  0.00     0.251 C 
ATOM     38  H   UNL A   1      43.345  17.798  25.223  1.00  0.00     0.163 HD
ATOM     39  O   UNL A   1      44.560  19.116  23.581  1.00  0.00    -0.269 OA
BRANCH  37  40
ATOM     40  C   UNL A   1      44.342  20.958  25.015  1.00  0.00     0.039 A 
ATOM     41  C   UNL A   1      43.787  21.985  24.248  1.00  0.00     0.014 A 
ATOM     42  C   UNL A   1      45.140  21.257  26.123  1.00  0.00     0.014 A 
ATOM     43  C   UNL A   1      44.001  23.312  24.616  1.00  0.00     0.010 A 
ATOM     44  C   UNL A   1      45.286  22.578  26.535  1.00  0.00     0.010 A 
ATOM     45  C   UNL A   1      44.731  23.620  25.777  1.00  0.00    -0.014 A 
BRANCH  45  46
ATOM     46  C   UNL A   1      44.940  25.027  26.199  1.00  0.00     0.031 A 
ATOM     47  C   UNL A   1      46.304  25.650  26.095  1.00  0.00     0.074 A 
ATOM     48  C   UNL A   1      43.912  25.725  26.720  1.00  0.00     0.049 A 
ATOM     49  N   UNL A   1      46.699  26.845  26.457  1.00  0.00    -0.248 NA
ATOM     50  C   UNL A   1      47.375  24.811  25.535  1.00  0.00     0.031 C 
ATOM     51  C   UNL A   1      42.555  25.213  26.913  1.00  0.00     0.029 A 
ATOM     52  N   UNL A   1      43.852  27.013  27.190  1.00  0.00    -0.354 N 
ATOM     53  C   UNL A   1      48.058  26.894  26.179  1.00  0.00     0.074 A 
ATOM     54  C   UNL A   1      48.435  25.592  25.679  1.00  0.00     0.031 C 
ATOM     55  C   UNL A   1      41.789  26.184  27.435  1.00  0.00     0.029 A 
ATOM     56  C   UNL A   1      42.610  27.371  27.654  1.00  0.00     0.049 A 
ATOM     57  H   UNL A   1      44.625  27.622  27.195  1.00  0.00     0.167 HD
ATOM     58  C   UNL A   1      48.909  27.940  26.308  1.00  0.00     0.037 A 
ATOM     59  C   UNL A   1      42.185  28.526  28.201  1.00  0.00     0.037 A 
ATOM     60  C   UNL A   1      48.523  29.240  26.790  1.00  0.00     0.049 A 
ATOM     61  C   UNL A   1      43.155  29.667  28.348  1.00  0.00     0.074 A 
ATOM     62  C   UNL A   1      49.295  30.382  26.908  1.00  0.00     0.029 A 
ATOM     63  N   UNL A   1      47.253  29.569  27.241  1.00  0.00    -0.354 N 
ATOM     64  N   UNL A   1      44.422  29.725  28.018  1.00  0.00    -0.248 NA
ATOM     65  C   UNL A   1      42.633  30.908  28.937  1.00  0.00     0.031 C 
ATOM     66  C   UNL A   1      48.509  31.384  27.483  1.00  0.00     0.029 A 
ATOM     67  C   UNL A   1      47.228  30.889  27.663  1.00  0.00     0.049 A 
ATOM     68  H   UNL A   1      46.482  28.956  27.259  1.00  0.00     0.167 HD
ATOM     69  C   UNL A   1      44.839  31.013  28.324  1.00  0.00     0.074 A 
ATOM     70  C   UNL A   1      43.686  31.708  28.855  1.00  0.00     0.031 C 
ATOM     71  C   UNL A   1      46.067  31.570  28.178  1.00  0.00     0.037 A 
BRANCH  58  72
ATOM     72  C   UNL A   1      50.346  27.721  25.921  1.00  0.00     0.064 A 
ATOM     73  C   UNL A   1      51.328  27.409  26.874  1.00  0.00     0.173 A 
ATOM     74  C   UNL A   1      50.738  27.791  24.576  1.00  0.00     0.173 A 
ATOM     75  F   UNL A   1      51.011  27.341  28.175  1.00  0.00    -0.203 F 
ATOM     76  C   UNL A   1      52.654  27.206  26.497  1.00  0.00     0.198 A 
ATOM     77  C   UNL A   1      52.057  27.551  24.199  1.00  0.00     0.198 A 
ATOM     78  F   UNL A   1      49.839  28.080  23.622  1.00  0.00    -0.203 F 
ATOM     79  F   UNL A   1      53.584  26.964  27.431  1.00  0.00    -0.200 F 
ATOM     80  C   UNL A   1      53.016  27.270  25.160  1.00  0.00     0.200 A 
ATOM     81  F   UNL A   1      52.402  27.597  22.904  1.00  0.00    -0.200 F 
ATOM     82  F   UNL A   1      54.290  27.065  24.799  1.00  0.00    -0.200 F 
ENDBRANCH  58  72
BRANCH  59  83
ATOM     83  C   UNL A   1      40.767  28.668  28.630  1.00  0.00     0.064 A 
ATOM     84  C   UNL A   1      39.775  29.066  27.723  1.00  0.00     0.173 A 
ATOM     85  C   UNL A   1      40.377  28.420  29.954  1.00  0.00     0.173 A 
ATOM     86  F   UNL A   1      40.102  29.334  26.450  1.00  0.00    -0.203 F 
ATOM     87  C   UNL A   1      38.453  29.235  28.129  1.00  0.00     0.198 A 
ATOM     88  C   UNL A   1      39.048  28.556  30.351  1.00  0.00     0.198 A 
ATOM     89  F   UNL A   1      41.285  28.029  30.861  1.00  0.00    -0.203 F 
ATOM     90  F   UNL A   1      37.536  29.667  27.252  1.00  0.00    -0.200 F 
ATOM     91  C   UNL A   1      38.089  28.974  29.440  1.00  0.00     0.200 A 
ATOM     92  F   UNL A   1      38.699  28.287  31.616  1.00  0.00    -0.200 F 
ATOM     93  F   UNL A   1      36.817  29.134  29.830  1.00  0.00    -0.200 F 
ENDBRANCH  59  83
BRANCH  71  94
ATOM     94  C   UNL A   1      46.217  33.019  28.551  1.00  0.00     0.064 A 
ATOM     95  C   UNL A   1      46.610  33.416  29.837  1.00  0.00     0.173 A 
ATOM     96  C   UNL A   1      46.002  34.021  27.592  1.00  0.00     0.173 A 
ATOM     97  F   UNL A   1      46.816  32.498  30.795  1.00  0.00    -0.203 F 
ATOM     98  C   UNL A   1      46.755  34.764  30.157  1.00  0.00     0.198 A 
ATOM     99  C   UNL A   1      46.183  35.365  27.905  1.00  0.00     0.198 A 
ATOM    100  F   UNL A   1      45.632  33.695  26.344  1.00  0.00    -0.203 F 
ATOM    101  F   UNL A   1      47.080  35.122  31.407  1.00  0.00    -0.200 F 
ATOM    102  C   UNL A   1      46.550  35.735  29.189  1.00  0.00     0.200 A 
ATOM    103  F   UNL A   1      46.001  36.300  26.963  1.00  0.00    -0.200 F 
ATOM    104  F   UNL A   1      46.699  37.031  29.496  1.00  0.00    -0.200 F 
ENDBRANCH  71  94
ENDBRANCH  45  46
ENDBRANCH  37  40
ENDBRANCH  35  36
ENDBRANCH  34  35
ENDBRANCH  33  34
ENDBRANCH   1  33
TORSDOF 15
ENDMDL
MODEL 3
REMARK VINA RESULT:     -13.3      1.525      7.250
REMARK SMILES CN1C(=O)C[C@@H](C(=O)NCCCCCCNC(=O)c2ccc(-c3c4nc(c(-c5c(F)c(F)c(F)c(F)c5F)c5ccc([nH]5)c(-c5c(F)c(F)c(F)c(F)c5F)c5nc(c(-c6c(F)c(F)c(F)c(F)c6F)c6ccc3[nH]6)C=C5)C=C4)cc2)C12CCN(C(=O)c1ccccc1-n1cccn1)CC2
REMARK SMILES IDX 12 1 11 2 10 3 9 4 7 5 8 6 6 8 1 9 2 10 3 11 82 12 4 13 5 14
REMARK SMILES IDX 83 15 100 16 84 17 99 18 85 19 86 20 87 21 88 22 89 23 93 24
REMARK SMILES IDX 90 25 92 26 91 27 94 28 95 29 98 30 96 31 97 32 13 33 14 34
REMARK SMILES IDX 15 35 16 36 17 37 18 39 19 40 20 41 81 42 21 43 80 44 22 45
REMARK SMILES IDX 23 46 24 47 74 48 25 49 79 50 73 51 75 52 26 53 78 54 72 55
REMARK SMILES IDX 71 56 27 58 59 59 39 60 58 61 40 62 43 63 57 64 76 65 41 66
REMARK SMILES IDX 42 67 56 69 77 70 44 71 28 72 29 73 37 74 30 75 31 76 35 77
REMARK SMILES IDX 38 78 32 79 33 80 36 81 34 82 60 83 61 84 69 85 62 86 63 87
REMARK SMILES IDX 67 88 70 89 64 90 65 91 68 92 66 93 45 94 46 95 54 96 47 97
REMARK SMILES IDX 48 98 52 99 55 100 49 101 50 102 53 103 51 104
REMARK H PARENT 9 7 16 38 75 57 43 68
REMARK Flexibility Score: inf
ROOT
ATOM      1  C   UNL A   1      34.428  31.954  28.827  1.00  0.00     0.002 C 
ENDROOT
BRANCH   1   2
ATOM      2  C   UNL A   1      34.048  31.147  27.588  1.00  0.00     0.021 C 
BRANCH   2   3
ATOM      3  C   UNL A   1      34.427  29.662  27.649  1.00  0.00     0.116 C 
BRANCH   3   4
ATOM      4  N   UNL A   1      33.282  28.770  27.733  1.00  0.00    -0.356 N 
ATOM      5  C   UNL A   1      32.458  28.213  26.808  1.00  0.00     0.226 C 
ATOM      6  O   UNL A   1      31.565  27.479  27.252  1.00  0.00    -0.275 OA
ATOM      7  H   UNL A   1      33.057  28.515  28.657  1.00  0.00     0.163 HD
BRANCH   5   8
ATOM      8  C   UNL A   1      32.538  28.428  25.289  1.00  0.00     0.113 C 
ATOM      9  C   UNL A   1      29.571  27.377  23.246  1.00  0.00     0.147 C 
ATOM     10  N   UNL A   1      30.652  28.003  23.977  1.00  0.00    -0.339 N 
ATOM     11  C   UNL A   1      30.645  29.375  24.187  1.00  0.00     0.223 C 
ATOM     12  C   UNL A   1      31.922  27.355  24.356  1.00  0.00     0.058 C 
ATOM     13  O   UNL A   1      29.751  30.150  23.877  1.00  0.00    -0.275 OA
ATOM     14  C   UNL A   1      31.915  29.763  24.882  1.00  0.00     0.116 C 
ATOM     15  C   UNL A   1      31.762  25.999  25.062  1.00  0.00     0.051 C 
ATOM     16  C   UNL A   1      32.752  27.123  23.058  1.00  0.00     0.051 C 
ATOM     17  C   UNL A   1      33.085  25.285  25.297  1.00  0.00     0.122 C 
ATOM     18  C   UNL A   1      33.993  26.238  23.243  1.00  0.00     0.122 C 
ATOM     19  N   UNL A   1      33.689  25.027  24.003  1.00  0.00    -0.338 N 
ATOM     20  C   UNL A   1      33.993  23.768  23.483  1.00  0.00     0.256 C 
ATOM     21  O   UNL A   1      34.502  23.602  22.377  1.00  0.00    -0.269 OA
BRANCH  20  22
ATOM     22  C   UNL A   1      33.754  22.547  24.299  1.00  0.00     0.065 A 
ATOM     23  C   UNL A   1      32.472  21.982  24.176  1.00  0.00     0.016 A 
ATOM     24  C   UNL A   1      34.708  21.906  25.106  1.00  0.00     0.077 A 
ATOM     25  C   UNL A   1      32.155  20.783  24.821  1.00  0.00     0.001 A 
ATOM     26  C   UNL A   1      34.397  20.667  25.700  1.00  0.00     0.029 A 
ATOM     27  C   UNL A   1      33.122  20.119  25.570  1.00  0.00     0.002 A 
BRANCH  24  28
ATOM     28  N   UNL A   1      35.979  22.456  25.387  1.00  0.00    -0.240 N 
ATOM     29  C   UNL A   1      36.286  23.603  26.084  1.00  0.00     0.115 A 
ATOM     30  N   UNL A   1      37.108  21.815  24.972  1.00  0.00    -0.177 NA
ATOM     31  C   UNL A   1      37.657  23.709  26.102  1.00  0.00     0.042 A 
ATOM     32  C   UNL A   1      38.108  22.598  25.376  1.00  0.00     0.135 A 
ENDBRANCH  24  28
ENDBRANCH  20  22
ENDBRANCH   5   8
ENDBRANCH   3   4
ENDBRANCH   2   3
ENDBRANCH   1   2
BRANCH   1  33
ATOM     33  C   UNL A   1      34.559  33.456  28.579  1.00  0.00     0.002 C 
BRANCH  33  34
ATOM     34  C   UNL A   1      33.254  34.244  28.722  1.00  0.00     0.021 C 
BRANCH  34  35
ATOM     35  C   UNL A   1      33.438  35.709  29.107  1.00  0.00     0.116 C 
BRANCH  35  36
ATOM     36  N   UNL A   1      32.610  36.074  30.244  1.00  0.00    -0.352 N 
ATOM     37  C   UNL A   1      32.696  35.653  31.544  1.00  0.00     0.251 C 
ATOM     38  H   UNL A   1      31.888  36.714  30.052  1.00  0.00     0.163 HD
ATOM     39  O   UNL A   1      31.778  35.871  32.329  1.00  0.00    -0.269 OA
BRANCH  37  40
ATOM     40  C   UNL A   1      33.898  34.926  31.998  1.00  0.00     0.039 A 
ATOM     41  C   UNL A   1      33.761  33.612  32.452  1.00  0.00     0.014 A 
ATOM     42  C   UNL A   1      35.151  35.545  31.992  1.00  0.00     0.014 A 
ATOM     43  C   UNL A   1      34.890  32.906  32.865  1.00  0.00     0.010 A 
ATOM     44  C   UNL A   1      36.286  34.812  32.328  1.00  0.00     0.010 A 
ATOM     45  C   UNL A   1      36.165  33.491  32.782  1.00  0.00    -0.014 A 
BRANCH  45  46
ATOM     46  C   UNL A   1      37.380  32.739  33.187  1.00  0.00     0.031 A 
ATOM     47  C   UNL A   1      38.067  33.062  34.484  1.00  0.00     0.074 A 
ATOM     48  C   UNL A   1      37.888  31.803  32.364  1.00  0.00     0.049 A 
ATOM     49  N   UNL A   1      39.163  32.555  34.990  1.00  0.00    -0.248 NA
ATOM     50  C   UNL A   1      37.458  34.113  35.314  1.00  0.00     0.031 C 
ATOM     51  C   UNL A   1      37.335  31.434  31.059  1.00  0.00     0.029 A 
ATOM     52  N   UNL A   1      38.989  30.995  32.498  1.00  0.00    -0.354 N 
ATOM     53  C   UNL A   1      39.378  33.231  36.183  1.00  0.00     0.074 A 
ATOM     54  C   UNL A   1      38.337  34.227  36.298  1.00  0.00     0.031 C 
ATOM     55  C   UNL A   1      38.082  30.455  30.526  1.00  0.00     0.029 A 
ATOM     56  C   UNL A   1      39.190  30.157  31.429  1.00  0.00     0.049 A 
ATOM     57  H   UNL A   1      39.578  31.014  33.286  1.00  0.00     0.167 HD
ATOM     58  C   UNL A   1      40.343  33.022  37.110  1.00  0.00     0.037 A 
ATOM     59  C   UNL A   1      40.164  29.255  31.200  1.00  0.00     0.037 A 
ATOM     60  C   UNL A   1      41.365  32.015  36.998  1.00  0.00     0.049 A 
ATOM     61  C   UNL A   1      41.234  29.055  32.240  1.00  0.00     0.074 A 
ATOM     62  C   UNL A   1      42.356  31.686  37.905  1.00  0.00     0.029 A 
ATOM     63  N   UNL A   1      41.532  31.178  35.904  1.00  0.00    -0.354 N 
ATOM     64  N   UNL A   1      41.388  29.651  33.397  1.00  0.00    -0.248 NA
ATOM     65  C   UNL A   1      42.262  28.048  31.945  1.00  0.00     0.031 C 
ATOM     66  C   UNL A   1      43.157  30.692  37.338  1.00  0.00     0.029 A 
ATOM     67  C   UNL A   1      42.626  30.351  36.104  1.00  0.00     0.049 A 
ATOM     68  H   UNL A   1      40.957  31.171  35.104  1.00  0.00     0.167 HD
ATOM     69  C   UNL A   1      42.504  29.070  33.982  1.00  0.00     0.074 A 
ATOM     70  C   UNL A   1      42.982  28.065  33.057  1.00  0.00     0.031 C 
ATOM     71  C   UNL A   1      43.082  29.345  35.178  1.00  0.00     0.037 A 
BRANCH  58  72
ATOM     72  C   UNL A   1      40.338  33.901  38.330  1.00  0.00     0.064 A 
ATOM     73  C   UNL A   1      39.592  33.574  39.473  1.00  0.00     0.173 A 
ATOM     74  C   UNL A   1      41.119  35.066  38.370  1.00  0.00     0.173 A 
ATOM     75  F   UNL A   1      38.819  32.478  39.486  1.00  0.00    -0.203 F 
ATOM     76  C   UNL A   1      39.602  34.398  40.597  1.00  0.00     0.198 A 
ATOM     77  C   UNL A   1      41.155  35.868  39.508  1.00  0.00     0.198 A 
ATOM     78  F   UNL A   1      41.857  35.424  37.308  1.00  0.00    -0.203 F 
ATOM     79  F   UNL A   1      38.838  34.095  41.655  1.00  0.00    -0.200 F 
ATOM     80  C   UNL A   1      40.389  35.540  40.616  1.00  0.00     0.200 A 
ATOM     81  F   UNL A   1      41.929  36.963  39.531  1.00  0.00    -0.200 F 
ATOM     82  F   UNL A   1      40.405  36.325  41.701  1.00  0.00    -0.200 F 
ENDBRANCH  58  72
BRANCH  59  83
ATOM     83  C   UNL A   1      40.160  28.459  29.944  1.00  0.00     0.064 A 
ATOM     84  C   UNL A   1      40.797  28.932  28.788  1.00  0.00     0.173 A 
ATOM     85  C   UNL A   1      39.512  27.217  29.869  1.00  0.00     0.173 A 
ATOM     86  F   UNL A   1      41.414  30.123  28.803  1.00  0.00    -0.203 F 
ATOM     87  C   UNL A   1      40.765  28.205  27.599  1.00  0.00     0.198 A 
ATOM     88  C   UNL A   1      39.509  26.476  28.689  1.00  0.00     0.198 A 
ATOM     89  F   UNL A   1      38.893  26.715  30.948  1.00  0.00    -0.203 F 
ATOM     90  F   UNL A   1      41.338  28.706  26.495  1.00  0.00    -0.200 F 
ATOM     91  C   UNL A   1      40.127  26.976  27.552  1.00  0.00     0.200 A 
ATOM     92  F   UNL A   1      38.906  25.281  28.653  1.00  0.00    -0.200 F 
ATOM     93  F   UNL A   1      40.099  26.276  26.410  1.00  0.00    -0.200 F 
ENDBRANCH  59  83
BRANCH  71  94
ATOM     94  C   UNL A   1      44.266  28.512  35.580  1.00  0.00     0.064 A 
ATOM     95  C   UNL A   1      44.122  27.315  36.295  1.00  0.00     0.173 A 
ATOM     96  C   UNL A   1      45.563  28.901  35.206  1.00  0.00     0.173 A 
ATOM     97  F   UNL A   1      42.906  26.905  36.689  1.00  0.00    -0.203 F 
ATOM     98  C   UNL A   1      45.233  26.552  36.647  1.00  0.00     0.198 A 
ATOM     99  C   UNL A   1      46.668  28.118  35.528  1.00  0.00     0.198 A 
ATOM    100  F   UNL A   1      45.756  30.034  34.514  1.00  0.00    -0.203 F 
ATOM    101  F   UNL A   1      45.075  25.440  37.377  1.00  0.00    -0.200 F 
ATOM    102  C   UNL A   1      46.503  26.950  36.256  1.00  0.00     0.200 A 
ATOM    103  F   UNL A   1      47.891  28.495  35.132  1.00  0.00    -0.200 F 
ATOM    104  F   UNL A   1      47.570  26.210  36.585  1.00  0.00    -0.200 F 
ENDBRANCH  71  94
ENDBRANCH  45  46
ENDBRANCH  37  40
ENDBRANCH  35  36
ENDBRANCH  34  35
ENDBRANCH  33  34
ENDBRANCH   1  33
TORSDOF 15
ENDMDL
