MODEL 1
REMARK VINA RESULT:     -12.0      0.000      0.000
REMARK SMILES CC[C@@](C)(NS(=O)(=O)c1ccc(F)c(F)c1)C(=O)NCCCCCCNC(=O)c1ccc(-c2c3nc(c(-c4c(F)c(F)c(F)c(F)c4F)c4ccc([nH]4)c(-c4c(F)c(F)c(F)c(F)c4F)c4nc(c(-c5c(F)c(F)c(F)c(F)c5F)c5ccc2[nH]5)C=C4)C=C3)cc1
REMARK SMILES IDX 22 1 21 2 20 3 19 4 17 5 18 6 3 8 4 9 2 10 1 11 5 12 6 14
REMARK SMILES IDX 7 15 8 16 9 17 10 18 16 19 11 20 14 21 12 22 15 23 13 24
REMARK SMILES IDX 23 25 24 26 25 27 26 28 27 29 28 31 29 32 30 33 91 34 31 35
REMARK SMILES IDX 90 36 32 37 33 38 34 39 84 40 35 41 89 42 83 43 85 44 36 45
REMARK SMILES IDX 88 46 82 47 81 48 37 50 69 51 49 52 68 53 50 54 53 55 67 56
REMARK SMILES IDX 86 57 51 58 52 59 66 61 87 62 54 63 38 64 39 65 47 66 40 67
REMARK SMILES IDX 41 68 45 69 48 70 42 71 43 72 46 73 44 74 70 75 71 76 79 77
REMARK SMILES IDX 72 78 73 79 77 80 80 81 74 82 75 83 78 84 76 85 55 86 56 87
REMARK SMILES IDX 64 88 57 89 58 90 62 91 65 92 59 93 60 94 63 95 61 96
REMARK H PARENT 19 7 5 13 26 30 85 49 53 60
REMARK Flexibility Score: inf
ROOT
ATOM      1  C   UNL A   1      33.065  29.645  27.107  1.00  0.00     0.002 C 
ENDROOT
BRANCH   1   2
ATOM      2  C   UNL A   1      32.799  28.138  27.186  1.00  0.00     0.021 C 
BRANCH   2   3
ATOM      3  C   UNL A   1      31.416  27.563  26.802  1.00  0.00     0.116 C 
BRANCH   3   4
ATOM      4  N   UNL A   1      31.260  26.114  26.690  1.00  0.00    -0.354 N 
ATOM      5  C   UNL A   1      31.115  25.167  25.716  1.00  0.00     0.241 C 
ATOM      6  O   UNL A   1      31.092  24.011  26.169  1.00  0.00    -0.273 OA
ATOM      7  H   UNL A   1      31.258  25.696  27.582  1.00  0.00     0.163 HD
BRANCH   5   8
ATOM      8  C   UNL A   1      30.897  25.388  24.200  1.00  0.00     0.108 C 
ATOM      9  C   UNL A   1      30.708  24.050  23.473  1.00  0.00     0.040 C 
BRANCH   8  10
ATOM     10  C   UNL A   1      29.578  26.239  23.955  1.00  0.00     0.030 C 
ATOM     11  C   UNL A   1      29.678  27.662  23.428  1.00  0.00     0.006 C 
ENDBRANCH   8  10
BRANCH   8  12
ATOM     12  N   UNL A   1      31.865  26.231  23.456  1.00  0.00    -0.196 NA
ATOM     13  H   UNL A   1      31.740  27.153  23.876  1.00  0.00     0.142 HD
BRANCH  12  14
ATOM     14  S   UNL A   1      33.491  26.151  23.209  1.00  0.00     0.241 S 
ATOM     15  O   UNL A   1      33.734  26.129  21.793  1.00  0.00    -0.207 OA
ATOM     16  O   UNL A   1      34.000  27.254  24.003  1.00  0.00    -0.207 OA
BRANCH  14  17
ATOM     17  C   UNL A   1      34.186  24.672  23.917  1.00  0.00     0.085 A 
ATOM     18  C   UNL A   1      34.254  23.486  23.179  1.00  0.00     0.025 A 
ATOM     19  C   UNL A   1      34.416  24.601  25.284  1.00  0.00     0.064 A 
ATOM     20  C   UNL A   1      34.554  22.272  23.823  1.00  0.00     0.044 A 
ATOM     21  C   UNL A   1      34.722  23.410  25.925  1.00  0.00     0.160 A 
ATOM     22  C   UNL A   1      34.784  22.242  25.197  1.00  0.00     0.158 A 
ATOM     23  F   UNL A   1      34.881  23.408  27.256  1.00  0.00    -0.204 F 
ATOM     24  F   UNL A   1      35.023  21.077  25.814  1.00  0.00    -0.204 F 
ENDBRANCH  14  17
ENDBRANCH  12  14
ENDBRANCH   8  12
ENDBRANCH   5   8
ENDBRANCH   3   4
ENDBRANCH   2   3
ENDBRANCH   1   2
BRANCH   1  25
ATOM     25  C   UNL A   1      32.146  30.457  26.201  1.00  0.00     0.002 C 
BRANCH  25  26
ATOM     26  C   UNL A   1      31.711  31.800  26.775  1.00  0.00     0.021 C 
BRANCH  26  27
ATOM     27  C   UNL A   1      32.832  32.638  27.379  1.00  0.00     0.116 C 
BRANCH  27  28
ATOM     28  N   UNL A   1      32.439  34.017  27.647  1.00  0.00    -0.352 N 
ATOM     29  C   UNL A   1      32.983  34.870  28.579  1.00  0.00     0.251 C 
ATOM     30  H   UNL A   1      31.704  34.376  27.100  1.00  0.00     0.163 HD
ATOM     31  O   UNL A   1      32.502  35.971  28.816  1.00  0.00    -0.269 OA
BRANCH  29  32
ATOM     32  C   UNL A   1      34.170  34.399  29.316  1.00  0.00     0.039 A 
ATOM     33  C   UNL A   1      33.997  33.628  30.466  1.00  0.00     0.014 A 
ATOM     34  C   UNL A   1      35.438  34.607  28.766  1.00  0.00     0.014 A 
ATOM     35  C   UNL A   1      35.108  33.010  31.037  1.00  0.00     0.010 A 
ATOM     36  C   UNL A   1      36.528  33.926  29.293  1.00  0.00     0.010 A 
ATOM     37  C   UNL A   1      36.374  33.126  30.435  1.00  0.00    -0.014 A 
BRANCH  37  38
ATOM     38  C   UNL A   1      37.550  32.423  31.005  1.00  0.00     0.031 A 
ATOM     39  C   UNL A   1      38.038  32.783  32.379  1.00  0.00     0.074 A 
ATOM     40  C   UNL A   1      38.186  31.485  30.275  1.00  0.00     0.049 A 
ATOM     41  N   UNL A   1      39.035  32.277  33.059  1.00  0.00    -0.248 NA
ATOM     42  C   UNL A   1      37.333  33.874  33.075  1.00  0.00     0.031 C 
ATOM     43  C   UNL A   1      37.838  31.103  28.905  1.00  0.00     0.029 A 
ATOM     44  N   UNL A   1      39.252  30.675  30.583  1.00  0.00    -0.354 N 
ATOM     45  C   UNL A   1      39.074  32.987  34.250  1.00  0.00     0.074 A 
ATOM     46  C   UNL A   1      38.052  34.004  34.180  1.00  0.00     0.031 C 
ATOM     47  C   UNL A   1      38.643  30.104  28.508  1.00  0.00     0.029 A 
ATOM     48  C   UNL A   1      39.582  29.792  29.583  1.00  0.00     0.049 A 
ATOM     49  H   UNL A   1      39.733  30.722  31.440  1.00  0.00     0.167 HD
ATOM     50  C   UNL A   1      39.866  32.777  35.326  1.00  0.00     0.037 A 
ATOM     51  C   UNL A   1      40.526  28.831  29.546  1.00  0.00     0.037 A 
ATOM     52  C   UNL A   1      40.851  31.734  35.403  1.00  0.00     0.049 A 
ATOM     53  C   UNL A   1      41.384  28.608  30.764  1.00  0.00     0.074 A 
ATOM     54  C   UNL A   1      41.670  31.404  36.468  1.00  0.00     0.029 A 
ATOM     55  N   UNL A   1      41.142  30.848  34.377  1.00  0.00    -0.354 N 
ATOM     56  N   UNL A   1      41.360  29.236  31.914  1.00  0.00    -0.248 NA
ATOM     57  C   UNL A   1      42.392  27.541  30.688  1.00  0.00     0.031 C 
ATOM     58  C   UNL A   1      42.486  30.341  36.073  1.00  0.00     0.029 A 
ATOM     59  C   UNL A   1      42.139  29.978  34.780  1.00  0.00     0.049 A 
ATOM     60  H   UNL A   1      40.704  30.839  33.495  1.00  0.00     0.167 HD
ATOM     61  C   UNL A   1      42.321  28.624  32.706  1.00  0.00     0.074 A 
ATOM     62  C   UNL A   1      42.908  27.568  31.910  1.00  0.00     0.031 C 
ATOM     63  C   UNL A   1      42.686  28.915  33.978  1.00  0.00     0.037 A 
BRANCH  50  64
ATOM     64  C   UNL A   1      39.681  33.660  36.524  1.00  0.00     0.064 A 
ATOM     65  C   UNL A   1      38.821  33.281  37.565  1.00  0.00     0.173 A 
ATOM     66  C   UNL A   1      40.284  34.924  36.596  1.00  0.00     0.173 A 
ATOM     67  F   UNL A   1      38.216  32.084  37.541  1.00  0.00    -0.203 F 
ATOM     68  C   UNL A   1      38.555  34.146  38.623  1.00  0.00     0.198 A 
ATOM     69  C   UNL A   1      40.038  35.774  37.669  1.00  0.00     0.198 A 
ATOM     70  F   UNL A   1      41.124  35.328  35.630  1.00  0.00    -0.203 F 
ATOM     71  F   UNL A   1      37.698  33.779  39.587  1.00  0.00    -0.200 F 
ATOM     72  C   UNL A   1      39.164  35.390  38.675  1.00  0.00     0.200 A 
ATOM     73  F   UNL A   1      40.645  36.969  37.729  1.00  0.00    -0.200 F 
ATOM     74  F   UNL A   1      38.908  36.222  39.694  1.00  0.00    -0.200 F 
ENDBRANCH  50  64
BRANCH  51  75
ATOM     75  C   UNL A   1      40.668  27.975  28.337  1.00  0.00     0.064 A 
ATOM     76  C   UNL A   1      40.050  26.719  28.252  1.00  0.00     0.173 A 
ATOM     77  C   UNL A   1      41.447  28.390  27.248  1.00  0.00     0.173 A 
ATOM     78  F   UNL A   1      39.298  26.269  29.268  1.00  0.00    -0.203 F 
ATOM     79  C   UNL A   1      40.218  25.906  27.132  1.00  0.00     0.198 A 
ATOM     80  C   UNL A   1      41.591  27.589  26.116  1.00  0.00     0.198 A 
ATOM     81  F   UNL A   1      42.047  29.590  27.272  1.00  0.00    -0.203 F 
ATOM     82  F   UNL A   1      39.642  24.696  27.091  1.00  0.00    -0.200 F 
ATOM     83  C   UNL A   1      40.983  26.344  26.062  1.00  0.00     0.200 A 
ATOM     84  F   UNL A   1      42.312  28.028  25.075  1.00  0.00    -0.200 F 
ATOM     85  F   UNL A   1      41.131  25.570  24.978  1.00  0.00    -0.200 F 
ENDBRANCH  51  75
BRANCH  63  86
ATOM     86  C   UNL A   1      43.745  28.069  34.619  1.00  0.00     0.064 A 
ATOM     87  C   UNL A   1      43.388  26.927  35.352  1.00  0.00     0.173 A 
ATOM     88  C   UNL A   1      45.089  28.467  34.625  1.00  0.00     0.173 A 
ATOM     89  F   UNL A   1      42.111  26.517  35.385  1.00  0.00    -0.203 F 
ATOM     90  C   UNL A   1      44.335  26.231  36.095  1.00  0.00     0.198 A 
ATOM     91  C   UNL A   1      46.039  27.752  35.349  1.00  0.00     0.198 A 
ATOM     92  F   UNL A   1      45.477  29.548  33.933  1.00  0.00    -0.203 F 
ATOM     93  F   UNL A   1      43.964  25.174  36.831  1.00  0.00    -0.200 F 
ATOM     94  C   UNL A   1      45.659  26.644  36.094  1.00  0.00     0.200 A 
ATOM     95  F   UNL A   1      47.320  28.142  35.335  1.00  0.00    -0.200 F 
ATOM     96  F   UNL A   1      46.570  25.978  36.818  1.00  0.00    -0.200 F 
ENDBRANCH  63  86
ENDBRANCH  37  38
ENDBRANCH  29  32
ENDBRANCH  27  28
ENDBRANCH  26  27
ENDBRANCH  25  26
ENDBRANCH   1  25
TORSDOF 17
ENDMDL
MODEL 2
REMARK VINA RESULT:     -12.0      1.994      3.313
REMARK SMILES CC[C@@](C)(NS(=O)(=O)c1ccc(F)c(F)c1)C(=O)NCCCCCCNC(=O)c1ccc(-c2c3nc(c(-c4c(F)c(F)c(F)c(F)c4F)c4ccc([nH]4)c(-c4c(F)c(F)c(F)c(F)c4F)c4nc(c(-c5c(F)c(F)c(F)c(F)c5F)c5ccc2[nH]5)C=C4)C=C3)cc1
REMARK SMILES IDX 22 1 21 2 20 3 19 4 17 5 18 6 3 8 4 9 2 10 1 11 5 12 6 14
REMARK SMILES IDX 7 15 8 16 9 17 10 18 16 19 11 20 14 21 12 22 15 23 13 24
REMARK SMILES IDX 23 25 24 26 25 27 26 28 27 29 28 31 29 32 30 33 91 34 31 35
REMARK SMILES IDX 90 36 32 37 33 38 34 39 84 40 35 41 89 42 83 43 85 44 36 45
REMARK SMILES IDX 88 46 82 47 81 48 37 50 69 51 49 52 68 53 50 54 53 55 67 56
REMARK SMILES IDX 86 57 51 58 52 59 66 61 87 62 54 63 38 64 39 65 47 66 40 67
REMARK SMILES IDX 41 68 45 69 48 70 42 71 43 72 46 73 44 74 70 75 71 76 79 77
REMARK SMILES IDX 72 78 73 79 77 80 80 81 74 82 75 83 78 84 76 85 55 86 56 87
REMARK SMILES IDX 64 88 57 89 58 90 62 91 65 92 59 93 60 94 63 95 61 96
REMARK H PARENT 19 7 5 13 26 30 85 49 53 60
REMARK Flexibility Score: inf
ROOT
ATOM      1  C   UNL A   1      33.326  30.020  27.221  1.00  0.00     0.002 C 
ENDROOT
BRANCH   1   2
ATOM      2  C   UNL A   1      33.940  28.869  26.415  1.00  0.00     0.021 C 
BRANCH   2   3
ATOM      3  C   UNL A   1      33.335  27.449  26.489  1.00  0.00     0.116 C 
BRANCH   3   4
ATOM      4  N   UNL A   1      33.823  26.424  25.567  1.00  0.00    -0.354 N 
ATOM      5  C   UNL A   1      33.320  25.527  24.667  1.00  0.00     0.241 C 
ATOM      6  O   UNL A   1      34.209  24.905  24.063  1.00  0.00    -0.273 OA
ATOM      7  H   UNL A   1      34.804  26.362  25.607  1.00  0.00     0.163 HD
BRANCH   5   8
ATOM      8  C   UNL A   1      31.838  25.166  24.411  1.00  0.00     0.108 C 
ATOM      9  C   UNL A   1      31.723  23.969  23.457  1.00  0.00     0.040 C 
BRANCH   8  10
ATOM     10  C   UNL A   1      31.133  24.746  25.771  1.00  0.00     0.030 C 
ATOM     11  C   UNL A   1      31.524  23.448  26.460  1.00  0.00     0.006 C 
ENDBRANCH   8  10
BRANCH   8  12
ATOM     12  N   UNL A   1      30.907  26.239  23.984  1.00  0.00    -0.196 NA
ATOM     13  H   UNL A   1      30.566  26.616  24.869  1.00  0.00     0.142 HD
BRANCH  12  14
ATOM     14  S   UNL A   1      31.070  27.583  23.045  1.00  0.00     0.241 S 
ATOM     15  O   UNL A   1      32.332  28.199  23.353  1.00  0.00    -0.207 OA
ATOM     16  O   UNL A   1      30.830  27.080  21.705  1.00  0.00    -0.207 OA
BRANCH  14  17
ATOM     17  C   UNL A   1      29.779  28.766  23.367  1.00  0.00     0.085 A 
ATOM     18  C   UNL A   1      28.465  28.526  22.950  1.00  0.00     0.025 A 
ATOM     19  C   UNL A   1      30.104  30.048  23.786  1.00  0.00     0.064 A 
ATOM     20  C   UNL A   1      27.519  29.567  22.971  1.00  0.00     0.044 A 
ATOM     21  C   UNL A   1      29.174  31.077  23.820  1.00  0.00     0.160 A 
ATOM     22  C   UNL A   1      27.882  30.840  23.405  1.00  0.00     0.158 A 
ATOM     23  F   UNL A   1      29.572  32.304  24.188  1.00  0.00    -0.204 F 
ATOM     24  F   UNL A   1      26.991  31.839  23.378  1.00  0.00    -0.204 F 
ENDBRANCH  14  17
ENDBRANCH  12  14
ENDBRANCH   8  12
ENDBRANCH   5   8
ENDBRANCH   3   4
ENDBRANCH   2   3
ENDBRANCH   1   2
BRANCH   1  25
ATOM     25  C   UNL A   1      31.900  30.424  26.862  1.00  0.00     0.002 C 
BRANCH  25  26
ATOM     26  C   UNL A   1      31.662  31.929  26.805  1.00  0.00     0.021 C 
BRANCH  26  27
ATOM     27  C   UNL A   1      32.781  32.784  27.388  1.00  0.00     0.116 C 
BRANCH  27  28
ATOM     28  N   UNL A   1      32.378  34.160  27.649  1.00  0.00    -0.352 N 
ATOM     29  C   UNL A   1      32.912  35.021  28.580  1.00  0.00     0.251 C 
ATOM     30  H   UNL A   1      31.642  34.512  27.099  1.00  0.00     0.163 HD
ATOM     31  O   UNL A   1      32.422  36.119  28.812  1.00  0.00    -0.269 OA
BRANCH  29  32
ATOM     32  C   UNL A   1      34.100  34.561  29.322  1.00  0.00     0.039 A 
ATOM     33  C   UNL A   1      33.929  33.862  30.517  1.00  0.00     0.014 A 
ATOM     34  C   UNL A   1      35.363  34.705  28.740  1.00  0.00     0.014 A 
ATOM     35  C   UNL A   1      35.034  33.248  31.104  1.00  0.00     0.010 A 
ATOM     36  C   UNL A   1      36.445  34.026  29.286  1.00  0.00     0.010 A 
ATOM     37  C   UNL A   1      36.292  33.296  30.475  1.00  0.00    -0.014 A 
BRANCH  37  38
ATOM     38  C   UNL A   1      37.459  32.596  31.064  1.00  0.00     0.031 A 
ATOM     39  C   UNL A   1      37.950  32.986  32.428  1.00  0.00     0.074 A 
ATOM     40  C   UNL A   1      38.087  31.633  30.359  1.00  0.00     0.049 A 
ATOM     41  N   UNL A   1      38.942  32.488  33.122  1.00  0.00    -0.248 NA
ATOM     42  C   UNL A   1      37.256  34.101  33.095  1.00  0.00     0.031 C 
ATOM     43  C   UNL A   1      37.736  31.220  28.998  1.00  0.00     0.029 A 
ATOM     44  N   UNL A   1      39.144  30.821  30.689  1.00  0.00    -0.354 N 
ATOM     45  C   UNL A   1      38.987  33.227  34.295  1.00  0.00     0.074 A 
ATOM     46  C   UNL A   1      37.975  34.252  34.198  1.00  0.00     0.031 C 
ATOM     47  C   UNL A   1      38.531  30.203  28.628  1.00  0.00     0.029 A 
ATOM     48  C   UNL A   1      39.466  29.909  29.711  1.00  0.00     0.049 A 
ATOM     49  H   UNL A   1      39.625  30.885  31.545  1.00  0.00     0.167 HD
ATOM     50  C   UNL A   1      39.776  33.037  35.376  1.00  0.00     0.037 A 
ATOM     51  C   UNL A   1      40.400  28.937  29.700  1.00  0.00     0.037 A 
ATOM     52  C   UNL A   1      40.750  31.986  35.482  1.00  0.00     0.049 A 
ATOM     53  C   UNL A   1      41.254  28.737  30.925  1.00  0.00     0.074 A 
ATOM     54  C   UNL A   1      41.564  31.675  36.555  1.00  0.00     0.029 A 
ATOM     55  N   UNL A   1      41.032  31.071  34.479  1.00  0.00    -0.354 N 
ATOM     56  N   UNL A   1      41.236  29.395  32.058  1.00  0.00    -0.248 NA
ATOM     57  C   UNL A   1      42.251  27.658  30.877  1.00  0.00     0.031 C 
ATOM     58  C   UNL A   1      42.369  30.594  36.189  1.00  0.00     0.029 A 
ATOM     59  C   UNL A   1      42.020  30.201  34.905  1.00  0.00     0.049 A 
ATOM     60  H   UNL A   1      40.596  31.044  33.597  1.00  0.00     0.167 HD
ATOM     61  C   UNL A   1      42.190  28.793  32.866  1.00  0.00     0.074 A 
ATOM     62  C   UNL A   1      42.767  27.711  32.099  1.00  0.00     0.031 C 
ATOM     63  C   UNL A   1      42.557  29.113  34.132  1.00  0.00     0.037 A 
BRANCH  50  64
ATOM     64  C   UNL A   1      39.598  33.952  36.551  1.00  0.00     0.064 A 
ATOM     65  C   UNL A   1      40.291  35.169  36.621  1.00  0.00     0.173 A 
ATOM     66  C   UNL A   1      38.812  33.578  37.651  1.00  0.00     0.173 A 
ATOM     67  F   UNL A   1      41.060  35.570  35.597  1.00  0.00    -0.203 F 
ATOM     68  C   UNL A   1      40.220  35.967  37.759  1.00  0.00     0.198 A 
ATOM     69  C   UNL A   1      38.721  34.393  38.776  1.00  0.00     0.198 A 
ATOM     70  F   UNL A   1      38.120  32.428  37.628  1.00  0.00    -0.203 F 
ATOM     71  F   UNL A   1      40.923  37.108  37.821  1.00  0.00    -0.200 F 
ATOM     72  C   UNL A   1      39.436  35.579  38.834  1.00  0.00     0.200 A 
ATOM     73  F   UNL A   1      37.944  34.026  39.805  1.00  0.00    -0.200 F 
ATOM     74  F   UNL A   1      39.368  36.349  39.930  1.00  0.00    -0.200 F 
ENDBRANCH  50  64
BRANCH  51  75
ATOM     75  C   UNL A   1      40.534  28.049  28.514  1.00  0.00     0.064 A 
ATOM     76  C   UNL A   1      39.904  26.797  28.461  1.00  0.00     0.173 A 
ATOM     77  C   UNL A   1      41.317  28.429  27.415  1.00  0.00     0.173 A 
ATOM     78  F   UNL A   1      39.149  26.380  29.488  1.00  0.00    -0.203 F 
ATOM     79  C   UNL A   1      40.065  25.955  27.362  1.00  0.00     0.198 A 
ATOM     80  C   UNL A   1      41.453  27.598  26.304  1.00  0.00     0.198 A 
ATOM     81  F   UNL A   1      41.927  29.624  27.408  1.00  0.00    -0.203 F 
ATOM     82  F   UNL A   1      39.478  24.749  27.353  1.00  0.00    -0.200 F 
ATOM     83  C   UNL A   1      40.834  26.358  26.281  1.00  0.00     0.200 A 
ATOM     84  F   UNL A   1      42.179  28.003  25.252  1.00  0.00    -0.200 F 
ATOM     85  F   UNL A   1      40.975  25.554  25.218  1.00  0.00    -0.200 F 
ENDBRANCH  51  75
BRANCH  63  86
ATOM     86  C   UNL A   1      43.607  28.273  34.795  1.00  0.00     0.064 A 
ATOM     87  C   UNL A   1      43.234  27.204  35.624  1.00  0.00     0.173 A 
ATOM     88  C   UNL A   1      44.964  28.614  34.723  1.00  0.00     0.173 A 
ATOM     89  F   UNL A   1      41.944  26.850  35.733  1.00  0.00    -0.203 F 
ATOM     90  C   UNL A   1      44.183  26.524  36.381  1.00  0.00     0.198 A 
ATOM     91  C   UNL A   1      45.913  27.915  35.463  1.00  0.00     0.198 A 
ATOM     92  F   UNL A   1      45.366  29.624  33.938  1.00  0.00    -0.203 F 
ATOM     93  F   UNL A   1      43.800  25.541  37.207  1.00  0.00    -0.200 F 
ATOM     94  C   UNL A   1      45.520  26.881  36.301  1.00  0.00     0.200 A 
ATOM     95  F   UNL A   1      47.207  28.249  35.373  1.00  0.00    -0.200 F 
ATOM     96  F   UNL A   1      46.432  26.233  37.040  1.00  0.00    -0.200 F 
ENDBRANCH  63  86
ENDBRANCH  37  38
ENDBRANCH  29  32
ENDBRANCH  27  28
ENDBRANCH  26  27
ENDBRANCH  25  26
ENDBRANCH   1  25
TORSDOF 17
ENDMDL
MODEL 3
REMARK VINA RESULT:     -11.9      2.188      3.639
REMARK SMILES CC[C@@](C)(NS(=O)(=O)c1ccc(F)c(F)c1)C(=O)NCCCCCCNC(=O)c1ccc(-c2c3nc(c(-c4c(F)c(F)c(F)c(F)c4F)c4ccc([nH]4)c(-c4c(F)c(F)c(F)c(F)c4F)c4nc(c(-c5c(F)c(F)c(F)c(F)c5F)c5ccc2[nH]5)C=C4)C=C3)cc1
REMARK SMILES IDX 22 1 21 2 20 3 19 4 17 5 18 6 3 8 4 9 2 10 1 11 5 12 6 14
REMARK SMILES IDX 7 15 8 16 9 17 10 18 16 19 11 20 14 21 12 22 15 23 13 24
REMARK SMILES IDX 23 25 24 26 25 27 26 28 27 29 28 31 29 32 30 33 91 34 31 35
REMARK SMILES IDX 90 36 32 37 33 38 34 39 84 40 35 41 89 42 83 43 85 44 36 45
REMARK SMILES IDX 88 46 82 47 81 48 37 50 69 51 49 52 68 53 50 54 53 55 67 56
REMARK SMILES IDX 86 57 51 58 52 59 66 61 87 62 54 63 38 64 39 65 47 66 40 67
REMARK SMILES IDX 41 68 45 69 48 70 42 71 43 72 46 73 44 74 70 75 71 76 79 77
REMARK SMILES IDX 72 78 73 79 77 80 80 81 74 82 75 83 78 84 76 85 55 86 56 87
REMARK SMILES IDX 64 88 57 89 58 90 62 91 65 92 59 93 60 94 63 95 61 96
REMARK H PARENT 19 7 5 13 26 30 85 49 53 60
REMARK Flexibility Score: inf
ROOT
ATOM      1  C   UNL A   1      31.386  26.059  26.230  1.00  0.00     0.002 C 
ENDROOT
BRANCH   1   2
ATOM      2  C   UNL A   1      31.929  24.651  26.500  1.00  0.00     0.021 C 
BRANCH   2   3
ATOM      3  C   UNL A   1      30.962  23.477  26.778  1.00  0.00     0.116 C 
BRANCH   3   4
ATOM      4  N   UNL A   1      31.145  22.223  26.049  1.00  0.00    -0.354 N 
ATOM      5  C   UNL A   1      32.167  21.431  25.606  1.00  0.00     0.241 C 
ATOM      6  O   UNL A   1      31.765  20.384  25.073  1.00  0.00    -0.273 OA
ATOM      7  H   UNL A   1      30.274  21.835  25.804  1.00  0.00     0.163 HD
BRANCH   5   8
ATOM      8  C   UNL A   1      33.683  21.738  25.621  1.00  0.00     0.108 C 
ATOM      9  C   UNL A   1      34.214  21.805  27.060  1.00  0.00     0.040 C 
BRANCH   8  10
ATOM     10  C   UNL A   1      34.483  20.581  24.884  1.00  0.00     0.030 C 
ATOM     11  C   UNL A   1      35.997  20.510  25.002  1.00  0.00     0.006 C 
ENDBRANCH   8  10
BRANCH   8  12
ATOM     12  N   UNL A   1      34.182  22.902  24.848  1.00  0.00    -0.196 NA
ATOM     13  H   UNL A   1      35.196  22.822  24.939  1.00  0.00     0.142 HD
BRANCH  12  14
ATOM     14  S   UNL A   1      33.986  23.405  23.291  1.00  0.00     0.241 S 
ATOM     15  O   UNL A   1      35.281  23.490  22.676  1.00  0.00    -0.207 OA
ATOM     16  O   UNL A   1      33.005  22.473  22.765  1.00  0.00    -0.207 OA
BRANCH  14  17
ATOM     17  C   UNL A   1      33.226  25.014  23.217  1.00  0.00     0.085 A 
ATOM     18  C   UNL A   1      31.941  25.177  22.690  1.00  0.00     0.025 A 
ATOM     19  C   UNL A   1      33.994  26.151  23.423  1.00  0.00     0.064 A 
ATOM     20  C   UNL A   1      31.461  26.466  22.393  1.00  0.00     0.044 A 
ATOM     21  C   UNL A   1      33.524  27.426  23.142  1.00  0.00     0.160 A 
ATOM     22  C   UNL A   1      32.259  27.585  22.620  1.00  0.00     0.158 A 
ATOM     23  F   UNL A   1      34.339  28.475  23.319  1.00  0.00    -0.204 F 
ATOM     24  F   UNL A   1      31.816  28.805  22.291  1.00  0.00    -0.204 F 
ENDBRANCH  14  17
ENDBRANCH  12  14
ENDBRANCH   8  12
ENDBRANCH   5   8
ENDBRANCH   3   4
ENDBRANCH   2   3
ENDBRANCH   1   2
BRANCH   1  25
ATOM     25  C   UNL A   1      32.208  27.225  26.766  1.00  0.00     0.002 C 
BRANCH  25  26
ATOM     26  C   UNL A   1      31.771  28.596  26.263  1.00  0.00     0.021 C 
BRANCH  26  27
ATOM     27  C   UNL A   1      32.901  29.597  26.050  1.00  0.00     0.116 C 
BRANCH  27  28
ATOM     28  N   UNL A   1      32.539  30.961  26.420  1.00  0.00    -0.352 N 
ATOM     29  C   UNL A   1      33.240  31.813  27.243  1.00  0.00     0.251 C 
ATOM     30  H   UNL A   1      31.701  31.309  26.040  1.00  0.00     0.163 HD
ATOM     31  O   UNL A   1      32.791  32.896  27.595  1.00  0.00    -0.269 OA
BRANCH  29  32
ATOM     32  C   UNL A   1      34.560  31.361  27.717  1.00  0.00     0.039 A 
ATOM     33  C   UNL A   1      35.581  32.297  27.885  1.00  0.00     0.014 A 
ATOM     34  C   UNL A   1      34.718  30.034  28.128  1.00  0.00     0.014 A 
ATOM     35  C   UNL A   1      36.755  31.907  28.530  1.00  0.00     0.010 A 
ATOM     36  C   UNL A   1      35.855  29.672  28.838  1.00  0.00     0.010 A 
ATOM     37  C   UNL A   1      36.885  30.603  29.041  1.00  0.00    -0.014 A 
BRANCH  37  38
ATOM     38  C   UNL A   1      38.107  30.199  29.779  1.00  0.00     0.031 A 
ATOM     39  C   UNL A   1      38.326  30.690  31.181  1.00  0.00     0.074 A 
ATOM     40  C   UNL A   1      39.024  29.416  29.175  1.00  0.00     0.049 A 
ATOM     41  N   UNL A   1      39.318  30.439  31.997  1.00  0.00    -0.248 NA
ATOM     42  C   UNL A   1      37.313  31.605  31.736  1.00  0.00     0.031 C 
ATOM     43  C   UNL A   1      38.946  28.937  27.794  1.00  0.00     0.029 A 
ATOM     44  N   UNL A   1      40.197  28.878  29.646  1.00  0.00    -0.354 N 
ATOM     45  C   UNL A   1      39.047  31.163  33.150  1.00  0.00     0.074 A 
ATOM     46  C   UNL A   1      37.840  31.918  32.910  1.00  0.00     0.031 C 
ATOM     47  C   UNL A   1      39.997  28.141  27.543  1.00  0.00     0.029 A 
ATOM     48  C   UNL A   1      40.840  28.073  28.734  1.00  0.00     0.049 A 
ATOM     49  H   UNL A   1      40.544  29.052  30.550  1.00  0.00     0.167 HD
ATOM     50  C   UNL A   1      39.725  31.162  34.319  1.00  0.00     0.037 A 
ATOM     51  C   UNL A   1      41.972  27.352  28.856  1.00  0.00     0.037 A 
ATOM     52  C   UNL A   1      40.900  30.374  34.563  1.00  0.00     0.049 A 
ATOM     53  C   UNL A   1      42.698  27.356  30.176  1.00  0.00     0.074 A 
ATOM     54  C   UNL A   1      41.632  30.260  35.731  1.00  0.00     0.029 A 
ATOM     55  N   UNL A   1      41.508  29.556  33.622  1.00  0.00    -0.354 N 
ATOM     56  N   UNL A   1      42.389  27.986  31.283  1.00  0.00    -0.248 NA
ATOM     57  C   UNL A   1      43.921  26.546  30.271  1.00  0.00     0.031 C 
ATOM     58  C   UNL A   1      42.708  29.404  35.487  1.00  0.00     0.029 A 
ATOM     59  C   UNL A   1      42.617  28.945  34.181  1.00  0.00     0.049 A 
ATOM     60  H   UNL A   1      41.198  29.429  32.696  1.00  0.00     0.167 HD
ATOM     61  C   UNL A   1      43.357  27.626  32.211  1.00  0.00     0.074 A 
ATOM     62  C   UNL A   1      44.260  26.715  31.542  1.00  0.00     0.031 C 
ATOM     63  C   UNL A   1      43.484  28.019  33.502  1.00  0.00     0.037 A 
BRANCH  50  64
ATOM     64  C   UNL A   1      39.197  32.003  35.443  1.00  0.00     0.064 A 
ATOM     65  C   UNL A   1      39.576  33.347  35.570  1.00  0.00     0.173 A 
ATOM     66  C   UNL A   1      38.387  31.451  36.447  1.00  0.00     0.173 A 
ATOM     67  F   UNL A   1      40.353  33.921  34.639  1.00  0.00    -0.203 F 
ATOM     68  C   UNL A   1      39.184  34.100  36.673  1.00  0.00     0.198 A 
ATOM     69  C   UNL A   1      37.973  32.215  37.534  1.00  0.00     0.198 A 
ATOM     70  F   UNL A   1      37.987  30.172  36.365  1.00  0.00    -0.203 F 
ATOM     71  F   UNL A   1      39.592  35.371  36.794  1.00  0.00    -0.200 F 
ATOM     72  C   UNL A   1      38.382  33.534  37.652  1.00  0.00     0.200 A 
ATOM     73  F   UNL A   1      37.180  31.672  38.468  1.00  0.00    -0.200 F 
ATOM     74  F   UNL A   1      38.004  34.261  38.714  1.00  0.00    -0.200 F 
ENDBRANCH  50  64
BRANCH  51  75
ATOM     75  C   UNL A   1      42.452  26.527  27.715  1.00  0.00     0.064 A 
ATOM     76  C   UNL A   1      43.403  27.014  26.807  1.00  0.00     0.173 A 
ATOM     77  C   UNL A   1      41.949  25.236  27.498  1.00  0.00     0.173 A 
ATOM     78  F   UNL A   1      43.913  28.245  26.963  1.00  0.00    -0.203 F 
ATOM     79  C   UNL A   1      43.821  26.249  25.719  1.00  0.00     0.198 A 
ATOM     80  C   UNL A   1      42.388  24.461  26.426  1.00  0.00     0.198 A 
ATOM     81  F   UNL A   1      41.050  24.716  28.347  1.00  0.00    -0.203 F 
ATOM     82  F   UNL A   1      44.707  26.753  24.848  1.00  0.00    -0.200 F 
ATOM     83  C   UNL A   1      43.318  24.971  25.533  1.00  0.00     0.200 A 
ATOM     84  F   UNL A   1      41.917  23.217  26.264  1.00  0.00    -0.200 F 
ATOM     85  F   UNL A   1      43.731  24.229  24.495  1.00  0.00    -0.200 F 
ENDBRANCH  51  75
BRANCH  63  86
ATOM     86  C   UNL A   1      44.617  27.450  34.303  1.00  0.00     0.064 A 
ATOM     87  C   UNL A   1      44.439  26.264  35.032  1.00  0.00     0.173 A 
ATOM     88  C   UNL A   1      45.820  28.151  34.461  1.00  0.00     0.173 A 
ATOM     89  F   UNL A   1      43.298  25.567  34.922  1.00  0.00    -0.203 F 
ATOM     90  C   UNL A   1      45.417  25.816  35.914  1.00  0.00     0.198 A 
ATOM     91  C   UNL A   1      46.806  27.685  35.325  1.00  0.00     0.198 A 
ATOM     92  F   UNL A   1      46.036  29.286  33.779  1.00  0.00    -0.203 F 
ATOM     93  F   UNL A   1      45.206  24.710  36.640  1.00  0.00    -0.200 F 
ATOM     94  C   UNL A   1      46.598  26.527  36.061  1.00  0.00     0.200 A 
ATOM     95  F   UNL A   1      47.954  28.363  35.455  1.00  0.00    -0.200 F 
ATOM     96  F   UNL A   1      47.536  26.100  36.919  1.00  0.00    -0.200 F 
ENDBRANCH  63  86
ENDBRANCH  37  38
ENDBRANCH  29  32
ENDBRANCH  27  28
ENDBRANCH  26  27
ENDBRANCH  25  26
ENDBRANCH   1  25
TORSDOF 17
ENDMDL
