MODEL 1
REMARK VINA RESULT:     -11.4      0.000      0.000
REMARK SMILES COc1cc(C(C)C)cc([C@H]([NH3+])C(=O)NCCCCCCNC(=O)c2ccc(-c3c4nc(c(-c5c(F)c(F)c(F)c(F)c5F)c5ccc([nH]5)c(-c5c(F)c(F)c(F)c(F)c5F)c5nc(c(-c6c(F)c(F)c(F)c(F)c6F)c6ccc3[nH]6)C=C5)C=C4)cc2)c1O
REMARK SMILES IDX 18 1 17 2 16 3 15 4 13 5 14 6 11 8 10 9 3 10 4 11 88 12 5 13
REMARK SMILES IDX 9 14 2 15 1 16 89 17 6 19 7 20 8 21 12 22 19 26 20 27 21 28
REMARK SMILES IDX 22 29 23 30 24 32 25 33 26 34 87 35 27 36 86 37 28 38 29 39
REMARK SMILES IDX 30 40 80 41 31 42 85 43 79 44 81 45 32 46 84 47 78 48 77 49
REMARK SMILES IDX 33 51 65 52 45 53 64 54 46 55 49 56 63 57 82 58 47 59 48 60
REMARK SMILES IDX 62 62 83 63 50 64 34 65 35 66 43 67 36 68 37 69 41 70 44 71
REMARK SMILES IDX 38 72 39 73 42 74 40 75 66 76 67 77 75 78 68 79 69 80 73 81
REMARK SMILES IDX 76 82 70 83 71 84 74 85 72 86 51 87 52 88 60 89 53 90 54 91
REMARK SMILES IDX 58 92 61 93 55 94 56 95 59 96 57 97
REMARK H PARENT 15 7 89 18 12 23 12 24 12 25 22 31 81 50 49 61
REMARK Flexibility Score: inf
ROOT
ATOM      1  C   UNL A   1      36.964  22.152  24.272  1.00  0.00     0.002 C 
ENDROOT
BRANCH   1   2
ATOM      2  C   UNL A   1      35.744  22.867  23.686  1.00  0.00     0.021 C 
BRANCH   2   3
ATOM      3  C   UNL A   1      35.316  24.103  24.468  1.00  0.00     0.116 C 
BRANCH   3   4
ATOM      4  N   UNL A   1      34.050  23.891  25.150  1.00  0.00    -0.351 N 
ATOM      5  C   UNL A   1      32.789  24.231  24.733  1.00  0.00     0.283 C 
ATOM      6  O   UNL A   1      31.837  23.903  25.446  1.00  0.00    -0.268 OA
ATOM      7  H   UNL A   1      34.106  23.445  26.026  1.00  0.00     0.163 HD
BRANCH   5   8
ATOM      8  C   UNL A   1      32.580  25.010  23.405  1.00  0.00     0.306 C 
BRANCH   8   9
ATOM      9  C   UNL A   1      32.019  26.418  23.591  1.00  0.00     0.065 A 
ATOM     10  C   UNL A   1      30.741  28.339  22.792  1.00  0.00     0.161 A 
ATOM     11  C   UNL A   1      30.886  28.980  24.025  1.00  0.00     0.054 A 
ATOM     12  C   UNL A   1      31.352  27.096  22.564  1.00  0.00     0.167 A 
ATOM     13  C   UNL A   1      31.644  28.387  25.041  1.00  0.00    -0.041 A 
ATOM     14  C   UNL A   1      32.206  27.121  24.800  1.00  0.00     0.018 A 
BRANCH  10  15
ATOM     15  O   UNL A   1      30.102  29.029  21.794  1.00  0.00    -0.493 OA
ATOM     16  C   UNL A   1      29.494  30.247  22.232  1.00  0.00     0.278 C 
ENDBRANCH  10  15
BRANCH  12  17
ATOM     17  O   UNL A   1      31.365  26.568  21.297  1.00  0.00    -0.504 OA
ATOM     18  H   UNL A   1      30.778  25.873  21.073  1.00  0.00     0.293 HD
ENDBRANCH  12  17
BRANCH  13  19
ATOM     19  C   UNL A   1      31.906  29.059  26.378  1.00  0.00     0.013 C 
ATOM     20  C   UNL A   1      31.531  28.150  27.550  1.00  0.00     0.012 C 
ATOM     21  C   UNL A   1      33.346  29.559  26.502  1.00  0.00     0.012 C 
ENDBRANCH  13  19
ENDBRANCH   8   9
BRANCH   8  22
ATOM     22  N   UNL A   1      31.752  24.156  22.516  1.00  0.00    -0.343 N 
ATOM     23  H   UNL A   1      32.112  24.207  21.563  1.00  0.00     0.345 HD
ATOM     24  H   UNL A   1      30.787  24.482  22.533  1.00  0.00     0.345 HD
ATOM     25  H   UNL A   1      31.790  23.189  22.842  1.00  0.00     0.345 HD
ENDBRANCH   8  22
ENDBRANCH   5   8
ENDBRANCH   3   4
ENDBRANCH   2   3
ENDBRANCH   1   2
BRANCH   1  26
ATOM     26  C   UNL A   1      36.665  20.818  24.963  1.00  0.00     0.002 C 
BRANCH  26  27
ATOM     27  C   UNL A   1      37.824  19.819  24.978  1.00  0.00     0.021 C 
BRANCH  27  28
ATOM     28  C   UNL A   1      39.044  20.268  25.775  1.00  0.00     0.116 C 
BRANCH  28  29
ATOM     29  N   UNL A   1      40.070  19.241  25.838  1.00  0.00    -0.352 N 
ATOM     30  C   UNL A   1      41.416  19.363  26.080  1.00  0.00     0.251 C 
ATOM     31  H   UNL A   1      39.754  18.321  25.686  1.00  0.00     0.163 HD
ATOM     32  O   UNL A   1      42.162  18.404  25.926  1.00  0.00    -0.269 OA
BRANCH  30  33
ATOM     33  C   UNL A   1      41.971  20.666  26.504  1.00  0.00     0.039 A 
ATOM     34  C   UNL A   1      42.396  21.565  25.523  1.00  0.00     0.014 A 
ATOM     35  C   UNL A   1      42.079  20.999  27.857  1.00  0.00     0.014 A 
ATOM     36  C   UNL A   1      42.874  22.821  25.896  1.00  0.00     0.010 A 
ATOM     37  C   UNL A   1      42.488  22.278  28.225  1.00  0.00     0.010 A 
ATOM     38  C   UNL A   1      42.891  23.202  27.248  1.00  0.00    -0.014 A 
BRANCH  38  39
ATOM     39  C   UNL A   1      43.314  24.567  27.653  1.00  0.00     0.031 A 
ATOM     40  C   UNL A   1      42.289  25.614  27.984  1.00  0.00     0.074 A 
ATOM     41  C   UNL A   1      44.624  24.875  27.666  1.00  0.00     0.049 A 
ATOM     42  N   UNL A   1      42.465  26.869  28.314  1.00  0.00    -0.248 NA
ATOM     43  C   UNL A   1      40.878  25.206  27.912  1.00  0.00     0.031 C 
ATOM     44  C   UNL A   1      45.711  23.960  27.316  1.00  0.00     0.029 A 
ATOM     45  N   UNL A   1      45.267  26.048  27.979  1.00  0.00    -0.354 N 
ATOM     46  C   UNL A   1      41.192  27.400  28.479  1.00  0.00     0.074 A 
ATOM     47  C   UNL A   1      40.251  26.347  28.160  1.00  0.00     0.031 C 
ATOM     48  C   UNL A   1      46.885  24.595  27.457  1.00  0.00     0.029 A 
ATOM     49  C   UNL A   1      46.633  25.973  27.870  1.00  0.00     0.049 A 
ATOM     50  H   UNL A   1      44.792  26.864  28.257  1.00  0.00     0.167 HD
ATOM     51  C   UNL A   1      40.841  28.644  28.883  1.00  0.00     0.037 A 
ATOM     52  C   UNL A   1      47.577  26.911  28.074  1.00  0.00     0.037 A 
ATOM     53  C   UNL A   1      41.781  29.681  29.217  1.00  0.00     0.049 A 
ATOM     54  C   UNL A   1      47.160  28.288  28.512  1.00  0.00     0.074 A 
ATOM     55  C   UNL A   1      41.527  30.956  29.694  1.00  0.00     0.029 A 
ATOM     56  N   UNL A   1      43.159  29.566  29.105  1.00  0.00    -0.354 N 
ATOM     57  N   UNL A   1      45.956  28.756  28.737  1.00  0.00    -0.248 NA
ATOM     58  C   UNL A   1      48.234  29.266  28.732  1.00  0.00     0.031 C 
ATOM     59  C   UNL A   1      42.747  31.628  29.821  1.00  0.00     0.029 A 
ATOM     60  C   UNL A   1      43.766  30.755  29.477  1.00  0.00     0.049 A 
ATOM     61  H   UNL A   1      43.636  28.758  28.804  1.00  0.00     0.167 HD
ATOM     62  C   UNL A   1      46.127  30.070  29.150  1.00  0.00     0.074 A 
ATOM     63  C   UNL A   1      47.554  30.320  29.161  1.00  0.00     0.031 C 
ATOM     64  C   UNL A   1      45.189  30.988  29.487  1.00  0.00     0.037 A 
BRANCH  51  65
ATOM     65  C   UNL A   1      39.375  28.952  28.989  1.00  0.00     0.064 A 
ATOM     66  C   UNL A   1      38.692  28.872  30.213  1.00  0.00     0.173 A 
ATOM     67  C   UNL A   1      38.652  29.371  27.862  1.00  0.00     0.173 A 
ATOM     68  F   UNL A   1      39.334  28.467  31.319  1.00  0.00    -0.203 F 
ATOM     69  C   UNL A   1      37.336  29.173  30.298  1.00  0.00     0.198 A 
ATOM     70  C   UNL A   1      37.303  29.702  27.957  1.00  0.00     0.198 A 
ATOM     71  F   UNL A   1      39.256  29.472  26.668  1.00  0.00    -0.203 F 
ATOM     72  F   UNL A   1      36.695  29.041  31.468  1.00  0.00    -0.200 F 
ATOM     73  C   UNL A   1      36.644  29.594  29.173  1.00  0.00     0.200 A 
ATOM     74  F   UNL A   1      36.639  30.123  26.872  1.00  0.00    -0.200 F 
ATOM     75  F   UNL A   1      35.340  29.891  29.258  1.00  0.00    -0.200 F 
ENDBRANCH  51  65
BRANCH  52  76
ATOM     76  C   UNL A   1      49.012  26.573  27.888  1.00  0.00     0.064 A 
ATOM     77  C   UNL A   1      49.581  26.526  26.607  1.00  0.00     0.173 A 
ATOM     78  C   UNL A   1      49.843  26.285  28.980  1.00  0.00     0.173 A 
ATOM     79  F   UNL A   1      48.823  26.774  25.529  1.00  0.00    -0.203 F 
ATOM     80  C   UNL A   1      50.919  26.184  26.426  1.00  0.00     0.198 A 
ATOM     81  C   UNL A   1      51.188  25.972  28.800  1.00  0.00     0.198 A 
ATOM     82  F   UNL A   1      49.350  26.321  30.228  1.00  0.00    -0.203 F 
ATOM     83  F   UNL A   1      51.425  26.100  25.187  1.00  0.00    -0.200 F 
ATOM     84  C   UNL A   1      51.724  25.913  27.522  1.00  0.00     0.200 A 
ATOM     85  F   UNL A   1      51.966  25.726  29.863  1.00  0.00    -0.200 F 
ATOM     86  F   UNL A   1      53.011  25.587  27.348  1.00  0.00    -0.200 F 
ENDBRANCH  52  76
BRANCH  64  87
ATOM     87  C   UNL A   1      45.675  32.338  29.929  1.00  0.00     0.064 A 
ATOM     88  C   UNL A   1      45.997  32.602  31.269  1.00  0.00     0.173 A 
ATOM     89  C   UNL A   1      45.853  33.370  28.995  1.00  0.00     0.173 A 
ATOM     90  F   UNL A   1      45.830  31.655  32.203  1.00  0.00    -0.203 F 
ATOM     91  C   UNL A   1      46.452  33.859  31.660  1.00  0.00     0.198 A 
ATOM     92  C   UNL A   1      46.338  34.615  29.385  1.00  0.00     0.198 A 
ATOM     93  F   UNL A   1      45.566  33.166  27.700  1.00  0.00    -0.203 F 
ATOM     94  F   UNL A   1      46.704  34.105  32.954  1.00  0.00    -0.200 F 
ATOM     95  C   UNL A   1      46.630  34.861  30.718  1.00  0.00     0.200 A 
ATOM     96  F   UNL A   1      46.523  35.577  28.470  1.00  0.00    -0.200 F 
ATOM     97  F   UNL A   1      47.073  36.067  31.096  1.00  0.00    -0.200 F 
ENDBRANCH  64  87
ENDBRANCH  38  39
ENDBRANCH  30  33
ENDBRANCH  28  29
ENDBRANCH  27  28
ENDBRANCH  26  27
ENDBRANCH   1  26
TORSDOF 18
ENDMDL
MODEL 2
REMARK VINA RESULT:     -11.4      5.328     10.714
REMARK SMILES COc1cc(C(C)C)cc([C@H]([NH3+])C(=O)NCCCCCCNC(=O)c2ccc(-c3c4nc(c(-c5c(F)c(F)c(F)c(F)c5F)c5ccc([nH]5)c(-c5c(F)c(F)c(F)c(F)c5F)c5nc(c(-c6c(F)c(F)c(F)c(F)c6F)c6ccc3[nH]6)C=C5)C=C4)cc2)c1O
REMARK SMILES IDX 18 1 17 2 16 3 15 4 13 5 14 6 11 8 10 9 3 10 4 11 88 12 5 13
REMARK SMILES IDX 9 14 2 15 1 16 89 17 6 19 7 20 8 21 12 22 19 26 20 27 21 28
REMARK SMILES IDX 22 29 23 30 24 32 25 33 26 34 87 35 27 36 86 37 28 38 29 39
REMARK SMILES IDX 30 40 80 41 31 42 85 43 79 44 81 45 32 46 84 47 78 48 77 49
REMARK SMILES IDX 33 51 65 52 45 53 64 54 46 55 49 56 63 57 82 58 47 59 48 60
REMARK SMILES IDX 62 62 83 63 50 64 34 65 35 66 43 67 36 68 37 69 41 70 44 71
REMARK SMILES IDX 38 72 39 73 42 74 40 75 66 76 67 77 75 78 68 79 69 80 73 81
REMARK SMILES IDX 76 82 70 83 71 84 74 85 72 86 51 87 52 88 60 89 53 90 54 91
REMARK SMILES IDX 58 92 61 93 55 94 56 95 59 96 57 97
REMARK H PARENT 15 7 89 18 12 23 12 24 12 25 22 31 81 50 49 61
REMARK Flexibility Score: inf
ROOT
ATOM      1  C   UNL A   1      32.597  29.889  27.084  1.00  0.00     0.002 C 
ENDROOT
BRANCH   1   2
ATOM      2  C   UNL A   1      32.708  28.414  26.687  1.00  0.00     0.021 C 
BRANCH   2   3
ATOM      3  C   UNL A   1      31.412  27.629  26.857  1.00  0.00     0.116 C 
BRANCH   3   4
ATOM      4  N   UNL A   1      30.975  27.042  25.601  1.00  0.00    -0.351 N 
ATOM      5  C   UNL A   1      30.800  25.717  25.294  1.00  0.00     0.283 C 
ATOM      6  O   UNL A   1      30.361  25.437  24.176  1.00  0.00    -0.268 OA
ATOM      7  H   UNL A   1      30.779  27.679  24.877  1.00  0.00     0.163 HD
BRANCH   5   8
ATOM      8  C   UNL A   1      31.154  24.613  26.329  1.00  0.00     0.306 C 
BRANCH   8   9
ATOM      9  C   UNL A   1      32.087  23.532  25.791  1.00  0.00     0.065 A 
ATOM     10  C   UNL A   1      32.509  21.253  25.022  1.00  0.00     0.161 A 
ATOM     11  C   UNL A   1      33.819  21.587  24.670  1.00  0.00     0.054 A 
ATOM     12  C   UNL A   1      31.674  22.204  25.629  1.00  0.00     0.167 A 
ATOM     13  C   UNL A   1      34.308  22.874  24.922  1.00  0.00    -0.041 A 
ATOM     14  C   UNL A   1      33.435  23.818  25.489  1.00  0.00     0.018 A 
BRANCH  10  15
ATOM     15  O   UNL A   1      32.131  19.943  24.875  1.00  0.00    -0.493 OA
ATOM     16  C   UNL A   1      33.221  19.018  24.933  1.00  0.00     0.278 C 
ENDBRANCH  10  15
BRANCH  12  17
ATOM     17  O   UNL A   1      30.463  21.814  26.143  1.00  0.00    -0.504 OA
ATOM     18  H   UNL A   1      29.698  21.828  25.602  1.00  0.00     0.293 HD
ENDBRANCH  12  17
BRANCH  13  19
ATOM     19  C   UNL A   1      35.742  23.286  24.634  1.00  0.00     0.013 C 
ATOM     20  C   UNL A   1      36.467  23.732  25.905  1.00  0.00     0.012 C 
ATOM     21  C   UNL A   1      36.522  22.191  23.905  1.00  0.00     0.012 C 
ENDBRANCH  13  19
ENDBRANCH   8   9
BRANCH   8  22
ATOM     22  N   UNL A   1      29.875  24.080  26.862  1.00  0.00    -0.343 N 
ATOM     23  H   UNL A   1      29.316  24.846  27.238  1.00  0.00     0.345 HD
ATOM     24  H   UNL A   1      30.069  23.405  27.601  1.00  0.00     0.345 HD
ATOM     25  H   UNL A   1      29.358  23.621  26.110  1.00  0.00     0.345 HD
ENDBRANCH   8  22
ENDBRANCH   5   8
ENDBRANCH   3   4
ENDBRANCH   2   3
ENDBRANCH   1   2
BRANCH   1  26
ATOM     26  C   UNL A   1      31.616  30.714  26.244  1.00  0.00     0.002 C 
BRANCH  26  27
ATOM     27  C   UNL A   1      31.406  32.154  26.720  1.00  0.00     0.021 C 
BRANCH  27  28
ATOM     28  C   UNL A   1      32.664  32.849  27.228  1.00  0.00     0.116 C 
BRANCH  28  29
ATOM     29  N   UNL A   1      32.413  34.225  27.622  1.00  0.00    -0.352 N 
ATOM     30  C   UNL A   1      32.987  34.966  28.625  1.00  0.00     0.251 C 
ATOM     31  H   UNL A   1      31.732  34.697  27.091  1.00  0.00     0.163 HD
ATOM     32  O   UNL A   1      32.530  36.062  28.924  1.00  0.00    -0.269 OA
BRANCH  30  33
ATOM     33  C   UNL A   1      34.149  34.427  29.363  1.00  0.00     0.039 A 
ATOM     34  C   UNL A   1      33.923  33.738  30.558  1.00  0.00     0.014 A 
ATOM     35  C   UNL A   1      35.452  34.605  28.890  1.00  0.00     0.014 A 
ATOM     36  C   UNL A   1      34.998  33.175  31.246  1.00  0.00     0.010 A 
ATOM     37  C   UNL A   1      36.515  33.982  29.538  1.00  0.00     0.010 A 
ATOM     38  C   UNL A   1      36.299  33.262  30.723  1.00  0.00    -0.014 A 
BRANCH  38  39
ATOM     39  C   UNL A   1      37.440  32.592  31.398  1.00  0.00     0.031 A 
ATOM     40  C   UNL A   1      38.139  31.435  30.743  1.00  0.00     0.074 A 
ATOM     41  C   UNL A   1      37.807  32.995  32.629  1.00  0.00     0.049 A 
ATOM     42  N   UNL A   1      39.123  30.698  31.196  1.00  0.00    -0.248 NA
ATOM     43  C   UNL A   1      37.654  31.035  29.414  1.00  0.00     0.031 C 
ATOM     44  C   UNL A   1      37.173  34.072  33.390  1.00  0.00     0.029 A 
ATOM     45  N   UNL A   1      38.798  32.539  33.463  1.00  0.00    -0.354 N 
ATOM     46  C   UNL A   1      39.366  29.747  30.215  1.00  0.00     0.074 A 
ATOM     47  C   UNL A   1      38.393  29.963  29.166  1.00  0.00     0.031 C 
ATOM     48  C   UNL A   1      37.805  34.213  34.566  1.00  0.00     0.029 A 
ATOM     49  C   UNL A   1      38.863  33.211  34.659  1.00  0.00     0.049 A 
ATOM     50  H   UNL A   1      39.406  31.802  33.226  1.00  0.00     0.167 HD
ATOM     51  C   UNL A   1      40.330  28.795  30.180  1.00  0.00     0.037 A 
ATOM     52  C   UNL A   1      39.679  33.035  35.715  1.00  0.00     0.037 A 
ATOM     53  C   UNL A   1      41.307  28.596  31.218  1.00  0.00     0.049 A 
ATOM     54  C   UNL A   1      40.734  31.964  35.656  1.00  0.00     0.074 A 
ATOM     55  C   UNL A   1      42.361  27.700  31.251  1.00  0.00     0.029 A 
ATOM     56  N   UNL A   1      41.349  29.303  32.411  1.00  0.00    -0.354 N 
ATOM     57  N   UNL A   1      41.003  31.119  34.691  1.00  0.00    -0.248 NA
ATOM     58  C   UNL A   1      41.604  31.827  36.833  1.00  0.00     0.031 C 
ATOM     59  C   UNL A   1      43.008  27.827  32.484  1.00  0.00     0.029 A 
ATOM     60  C   UNL A   1      42.393  28.843  33.198  1.00  0.00     0.049 A 
ATOM     61  H   UNL A   1      40.727  30.024  32.663  1.00  0.00     0.167 HD
ATOM     62  C   UNL A   1      42.086  30.370  35.128  1.00  0.00     0.074 A 
ATOM     63  C   UNL A   1      42.437  30.873  36.440  1.00  0.00     0.031 C 
ATOM     64  C   UNL A   1      42.732  29.356  34.502  1.00  0.00     0.037 A 
BRANCH  51  65
ATOM     65  C   UNL A   1      40.376  27.895  28.979  1.00  0.00     0.064 A 
ATOM     66  C   UNL A   1      41.147  28.213  27.850  1.00  0.00     0.173 A 
ATOM     67  C   UNL A   1      39.672  26.681  28.971  1.00  0.00     0.173 A 
ATOM     68  F   UNL A   1      41.831  29.366  27.803  1.00  0.00    -0.203 F 
ATOM     69  C   UNL A   1      41.190  27.363  26.748  1.00  0.00     0.198 A 
ATOM     70  C   UNL A   1      39.742  25.819  27.880  1.00  0.00     0.198 A 
ATOM     71  F   UNL A   1      38.924  26.325  30.026  1.00  0.00    -0.203 F 
ATOM     72  F   UNL A   1      41.894  27.712  25.663  1.00  0.00    -0.200 F 
ATOM     73  C   UNL A   1      40.493  26.164  26.766  1.00  0.00     0.200 A 
ATOM     74  F   UNL A   1      39.080  24.654  27.904  1.00  0.00    -0.200 F 
ATOM     75  F   UNL A   1      40.542  25.344  25.708  1.00  0.00    -0.200 F 
ENDBRANCH  51  65
BRANCH  52  76
ATOM     76  C   UNL A   1      39.547  33.909  36.910  1.00  0.00     0.064 A 
ATOM     77  C   UNL A   1      38.801  33.497  38.024  1.00  0.00     0.173 A 
ATOM     78  C   UNL A   1      40.155  35.171  36.964  1.00  0.00     0.173 A 
ATOM     79  F   UNL A   1      38.183  32.306  38.013  1.00  0.00    -0.203 F 
ATOM     80  C   UNL A   1      38.652  34.323  39.136  1.00  0.00     0.198 A 
ATOM     81  C   UNL A   1      40.030  35.984  38.088  1.00  0.00     0.198 A 
ATOM     82  F   UNL A   1      40.884  35.611  35.927  1.00  0.00    -0.203 F 
ATOM     83  F   UNL A   1      37.894  33.924  40.167  1.00  0.00    -0.200 F 
ATOM     84  C   UNL A   1      39.271  35.564  39.170  1.00  0.00     0.200 A 
ATOM     85  F   UNL A   1      40.642  37.175  38.123  1.00  0.00    -0.200 F 
ATOM     86  F   UNL A   1      39.130  36.356  40.240  1.00  0.00    -0.200 F 
ENDBRANCH  52  76
BRANCH  64  87
ATOM     87  C   UNL A   1      43.905  28.745  35.212  1.00  0.00     0.064 A 
ATOM     88  C   UNL A   1      43.755  27.643  36.069  1.00  0.00     0.173 A 
ATOM     89  C   UNL A   1      45.200  29.245  35.008  1.00  0.00     0.173 A 
ATOM     90  F   UNL A   1      42.537  27.137  36.310  1.00  0.00    -0.203 F 
ATOM     91  C   UNL A   1      44.855  27.085  36.715  1.00  0.00     0.198 A 
ATOM     92  C   UNL A   1      46.301  28.664  35.630  1.00  0.00     0.198 A 
ATOM     93  F   UNL A   1      45.398  30.293  34.192  1.00  0.00    -0.203 F 
ATOM     94  F   UNL A   1      44.681  26.067  37.570  1.00  0.00    -0.200 F 
ATOM     95  C   UNL A   1      46.126  27.590  36.490  1.00  0.00     0.200 A 
ATOM     96  F   UNL A   1      47.530  29.145  35.400  1.00  0.00    -0.200 F 
ATOM     97  F   UNL A   1      47.184  27.048  37.109  1.00  0.00    -0.200 F 
ENDBRANCH  64  87
ENDBRANCH  38  39
ENDBRANCH  30  33
ENDBRANCH  28  29
ENDBRANCH  27  28
ENDBRANCH  26  27
ENDBRANCH   1  26
TORSDOF 18
ENDMDL
MODEL 3
REMARK VINA RESULT:     -11.2      1.259      2.149
REMARK SMILES COc1cc(C(C)C)cc([C@H]([NH3+])C(=O)NCCCCCCNC(=O)c2ccc(-c3c4nc(c(-c5c(F)c(F)c(F)c(F)c5F)c5ccc([nH]5)c(-c5c(F)c(F)c(F)c(F)c5F)c5nc(c(-c6c(F)c(F)c(F)c(F)c6F)c6ccc3[nH]6)C=C5)C=C4)cc2)c1O
REMARK SMILES IDX 18 1 17 2 16 3 15 4 13 5 14 6 11 8 10 9 3 10 4 11 88 12 5 13
REMARK SMILES IDX 9 14 2 15 1 16 89 17 6 19 7 20 8 21 12 22 19 26 20 27 21 28
REMARK SMILES IDX 22 29 23 30 24 32 25 33 26 34 87 35 27 36 86 37 28 38 29 39
REMARK SMILES IDX 30 40 80 41 31 42 85 43 79 44 81 45 32 46 84 47 78 48 77 49
REMARK SMILES IDX 33 51 65 52 45 53 64 54 46 55 49 56 63 57 82 58 47 59 48 60
REMARK SMILES IDX 62 62 83 63 50 64 34 65 35 66 43 67 36 68 37 69 41 70 44 71
REMARK SMILES IDX 38 72 39 73 42 74 40 75 66 76 67 77 75 78 68 79 69 80 73 81
REMARK SMILES IDX 76 82 70 83 71 84 74 85 72 86 51 87 52 88 60 89 53 90 54 91
REMARK SMILES IDX 58 92 61 93 55 94 56 95 59 96 57 97
REMARK H PARENT 15 7 89 18 12 23 12 24 12 25 22 31 81 50 49 61
REMARK Flexibility Score: inf
ROOT
ATOM      1  C   UNL A   1      36.025  20.991  25.021  1.00  0.00     0.002 C 
ENDROOT
BRANCH   1   2
ATOM      2  C   UNL A   1      35.301  22.271  24.593  1.00  0.00     0.021 C 
BRANCH   2   3
ATOM      3  C   UNL A   1      33.794  22.235  24.820  1.00  0.00     0.116 C 
BRANCH   3   4
ATOM      4  N   UNL A   1      33.461  22.412  26.223  1.00  0.00    -0.351 N 
ATOM      5  C   UNL A   1      32.279  22.838  26.772  1.00  0.00     0.283 C 
ATOM      6  O   UNL A   1      32.189  22.860  28.002  1.00  0.00    -0.268 OA
ATOM      7  H   UNL A   1      34.178  22.197  26.863  1.00  0.00     0.163 HD
BRANCH   5   8
ATOM      8  C   UNL A   1      31.101  23.282  25.862  1.00  0.00     0.306 C 
BRANCH   8   9
ATOM      9  C   UNL A   1      31.091  24.774  25.539  1.00  0.00     0.065 A 
ATOM     10  C   UNL A   1      30.318  26.677  24.219  1.00  0.00     0.161 A 
ATOM     11  C   UNL A   1      30.998  27.566  25.055  1.00  0.00     0.054 A 
ATOM     12  C   UNL A   1      30.414  25.292  24.430  1.00  0.00     0.167 A 
ATOM     13  C   UNL A   1      31.781  27.080  26.108  1.00  0.00    -0.041 A 
ATOM     14  C   UNL A   1      31.822  25.692  26.323  1.00  0.00     0.018 A 
BRANCH  10  15
ATOM     15  O   UNL A   1      29.678  27.203  23.126  1.00  0.00    -0.493 OA
ATOM     16  C   UNL A   1      30.450  28.180  22.421  1.00  0.00     0.278 C 
ENDBRANCH  10  15
BRANCH  12  17
ATOM     17  O   UNL A   1      29.904  24.427  23.495  1.00  0.00    -0.504 OA
ATOM     18  H   UNL A   1      29.262  23.792  23.745  1.00  0.00     0.293 HD
ENDBRANCH  12  17
BRANCH  13  19
ATOM     19  C   UNL A   1      32.606  27.983  27.011  1.00  0.00     0.013 C 
ATOM     20  C   UNL A   1      34.031  28.160  26.482  1.00  0.00     0.012 C 
ATOM     21  C   UNL A   1      31.931  29.334  27.250  1.00  0.00     0.012 C 
ENDBRANCH  13  19
ENDBRANCH   8   9
BRANCH   8  22
ATOM     22  N   UNL A   1      29.847  22.805  26.497  1.00  0.00    -0.343 N 
ATOM     23  H   UNL A   1      29.936  22.862  27.512  1.00  0.00     0.345 HD
ATOM     24  H   UNL A   1      29.672  21.839  26.224  1.00  0.00     0.345 HD
ATOM     25  H   UNL A   1      29.067  23.390  26.192  1.00  0.00     0.345 HD
ENDBRANCH   8  22
ENDBRANCH   5   8
ENDBRANCH   3   4
ENDBRANCH   2   3
ENDBRANCH   1   2
BRANCH   1  26
ATOM     26  C   UNL A   1      37.480  20.881  24.553  1.00  0.00     0.002 C 
BRANCH  26  27
ATOM     27  C   UNL A   1      38.231  19.644  25.051  1.00  0.00     0.021 C 
BRANCH  27  28
ATOM     28  C   UNL A   1      39.355  19.934  26.040  1.00  0.00     0.116 C 
BRANCH  28  29
ATOM     29  N   UNL A   1      40.420  18.947  25.968  1.00  0.00    -0.352 N 
ATOM     30  C   UNL A   1      41.780  19.123  26.032  1.00  0.00     0.251 C 
ATOM     31  H   UNL A   1      40.123  18.015  25.859  1.00  0.00     0.163 HD
ATOM     32  O   UNL A   1      42.537  18.193  25.783  1.00  0.00    -0.269 OA
BRANCH  30  33
ATOM     33  C   UNL A   1      42.334  20.449  26.379  1.00  0.00     0.039 A 
ATOM     34  C   UNL A   1      42.952  21.201  25.377  1.00  0.00     0.014 A 
ATOM     35  C   UNL A   1      42.253  20.947  27.683  1.00  0.00     0.014 A 
ATOM     36  C   UNL A   1      43.436  22.477  25.668  1.00  0.00     0.010 A 
ATOM     37  C   UNL A   1      42.671  22.247  27.955  1.00  0.00     0.010 A 
ATOM     38  C   UNL A   1      43.267  23.025  26.951  1.00  0.00    -0.014 A 
BRANCH  38  39
ATOM     39  C   UNL A   1      43.697  24.414  27.251  1.00  0.00     0.031 A 
ATOM     40  C   UNL A   1      42.693  25.446  27.678  1.00  0.00     0.074 A 
ATOM     41  C   UNL A   1      44.988  24.756  27.082  1.00  0.00     0.049 A 
ATOM     42  N   UNL A   1      42.872  26.717  27.941  1.00  0.00    -0.248 NA
ATOM     43  C   UNL A   1      41.298  24.999  27.806  1.00  0.00     0.031 C 
ATOM     44  C   UNL A   1      46.047  23.857  26.622  1.00  0.00     0.029 A 
ATOM     45  N   UNL A   1      45.630  25.956  27.268  1.00  0.00    -0.354 N 
ATOM     46  C   UNL A   1      41.616  27.220  28.253  1.00  0.00     0.074 A 
ATOM     47  C   UNL A   1      40.674  26.132  28.095  1.00  0.00     0.031 C 
ATOM     48  C   UNL A   1      47.210  24.528  26.587  1.00  0.00     0.029 A 
ATOM     49  C   UNL A   1      46.972  25.913  26.983  1.00  0.00     0.049 A 
ATOM     50  H   UNL A   1      45.171  26.770  27.578  1.00  0.00     0.167 HD
ATOM     51  C   UNL A   1      41.283  28.468  28.658  1.00  0.00     0.037 A 
ATOM     52  C   UNL A   1      47.906  26.882  27.030  1.00  0.00     0.037 A 
ATOM     53  C   UNL A   1      42.226  29.542  28.832  1.00  0.00     0.049 A 
ATOM     54  C   UNL A   1      47.507  28.263  27.474  1.00  0.00     0.074 A 
ATOM     55  C   UNL A   1      41.997  30.826  29.295  1.00  0.00     0.029 A 
ATOM     56  N   UNL A   1      43.581  29.458  28.543  1.00  0.00    -0.354 N 
ATOM     57  N   UNL A   1      46.329  28.708  27.839  1.00  0.00    -0.248 NA
ATOM     58  C   UNL A   1      48.570  29.276  27.518  1.00  0.00     0.031 C 
ATOM     59  C   UNL A   1      43.202  31.534  29.238  1.00  0.00     0.029 A 
ATOM     60  C   UNL A   1      44.194  30.675  28.793  1.00  0.00     0.049 A 
ATOM     61  H   UNL A   1      44.038  28.652  28.209  1.00  0.00     0.167 HD
ATOM     62  C   UNL A   1      46.513  30.040  28.181  1.00  0.00     0.074 A 
ATOM     63  C   UNL A   1      47.920  30.327  27.997  1.00  0.00     0.031 C 
ATOM     64  C   UNL A   1      45.598  30.945  28.608  1.00  0.00     0.037 A 
BRANCH  51  65
ATOM     65  C   UNL A   1      39.834  28.743  28.945  1.00  0.00     0.064 A 
ATOM     66  C   UNL A   1      39.298  28.595  30.234  1.00  0.00     0.173 A 
ATOM     67  C   UNL A   1      38.980  29.197  27.929  1.00  0.00     0.173 A 
ATOM     68  F   UNL A   1      40.069  28.154  31.239  1.00  0.00    -0.203 F 
ATOM     69  C   UNL A   1      37.956  28.865  30.488  1.00  0.00     0.198 A 
ATOM     70  C   UNL A   1      37.646  29.496  28.193  1.00  0.00     0.198 A 
ATOM     71  F   UNL A   1      39.441  29.362  26.680  1.00  0.00    -0.203 F 
ATOM     72  F   UNL A   1      37.456  28.668  31.716  1.00  0.00    -0.200 F 
ATOM     73  C   UNL A   1      37.133  29.321  29.469  1.00  0.00     0.200 A 
ATOM     74  F   UNL A   1      36.855  29.951  27.211  1.00  0.00    -0.200 F 
ATOM     75  F   UNL A   1      35.843  29.587  29.717  1.00  0.00    -0.200 F 
ENDBRANCH  51  65
BRANCH  52  76
ATOM     76  C   UNL A   1      49.314  26.574  26.669  1.00  0.00     0.064 A 
ATOM     77  C   UNL A   1      50.251  26.228  27.654  1.00  0.00     0.173 A 
ATOM     78  C   UNL A   1      49.755  26.625  25.340  1.00  0.00     0.173 A 
ATOM     79  F   UNL A   1      49.882  26.186  28.943  1.00  0.00    -0.203 F 
ATOM     80  C   UNL A   1      51.578  25.966  27.324  1.00  0.00     0.198 A 
ATOM     81  C   UNL A   1      51.076  26.333  25.007  1.00  0.00     0.198 A 
ATOM     82  F   UNL A   1      48.899  26.946  24.358  1.00  0.00    -0.203 F 
ATOM     83  F   UNL A   1      52.463  25.684  28.290  1.00  0.00    -0.200 F 
ATOM     84  C   UNL A   1      51.990  26.012  26.000  1.00  0.00     0.200 A 
ATOM     85  F   UNL A   1      51.466  26.363  23.725  1.00  0.00    -0.200 F 
ATOM     86  F   UNL A   1      53.265  25.756  25.683  1.00  0.00    -0.200 F 
ENDBRANCH  52  76
BRANCH  64  87
ATOM     87  C   UNL A   1      46.096  32.322  28.938  1.00  0.00     0.064 A 
ATOM     88  C   UNL A   1      46.116  33.348  27.980  1.00  0.00     0.173 A 
ATOM     89  C   UNL A   1      46.527  32.630  30.237  1.00  0.00     0.173 A 
ATOM     90  F   UNL A   1      45.729  33.102  26.720  1.00  0.00    -0.203 F 
ATOM     91  C   UNL A   1      46.576  34.621  28.305  1.00  0.00     0.198 A 
ATOM     92  C   UNL A   1      46.956  33.913  30.567  1.00  0.00     0.198 A 
ATOM     93  F   UNL A   1      46.522  31.687  31.192  1.00  0.00    -0.203 F 
ATOM     94  F   UNL A   1      46.636  35.571  27.361  1.00  0.00    -0.200 F 
ATOM     95  C   UNL A   1      46.988  34.905  29.599  1.00  0.00     0.200 A 
ATOM     96  F   UNL A   1      47.340  34.188  31.821  1.00  0.00    -0.200 F 
ATOM     97  F   UNL A   1      47.425  36.133  29.910  1.00  0.00    -0.200 F 
ENDBRANCH  64  87
ENDBRANCH  38  39
ENDBRANCH  30  33
ENDBRANCH  28  29
ENDBRANCH  27  28
ENDBRANCH  26  27
ENDBRANCH   1  26
TORSDOF 18
ENDMDL
