MODEL 1
REMARK VINA RESULT:      -8.9      0.000      0.000
REMARK SMILES O=C(Cn1c(=O)c2c3c(sc2n(Cc2ccc(Cl)cc2Cl)c1=O)CCCC3)NCCCCCCNC(=O)c1ccc(-c2c3nc(c(-c4c(F)c(F)c(F)c(F)c4F)c4ccc([nH]4)c(-c4c(F)c(F)c(F)c(F)c4F)c4nc(c(-c5c(F)c(F)c(F)c(F)c5F)c5ccc2[nH]5)C=C4)C=C3)cc1
REMARK SMILES IDX 31 1 30 2 29 3 28 4 1 5 2 6 3 8 4 9 5 10 22 11 6 12 7 13
REMARK SMILES IDX 12 14 23 15 8 16 11 17 9 18 27 19 10 20 24 21 26 22 25 23
REMARK SMILES IDX 13 24 14 25 15 26 20 27 16 28 19 29 21 30 17 31 18 32 32 33
REMARK SMILES IDX 33 34 34 35 35 36 36 37 37 39 38 40 39 41 100 42 40 43 99 44
REMARK SMILES IDX 41 45 42 46 43 47 93 48 44 49 98 50 92 51 94 52 45 53 97 54
REMARK SMILES IDX 91 55 90 56 46 58 78 59 58 60 77 61 59 62 62 63 76 64 95 65
REMARK SMILES IDX 60 66 61 67 75 69 96 70 63 71 47 72 48 73 56 74 49 75 50 76
REMARK SMILES IDX 54 77 57 78 51 79 52 80 55 81 53 82 79 83 80 84 88 85 81 86
REMARK SMILES IDX 82 87 86 88 89 89 83 90 84 91 87 92 85 93 64 94 65 95 73 96
REMARK SMILES IDX 66 97 67 98 71 99 74 100 68 101 69 102 72 103 70 104
REMARK H PARENT 28 7 35 38 94 57 62 68
REMARK Flexibility Score: inf
ROOT
ATOM      1  C   UNL A   1      45.712  31.815  26.597  1.00  0.00     0.002 C 
ENDROOT
BRANCH   1   2
ATOM      2  C   UNL A   1      45.925  30.433  27.222  1.00  0.00     0.021 C 
BRANCH   2   3
ATOM      3  C   UNL A   1      44.836  29.408  26.908  1.00  0.00     0.116 C 
BRANCH   3   4
ATOM      4  N   UNL A   1      44.878  28.234  27.761  1.00  0.00    -0.355 N 
ATOM      5  O   UNL A   1      44.501  26.745  26.069  1.00  0.00    -0.273 OA
ATOM      6  C   UNL A   1      44.886  26.969  27.217  1.00  0.00     0.240 C 
ATOM      7  H   UNL A   1      44.901  28.345  28.739  1.00  0.00     0.163 HD
BRANCH   6   8
ATOM      8  C   UNL A   1      45.221  25.807  28.160  1.00  0.00     0.230 C 
BRANCH   8   9
ATOM      9  N   UNL A   1      45.636  26.024  29.552  1.00  0.00    -0.250 N 
ATOM     10  C   UNL A   1      44.879  25.320  30.502  1.00  0.00     0.265 A 
ATOM     11  C   UNL A   1      46.884  26.630  29.800  1.00  0.00     0.332 A 
ATOM     12  O   UNL A   1      43.784  24.804  30.260  1.00  0.00    -0.268 OA
ATOM     13  C   UNL A   1      45.504  25.177  31.795  1.00  0.00     0.079 A 
ATOM     14  N   UNL A   1      47.380  26.606  31.108  1.00  0.00    -0.280 N 
ATOM     15  O   UNL A   1      47.521  27.184  28.902  1.00  0.00    -0.247 OA
ATOM     16  C   UNL A   1      45.060  24.492  32.987  1.00  0.00    -0.019 A 
ATOM     17  C   UNL A   1      46.715  25.785  32.001  1.00  0.00     0.113 A 
ATOM     18  C   UNL A   1      45.976  24.654  34.010  1.00  0.00     0.011 A 
ATOM     19  C   UNL A   1      43.777  23.747  33.218  1.00  0.00     0.037 C 
ATOM     20  S   UNL A   1      47.409  25.349  33.470  1.00  0.00    -0.122 S 
ATOM     21  C   UNL A   1      45.816  24.231  35.432  1.00  0.00     0.047 C 
ATOM     22  C   UNL A   1      43.813  22.962  34.548  1.00  0.00     0.005 C 
ATOM     23  C   UNL A   1      44.367  23.817  35.699  1.00  0.00     0.006 C 
BRANCH  14  24
ATOM     24  C   UNL A   1      48.588  27.408  31.450  1.00  0.00     0.165 C 
BRANCH  24  25
ATOM     25  C   UNL A   1      48.258  28.807  31.967  1.00  0.00    -0.009 A 
ATOM     26  C   UNL A   1      47.535  29.681  31.131  1.00  0.00     0.008 A 
ATOM     27  C   UNL A   1      48.625  29.293  33.240  1.00  0.00     0.047 A 
ATOM     28  C   UNL A   1      47.133  30.946  31.579  1.00  0.00     0.021 A 
ATOM     29  C   UNL A   1      48.127  30.508  33.726  1.00  0.00     0.041 A 
ATOM     30  Cl  UNL A   1      49.841  28.554  34.223  1.00  0.00    -0.084 Cl
ATOM     31  C   UNL A   1      47.387  31.332  32.890  1.00  0.00     0.042 A 
ATOM     32  Cl  UNL A   1      46.841  32.857  33.466  1.00  0.00    -0.084 Cl
ENDBRANCH  24  25
ENDBRANCH  14  24
ENDBRANCH   8   9
ENDBRANCH   6   8
ENDBRANCH   3   4
ENDBRANCH   2   3
ENDBRANCH   1   2
BRANCH   1  33
ATOM     33  C   UNL A   1      44.292  32.111  26.099  1.00  0.00     0.002 C 
BRANCH  33  34
ATOM     34  C   UNL A   1      44.087  33.454  25.372  1.00  0.00     0.021 C 
BRANCH  34  35
ATOM     35  C   UNL A   1      45.291  34.416  25.365  1.00  0.00     0.116 C 
BRANCH  35  36
ATOM     36  N   UNL A   1      44.963  35.662  26.038  1.00  0.00    -0.352 N 
ATOM     37  C   UNL A   1      44.270  35.944  27.184  1.00  0.00     0.251 C 
ATOM     38  H   UNL A   1      45.306  36.461  25.576  1.00  0.00     0.163 HD
ATOM     39  O   UNL A   1      43.866  37.098  27.334  1.00  0.00    -0.269 OA
BRANCH  37  40
ATOM     40  C   UNL A   1      44.003  34.964  28.265  1.00  0.00     0.039 A 
ATOM     41  C   UNL A   1      42.659  34.723  28.594  1.00  0.00     0.014 A 
ATOM     42  C   UNL A   1      45.005  34.439  29.084  1.00  0.00     0.014 A 
ATOM     43  C   UNL A   1      42.316  33.957  29.713  1.00  0.00     0.010 A 
ATOM     44  C   UNL A   1      44.658  33.671  30.211  1.00  0.00     0.010 A 
ATOM     45  C   UNL A   1      43.312  33.413  30.531  1.00  0.00    -0.014 A 
BRANCH  45  46
ATOM     46  C   UNL A   1      42.899  32.438  31.571  1.00  0.00     0.031 A 
ATOM     47  C   UNL A   1      41.551  32.702  32.161  1.00  0.00     0.074 A 
ATOM     48  C   UNL A   1      43.389  31.182  31.695  1.00  0.00     0.049 A 
ATOM     49  N   UNL A   1      40.450  32.318  31.581  1.00  0.00    -0.248 NA
ATOM     50  C   UNL A   1      41.342  33.626  33.272  1.00  0.00     0.031 C 
ATOM     51  C   UNL A   1      43.822  30.355  30.564  1.00  0.00     0.029 A 
ATOM     52  N   UNL A   1      43.387  30.310  32.768  1.00  0.00    -0.354 N 
ATOM     53  C   UNL A   1      39.407  32.980  32.200  1.00  0.00     0.074 A 
ATOM     54  C   UNL A   1      40.005  33.767  33.255  1.00  0.00     0.031 C 
ATOM     55  C   UNL A   1      43.865  29.065  30.963  1.00  0.00     0.029 A 
ATOM     56  C   UNL A   1      43.613  28.983  32.403  1.00  0.00     0.049 A 
ATOM     57  H   UNL A   1      43.239  30.597  33.697  1.00  0.00     0.167 HD
ATOM     58  C   UNL A   1      38.116  32.843  31.799  1.00  0.00     0.037 A 
ATOM     59  C   UNL A   1      43.063  27.893  33.016  1.00  0.00     0.037 A 
ATOM     60  C   UNL A   1      37.900  31.955  30.694  1.00  0.00     0.049 A 
ATOM     61  C   UNL A   1      41.615  28.043  32.624  1.00  0.00     0.074 A 
ATOM     62  C   UNL A   1      37.782  32.048  29.324  1.00  0.00     0.029 A 
ATOM     63  N   UNL A   1      37.841  30.607  30.955  1.00  0.00    -0.354 N 
ATOM     64  N   UNL A   1      41.094  27.746  31.463  1.00  0.00    -0.248 NA
ATOM     65  C   UNL A   1      40.779  28.894  33.473  1.00  0.00     0.031 C 
ATOM     66  C   UNL A   1      38.149  30.756  28.825  1.00  0.00     0.029 A 
ATOM     67  C   UNL A   1      38.504  29.983  29.929  1.00  0.00     0.049 A 
ATOM     68  H   UNL A   1      37.409  30.175  31.726  1.00  0.00     0.167 HD
ATOM     69  C   UNL A   1      39.988  28.590  31.331  1.00  0.00     0.074 A 
ATOM     70  C   UNL A   1      39.836  29.247  32.612  1.00  0.00     0.031 C 
ATOM     71  C   UNL A   1      39.376  28.853  30.142  1.00  0.00     0.037 A 
BRANCH  58  72
ATOM     72  C   UNL A   1      36.945  33.383  32.510  1.00  0.00     0.064 A 
ATOM     73  C   UNL A   1      36.141  34.309  31.829  1.00  0.00     0.173 A 
ATOM     74  C   UNL A   1      36.740  33.207  33.879  1.00  0.00     0.173 A 
ATOM     75  F   UNL A   1      36.323  34.511  30.512  1.00  0.00    -0.203 F 
ATOM     76  C   UNL A   1      35.198  35.074  32.501  1.00  0.00     0.198 A 
ATOM     77  C   UNL A   1      35.783  33.967  34.552  1.00  0.00     0.198 A 
ATOM     78  F   UNL A   1      37.495  32.342  34.573  1.00  0.00    -0.203 F 
ATOM     79  F   UNL A   1      34.490  35.993  31.833  1.00  0.00    -0.200 F 
ATOM     80  C   UNL A   1      35.027  34.911  33.866  1.00  0.00     0.200 A 
ATOM     81  F   UNL A   1      35.615  33.816  35.873  1.00  0.00    -0.200 F 
ATOM     82  F   UNL A   1      34.144  35.676  34.523  1.00  0.00    -0.200 F 
ENDBRANCH  58  72
BRANCH  59  83
ATOM     83  C   UNL A   1      43.498  27.601  34.424  1.00  0.00     0.064 A 
ATOM     84  C   UNL A   1      44.801  27.966  34.820  1.00  0.00     0.173 A 
ATOM     85  C   UNL A   1      42.722  26.963  35.407  1.00  0.00     0.173 A 
ATOM     86  F   UNL A   1      45.668  28.450  33.918  1.00  0.00    -0.203 F 
ATOM     87  C   UNL A   1      45.240  27.839  36.140  1.00  0.00     0.198 A 
ATOM     88  C   UNL A   1      43.147  26.865  36.736  1.00  0.00     0.198 A 
ATOM     89  F   UNL A   1      41.531  26.426  35.109  1.00  0.00    -0.203 F 
ATOM     90  F   UNL A   1      46.476  28.237  36.474  1.00  0.00    -0.200 F 
ATOM     91  C   UNL A   1      44.396  27.324  37.107  1.00  0.00     0.200 A 
ATOM     92  F   UNL A   1      42.327  26.344  37.659  1.00  0.00    -0.200 F 
ATOM     93  F   UNL A   1      44.787  27.264  38.386  1.00  0.00    -0.200 F 
ENDBRANCH  59  83
BRANCH  71  94
ATOM     94  C   UNL A   1      39.855  28.064  28.976  1.00  0.00     0.064 A 
ATOM     95  C   UNL A   1      39.379  26.767  28.756  1.00  0.00     0.173 A 
ATOM     96  C   UNL A   1      40.740  28.613  28.035  1.00  0.00     0.173 A 
ATOM     97  F   UNL A   1      38.527  26.202  29.625  1.00  0.00    -0.203 F 
ATOM     98  C   UNL A   1      39.747  26.057  27.618  1.00  0.00     0.198 A 
ATOM     99  C   UNL A   1      41.086  27.910  26.885  1.00  0.00     0.198 A 
ATOM    100  F   UNL A   1      41.246  29.845  28.205  1.00  0.00    -0.203 F 
ATOM    101  F   UNL A   1      39.267  24.821  27.415  1.00  0.00    -0.200 F 
ATOM    102  C   UNL A   1      40.586  26.635  26.675  1.00  0.00     0.200 A 
ATOM    103  F   UNL A   1      41.880  28.478  25.966  1.00  0.00    -0.200 F 
ATOM    104  F   UNL A   1      40.898  25.968  25.555  1.00  0.00    -0.200 F 
ENDBRANCH  71  94
ENDBRANCH  45  46
ENDBRANCH  37  40
ENDBRANCH  35  36
ENDBRANCH  34  35
ENDBRANCH  33  34
ENDBRANCH   1  33
TORSDOF 16
ENDMDL
MODEL 2
REMARK VINA RESULT:      -8.8      7.184     12.118
REMARK SMILES O=C(Cn1c(=O)c2c3c(sc2n(Cc2ccc(Cl)cc2Cl)c1=O)CCCC3)NCCCCCCNC(=O)c1ccc(-c2c3nc(c(-c4c(F)c(F)c(F)c(F)c4F)c4ccc([nH]4)c(-c4c(F)c(F)c(F)c(F)c4F)c4nc(c(-c5c(F)c(F)c(F)c(F)c5F)c5ccc2[nH]5)C=C4)C=C3)cc1
REMARK SMILES IDX 31 1 30 2 29 3 28 4 1 5 2 6 3 8 4 9 5 10 22 11 6 12 7 13
REMARK SMILES IDX 12 14 23 15 8 16 11 17 9 18 27 19 10 20 24 21 26 22 25 23
REMARK SMILES IDX 13 24 14 25 15 26 20 27 16 28 19 29 21 30 17 31 18 32 32 33
REMARK SMILES IDX 33 34 34 35 35 36 36 37 37 39 38 40 39 41 100 42 40 43 99 44
REMARK SMILES IDX 41 45 42 46 43 47 93 48 44 49 98 50 92 51 94 52 45 53 97 54
REMARK SMILES IDX 91 55 90 56 46 58 78 59 58 60 77 61 59 62 62 63 76 64 95 65
REMARK SMILES IDX 60 66 61 67 75 69 96 70 63 71 47 72 48 73 56 74 49 75 50 76
REMARK SMILES IDX 54 77 57 78 51 79 52 80 55 81 53 82 79 83 80 84 88 85 81 86
REMARK SMILES IDX 82 87 86 88 89 89 83 90 84 91 87 92 85 93 64 94 65 95 73 96
REMARK SMILES IDX 66 97 67 98 71 99 74 100 68 101 69 102 72 103 70 104
REMARK H PARENT 28 7 35 38 94 57 62 68
REMARK Flexibility Score: inf
ROOT
ATOM      1  C   UNL A   1      44.533  41.349  25.520  1.00  0.00     0.002 C 
ENDROOT
BRANCH   1   2
ATOM      2  C   UNL A   1      43.248  42.157  25.322  1.00  0.00     0.021 C 
BRANCH   2   3
ATOM      3  C   UNL A   1      43.325  43.239  24.246  1.00  0.00     0.116 C 
BRANCH   3   4
ATOM      4  N   UNL A   1      43.461  42.713  22.900  1.00  0.00    -0.355 N 
ATOM      5  O   UNL A   1      41.230  42.831  22.416  1.00  0.00    -0.273 OA
ATOM      6  C   UNL A   1      42.395  42.729  22.028  1.00  0.00     0.240 C 
ATOM      7  H   UNL A   1      44.324  42.341  22.607  1.00  0.00     0.163 HD
BRANCH   6   8
ATOM      8  C   UNL A   1      42.695  42.429  20.555  1.00  0.00     0.230 C 
BRANCH   8   9
ATOM      9  N   UNL A   1      43.453  43.358  19.705  1.00  0.00    -0.250 N 
ATOM     10  C   UNL A   1      42.666  44.305  19.032  1.00  0.00     0.265 A 
ATOM     11  C   UNL A   1      44.850  43.433  19.866  1.00  0.00     0.332 A 
ATOM     12  O   UNL A   1      41.442  44.211  18.901  1.00  0.00    -0.268 OA
ATOM     13  C   UNL A   1      43.384  45.459  18.546  1.00  0.00     0.079 A 
ATOM     14  N   UNL A   1      45.529  44.486  19.241  1.00  0.00    -0.280 N 
ATOM     15  O   UNL A   1      45.471  42.593  20.520  1.00  0.00    -0.247 OA
ATOM     16  C   UNL A   1      42.917  46.640  17.859  1.00  0.00    -0.019 A 
ATOM     17  C   UNL A   1      44.743  45.495  18.714  1.00  0.00     0.113 A 
ATOM     18  C   UNL A   1      43.976  47.474  17.549  1.00  0.00     0.011 A 
ATOM     19  C   UNL A   1      41.520  46.984  17.426  1.00  0.00     0.037 C 
ATOM     20  S   UNL A   1      45.402  46.986  18.296  1.00  0.00    -0.122 S 
ATOM     21  C   UNL A   1      43.930  48.710  16.715  1.00  0.00     0.047 C 
ATOM     22  C   UNL A   1      41.424  48.448  16.943  1.00  0.00     0.005 C 
ATOM     23  C   UNL A   1      42.581  48.814  16.001  1.00  0.00     0.006 C 
BRANCH  14  24
ATOM     24  C   UNL A   1      47.019  44.485  19.215  1.00  0.00     0.165 C 
BRANCH  24  25
ATOM     25  C   UNL A   1      47.648  44.681  20.593  1.00  0.00    -0.009 A 
ATOM     26  C   UNL A   1      47.176  45.731  21.406  1.00  0.00     0.008 A 
ATOM     27  C   UNL A   1      48.677  43.873  21.121  1.00  0.00     0.047 A 
ATOM     28  C   UNL A   1      47.656  45.912  22.709  1.00  0.00     0.021 A 
ATOM     29  C   UNL A   1      49.074  43.984  22.459  1.00  0.00     0.041 A 
ATOM     30  Cl  UNL A   1      49.657  42.831  20.150  1.00  0.00    -0.084 Cl
ATOM     31  C   UNL A   1      48.565  45.007  23.246  1.00  0.00     0.042 A 
ATOM     32  Cl  UNL A   1      49.110  45.185  24.866  1.00  0.00    -0.084 Cl
ENDBRANCH  24  25
ENDBRANCH  14  24
ENDBRANCH   8   9
ENDBRANCH   6   8
ENDBRANCH   3   4
ENDBRANCH   2   3
ENDBRANCH   1   2
BRANCH   1  33
ATOM     33  C   UNL A   1      44.439  40.178  26.507  1.00  0.00     0.002 C 
BRANCH  33  34
ATOM     34  C   UNL A   1      43.076  39.973  27.198  1.00  0.00     0.021 C 
BRANCH  34  35
ATOM     35  C   UNL A   1      42.585  38.517  27.320  1.00  0.00     0.116 C 
BRANCH  35  36
ATOM     36  N   UNL A   1      43.492  37.607  26.641  1.00  0.00    -0.352 N 
ATOM     37  C   UNL A   1      44.029  36.398  26.991  1.00  0.00     0.251 C 
ATOM     38  H   UNL A   1      43.777  37.923  25.753  1.00  0.00     0.163 HD
ATOM     39  O   UNL A   1      45.020  36.014  26.368  1.00  0.00    -0.269 OA
BRANCH  37  40
ATOM     40  C   UNL A   1      43.480  35.510  28.046  1.00  0.00     0.039 A 
ATOM     41  C   UNL A   1      44.389  34.681  28.723  1.00  0.00     0.014 A 
ATOM     42  C   UNL A   1      42.112  35.321  28.248  1.00  0.00     0.014 A 
ATOM     43  C   UNL A   1      43.944  33.688  29.602  1.00  0.00     0.010 A 
ATOM     44  C   UNL A   1      41.665  34.320  29.131  1.00  0.00     0.010 A 
ATOM     45  C   UNL A   1      42.576  33.500  29.824  1.00  0.00    -0.014 A 
BRANCH  45  46
ATOM     46  C   UNL A   1      42.170  32.585  30.920  1.00  0.00     0.031 A 
ATOM     47  C   UNL A   1      40.752  32.749  31.364  1.00  0.00     0.074 A 
ATOM     48  C   UNL A   1      42.774  31.411  31.213  1.00  0.00     0.049 A 
ATOM     49  N   UNL A   1      39.757  32.191  30.736  1.00  0.00    -0.248 NA
ATOM     50  C   UNL A   1      40.342  33.744  32.353  1.00  0.00     0.031 C 
ATOM     51  C   UNL A   1      43.396  30.536  30.214  1.00  0.00     0.029 A 
ATOM     52  N   UNL A   1      42.761  30.648  32.366  1.00  0.00    -0.354 N 
ATOM     53  C   UNL A   1      38.596  32.785  31.193  1.00  0.00     0.074 A 
ATOM     54  C   UNL A   1      39.006  33.731  32.209  1.00  0.00     0.031 C 
ATOM     55  C   UNL A   1      43.535  29.302  30.747  1.00  0.00     0.029 A 
ATOM     56  C   UNL A   1      43.158  29.326  32.161  1.00  0.00     0.049 A 
ATOM     57  H   UNL A   1      42.497  31.001  33.245  1.00  0.00     0.167 HD
ATOM     58  C   UNL A   1      37.371  32.467  30.701  1.00  0.00     0.037 A 
ATOM     59  C   UNL A   1      42.669  28.244  32.834  1.00  0.00     0.037 A 
ATOM     60  C   UNL A   1      37.354  31.462  29.679  1.00  0.00     0.049 A 
ATOM     61  C   UNL A   1      41.257  28.191  32.308  1.00  0.00     0.074 A 
ATOM     62  C   UNL A   1      37.358  31.412  28.302  1.00  0.00     0.029 A 
ATOM     63  N   UNL A   1      37.412  30.145  30.072  1.00  0.00    -0.354 N 
ATOM     64  N   UNL A   1      40.881  27.731  31.144  1.00  0.00    -0.248 NA
ATOM     65  C   UNL A   1      40.259  29.018  32.992  1.00  0.00     0.031 C 
ATOM     66  C   UNL A   1      37.904  30.129  27.972  1.00  0.00     0.029 A 
ATOM     67  C   UNL A   1      38.230  29.508  29.176  1.00  0.00     0.049 A 
ATOM     68  H   UNL A   1      36.956  29.741  30.845  1.00  0.00     0.167 HD
ATOM     69  C   UNL A   1      39.712  28.428  30.834  1.00  0.00     0.074 A 
ATOM     70  C   UNL A   1      39.371  29.180  32.023  1.00  0.00     0.031 C 
ATOM     71  C   UNL A   1      39.191  28.508  29.577  1.00  0.00     0.037 A 
BRANCH  58  72
ATOM     72  C   UNL A   1      36.088  32.935  31.252  1.00  0.00     0.064 A 
ATOM     73  C   UNL A   1      35.383  33.905  30.523  1.00  0.00     0.173 A 
ATOM     74  C   UNL A   1      35.668  32.646  32.552  1.00  0.00     0.173 A 
ATOM     75  F   UNL A   1      35.771  34.214  29.273  1.00  0.00    -0.203 F 
ATOM     76  C   UNL A   1      34.326  34.602  31.091  1.00  0.00     0.198 A 
ATOM     77  C   UNL A   1      34.597  33.340  33.116  1.00  0.00     0.198 A 
ATOM     78  F   UNL A   1      36.321  31.737  33.290  1.00  0.00    -0.203 F 
ATOM     79  F   UNL A   1      33.713  35.565  30.390  1.00  0.00    -0.200 F 
ATOM     80  C   UNL A   1      33.940  34.328  32.392  1.00  0.00     0.200 A 
ATOM     81  F   UNL A   1      34.221  33.081  34.376  1.00  0.00    -0.200 F 
ATOM     82  F   UNL A   1      32.944  35.028  32.954  1.00  0.00    -0.200 F 
ENDBRANCH  58  72
BRANCH  59  83
ATOM     83  C   UNL A   1      42.996  28.135  34.297  1.00  0.00     0.064 A 
ATOM     84  C   UNL A   1      42.360  27.135  35.060  1.00  0.00     0.173 A 
ATOM     85  C   UNL A   1      43.878  28.969  35.004  1.00  0.00     0.173 A 
ATOM     86  F   UNL A   1      41.395  26.380  34.512  1.00  0.00    -0.203 F 
ATOM     87  C   UNL A   1      42.696  26.891  36.394  1.00  0.00     0.198 A 
ATOM     88  C   UNL A   1      44.241  28.706  36.329  1.00  0.00     0.198 A 
ATOM     89  F   UNL A   1      44.418  30.053  34.430  1.00  0.00    -0.203 F 
ATOM     90  F   UNL A   1      42.090  25.901  37.065  1.00  0.00    -0.200 F 
ATOM     91  C   UNL A   1      43.667  27.653  37.016  1.00  0.00     0.200 A 
ATOM     92  F   UNL A   1      45.168  29.467  36.928  1.00  0.00    -0.200 F 
ATOM     93  F   UNL A   1      44.043  27.379  38.272  1.00  0.00    -0.200 F 
ENDBRANCH  59  83
BRANCH  71  94
ATOM     94  C   UNL A   1      39.859  27.673  28.543  1.00  0.00     0.064 A 
ATOM     95  C   UNL A   1      39.551  26.313  28.425  1.00  0.00     0.173 A 
ATOM     96  C   UNL A   1      40.759  28.231  27.621  1.00  0.00     0.173 A 
ATOM     97  F   UNL A   1      38.691  25.737  29.279  1.00  0.00    -0.203 F 
ATOM     98  C   UNL A   1      40.097  25.545  27.401  1.00  0.00     0.198 A 
ATOM     99  C   UNL A   1      41.283  27.466  26.583  1.00  0.00     0.198 A 
ATOM    100  F   UNL A   1      41.108  29.525  27.699  1.00  0.00    -0.203 F 
ATOM    101  F   UNL A   1      39.777  24.248  27.294  1.00  0.00    -0.200 F 
ATOM    102  C   UNL A   1      40.948  26.126  26.472  1.00  0.00     0.200 A 
ATOM    103  F   UNL A   1      42.090  28.033  25.675  1.00  0.00    -0.200 F 
ATOM    104  F   UNL A   1      41.433  25.396  25.457  1.00  0.00    -0.200 F 
ENDBRANCH  71  94
ENDBRANCH  45  46
ENDBRANCH  37  40
ENDBRANCH  35  36
ENDBRANCH  34  35
ENDBRANCH  33  34
ENDBRANCH   1  33
TORSDOF 16
ENDMDL
MODEL 3
REMARK VINA RESULT:      -8.8      3.577     10.338
REMARK SMILES O=C(Cn1c(=O)c2c3c(sc2n(Cc2ccc(Cl)cc2Cl)c1=O)CCCC3)NCCCCCCNC(=O)c1ccc(-c2c3nc(c(-c4c(F)c(F)c(F)c(F)c4F)c4ccc([nH]4)c(-c4c(F)c(F)c(F)c(F)c4F)c4nc(c(-c5c(F)c(F)c(F)c(F)c5F)c5ccc2[nH]5)C=C4)C=C3)cc1
REMARK SMILES IDX 31 1 30 2 29 3 28 4 1 5 2 6 3 8 4 9 5 10 22 11 6 12 7 13
REMARK SMILES IDX 12 14 23 15 8 16 11 17 9 18 27 19 10 20 24 21 26 22 25 23
REMARK SMILES IDX 13 24 14 25 15 26 20 27 16 28 19 29 21 30 17 31 18 32 32 33
REMARK SMILES IDX 33 34 34 35 35 36 36 37 37 39 38 40 39 41 100 42 40 43 99 44
REMARK SMILES IDX 41 45 42 46 43 47 93 48 44 49 98 50 92 51 94 52 45 53 97 54
REMARK SMILES IDX 91 55 90 56 46 58 78 59 58 60 77 61 59 62 62 63 76 64 95 65
REMARK SMILES IDX 60 66 61 67 75 69 96 70 63 71 47 72 48 73 56 74 49 75 50 76
REMARK SMILES IDX 54 77 57 78 51 79 52 80 55 81 53 82 79 83 80 84 88 85 81 86
REMARK SMILES IDX 82 87 86 88 89 89 83 90 84 91 87 92 85 93 64 94 65 95 73 96
REMARK SMILES IDX 66 97 67 98 71 99 74 100 68 101 69 102 72 103 70 104
REMARK H PARENT 28 7 35 38 94 57 62 68
REMARK Flexibility Score: inf
ROOT
ATOM      1  C   UNL A   1      42.705  27.654  35.824  1.00  0.00     0.002 C 
ENDROOT
BRANCH   1   2
ATOM      2  C   UNL A   1      42.611  27.913  34.317  1.00  0.00     0.021 C 
BRANCH   2   3
ATOM      3  C   UNL A   1      41.197  28.152  33.790  1.00  0.00     0.116 C 
BRANCH   3   4
ATOM      4  N   UNL A   1      40.981  29.498  33.291  1.00  0.00    -0.355 N 
ATOM      5  O   UNL A   1      39.132  29.891  34.575  1.00  0.00    -0.273 OA
ATOM      6  C   UNL A   1      40.051  30.325  33.880  1.00  0.00     0.240 C 
ATOM      7  H   UNL A   1      41.506  29.823  32.524  1.00  0.00     0.163 HD
BRANCH   6   8
ATOM      8  C   UNL A   1      40.089  31.807  33.488  1.00  0.00     0.230 C 
BRANCH   8   9
ATOM      9  N   UNL A   1      41.275  32.425  32.880  1.00  0.00    -0.250 N 
ATOM     10  C   UNL A   1      41.034  33.070  31.656  1.00  0.00     0.265 A 
ATOM     11  C   UNL A   1      42.429  32.596  33.670  1.00  0.00     0.332 A 
ATOM     12  O   UNL A   1      40.016  32.897  30.980  1.00  0.00    -0.268 OA
ATOM     13  C   UNL A   1      42.045  34.019  31.257  1.00  0.00     0.079 A 
ATOM     14  N   UNL A   1      43.458  33.402  33.170  1.00  0.00    -0.280 N 
ATOM     15  O   UNL A   1      42.549  32.041  34.764  1.00  0.00    -0.247 OA
ATOM     16  C   UNL A   1      42.121  34.889  30.107  1.00  0.00    -0.019 A 
ATOM     17  C   UNL A   1      43.157  34.153  32.047  1.00  0.00     0.113 A 
ATOM     18  C   UNL A   1      43.304  35.606  30.116  1.00  0.00     0.011 A 
ATOM     19  C   UNL A   1      41.153  35.024  28.967  1.00  0.00     0.037 C 
ATOM     20  S   UNL A   1      44.130  35.440  31.572  1.00  0.00    -0.122 S 
ATOM     21  C   UNL A   1      43.824  36.492  29.035  1.00  0.00     0.047 C 
ATOM     22  C   UNL A   1      41.495  36.241  28.078  1.00  0.00     0.005 C 
ATOM     23  C   UNL A   1      42.996  36.310  27.760  1.00  0.00     0.006 C 
BRANCH  14  24
ATOM     24  C   UNL A   1      44.769  33.441  33.875  1.00  0.00     0.165 C 
BRANCH  24  25
ATOM     25  C   UNL A   1      45.731  32.343  33.425  1.00  0.00    -0.009 A 
ATOM     26  C   UNL A   1      45.774  31.142  34.160  1.00  0.00     0.008 A 
ATOM     27  C   UNL A   1      46.587  32.442  32.308  1.00  0.00     0.047 A 
ATOM     28  C   UNL A   1      46.575  30.069  33.751  1.00  0.00     0.021 A 
ATOM     29  C   UNL A   1      47.299  31.333  31.837  1.00  0.00     0.041 A 
ATOM     30  Cl  UNL A   1      46.982  33.944  31.547  1.00  0.00    -0.084 Cl
ATOM     31  C   UNL A   1      47.294  30.152  32.564  1.00  0.00     0.042 A 
ATOM     32  Cl  UNL A   1      48.229  28.815  32.022  1.00  0.00    -0.084 Cl
ENDBRANCH  24  25
ENDBRANCH  14  24
ENDBRANCH   8   9
ENDBRANCH   6   8
ENDBRANCH   3   4
ENDBRANCH   2   3
ENDBRANCH   1   2
BRANCH   1  33
ATOM     33  C   UNL A   1      41.490  26.965  36.459  1.00  0.00     0.002 C 
BRANCH  33  34
ATOM     34  C   UNL A   1      41.748  25.598  37.123  1.00  0.00     0.021 C 
BRANCH  34  35
ATOM     35  C   UNL A   1      42.199  24.460  36.187  1.00  0.00     0.116 C 
BRANCH  35  36
ATOM     36  N   UNL A   1      43.575  24.081  36.458  1.00  0.00    -0.352 N 
ATOM     37  C   UNL A   1      44.687  23.987  35.666  1.00  0.00     0.251 C 
ATOM     38  H   UNL A   1      43.740  23.844  37.399  1.00  0.00     0.163 HD
ATOM     39  O   UNL A   1      45.635  23.326  36.092  1.00  0.00    -0.269 OA
BRANCH  37  40
ATOM     40  C   UNL A   1      44.835  24.652  34.348  1.00  0.00     0.039 A 
ATOM     41  C   UNL A   1      45.616  25.818  34.303  1.00  0.00     0.014 A 
ATOM     42  C   UNL A   1      44.087  24.295  33.224  1.00  0.00     0.014 A 
ATOM     43  C   UNL A   1      45.666  26.610  33.150  1.00  0.00     0.010 A 
ATOM     44  C   UNL A   1      44.136  25.094  32.066  1.00  0.00     0.010 A 
ATOM     45  C   UNL A   1      44.933  26.253  32.014  1.00  0.00    -0.014 A 
BRANCH  45  46
ATOM     46  C   UNL A   1      45.190  27.003  30.759  1.00  0.00     0.031 A 
ATOM     47  C   UNL A   1      45.248  26.149  29.533  1.00  0.00     0.074 A 
ATOM     48  C   UNL A   1      44.941  28.321  30.578  1.00  0.00     0.049 A 
ATOM     49  N   UNL A   1      44.177  25.762  28.902  1.00  0.00    -0.248 NA
ATOM     50  C   UNL A   1      46.465  25.465  29.102  1.00  0.00     0.031 C 
ATOM     51  C   UNL A   1      43.839  29.043  31.221  1.00  0.00     0.029 A 
ATOM     52  N   UNL A   1      45.432  29.216  29.647  1.00  0.00    -0.354 N 
ATOM     53  C   UNL A   1      44.551  24.754  28.035  1.00  0.00     0.074 A 
ATOM     54  C   UNL A   1      45.983  24.616  28.180  1.00  0.00     0.031 C 
ATOM     55  C   UNL A   1      43.621  30.192  30.544  1.00  0.00     0.029 A 
ATOM     56  C   UNL A   1      44.652  30.366  29.519  1.00  0.00     0.049 A 
ATOM     57  H   UNL A   1      46.250  29.059  29.124  1.00  0.00     0.167 HD
ATOM     58  C   UNL A   1      43.655  24.091  27.257  1.00  0.00     0.037 A 
ATOM     59  C   UNL A   1      44.460  31.062  28.360  1.00  0.00     0.037 A 
ATOM     60  C   UNL A   1      42.291  24.512  27.384  1.00  0.00     0.049 A 
ATOM     61  C   UNL A   1      43.633  30.080  27.568  1.00  0.00     0.074 A 
ATOM     62  C   UNL A   1      41.175  24.139  28.101  1.00  0.00     0.029 A 
ATOM     63  N   UNL A   1      41.896  25.630  26.687  1.00  0.00    -0.354 N 
ATOM     64  N   UNL A   1      42.358  29.840  27.724  1.00  0.00    -0.248 NA
ATOM     65  C   UNL A   1      44.358  29.069  26.795  1.00  0.00     0.031 C 
ATOM     66  C   UNL A   1      40.357  25.314  28.166  1.00  0.00     0.029 A 
ATOM     67  C   UNL A   1      41.058  26.329  27.517  1.00  0.00     0.049 A 
ATOM     68  H   UNL A   1      42.163  25.879  25.773  1.00  0.00     0.167 HD
ATOM     69  C   UNL A   1      42.179  28.522  27.300  1.00  0.00     0.074 A 
ATOM     70  C   UNL A   1      43.440  28.118  26.716  1.00  0.00     0.031 C 
ATOM     71  C   UNL A   1      41.087  27.769  27.615  1.00  0.00     0.037 A 
BRANCH  58  72
ATOM     72  C   UNL A   1      44.002  23.129  26.197  1.00  0.00     0.064 A 
ATOM     73  C   UNL A   1      43.530  21.814  26.335  1.00  0.00     0.173 A 
ATOM     74  C   UNL A   1      44.955  23.393  25.213  1.00  0.00     0.173 A 
ATOM     75  F   UNL A   1      42.622  21.526  27.283  1.00  0.00    -0.203 F 
ATOM     76  C   UNL A   1      44.032  20.786  25.550  1.00  0.00     0.198 A 
ATOM     77  C   UNL A   1      45.449  22.360  24.415  1.00  0.00     0.198 A 
ATOM     78  F   UNL A   1      45.443  24.632  25.056  1.00  0.00    -0.203 F 
ATOM     79  F   UNL A   1      43.606  19.531  25.747  1.00  0.00    -0.200 F 
ATOM     80  C   UNL A   1      45.001  21.056  24.597  1.00  0.00     0.200 A 
ATOM     81  F   UNL A   1      46.388  22.615  23.494  1.00  0.00    -0.200 F 
ATOM     82  F   UNL A   1      45.513  20.058  23.865  1.00  0.00    -0.200 F 
ENDBRANCH  58  72
BRANCH  59  83
ATOM     83  C   UNL A   1      45.646  31.779  27.780  1.00  0.00     0.064 A 
ATOM     84  C   UNL A   1      45.477  33.097  27.309  1.00  0.00     0.173 A 
ATOM     85  C   UNL A   1      46.937  31.243  27.633  1.00  0.00     0.173 A 
ATOM     86  F   UNL A   1      44.254  33.647  27.271  1.00  0.00    -0.203 F 
ATOM     87  C   UNL A   1      46.552  33.873  26.867  1.00  0.00     0.198 A 
ATOM     88  C   UNL A   1      48.020  32.028  27.224  1.00  0.00     0.198 A 
ATOM     89  F   UNL A   1      47.185  29.952  27.892  1.00  0.00    -0.203 F 
ATOM     90  F   UNL A   1      46.345  35.135  26.467  1.00  0.00    -0.200 F 
ATOM     91  C   UNL A   1      47.831  33.348  26.863  1.00  0.00     0.200 A 
ATOM     92  F   UNL A   1      49.253  31.500  27.203  1.00  0.00    -0.200 F 
ATOM     93  F   UNL A   1      48.875  34.108  26.506  1.00  0.00    -0.200 F 
ENDBRANCH  59  83
BRANCH  71  94
ATOM     94  C   UNL A   1      39.991  28.480  28.326  1.00  0.00     0.064 A 
ATOM     95  C   UNL A   1      39.090  29.281  27.616  1.00  0.00     0.173 A 
ATOM     96  C   UNL A   1      39.789  28.318  29.706  1.00  0.00     0.173 A 
ATOM     97  F   UNL A   1      39.239  29.460  26.295  1.00  0.00    -0.203 F 
ATOM     98  C   UNL A   1      38.006  29.873  28.256  1.00  0.00     0.198 A 
ATOM     99  C   UNL A   1      38.689  28.891  30.338  1.00  0.00     0.198 A 
ATOM    100  F   UNL A   1      40.633  27.578  30.442  1.00  0.00    -0.203 F 
ATOM    101  F   UNL A   1      37.143  30.624  27.556  1.00  0.00    -0.200 F 
ATOM    102  C   UNL A   1      37.796  29.663  29.612  1.00  0.00     0.200 A 
ATOM    103  F   UNL A   1      38.477  28.671  31.644  1.00  0.00    -0.200 F 
ATOM    104  F   UNL A   1      36.723  30.193  30.216  1.00  0.00    -0.200 F 
ENDBRANCH  71  94
ENDBRANCH  45  46
ENDBRANCH  37  40
ENDBRANCH  35  36
ENDBRANCH  34  35
ENDBRANCH  33  34
ENDBRANCH   1  33
TORSDOF 16
ENDMDL
