MODEL 1
REMARK VINA RESULT:     -11.6      0.000      0.000
REMARK SMILES C[C@@]([NH2+]Cc1ccccc1Br)(C(=O)NCCCCCCNC(=O)c1ccc(-c2c3nc(c(-c4c(F)c(F)c(F)c(F)c4F)c4ccc([nH]4)c(-c4c(F)c(F)c(F)c(F)c4F)c4nc(c(-c5c(F)c(F)c(F)c(F)c5F)c5ccc2[nH]5)C=C4)C=C3)cc1)C(F)(F)F
REMARK SMILES IDX 17 1 16 2 15 3 14 4 12 5 13 6 2 8 1 9 3 10 4 13 5 14 6 15
REMARK SMILES IDX 10 16 7 17 9 18 11 19 8 20 87 21 88 22 89 23 90 24 18 25
REMARK SMILES IDX 19 26 20 27 21 28 22 29 23 31 24 32 25 33 86 34 26 35 85 36
REMARK SMILES IDX 27 37 28 38 29 39 79 40 30 41 84 42 78 43 80 44 31 45 83 46
REMARK SMILES IDX 77 47 76 48 32 50 64 51 44 52 63 53 45 54 48 55 62 56 81 57
REMARK SMILES IDX 46 58 47 59 61 61 82 62 49 63 33 64 34 65 42 66 35 67 36 68
REMARK SMILES IDX 40 69 43 70 37 71 38 72 41 73 39 74 65 75 66 76 74 77 67 78
REMARK SMILES IDX 68 79 72 80 75 81 69 82 70 83 73 84 71 85 50 86 51 87 59 88
REMARK SMILES IDX 52 89 53 90 57 91 60 92 54 93 55 94 58 95 56 96
REMARK H PARENT 14 7 3 11 3 12 21 30 80 49 48 60
REMARK Flexibility Score: inf
ROOT
ATOM      1  C   UNL A   1      32.644  30.055  26.824  1.00  0.00     0.002 C 
ENDROOT
BRANCH   1   2
ATOM      2  C   UNL A   1      32.234  28.719  27.461  1.00  0.00     0.021 C 
BRANCH   2   3
ATOM      3  C   UNL A   1      32.294  27.538  26.490  1.00  0.00     0.116 C 
BRANCH   3   4
ATOM      4  N   UNL A   1      31.191  26.641  26.748  1.00  0.00    -0.350 N 
ATOM      5  C   UNL A   1      30.834  25.462  26.167  1.00  0.00     0.290 C 
ATOM      6  O   UNL A   1      29.725  25.037  26.502  1.00  0.00    -0.267 OA
ATOM      7  H   UNL A   1      30.592  26.932  27.473  1.00  0.00     0.163 HD
BRANCH   5   8
ATOM      8  C   UNL A   1      31.775  24.679  25.222  1.00  0.00     0.268 C 
ATOM      9  C   UNL A   1      31.029  23.576  24.434  1.00  0.00     0.101 C 
BRANCH   8  10
ATOM     10  N   UNL A   1      32.338  25.601  24.162  1.00  0.00    -0.322 N 
ATOM     11  H   UNL A   1      33.183  25.165  23.793  1.00  0.00     0.347 HD
ATOM     12  H   UNL A   1      32.483  26.491  24.637  1.00  0.00     0.347 HD
BRANCH  10  13
ATOM     13  C   UNL A   1      31.470  25.920  23.017  1.00  0.00     0.299 C 
BRANCH  13  14
ATOM     14  C   UNL A   1      30.707  27.228  23.054  1.00  0.00     0.020 A 
ATOM     15  C   UNL A   1      29.321  27.277  23.290  1.00  0.00     0.011 A 
ATOM     16  C   UNL A   1      31.366  28.455  22.844  1.00  0.00     0.026 A 
ATOM     17  C   UNL A   1      28.597  28.459  23.128  1.00  0.00     0.001 A 
ATOM     18  C   UNL A   1      30.644  29.649  22.719  1.00  0.00     0.016 A 
ATOM     19  Br  UNL A   1      33.263  28.591  22.750  1.00  0.00    -0.050 Br
ATOM     20  C   UNL A   1      29.256  29.641  22.818  1.00  0.00     0.001 A 
ENDBRANCH  13  14
ENDBRANCH  10  13
ENDBRANCH   8  10
BRANCH   8  21
ATOM     21  C   UNL A   1      32.743  23.899  26.168  1.00  0.00     0.453 C 
ATOM     22  F   UNL A   1      32.127  23.518  27.316  1.00  0.00    -0.164 F 
ATOM     23  F   UNL A   1      33.137  22.741  25.567  1.00  0.00    -0.164 F 
ATOM     24  F   UNL A   1      33.859  24.572  26.503  1.00  0.00    -0.164 F 
ENDBRANCH   8  21
ENDBRANCH   5   8
ENDBRANCH   3   4
ENDBRANCH   2   3
ENDBRANCH   1   2
BRANCH   1  25
ATOM     25  C   UNL A   1      31.512  30.793  26.103  1.00  0.00     0.002 C 
BRANCH  25  26
ATOM     26  C   UNL A   1      31.361  32.262  26.502  1.00  0.00     0.021 C 
BRANCH  26  27
ATOM     27  C   UNL A   1      32.533  32.809  27.305  1.00  0.00     0.116 C 
BRANCH  27  28
ATOM     28  N   UNL A   1      32.356  34.217  27.626  1.00  0.00    -0.352 N 
ATOM     29  C   UNL A   1      32.951  34.957  28.612  1.00  0.00     0.251 C 
ATOM     30  H   UNL A   1      31.720  34.705  27.055  1.00  0.00     0.163 HD
ATOM     31  O   UNL A   1      32.528  36.076  28.892  1.00  0.00    -0.269 OA
BRANCH  29  32
ATOM     32  C   UNL A   1      34.099  34.397  29.352  1.00  0.00     0.039 A 
ATOM     33  C   UNL A   1      33.866  33.720  30.551  1.00  0.00     0.014 A 
ATOM     34  C   UNL A   1      35.401  34.541  28.864  1.00  0.00     0.014 A 
ATOM     35  C   UNL A   1      34.936  33.144  31.235  1.00  0.00     0.010 A 
ATOM     36  C   UNL A   1      36.455  33.897  29.503  1.00  0.00     0.010 A 
ATOM     37  C   UNL A   1      36.235  33.201  30.702  1.00  0.00    -0.014 A 
BRANCH  37  38
ATOM     38  C   UNL A   1      37.376  32.547  31.391  1.00  0.00     0.031 A 
ATOM     39  C   UNL A   1      38.084  31.389  30.745  1.00  0.00     0.074 A 
ATOM     40  C   UNL A   1      37.739  32.964  32.618  1.00  0.00     0.049 A 
ATOM     41  N   UNL A   1      39.068  30.658  31.206  1.00  0.00    -0.248 NA
ATOM     42  C   UNL A   1      37.606  30.978  29.416  1.00  0.00     0.031 C 
ATOM     43  C   UNL A   1      37.097  34.046  33.367  1.00  0.00     0.029 A 
ATOM     44  N   UNL A   1      38.731  32.523  33.457  1.00  0.00    -0.354 N 
ATOM     45  C   UNL A   1      39.318  29.702  30.231  1.00  0.00     0.074 A 
ATOM     46  C   UNL A   1      38.342  29.903  29.181  1.00  0.00     0.031 C 
ATOM     47  C   UNL A   1      37.730  34.204  34.540  1.00  0.00     0.029 A 
ATOM     48  C   UNL A   1      38.794  33.208  34.645  1.00  0.00     0.049 A 
ATOM     49  H   UNL A   1      39.343  31.787  33.227  1.00  0.00     0.167 HD
ATOM     50  C   UNL A   1      40.289  28.758  30.201  1.00  0.00     0.037 A 
ATOM     51  C   UNL A   1      39.611  33.047  35.703  1.00  0.00     0.037 A 
ATOM     52  C   UNL A   1      41.268  28.575  31.241  1.00  0.00     0.049 A 
ATOM     53  C   UNL A   1      40.670  31.978  35.652  1.00  0.00     0.074 A 
ATOM     54  C   UNL A   1      42.325  27.684  31.283  1.00  0.00     0.029 A 
ATOM     55  N   UNL A   1      41.304  29.294  32.427  1.00  0.00    -0.354 N 
ATOM     56  N   UNL A   1      40.942  31.126  34.694  1.00  0.00    -0.248 NA
ATOM     57  C   UNL A   1      41.542  31.856  36.828  1.00  0.00     0.031 C 
ATOM     58  C   UNL A   1      42.965  27.823  32.518  1.00  0.00     0.029 A 
ATOM     59  C   UNL A   1      42.349  28.847  33.219  1.00  0.00     0.049 A 
ATOM     60  H   UNL A   1      40.679  30.014  32.670  1.00  0.00     0.167 HD
ATOM     61  C   UNL A   1      42.035  30.392  35.135  1.00  0.00     0.074 A 
ATOM     62  C   UNL A   1      42.385  30.910  36.441  1.00  0.00     0.031 C 
ATOM     63  C   UNL A   1      42.691  29.379  34.515  1.00  0.00     0.037 A 
BRANCH  50  64
ATOM     64  C   UNL A   1      40.340  27.849  29.006  1.00  0.00     0.064 A 
ATOM     65  C   UNL A   1      41.104  28.163  27.871  1.00  0.00     0.173 A 
ATOM     66  C   UNL A   1      39.645  26.631  29.008  1.00  0.00     0.173 A 
ATOM     67  F   UNL A   1      41.780  29.321  27.811  1.00  0.00    -0.203 F 
ATOM     68  C   UNL A   1      41.144  27.309  26.772  1.00  0.00     0.198 A 
ATOM     69  C   UNL A   1      39.715  25.761  27.922  1.00  0.00     0.198 A 
ATOM     70  F   UNL A   1      38.903  26.276  30.068  1.00  0.00    -0.203 F 
ATOM     71  F   UNL A   1      41.836  27.657  25.679  1.00  0.00    -0.200 F 
ATOM     72  C   UNL A   1      40.456  26.105  26.802  1.00  0.00     0.200 A 
ATOM     73  F   UNL A   1      39.062  24.592  27.959  1.00  0.00    -0.200 F 
ATOM     74  F   UNL A   1      40.502  25.280  25.748  1.00  0.00    -0.200 F 
ENDBRANCH  50  64
BRANCH  51  75
ATOM     75  C   UNL A   1      39.473  33.929  36.893  1.00  0.00     0.064 A 
ATOM     76  C   UNL A   1      40.088  35.188  36.930  1.00  0.00     0.173 A 
ATOM     77  C   UNL A   1      38.739  33.530  38.018  1.00  0.00     0.173 A 
ATOM     78  F   UNL A   1      40.819  35.609  35.886  1.00  0.00    -0.203 F 
ATOM     79  C   UNL A   1      39.997  36.002  38.057  1.00  0.00     0.198 A 
ATOM     80  C   UNL A   1      38.619  34.358  39.132  1.00  0.00     0.198 A 
ATOM     81  F   UNL A   1      38.124  32.337  38.032  1.00  0.00    -0.203 F 
ATOM     82  F   UNL A   1      40.639  37.177  38.087  1.00  0.00    -0.200 F 
ATOM     83  C   UNL A   1      39.256  35.589  39.155  1.00  0.00     0.200 A 
ATOM     84  F   UNL A   1      37.889  33.962  40.183  1.00  0.00    -0.200 F 
ATOM     85  F   UNL A   1      39.166  36.373  40.239  1.00  0.00    -0.200 F 
ENDBRANCH  51  75
BRANCH  63  86
ATOM     86  C   UNL A   1      43.881  28.794  35.221  1.00  0.00     0.064 A 
ATOM     87  C   UNL A   1      43.756  27.735  36.132  1.00  0.00     0.173 A 
ATOM     88  C   UNL A   1      45.170  29.282  34.955  1.00  0.00     0.173 A 
ATOM     89  F   UNL A   1      42.545  27.241  36.432  1.00  0.00    -0.203 F 
ATOM     90  C   UNL A   1      44.873  27.208  36.775  1.00  0.00     0.198 A 
ATOM     91  C   UNL A   1      46.289  28.728  35.572  1.00  0.00     0.198 A 
ATOM     92  F   UNL A   1      45.349  30.287  34.086  1.00  0.00    -0.203 F 
ATOM     93  F   UNL A   1      44.723  26.235  37.684  1.00  0.00    -0.200 F 
ATOM     94  C   UNL A   1      46.139  27.699  36.489  1.00  0.00     0.200 A 
ATOM     95  F   UNL A   1      47.512  29.191  35.280  1.00  0.00    -0.200 F 
ATOM     96  F   UNL A   1      47.213  27.185  37.103  1.00  0.00    -0.200 F 
ENDBRANCH  63  86
ENDBRANCH  37  38
ENDBRANCH  29  32
ENDBRANCH  27  28
ENDBRANCH  26  27
ENDBRANCH  25  26
ENDBRANCH   1  25
TORSDOF 17
ENDMDL
MODEL 2
REMARK VINA RESULT:     -11.5      1.765      3.434
REMARK SMILES C[C@@]([NH2+]Cc1ccccc1Br)(C(=O)NCCCCCCNC(=O)c1ccc(-c2c3nc(c(-c4c(F)c(F)c(F)c(F)c4F)c4ccc([nH]4)c(-c4c(F)c(F)c(F)c(F)c4F)c4nc(c(-c5c(F)c(F)c(F)c(F)c5F)c5ccc2[nH]5)C=C4)C=C3)cc1)C(F)(F)F
REMARK SMILES IDX 17 1 16 2 15 3 14 4 12 5 13 6 2 8 1 9 3 10 4 13 5 14 6 15
REMARK SMILES IDX 10 16 7 17 9 18 11 19 8 20 87 21 88 22 89 23 90 24 18 25
REMARK SMILES IDX 19 26 20 27 21 28 22 29 23 31 24 32 25 33 86 34 26 35 85 36
REMARK SMILES IDX 27 37 28 38 29 39 79 40 30 41 84 42 78 43 80 44 31 45 83 46
REMARK SMILES IDX 77 47 76 48 32 50 64 51 44 52 63 53 45 54 48 55 62 56 81 57
REMARK SMILES IDX 46 58 47 59 61 61 82 62 49 63 33 64 34 65 42 66 35 67 36 68
REMARK SMILES IDX 40 69 43 70 37 71 38 72 41 73 39 74 65 75 66 76 74 77 67 78
REMARK SMILES IDX 68 79 72 80 75 81 69 82 70 83 73 84 71 85 50 86 51 87 59 88
REMARK SMILES IDX 52 89 53 90 57 91 60 92 54 93 55 94 58 95 56 96
REMARK H PARENT 14 7 3 11 3 12 21 30 80 49 48 60
REMARK Flexibility Score: inf
ROOT
ATOM      1  C   UNL A   1      32.347  29.996  27.223  1.00  0.00     0.002 C 
ENDROOT
BRANCH   1   2
ATOM      2  C   UNL A   1      33.808  29.719  26.836  1.00  0.00     0.021 C 
BRANCH   2   3
ATOM      3  C   UNL A   1      33.976  28.487  25.944  1.00  0.00     0.116 C 
BRANCH   3   4
ATOM      4  N   UNL A   1      33.979  28.890  24.556  1.00  0.00    -0.350 N 
ATOM      5  C   UNL A   1      33.491  28.280  23.440  1.00  0.00     0.290 C 
ATOM      6  O   UNL A   1      33.823  28.810  22.376  1.00  0.00    -0.267 OA
ATOM      7  H   UNL A   1      34.410  29.758  24.386  1.00  0.00     0.163 HD
BRANCH   5   8
ATOM      8  C   UNL A   1      32.533  27.068  23.503  1.00  0.00     0.268 C 
ATOM      9  C   UNL A   1      32.252  26.470  22.104  1.00  0.00     0.101 C 
BRANCH   8  10
ATOM     10  N   UNL A   1      33.167  25.940  24.287  1.00  0.00    -0.322 N 
ATOM     11  H   UNL A   1      32.414  25.395  24.707  1.00  0.00     0.347 HD
ATOM     12  H   UNL A   1      33.790  26.399  24.951  1.00  0.00     0.347 HD
BRANCH  10  13
ATOM     13  C   UNL A   1      34.027  25.004  23.545  1.00  0.00     0.299 C 
BRANCH  13  14
ATOM     14  C   UNL A   1      34.628  23.842  24.308  1.00  0.00     0.020 A 
ATOM     15  C   UNL A   1      35.692  24.013  25.212  1.00  0.00     0.011 A 
ATOM     16  C   UNL A   1      34.140  22.532  24.132  1.00  0.00     0.026 A 
ATOM     17  C   UNL A   1      36.365  22.918  25.758  1.00  0.00     0.001 A 
ATOM     18  C   UNL A   1      34.792  21.436  24.711  1.00  0.00     0.016 A 
ATOM     19  Br  UNL A   1      32.560  22.158  23.138  1.00  0.00    -0.050 Br
ATOM     20  C   UNL A   1      35.929  21.628  25.489  1.00  0.00     0.001 A 
ENDBRANCH  13  14
ENDBRANCH  10  13
ENDBRANCH   8  10
BRANCH   8  21
ATOM     21  C   UNL A   1      31.161  27.658  23.960  1.00  0.00     0.453 C 
ATOM     22  F   UNL A   1      31.021  27.620  25.310  1.00  0.00    -0.164 F 
ATOM     23  F   UNL A   1      31.095  28.978  23.627  1.00  0.00    -0.164 F 
ATOM     24  F   UNL A   1      30.086  27.057  23.417  1.00  0.00    -0.164 F 
ENDBRANCH   8  21
ENDBRANCH   5   8
ENDBRANCH   3   4
ENDBRANCH   2   3
ENDBRANCH   1   2
BRANCH   1  25
ATOM     25  C   UNL A   1      31.564  30.830  26.205  1.00  0.00     0.002 C 
BRANCH  25  26
ATOM     26  C   UNL A   1      31.409  32.304  26.581  1.00  0.00     0.021 C 
BRANCH  26  27
ATOM     27  C   UNL A   1      32.637  32.905  27.252  1.00  0.00     0.116 C 
BRANCH  27  28
ATOM     28  N   UNL A   1      32.422  34.293  27.627  1.00  0.00    -0.352 N 
ATOM     29  C   UNL A   1      32.981  35.004  28.655  1.00  0.00     0.251 C 
ATOM     30  H   UNL A   1      31.786  34.791  27.064  1.00  0.00     0.163 HD
ATOM     31  O   UNL A   1      32.527  36.102  28.972  1.00  0.00    -0.269 OA
BRANCH  29  32
ATOM     32  C   UNL A   1      34.126  34.439  29.395  1.00  0.00     0.039 A 
ATOM     33  C   UNL A   1      33.891  33.772  30.599  1.00  0.00     0.014 A 
ATOM     34  C   UNL A   1      35.428  34.568  28.901  1.00  0.00     0.014 A 
ATOM     35  C   UNL A   1      34.959  33.192  31.284  1.00  0.00     0.010 A 
ATOM     36  C   UNL A   1      36.478  33.919  29.540  1.00  0.00     0.010 A 
ATOM     37  C   UNL A   1      36.257  33.234  30.745  1.00  0.00    -0.014 A 
BRANCH  37  38
ATOM     38  C   UNL A   1      37.394  32.574  31.435  1.00  0.00     0.031 A 
ATOM     39  C   UNL A   1      38.107  31.423  30.781  1.00  0.00     0.074 A 
ATOM     40  C   UNL A   1      37.750  32.979  32.668  1.00  0.00     0.049 A 
ATOM     41  N   UNL A   1      39.090  30.689  31.241  1.00  0.00    -0.248 NA
ATOM     42  C   UNL A   1      37.638  31.025  29.445  1.00  0.00     0.031 C 
ATOM     43  C   UNL A   1      37.102  34.053  33.424  1.00  0.00     0.029 A 
ATOM     44  N   UNL A   1      38.737  32.532  33.508  1.00  0.00    -0.354 N 
ATOM     45  C   UNL A   1      39.346  29.743  30.258  1.00  0.00     0.074 A 
ATOM     46  C   UNL A   1      38.377  29.953  29.205  1.00  0.00     0.031 C 
ATOM     47  C   UNL A   1      37.728  34.200  34.602  1.00  0.00     0.029 A 
ATOM     48  C   UNL A   1      38.792  33.205  34.704  1.00  0.00     0.049 A 
ATOM     49  H   UNL A   1      39.351  31.798  33.275  1.00  0.00     0.167 HD
ATOM     50  C   UNL A   1      40.319  28.801  30.225  1.00  0.00     0.037 A 
ATOM     51  C   UNL A   1      39.602  33.034  35.765  1.00  0.00     0.037 A 
ATOM     52  C   UNL A   1      41.292  28.608  31.269  1.00  0.00     0.049 A 
ATOM     53  C   UNL A   1      40.663  31.967  35.710  1.00  0.00     0.074 A 
ATOM     54  C   UNL A   1      42.350  27.718  31.309  1.00  0.00     0.029 A 
ATOM     55  N   UNL A   1      41.320  29.316  32.462  1.00  0.00    -0.354 N 
ATOM     56  N   UNL A   1      40.943  31.125  34.745  1.00  0.00    -0.248 NA
ATOM     57  C   UNL A   1      41.529  31.835  36.890  1.00  0.00     0.031 C 
ATOM     58  C   UNL A   1      42.983  27.846  32.549  1.00  0.00     0.029 A 
ATOM     59  C   UNL A   1      42.361  28.862  33.256  1.00  0.00     0.049 A 
ATOM     60  H   UNL A   1      40.693  30.033  32.709  1.00  0.00     0.167 HD
ATOM     61  C   UNL A   1      42.034  30.388  35.185  1.00  0.00     0.074 A 
ATOM     62  C   UNL A   1      42.375  30.893  36.498  1.00  0.00     0.031 C 
ATOM     63  C   UNL A   1      42.694  29.382  34.559  1.00  0.00     0.037 A 
BRANCH  50  64
ATOM     64  C   UNL A   1      40.378  27.904  29.021  1.00  0.00     0.064 A 
ATOM     65  C   UNL A   1      39.647  26.708  28.952  1.00  0.00     0.173 A 
ATOM     66  C   UNL A   1      41.150  28.263  27.905  1.00  0.00     0.173 A 
ATOM     67  F   UNL A   1      38.902  26.312  29.996  1.00  0.00    -0.203 F 
ATOM     68  C   UNL A   1      39.711  25.890  27.828  1.00  0.00     0.198 A 
ATOM     69  C   UNL A   1      41.184  27.460  26.767  1.00  0.00     0.198 A 
ATOM     70  F   UNL A   1      41.865  29.398  27.911  1.00  0.00    -0.203 F 
ATOM     71  F   UNL A   1      39.047  24.725  27.809  1.00  0.00    -0.200 F 
ATOM     72  C   UNL A   1      40.472  26.270  26.733  1.00  0.00     0.200 A 
ATOM     73  F   UNL A   1      41.907  27.836  25.704  1.00  0.00    -0.200 F 
ATOM     74  F   UNL A   1      40.526  25.486  25.648  1.00  0.00    -0.200 F 
ENDBRANCH  50  64
BRANCH  51  75
ATOM     75  C   UNL A   1      39.457  33.904  36.962  1.00  0.00     0.064 A 
ATOM     76  C   UNL A   1      38.723  33.477  38.078  1.00  0.00     0.173 A 
ATOM     77  C   UNL A   1      40.034  35.181  37.013  1.00  0.00     0.173 A 
ATOM     78  F   UNL A   1      38.134  32.272  38.072  1.00  0.00    -0.203 F 
ATOM     79  C   UNL A   1      38.550  34.304  39.186  1.00  0.00     0.198 A 
ATOM     80  C   UNL A   1      39.889  35.994  38.134  1.00  0.00     0.198 A 
ATOM     81  F   UNL A   1      40.753  35.635  35.974  1.00  0.00    -0.203 F 
ATOM     82  F   UNL A   1      37.798  33.892  40.215  1.00  0.00    -0.200 F 
ATOM     83  C   UNL A   1      39.138  35.560  39.216  1.00  0.00     0.200 A 
ATOM     84  F   UNL A   1      40.473  37.199  38.166  1.00  0.00    -0.200 F 
ATOM     85  F   UNL A   1      38.973  36.354  40.283  1.00  0.00    -0.200 F 
ENDBRANCH  51  75
BRANCH  63  86
ATOM     86  C   UNL A   1      43.881  28.791  35.267  1.00  0.00     0.064 A 
ATOM     87  C   UNL A   1      45.179  29.290  35.082  1.00  0.00     0.173 A 
ATOM     88  C   UNL A   1      43.709  27.730  36.169  1.00  0.00     0.173 A 
ATOM     89  F   UNL A   1      45.400  30.295  34.220  1.00  0.00    -0.203 F 
ATOM     90  C   UNL A   1      46.264  28.728  35.749  1.00  0.00     0.198 A 
ATOM     91  C   UNL A   1      44.791  27.194  36.862  1.00  0.00     0.198 A 
ATOM     92  F   UNL A   1      42.488  27.221  36.391  1.00  0.00    -0.203 F 
ATOM     93  F   UNL A   1      47.502  29.183  35.512  1.00  0.00    -0.200 F 
ATOM     94  C   UNL A   1      46.069  27.686  36.643  1.00  0.00     0.200 A 
ATOM     95  F   UNL A   1      44.597  26.201  37.740  1.00  0.00    -0.200 F 
ATOM     96  F   UNL A   1      47.113  27.152  37.290  1.00  0.00    -0.200 F 
ENDBRANCH  63  86
ENDBRANCH  37  38
ENDBRANCH  29  32
ENDBRANCH  27  28
ENDBRANCH  26  27
ENDBRANCH  25  26
ENDBRANCH   1  25
TORSDOF 17
ENDMDL
MODEL 3
REMARK VINA RESULT:     -11.5      1.722      2.911
REMARK SMILES C[C@@]([NH2+]Cc1ccccc1Br)(C(=O)NCCCCCCNC(=O)c1ccc(-c2c3nc(c(-c4c(F)c(F)c(F)c(F)c4F)c4ccc([nH]4)c(-c4c(F)c(F)c(F)c(F)c4F)c4nc(c(-c5c(F)c(F)c(F)c(F)c5F)c5ccc2[nH]5)C=C4)C=C3)cc1)C(F)(F)F
REMARK SMILES IDX 17 1 16 2 15 3 14 4 12 5 13 6 2 8 1 9 3 10 4 13 5 14 6 15
REMARK SMILES IDX 10 16 7 17 9 18 11 19 8 20 87 21 88 22 89 23 90 24 18 25
REMARK SMILES IDX 19 26 20 27 21 28 22 29 23 31 24 32 25 33 86 34 26 35 85 36
REMARK SMILES IDX 27 37 28 38 29 39 79 40 30 41 84 42 78 43 80 44 31 45 83 46
REMARK SMILES IDX 77 47 76 48 32 50 64 51 44 52 63 53 45 54 48 55 62 56 81 57
REMARK SMILES IDX 46 58 47 59 61 61 82 62 49 63 33 64 34 65 42 66 35 67 36 68
REMARK SMILES IDX 40 69 43 70 37 71 38 72 41 73 39 74 65 75 66 76 74 77 67 78
REMARK SMILES IDX 68 79 72 80 75 81 69 82 70 83 73 84 71 85 50 86 51 87 59 88
REMARK SMILES IDX 52 89 53 90 57 91 60 92 54 93 55 94 58 95 56 96
REMARK H PARENT 14 7 3 11 3 12 21 30 80 49 48 60
REMARK Flexibility Score: inf
ROOT
ATOM      1  C   UNL A   1      32.810  30.149  26.975  1.00  0.00     0.002 C 
ENDROOT
BRANCH   1   2
ATOM      2  C   UNL A   1      32.759  28.617  27.074  1.00  0.00     0.021 C 
BRANCH   2   3
ATOM      3  C   UNL A   1      33.857  27.920  26.268  1.00  0.00     0.116 C 
BRANCH   3   4
ATOM      4  N   UNL A   1      34.042  28.602  25.008  1.00  0.00    -0.350 N 
ATOM      5  C   UNL A   1      33.857  28.186  23.724  1.00  0.00     0.290 C 
ATOM      6  O   UNL A   1      34.286  28.963  22.864  1.00  0.00    -0.267 OA
ATOM      7  H   UNL A   1      34.357  29.530  25.091  1.00  0.00     0.163 HD
BRANCH   5   8
ATOM      8  C   UNL A   1      33.102  26.886  23.368  1.00  0.00     0.268 C 
ATOM      9  C   UNL A   1      33.067  26.626  21.843  1.00  0.00     0.101 C 
BRANCH   8  10
ATOM     10  N   UNL A   1      33.820  25.687  23.950  1.00  0.00    -0.322 N 
ATOM     11  H   UNL A   1      33.223  25.293  24.677  1.00  0.00     0.347 HD
ATOM     12  H   UNL A   1      34.715  26.050  24.277  1.00  0.00     0.347 HD
BRANCH  10  13
ATOM     13  C   UNL A   1      34.169  24.597  23.025  1.00  0.00     0.299 C 
BRANCH  13  14
ATOM     14  C   UNL A   1      33.987  23.174  23.511  1.00  0.00     0.020 A 
ATOM     15  C   UNL A   1      32.891  22.386  23.117  1.00  0.00     0.011 A 
ATOM     16  C   UNL A   1      34.917  22.586  24.390  1.00  0.00     0.026 A 
ATOM     17  C   UNL A   1      32.628  21.154  23.719  1.00  0.00     0.001 A 
ATOM     18  C   UNL A   1      34.673  21.333  24.966  1.00  0.00     0.016 A 
ATOM     19  Br  UNL A   1      36.572  23.419  24.831  1.00  0.00    -0.050 Br
ATOM     20  C   UNL A   1      33.506  20.638  24.661  1.00  0.00     0.001 A 
ENDBRANCH  13  14
ENDBRANCH  10  13
ENDBRANCH   8  10
BRANCH   8  21
ATOM     21  C   UNL A   1      31.614  27.162  23.752  1.00  0.00     0.453 C 
ATOM     22  F   UNL A   1      31.337  28.491  23.774  1.00  0.00    -0.164 F 
ATOM     23  F   UNL A   1      30.789  26.636  22.803  1.00  0.00    -0.164 F 
ATOM     24  F   UNL A   1      31.237  26.644  24.936  1.00  0.00    -0.164 F 
ENDBRANCH   8  21
ENDBRANCH   5   8
ENDBRANCH   3   4
ENDBRANCH   2   3
ENDBRANCH   1   2
BRANCH   1  25
ATOM     25  C   UNL A   1      31.553  30.792  26.380  1.00  0.00     0.002 C 
BRANCH  25  26
ATOM     26  C   UNL A   1      31.418  32.291  26.657  1.00  0.00     0.021 C 
BRANCH  26  27
ATOM     27  C   UNL A   1      32.674  32.928  27.236  1.00  0.00     0.116 C 
BRANCH  27  28
ATOM     28  N   UNL A   1      32.442  34.306  27.639  1.00  0.00    -0.352 N 
ATOM     29  C   UNL A   1      32.999  35.006  28.676  1.00  0.00     0.251 C 
ATOM     30  H   UNL A   1      31.795  34.806  27.090  1.00  0.00     0.163 HD
ATOM     31  O   UNL A   1      32.532  36.090  29.018  1.00  0.00    -0.269 OA
BRANCH  29  32
ATOM     32  C   UNL A   1      34.158  34.444  29.396  1.00  0.00     0.039 A 
ATOM     33  C   UNL A   1      33.942  33.746  30.586  1.00  0.00     0.014 A 
ATOM     34  C   UNL A   1      35.454  34.606  28.898  1.00  0.00     0.014 A 
ATOM     35  C   UNL A   1      35.023  33.168  31.251  1.00  0.00     0.010 A 
ATOM     36  C   UNL A   1      36.519  33.960  29.517  1.00  0.00     0.010 A 
ATOM     37  C   UNL A   1      36.316  33.244  30.707  1.00  0.00    -0.014 A 
BRANCH  37  38
ATOM     38  C   UNL A   1      37.469  32.588  31.374  1.00  0.00     0.031 A 
ATOM     39  C   UNL A   1      38.180  31.446  30.703  1.00  0.00     0.074 A 
ATOM     40  C   UNL A   1      37.840  32.987  32.605  1.00  0.00     0.049 A 
ATOM     41  N   UNL A   1      39.175  30.717  31.142  1.00  0.00    -0.248 NA
ATOM     42  C   UNL A   1      37.694  31.054  29.371  1.00  0.00     0.031 C 
ATOM     43  C   UNL A   1      37.196  34.051  33.377  1.00  0.00     0.029 A 
ATOM     44  N   UNL A   1      38.844  32.541  33.427  1.00  0.00    -0.354 N 
ATOM     45  C   UNL A   1      39.423  29.779  30.149  1.00  0.00     0.074 A 
ATOM     46  C   UNL A   1      38.436  29.989  29.112  1.00  0.00     0.031 C 
ATOM     47  C   UNL A   1      37.839  34.195  34.547  1.00  0.00     0.029 A 
ATOM     48  C   UNL A   1      38.911  33.207  34.626  1.00  0.00     0.049 A 
ATOM     49  H   UNL A   1      39.459  31.814  33.179  1.00  0.00     0.167 HD
ATOM     50  C   UNL A   1      40.402  28.844  30.096  1.00  0.00     0.037 A 
ATOM     51  C   UNL A   1      39.739  33.035  35.674  1.00  0.00     0.037 A 
ATOM     52  C   UNL A   1      41.392  28.651  31.123  1.00  0.00     0.049 A 
ATOM     53  C   UNL A   1      40.807  31.976  35.595  1.00  0.00     0.074 A 
ATOM     54  C   UNL A   1      42.457  27.769  31.141  1.00  0.00     0.029 A 
ATOM     55  N   UNL A   1      41.433  29.351  32.320  1.00  0.00    -0.354 N 
ATOM     56  N   UNL A   1      41.077  31.142  34.621  1.00  0.00    -0.248 NA
ATOM     57  C   UNL A   1      41.691  31.842  36.761  1.00  0.00     0.031 C 
ATOM     58  C   UNL A   1      43.107  27.893  32.372  1.00  0.00     0.029 A 
ATOM     59  C   UNL A   1      42.489  28.900  33.096  1.00  0.00     0.049 A 
ATOM     60  H   UNL A   1      40.804  30.062  32.581  1.00  0.00     0.167 HD
ATOM     61  C   UNL A   1      42.180  30.410  35.039  1.00  0.00     0.074 A 
ATOM     62  C   UNL A   1      42.538  30.909  36.351  1.00  0.00     0.031 C 
ATOM     63  C   UNL A   1      42.839  29.414  34.397  1.00  0.00     0.037 A 
BRANCH  50  64
ATOM     64  C   UNL A   1      40.450  27.955  28.884  1.00  0.00     0.064 A 
ATOM     65  C   UNL A   1      41.223  28.280  27.759  1.00  0.00     0.173 A 
ATOM     66  C   UNL A   1      39.741  26.744  28.862  1.00  0.00     0.173 A 
ATOM     67  F   UNL A   1      41.912  29.431  27.723  1.00  0.00    -0.203 F 
ATOM     68  C   UNL A   1      41.259  27.445  26.646  1.00  0.00     0.198 A 
ATOM     69  C   UNL A   1      39.807  25.893  27.762  1.00  0.00     0.198 A 
ATOM     70  F   UNL A   1      38.990  26.379  29.912  1.00  0.00    -0.203 F 
ATOM     71  F   UNL A   1      41.961  27.804  25.562  1.00  0.00    -0.200 F 
ATOM     72  C   UNL A   1      40.558  26.248  26.651  1.00  0.00     0.200 A 
ATOM     73  F   UNL A   1      39.141  24.731  27.775  1.00  0.00    -0.200 F 
ATOM     74  F   UNL A   1      40.600  25.441  25.583  1.00  0.00    -0.200 F 
ENDBRANCH  50  64
BRANCH  51  75
ATOM     75  C   UNL A   1      39.606  33.896  36.879  1.00  0.00     0.064 A 
ATOM     76  C   UNL A   1      38.833  33.487  37.974  1.00  0.00     0.173 A 
ATOM     77  C   UNL A   1      40.234  35.147  36.957  1.00  0.00     0.173 A 
ATOM     78  F   UNL A   1      38.195  32.307  37.942  1.00  0.00    -0.203 F 
ATOM     79  C   UNL A   1      38.671  34.307  39.089  1.00  0.00     0.198 A 
ATOM     80  C   UNL A   1      40.100  35.953  38.086  1.00  0.00     0.198 A 
ATOM     81  F   UNL A   1      40.991  35.584  35.939  1.00  0.00    -0.203 F 
ATOM     82  F   UNL A   1      37.883  33.914  40.099  1.00  0.00    -0.200 F 
ATOM     83  C   UNL A   1      39.311  35.537  39.147  1.00  0.00     0.200 A 
ATOM     84  F   UNL A   1      40.732  37.132  38.144  1.00  0.00    -0.200 F 
ATOM     85  F   UNL A   1      39.157  36.325  40.220  1.00  0.00    -0.200 F 
ENDBRANCH  51  75
BRANCH  63  86
ATOM     86  C   UNL A   1      44.040  28.827  35.082  1.00  0.00     0.064 A 
ATOM     87  C   UNL A   1      43.940  27.714  35.931  1.00  0.00     0.173 A 
ATOM     88  C   UNL A   1      45.316  29.368  34.858  1.00  0.00     0.173 A 
ATOM     89  F   UNL A   1      42.742  27.167  36.189  1.00  0.00    -0.203 F 
ATOM     90  C   UNL A   1      45.067  27.187  36.556  1.00  0.00     0.198 A 
ATOM     91  C   UNL A   1      46.445  28.815  35.456  1.00  0.00     0.198 A 
ATOM     92  F   UNL A   1      45.470  30.426  34.049  1.00  0.00    -0.203 F 
ATOM     93  F   UNL A   1      44.940  26.161  37.407  1.00  0.00    -0.200 F 
ATOM     94  C   UNL A   1      46.319  27.733  36.312  1.00  0.00     0.200 A 
ATOM     95  F   UNL A   1      47.655  29.333  35.204  1.00  0.00    -0.200 F 
ATOM     96  F   UNL A   1      47.403  27.218  36.908  1.00  0.00    -0.200 F 
ENDBRANCH  63  86
ENDBRANCH  37  38
ENDBRANCH  29  32
ENDBRANCH  27  28
ENDBRANCH  26  27
ENDBRANCH  25  26
ENDBRANCH   1  25
TORSDOF 17
ENDMDL
