MODEL 1
REMARK VINA RESULT:     -12.3      0.000      0.000
REMARK SMILES CC1(C)O[C@](C)(C(C)(C)O)CC[C@H]1C(=O)NCCCCCCNC(=O)c1ccc(-c2c3nc(c(-c4c(F)c(F)c(F)c(F)c4F)c4ccc([nH]4)c(-c4c(F)c(F)c(F)c(F)c4F)c4nc(c(-c5c(F)c(F)c(F)c(F)c5F)c5ccc2[nH]5)C=C4)C=C3)cc1
REMARK SMILES IDX 19 1 18 2 17 3 16 4 14 5 15 6 13 8 1 9 2 10 3 11 4 12 5 13
REMARK SMILES IDX 12 14 6 15 11 16 7 17 8 18 9 19 10 20 20 22 21 23 22 24
REMARK SMILES IDX 23 25 24 26 25 28 26 29 27 30 88 31 28 32 87 33 29 34 30 35
REMARK SMILES IDX 31 36 81 37 32 38 86 39 80 40 82 41 33 42 85 43 79 44 78 45
REMARK SMILES IDX 34 47 66 48 46 49 65 50 47 51 50 52 64 53 83 54 48 55 49 56
REMARK SMILES IDX 63 58 84 59 51 60 35 61 36 62 44 63 37 64 38 65 42 66 45 67
REMARK SMILES IDX 39 68 40 69 43 70 41 71 67 72 68 73 76 74 69 75 70 76 74 77
REMARK SMILES IDX 77 78 71 79 72 80 75 81 73 82 52 83 53 84 61 85 54 86 55 87
REMARK SMILES IDX 59 88 62 89 56 90 57 91 60 92 58 93
REMARK H PARENT 16 7 10 21 23 27 82 46 50 57
REMARK Flexibility Score: inf
ROOT
ATOM      1  C   UNL A   1      31.379  29.750  25.098  1.00  0.00     0.002 C 
ENDROOT
BRANCH   1   2
ATOM      2  C   UNL A   1      32.054  28.433  24.724  1.00  0.00     0.021 C 
BRANCH   2   3
ATOM      3  C   UNL A   1      31.232  27.593  23.749  1.00  0.00     0.116 C 
BRANCH   3   4
ATOM      4  N   UNL A   1      32.066  27.142  22.667  1.00  0.00    -0.356 N 
ATOM      5  C   UNL A   1      32.973  26.139  22.628  1.00  0.00     0.226 C 
ATOM      6  O   UNL A   1      33.679  26.063  21.618  1.00  0.00    -0.275 OA
ATOM      7  H   UNL A   1      31.959  27.640  21.824  1.00  0.00     0.163 HD
BRANCH   5   8
ATOM      8  C   UNL A   1      33.092  25.095  23.733  1.00  0.00     0.110 C 
ATOM      9  C   UNL A   1      30.987  23.821  23.323  1.00  0.00     0.043 C 
ATOM     10  C   UNL A   1      32.523  23.663  23.485  1.00  0.00     0.075 C 
ATOM     11  C   UNL A   1      32.916  22.764  22.298  1.00  0.00     0.043 C 
ATOM     12  O   UNL A   1      32.747  22.850  24.661  1.00  0.00    -0.366 OA
ATOM     13  C   UNL A   1      34.081  22.804  25.227  1.00  0.00     0.094 C 
ATOM     14  C   UNL A   1      34.417  25.208  24.503  1.00  0.00     0.019 C 
ATOM     15  C   UNL A   1      35.182  22.313  24.251  1.00  0.00     0.045 C 
ATOM     16  C   UNL A   1      34.440  24.233  25.680  1.00  0.00     0.039 C 
BRANCH  13  17
ATOM     17  C   UNL A   1      34.025  21.785  26.436  1.00  0.00     0.088 C 
ATOM     18  C   UNL A   1      33.294  22.343  27.663  1.00  0.00     0.045 C 
ATOM     19  C   UNL A   1      33.330  20.470  26.026  1.00  0.00     0.045 C 
BRANCH  17  20
ATOM     20  O   UNL A   1      35.363  21.460  26.847  1.00  0.00    -0.387 OA
ATOM     21  H   UNL A   1      35.709  22.166  27.414  1.00  0.00     0.211 HD
ENDBRANCH  17  20
ENDBRANCH  13  17
ENDBRANCH   5   8
ENDBRANCH   3   4
ENDBRANCH   2   3
ENDBRANCH   1   2
BRANCH   1  22
ATOM     22  C   UNL A   1      31.802  30.300  26.463  1.00  0.00     0.002 C 
BRANCH  22  23
ATOM     23  C   UNL A   1      31.639  31.816  26.615  1.00  0.00     0.021 C 
BRANCH  23  24
ATOM     24  C   UNL A   1      32.814  32.501  27.306  1.00  0.00     0.116 C 
BRANCH  24  25
ATOM     25  N   UNL A   1      32.539  33.907  27.555  1.00  0.00    -0.352 N 
ATOM     26  C   UNL A   1      33.046  34.729  28.523  1.00  0.00     0.251 C 
ATOM     27  H   UNL A   1      31.896  34.326  26.939  1.00  0.00     0.163 HD
ATOM     28  O   UNL A   1      32.521  35.817  28.755  1.00  0.00    -0.269 OA
BRANCH  26  29
ATOM     29  C   UNL A   1      34.218  34.293  29.304  1.00  0.00     0.039 A 
ATOM     30  C   UNL A   1      34.014  33.585  30.488  1.00  0.00     0.014 A 
ATOM     31  C   UNL A   1      35.513  34.569  28.855  1.00  0.00     0.014 A 
ATOM     32  C   UNL A   1      35.112  33.088  31.189  1.00  0.00     0.010 A 
ATOM     33  C   UNL A   1      36.604  34.014  29.517  1.00  0.00     0.010 A 
ATOM     34  C   UNL A   1      36.412  33.259  30.684  1.00  0.00    -0.014 A 
BRANCH  34  35
ATOM     35  C   UNL A   1      37.575  32.605  31.336  1.00  0.00     0.031 A 
ATOM     36  C   UNL A   1      38.260  31.438  30.686  1.00  0.00     0.074 A 
ATOM     37  C   UNL A   1      37.960  33.029  32.557  1.00  0.00     0.049 A 
ATOM     38  N   UNL A   1      39.244  30.703  31.140  1.00  0.00    -0.248 NA
ATOM     39  C   UNL A   1      37.765  31.026  29.363  1.00  0.00     0.031 C 
ATOM     40  C   UNL A   1      37.337  34.121  33.309  1.00  0.00     0.029 A 
ATOM     41  N   UNL A   1      38.959  32.586  33.388  1.00  0.00    -0.354 N 
ATOM     42  C   UNL A   1      39.477  29.741  30.168  1.00  0.00     0.074 A 
ATOM     43  C   UNL A   1      38.508  29.956  29.115  1.00  0.00     0.031 C 
ATOM     44  C   UNL A   1      37.974  34.270  34.481  1.00  0.00     0.029 A 
ATOM     45  C   UNL A   1      39.018  33.256  34.586  1.00  0.00     0.049 A 
ATOM     46  H   UNL A   1      39.575  31.856  33.148  1.00  0.00     0.167 HD
ATOM     47  C   UNL A   1      40.425  28.775  30.153  1.00  0.00     0.037 A 
ATOM     48  C   UNL A   1      39.809  33.062  35.659  1.00  0.00     0.037 A 
ATOM     49  C   UNL A   1      41.404  28.585  31.192  1.00  0.00     0.049 A 
ATOM     50  C   UNL A   1      40.840  31.964  35.614  1.00  0.00     0.074 A 
ATOM     51  C   UNL A   1      42.463  27.693  31.222  1.00  0.00     0.029 A 
ATOM     52  N   UNL A   1      41.440  29.288  32.387  1.00  0.00    -0.354 N 
ATOM     53  N   UNL A   1      41.116  31.127  34.646  1.00  0.00    -0.248 NA
ATOM     54  C   UNL A   1      41.670  31.787  36.815  1.00  0.00     0.031 C 
ATOM     55  C   UNL A   1      43.097  27.809  32.463  1.00  0.00     0.029 A 
ATOM     56  C   UNL A   1      42.473  28.816  33.180  1.00  0.00     0.049 A 
ATOM     57  H   UNL A   1      40.822  30.013  32.634  1.00  0.00     0.167 HD
ATOM     58  C   UNL A   1      42.162  30.339  35.109  1.00  0.00     0.074 A 
ATOM     59  C   UNL A   1      42.491  30.819  36.434  1.00  0.00     0.031 C 
ATOM     60  C   UNL A   1      42.788  29.305  34.497  1.00  0.00     0.037 A 
BRANCH  47  61
ATOM     61  C   UNL A   1      40.468  27.837  28.983  1.00  0.00     0.064 A 
ATOM     62  C   UNL A   1      39.674  26.682  28.934  1.00  0.00     0.173 A 
ATOM     63  C   UNL A   1      41.234  28.156  27.851  1.00  0.00     0.173 A 
ATOM     64  F   UNL A   1      38.930  26.328  29.993  1.00  0.00    -0.203 F 
ATOM     65  C   UNL A   1      39.651  25.876  27.799  1.00  0.00     0.198 A 
ATOM     66  C   UNL A   1      41.188  27.364  26.707  1.00  0.00     0.198 A 
ATOM     67  F   UNL A   1      42.005  29.254  27.844  1.00  0.00    -0.203 F 
ATOM     68  F   UNL A   1      38.904  24.765  27.782  1.00  0.00    -0.200 F 
ATOM     69  C   UNL A   1      40.398  26.225  26.682  1.00  0.00     0.200 A 
ATOM     70  F   UNL A   1      41.895  27.712  25.624  1.00  0.00    -0.200 F 
ATOM     71  F   UNL A   1      40.353  25.464  25.579  1.00  0.00    -0.200 F 
ENDBRANCH  47  61
BRANCH  48  72
ATOM     72  C   UNL A   1      39.649  33.901  36.877  1.00  0.00     0.064 A 
ATOM     73  C   UNL A   1      38.859  33.474  37.953  1.00  0.00     0.173 A 
ATOM     74  C   UNL A   1      40.242  35.170  36.970  1.00  0.00     0.173 A 
ATOM     75  F   UNL A   1      38.253  32.277  37.905  1.00  0.00    -0.203 F 
ATOM     76  C   UNL A   1      38.634  34.298  39.054  1.00  0.00     0.198 A 
ATOM     77  C   UNL A   1      40.048  35.977  38.088  1.00  0.00     0.198 A 
ATOM     78  F   UNL A   1      41.014  35.627  35.972  1.00  0.00    -0.203 F 
ATOM     79  F   UNL A   1      37.814  33.893  40.033  1.00  0.00    -0.200 F 
ATOM     80  C   UNL A   1      39.230  35.547  39.122  1.00  0.00     0.200 A 
ATOM     81  F   UNL A   1      40.642  37.176  38.157  1.00  0.00    -0.200 F 
ATOM     82  F   UNL A   1      39.007  36.342  40.176  1.00  0.00    -0.200 F 
ENDBRANCH  48  72
BRANCH  60  83
ATOM     83  C   UNL A   1      43.903  28.634  35.247  1.00  0.00     0.064 A 
ATOM     84  C   UNL A   1      43.662  27.546  36.100  1.00  0.00     0.173 A 
ATOM     85  C   UNL A   1      45.230  29.056  35.081  1.00  0.00     0.173 A 
ATOM     86  F   UNL A   1      42.408  27.115  36.305  1.00  0.00    -0.203 F 
ATOM     87  C   UNL A   1      44.705  26.924  36.779  1.00  0.00     0.198 A 
ATOM     88  C   UNL A   1      46.275  28.409  35.734  1.00  0.00     0.198 A 
ATOM     89  F   UNL A   1      45.516  30.087  34.271  1.00  0.00    -0.203 F 
ATOM     90  F   UNL A   1      44.445  25.922  37.629  1.00  0.00    -0.200 F 
ATOM     91  C   UNL A   1      46.011  27.350  36.588  1.00  0.00     0.200 A 
ATOM     92  F   UNL A   1      47.538  28.810  35.535  1.00  0.00    -0.200 F 
ATOM     93  F   UNL A   1      47.016  26.743  37.235  1.00  0.00    -0.200 F 
ENDBRANCH  60  83
ENDBRANCH  34  35
ENDBRANCH  26  29
ENDBRANCH  24  25
ENDBRANCH  23  24
ENDBRANCH  22  23
ENDBRANCH   1  22
TORSDOF 15
ENDMDL
MODEL 2
REMARK VINA RESULT:     -12.3      0.874      1.638
REMARK SMILES CC1(C)O[C@](C)(C(C)(C)O)CC[C@H]1C(=O)NCCCCCCNC(=O)c1ccc(-c2c3nc(c(-c4c(F)c(F)c(F)c(F)c4F)c4ccc([nH]4)c(-c4c(F)c(F)c(F)c(F)c4F)c4nc(c(-c5c(F)c(F)c(F)c(F)c5F)c5ccc2[nH]5)C=C4)C=C3)cc1
REMARK SMILES IDX 19 1 18 2 17 3 16 4 14 5 15 6 13 8 1 9 2 10 3 11 4 12 5 13
REMARK SMILES IDX 12 14 6 15 11 16 7 17 8 18 9 19 10 20 20 22 21 23 22 24
REMARK SMILES IDX 23 25 24 26 25 28 26 29 27 30 88 31 28 32 87 33 29 34 30 35
REMARK SMILES IDX 31 36 81 37 32 38 86 39 80 40 82 41 33 42 85 43 79 44 78 45
REMARK SMILES IDX 34 47 66 48 46 49 65 50 47 51 50 52 64 53 83 54 48 55 49 56
REMARK SMILES IDX 63 58 84 59 51 60 35 61 36 62 44 63 37 64 38 65 42 66 45 67
REMARK SMILES IDX 39 68 40 69 43 70 41 71 67 72 68 73 76 74 69 75 70 76 74 77
REMARK SMILES IDX 77 78 71 79 72 80 75 81 73 82 52 83 53 84 61 85 54 86 55 87
REMARK SMILES IDX 59 88 62 89 56 90 57 91 60 92 58 93
REMARK H PARENT 16 7 10 21 23 27 82 46 50 57
REMARK Flexibility Score: inf
ROOT
ATOM      1  C   UNL A   1      32.618  30.006  27.188  1.00  0.00     0.002 C 
ENDROOT
BRANCH   1   2
ATOM      2  C   UNL A   1      32.495  28.484  27.174  1.00  0.00     0.021 C 
BRANCH   2   3
ATOM      3  C   UNL A   1      33.616  27.798  26.398  1.00  0.00     0.116 C 
BRANCH   3   4
ATOM      4  N   UNL A   1      33.334  27.840  24.988  1.00  0.00    -0.356 N 
ATOM      5  C   UNL A   1      33.196  26.829  24.099  1.00  0.00     0.226 C 
ATOM      6  O   UNL A   1      33.118  27.142  22.907  1.00  0.00    -0.275 OA
ATOM      7  H   UNL A   1      33.223  28.744  24.613  1.00  0.00     0.163 HD
BRANCH   5   8
ATOM      8  C   UNL A   1      33.068  25.372  24.524  1.00  0.00     0.110 C 
ATOM      9  C   UNL A   1      30.802  25.444  25.564  1.00  0.00     0.043 C 
ATOM     10  C   UNL A   1      31.660  24.699  24.506  1.00  0.00     0.075 C 
ATOM     11  C   UNL A   1      30.738  24.643  23.273  1.00  0.00     0.043 C 
ATOM     12  O   UNL A   1      31.781  23.325  24.944  1.00  0.00    -0.366 OA
ATOM     13  C   UNL A   1      32.783  22.484  24.319  1.00  0.00     0.094 C 
ATOM     14  C   UNL A   1      34.265  24.523  24.068  1.00  0.00     0.019 C 
ATOM     15  C   UNL A   1      32.643  22.345  22.781  1.00  0.00     0.045 C 
ATOM     16  C   UNL A   1      34.162  23.103  24.625  1.00  0.00     0.039 C 
BRANCH  13  17
ATOM     17  C   UNL A   1      32.619  21.041  24.946  1.00  0.00     0.088 C 
ATOM     18  C   UNL A   1      32.526  19.931  23.892  1.00  0.00     0.045 C 
ATOM     19  C   UNL A   1      33.794  20.704  25.889  1.00  0.00     0.045 C 
BRANCH  17  20
ATOM     20  O   UNL A   1      31.411  20.994  25.724  1.00  0.00    -0.387 OA
ATOM     21  H   UNL A   1      31.399  20.183  26.254  1.00  0.00     0.211 HD
ENDBRANCH  17  20
ENDBRANCH  13  17
ENDBRANCH   5   8
ENDBRANCH   3   4
ENDBRANCH   2   3
ENDBRANCH   1   2
BRANCH   1  22
ATOM     22  C   UNL A   1      31.582  30.722  26.318  1.00  0.00     0.002 C 
BRANCH  22  23
ATOM     23  C   UNL A   1      31.413  32.212  26.629  1.00  0.00     0.021 C 
BRANCH  23  24
ATOM     24  C   UNL A   1      32.610  32.838  27.338  1.00  0.00     0.116 C 
BRANCH  24  25
ATOM     25  N   UNL A   1      32.381  34.245  27.627  1.00  0.00    -0.352 N 
ATOM     26  C   UNL A   1      32.955  35.035  28.585  1.00  0.00     0.251 C 
ATOM     27  H   UNL A   1      31.719  34.691  27.052  1.00  0.00     0.163 HD
ATOM     28  O   UNL A   1      32.468  36.130  28.863  1.00  0.00    -0.269 OA
BRANCH  26  29
ATOM     29  C   UNL A   1      34.153  34.557  29.297  1.00  0.00     0.039 A 
ATOM     30  C   UNL A   1      34.021  34.105  30.611  1.00  0.00     0.014 A 
ATOM     31  C   UNL A   1      35.398  34.539  28.662  1.00  0.00     0.014 A 
ATOM     32  C   UNL A   1      35.127  33.566  31.266  1.00  0.00     0.010 A 
ATOM     33  C   UNL A   1      36.484  33.938  29.291  1.00  0.00     0.010 A 
ATOM     34  C   UNL A   1      36.355  33.436  30.594  1.00  0.00    -0.014 A 
BRANCH  34  35
ATOM     35  C   UNL A   1      37.496  32.726  31.225  1.00  0.00     0.031 A 
ATOM     36  C   UNL A   1      38.141  31.556  30.540  1.00  0.00     0.074 A 
ATOM     37  C   UNL A   1      37.898  33.102  32.456  1.00  0.00     0.049 A 
ATOM     38  N   UNL A   1      39.101  30.776  30.970  1.00  0.00    -0.248 NA
ATOM     39  C   UNL A   1      37.630  31.198  29.207  1.00  0.00     0.031 C 
ATOM     40  C   UNL A   1      37.313  34.192  33.241  1.00  0.00     0.029 A 
ATOM     41  N   UNL A   1      38.883  32.602  33.271  1.00  0.00    -0.354 N 
ATOM     42  C   UNL A   1      39.300  29.834  29.971  1.00  0.00     0.074 A 
ATOM     43  C   UNL A   1      38.337  30.111  28.927  1.00  0.00     0.031 C 
ATOM     44  C   UNL A   1      37.956  34.286  34.414  1.00  0.00     0.029 A 
ATOM     45  C   UNL A   1      38.966  33.236  34.488  1.00  0.00     0.049 A 
ATOM     46  H   UNL A   1      39.474  31.860  33.009  1.00  0.00     0.167 HD
ATOM     47  C   UNL A   1      40.215  28.838  29.926  1.00  0.00     0.037 A 
ATOM     48  C   UNL A   1      39.753  32.985  35.552  1.00  0.00     0.037 A 
ATOM     49  C   UNL A   1      41.190  28.586  30.956  1.00  0.00     0.049 A 
ATOM     50  C   UNL A   1      40.746  31.855  35.474  1.00  0.00     0.074 A 
ATOM     51  C   UNL A   1      42.218  27.659  30.958  1.00  0.00     0.029 A 
ATOM     52  N   UNL A   1      41.251  29.253  32.170  1.00  0.00    -0.354 N 
ATOM     53  N   UNL A   1      40.993  31.037  34.481  1.00  0.00    -0.248 NA
ATOM     54  C   UNL A   1      41.572  31.616  36.666  1.00  0.00     0.031 C 
ATOM     55  C   UNL A   1      42.857  27.718  32.200  1.00  0.00     0.029 A 
ATOM     56  C   UNL A   1      42.269  28.725  32.947  1.00  0.00     0.049 A 
ATOM     57  H   UNL A   1      40.658  29.992  32.440  1.00  0.00     0.167 HD
ATOM     58  C   UNL A   1      42.012  30.202  34.920  1.00  0.00     0.074 A 
ATOM     59  C   UNL A   1      42.360  30.633  36.256  1.00  0.00     0.031 C 
ATOM     60  C   UNL A   1      42.602  29.166  34.277  1.00  0.00     0.037 A 
BRANCH  47  61
ATOM     61  C   UNL A   1      40.224  27.933  28.729  1.00  0.00     0.064 A 
ATOM     62  C   UNL A   1      40.939  28.254  27.567  1.00  0.00     0.173 A 
ATOM     63  C   UNL A   1      39.594  26.679  28.789  1.00  0.00     0.173 A 
ATOM     64  F   UNL A   1      41.551  29.442  27.457  1.00  0.00    -0.203 F 
ATOM     65  C   UNL A   1      41.019  27.357  26.505  1.00  0.00     0.198 A 
ATOM     66  C   UNL A   1      39.699  25.774  27.736  1.00  0.00     0.198 A 
ATOM     67  F   UNL A   1      38.903  26.321  29.881  1.00  0.00    -0.203 F 
ATOM     68  F   UNL A   1      41.688  27.693  25.394  1.00  0.00    -0.200 F 
ATOM     69  C   UNL A   1      40.410  26.114  26.595  1.00  0.00     0.200 A 
ATOM     70  F   UNL A   1      39.125  24.567  27.833  1.00  0.00    -0.200 F 
ATOM     71  F   UNL A   1      40.510  25.241  25.583  1.00  0.00    -0.200 F 
ENDBRANCH  47  61
BRANCH  48  72
ATOM     72  C   UNL A   1      39.623  33.794  36.795  1.00  0.00     0.064 A 
ATOM     73  C   UNL A   1      38.812  33.368  37.855  1.00  0.00     0.173 A 
ATOM     74  C   UNL A   1      40.267  35.034  36.925  1.00  0.00     0.173 A 
ATOM     75  F   UNL A   1      38.159  32.199  37.771  1.00  0.00    -0.203 F 
ATOM     76  C   UNL A   1      38.617  34.168  38.980  1.00  0.00     0.198 A 
ATOM     77  C   UNL A   1      40.102  35.815  38.066  1.00  0.00     0.198 A 
ATOM     78  F   UNL A   1      41.060  35.488  35.943  1.00  0.00    -0.203 F 
ATOM     79  F   UNL A   1      37.779  33.768  39.945  1.00  0.00    -0.200 F 
ATOM     80  C   UNL A   1      39.264  35.389  39.086  1.00  0.00     0.200 A 
ATOM     81  F   UNL A   1      40.744  36.987  38.172  1.00  0.00    -0.200 F 
ATOM     82  F   UNL A   1      39.070  36.162  40.162  1.00  0.00    -0.200 F 
ENDBRANCH  48  72
BRANCH  60  83
ATOM     83  C   UNL A   1      43.695  28.437  35.003  1.00  0.00     0.064 A 
ATOM     84  C   UNL A   1      43.428  27.296  35.776  1.00  0.00     0.173 A 
ATOM     85  C   UNL A   1      45.029  28.858  34.896  1.00  0.00     0.173 A 
ATOM     86  F   UNL A   1      42.167  26.861  35.924  1.00  0.00    -0.203 F 
ATOM     87  C   UNL A   1      44.452  26.621  36.435  1.00  0.00     0.198 A 
ATOM     88  C   UNL A   1      46.055  28.160  35.527  1.00  0.00     0.198 A 
ATOM     89  F   UNL A   1      45.340  29.939  34.164  1.00  0.00    -0.203 F 
ATOM     90  F   UNL A   1      44.166  25.566  37.209  1.00  0.00    -0.200 F 
ATOM     91  C   UNL A   1      45.765  27.048  36.302  1.00  0.00     0.200 A 
ATOM     92  F   UNL A   1      47.324  28.564  35.384  1.00  0.00    -0.200 F 
ATOM     93  F   UNL A   1      46.751  26.391  36.929  1.00  0.00    -0.200 F 
ENDBRANCH  60  83
ENDBRANCH  34  35
ENDBRANCH  26  29
ENDBRANCH  24  25
ENDBRANCH  23  24
ENDBRANCH  22  23
ENDBRANCH   1  22
TORSDOF 15
ENDMDL
MODEL 3
REMARK VINA RESULT:     -12.1      5.507     10.800
REMARK SMILES CC1(C)O[C@](C)(C(C)(C)O)CC[C@H]1C(=O)NCCCCCCNC(=O)c1ccc(-c2c3nc(c(-c4c(F)c(F)c(F)c(F)c4F)c4ccc([nH]4)c(-c4c(F)c(F)c(F)c(F)c4F)c4nc(c(-c5c(F)c(F)c(F)c(F)c5F)c5ccc2[nH]5)C=C4)C=C3)cc1
REMARK SMILES IDX 19 1 18 2 17 3 16 4 14 5 15 6 13 8 1 9 2 10 3 11 4 12 5 13
REMARK SMILES IDX 12 14 6 15 11 16 7 17 8 18 9 19 10 20 20 22 21 23 22 24
REMARK SMILES IDX 23 25 24 26 25 28 26 29 27 30 88 31 28 32 87 33 29 34 30 35
REMARK SMILES IDX 31 36 81 37 32 38 86 39 80 40 82 41 33 42 85 43 79 44 78 45
REMARK SMILES IDX 34 47 66 48 46 49 65 50 47 51 50 52 64 53 83 54 48 55 49 56
REMARK SMILES IDX 63 58 84 59 51 60 35 61 36 62 44 63 37 64 38 65 42 66 45 67
REMARK SMILES IDX 39 68 40 69 43 70 41 71 67 72 68 73 76 74 69 75 70 76 74 77
REMARK SMILES IDX 77 78 71 79 72 80 75 81 73 82 52 83 53 84 61 85 54 86 55 87
REMARK SMILES IDX 59 88 62 89 56 90 57 91 60 92 58 93
REMARK H PARENT 16 7 10 21 23 27 82 46 50 57
REMARK Flexibility Score: inf
ROOT
ATOM      1  C   UNL A   1      35.905  21.191  25.675  1.00  0.00     0.002 C 
ENDROOT
BRANCH   1   2
ATOM      2  C   UNL A   1      34.902  22.315  25.429  1.00  0.00     0.021 C 
BRANCH   2   3
ATOM      3  C   UNL A   1      33.502  21.809  25.095  1.00  0.00     0.116 C 
BRANCH   3   4
ATOM      4  N   UNL A   1      32.568  22.248  26.098  1.00  0.00    -0.356 N 
ATOM      5  C   UNL A   1      32.123  23.494  26.385  1.00  0.00     0.226 C 
ATOM      6  O   UNL A   1      31.445  23.622  27.408  1.00  0.00    -0.275 OA
ATOM      7  H   UNL A   1      32.196  21.532  26.662  1.00  0.00     0.163 HD
BRANCH   5   8
ATOM      8  C   UNL A   1      32.371  24.686  25.469  1.00  0.00     0.110 C 
ATOM      9  C   UNL A   1      30.709  24.183  23.678  1.00  0.00     0.043 C 
ATOM     10  C   UNL A   1      31.174  25.287  24.667  1.00  0.00     0.075 C 
ATOM     11  C   UNL A   1      29.859  25.775  25.302  1.00  0.00     0.043 C 
ATOM     12  O   UNL A   1      31.642  26.402  23.872  1.00  0.00    -0.366 OA
ATOM     13  C   UNL A   1      32.422  27.437  24.523  1.00  0.00     0.094 C 
ATOM     14  C   UNL A   1      33.395  25.670  26.055  1.00  0.00     0.019 C 
ATOM     15  C   UNL A   1      31.709  28.134  25.711  1.00  0.00     0.045 C 
ATOM     16  C   UNL A   1      33.712  26.779  25.053  1.00  0.00     0.039 C 
BRANCH  13  17
ATOM     17  C   UNL A   1      32.714  28.540  23.428  1.00  0.00     0.088 C 
ATOM     18  C   UNL A   1      33.721  28.085  22.365  1.00  0.00     0.045 C 
ATOM     19  C   UNL A   1      31.419  28.965  22.704  1.00  0.00     0.045 C 
BRANCH  17  20
ATOM     20  O   UNL A   1      33.260  29.708  24.062  1.00  0.00    -0.387 OA
ATOM     21  H   UNL A   1      32.695  30.473  23.875  1.00  0.00     0.211 HD
ENDBRANCH  17  20
ENDBRANCH  13  17
ENDBRANCH   5   8
ENDBRANCH   3   4
ENDBRANCH   2   3
ENDBRANCH   1   2
BRANCH   1  22
ATOM     22  C   UNL A   1      37.078  21.176  24.690  1.00  0.00     0.002 C 
BRANCH  22  23
ATOM     23  C   UNL A   1      38.061  20.019  24.892  1.00  0.00     0.021 C 
BRANCH  23  24
ATOM     24  C   UNL A   1      39.168  20.312  25.899  1.00  0.00     0.116 C 
BRANCH  24  25
ATOM     25  N   UNL A   1      40.147  19.238  25.943  1.00  0.00    -0.352 N 
ATOM     26  C   UNL A   1      41.506  19.311  26.079  1.00  0.00     0.251 C 
ATOM     27  H   UNL A   1      39.778  18.329  25.863  1.00  0.00     0.163 HD
ATOM     28  O   UNL A   1      42.210  18.330  25.841  1.00  0.00    -0.269 OA
BRANCH  26  29
ATOM     29  C   UNL A   1      42.126  20.581  26.495  1.00  0.00     0.039 A 
ATOM     30  C   UNL A   1      42.690  21.407  25.521  1.00  0.00     0.014 A 
ATOM     31  C   UNL A   1      42.132  20.962  27.840  1.00  0.00     0.014 A 
ATOM     32  C   UNL A   1      43.199  22.652  25.888  1.00  0.00     0.010 A 
ATOM     33  C   UNL A   1      42.577  22.233  28.194  1.00  0.00     0.010 A 
ATOM     34  C   UNL A   1      43.103  23.093  27.219  1.00  0.00    -0.014 A 
BRANCH  34  35
ATOM     35  C   UNL A   1      43.500  24.474  27.594  1.00  0.00     0.031 A 
ATOM     36  C   UNL A   1      42.461  25.496  27.955  1.00  0.00     0.074 A 
ATOM     37  C   UNL A   1      44.802  24.817  27.535  1.00  0.00     0.049 A 
ATOM     38  N   UNL A   1      42.618  26.764  28.242  1.00  0.00    -0.248 NA
ATOM     39  C   UNL A   1      41.060  25.045  27.977  1.00  0.00     0.031 C 
ATOM     40  C   UNL A   1      45.896  23.922  27.148  1.00  0.00     0.029 A 
ATOM     41  N   UNL A   1      45.429  26.012  27.785  1.00  0.00    -0.354 N 
ATOM     42  C   UNL A   1      41.342  27.262  28.467  1.00  0.00     0.074 A 
ATOM     43  C   UNL A   1      40.416  26.172  28.245  1.00  0.00     0.031 C 
ATOM     44  C   UNL A   1      47.056  24.594  27.199  1.00  0.00     0.029 A 
ATOM     45  C   UNL A   1      46.787  25.978  27.575  1.00  0.00     0.049 A 
ATOM     46  H   UNL A   1      44.951  26.818  28.087  1.00  0.00     0.167 HD
ATOM     47  C   UNL A   1      40.982  28.512  28.838  1.00  0.00     0.037 A 
ATOM     48  C   UNL A   1      47.709  26.957  27.654  1.00  0.00     0.037 A 
ATOM     49  C   UNL A   1      41.913  29.583  29.085  1.00  0.00     0.049 A 
ATOM     50  C   UNL A   1      47.269  28.342  28.052  1.00  0.00     0.074 A 
ATOM     51  C   UNL A   1      41.650  30.859  29.555  1.00  0.00     0.029 A 
ATOM     52  N   UNL A   1      43.281  29.511  28.870  1.00  0.00    -0.354 N 
ATOM     53  N   UNL A   1      46.071  28.773  28.360  1.00  0.00    -0.248 NA
ATOM     54  C   UNL A   1      48.312  29.376  28.112  1.00  0.00     0.031 C 
ATOM     55  C   UNL A   1      42.849  31.579  29.559  1.00  0.00     0.029 A 
ATOM     56  C   UNL A   1      43.867  30.733  29.153  1.00  0.00     0.049 A 
ATOM     57  H   UNL A   1      43.763  28.709  28.562  1.00  0.00     0.167 HD
ATOM     58  C   UNL A   1      46.219  30.119  28.671  1.00  0.00     0.074 A 
ATOM     59  C   UNL A   1      47.627  30.425  28.543  1.00  0.00     0.031 C 
ATOM     60  C   UNL A   1      45.272  31.022  29.022  1.00  0.00     0.037 A 
BRANCH  47  61
ATOM     61  C   UNL A   1      39.522  28.812  29.008  1.00  0.00     0.064 A 
ATOM     62  C   UNL A   1      38.875  28.653  30.242  1.00  0.00     0.173 A 
ATOM     63  C   UNL A   1      38.788  29.366  27.948  1.00  0.00     0.173 A 
ATOM     64  F   UNL A   1      39.530  28.120  31.284  1.00  0.00    -0.203 F 
ATOM     65  C   UNL A   1      37.545  29.030  30.407  1.00  0.00     0.198 A 
ATOM     66  C   UNL A   1      37.466  29.768  28.124  1.00  0.00     0.198 A 
ATOM     67  F   UNL A   1      39.362  29.546  26.749  1.00  0.00    -0.203 F 
ATOM     68  F   UNL A   1      36.939  28.848  31.588  1.00  0.00    -0.200 F 
ATOM     69  C   UNL A   1      36.846  29.599  29.352  1.00  0.00     0.200 A 
ATOM     70  F   UNL A   1      36.799  30.334  27.109  1.00  0.00    -0.200 F 
ATOM     71  F   UNL A   1      35.574  29.987  29.520  1.00  0.00    -0.200 F 
ENDBRANCH  47  61
BRANCH  48  72
ATOM     72  C   UNL A   1      49.134  26.680  27.329  1.00  0.00     0.064 A 
ATOM     73  C   UNL A   1      50.034  26.256  28.315  1.00  0.00     0.173 A 
ATOM     74  C   UNL A   1      49.637  26.884  26.034  1.00  0.00     0.173 A 
ATOM     75  F   UNL A   1      49.607  26.065  29.573  1.00  0.00    -0.203 F 
ATOM     76  C   UNL A   1      51.388  26.085  28.032  1.00  0.00     0.198 A 
ATOM     77  C   UNL A   1      50.983  26.676  25.743  1.00  0.00     0.198 A 
ATOM     78  F   UNL A   1      48.820  27.284  25.049  1.00  0.00    -0.203 F 
ATOM     79  F   UNL A   1      52.237  25.750  29.012  1.00  0.00    -0.200 F 
ATOM     80  C   UNL A   1      51.861  26.293  26.746  1.00  0.00     0.200 A 
ATOM     81  F   UNL A   1      51.433  26.860  24.494  1.00  0.00    -0.200 F 
ATOM     82  F   UNL A   1      53.163  26.137  26.475  1.00  0.00    -0.200 F 
ENDBRANCH  48  72
BRANCH  60  83
ATOM     83  C   UNL A   1      45.730  32.423  29.308  1.00  0.00     0.064 A 
ATOM     84  C   UNL A   1      45.749  33.408  28.308  1.00  0.00     0.173 A 
ATOM     85  C   UNL A   1      46.116  32.797  30.604  1.00  0.00     0.173 A 
ATOM     86  F   UNL A   1      45.404  33.097  27.049  1.00  0.00    -0.203 F 
ATOM     87  C   UNL A   1      46.163  34.706  28.589  1.00  0.00     0.198 A 
ATOM     88  C   UNL A   1      46.496  34.106  30.889  1.00  0.00     0.198 A 
ATOM     89  F   UNL A   1      46.110  31.896  31.598  1.00  0.00    -0.203 F 
ATOM     90  F   UNL A   1      46.224  35.615  27.607  1.00  0.00    -0.200 F 
ATOM     91  C   UNL A   1      46.527  35.056  29.881  1.00  0.00     0.200 A 
ATOM     92  F   UNL A   1      46.831  34.446  32.141  1.00  0.00    -0.200 F 
ATOM     93  F   UNL A   1      46.916  36.310  30.152  1.00  0.00    -0.200 F 
ENDBRANCH  60  83
ENDBRANCH  34  35
ENDBRANCH  26  29
ENDBRANCH  24  25
ENDBRANCH  23  24
ENDBRANCH  22  23
ENDBRANCH   1  22
TORSDOF 15
ENDMDL
