MODEL 1
REMARK VINA RESULT:     -12.6      0.000      0.000
REMARK SMILES O=C(NCCCCCCNC(=O)c1cnccc1C(=O)Nc1ccc(Cl)c(Cl)c1)c1ccc(-c2c3nc(c(-c4c(F)c(F)c(F)c(F)c4F)c4ccc([nH]4)c(-c4c(F)c(F)c(F)c(F)c4F)c4nc(c(-c5c(F)c(F)c(F)c(F)c5F)c5ccc2[nH]5)C=C4)C=C3)cc1
REMARK SMILES IDX 6 1 5 2 4 3 3 4 1 5 2 6 30 8 31 9 92 10 32 11 91 12 33 13
REMARK SMILES IDX 34 14 35 15 85 16 36 17 90 18 84 19 86 20 37 21 89 22 83 23
REMARK SMILES IDX 82 24 38 26 70 27 50 28 69 29 51 30 54 31 68 32 87 33 52 34
REMARK SMILES IDX 53 35 67 37 88 38 55 39 39 40 40 41 48 42 41 43 42 44 46 45
REMARK SMILES IDX 49 46 43 47 44 48 47 49 45 50 71 51 72 52 80 53 73 54 74 55
REMARK SMILES IDX 78 56 81 57 75 58 76 59 79 60 77 61 56 62 57 63 65 64 58 65
REMARK SMILES IDX 59 66 63 67 66 68 60 69 61 70 64 71 62 72 7 73 8 74 9 75
REMARK SMILES IDX 10 76 11 77 12 79 13 80 14 81 18 82 15 83 17 84 16 85 19 86
REMARK SMILES IDX 20 87 21 88 22 90 23 91 29 92 24 93 27 94 25 95 28 96 26 97
REMARK H PARENT 3 7 86 25 54 36 10 78 21 89
REMARK Flexibility Score: inf
ROOT
ATOM      1  C   UNL A   1      31.778  30.737  26.291  1.00  0.00     0.002 C 
ENDROOT
BRANCH   1   2
ATOM      2  C   UNL A   1      31.497  32.090  26.940  1.00  0.00     0.021 C 
BRANCH   2   3
ATOM      3  C   UNL A   1      32.712  32.984  27.121  1.00  0.00     0.116 C 
BRANCH   3   4
ATOM      4  N   UNL A   1      32.395  34.292  27.662  1.00  0.00    -0.352 N 
ATOM      5  O   UNL A   1      32.589  36.003  29.131  1.00  0.00    -0.269 OA
ATOM      6  C   UNL A   1      33.007  34.935  28.714  1.00  0.00     0.251 C 
ATOM      7  H   UNL A   1      31.657  34.776  27.227  1.00  0.00     0.163 HD
BRANCH   6   8
ATOM      8  C   UNL A   1      34.167  34.284  29.360  1.00  0.00     0.039 A 
ATOM      9  C   UNL A   1      33.984  33.416  30.441  1.00  0.00     0.014 A 
ATOM     10  C   UNL A   1      35.450  34.573  28.891  1.00  0.00     0.014 A 
ATOM     11  C   UNL A   1      35.089  32.920  31.121  1.00  0.00     0.010 A 
ATOM     12  C   UNL A   1      36.559  34.013  29.530  1.00  0.00     0.010 A 
ATOM     13  C   UNL A   1      36.385  33.195  30.657  1.00  0.00    -0.014 A 
BRANCH  13  14
ATOM     14  C   UNL A   1      37.544  32.518  31.286  1.00  0.00     0.031 A 
ATOM     15  C   UNL A   1      38.241  31.375  30.611  1.00  0.00     0.074 A 
ATOM     16  C   UNL A   1      37.941  32.945  32.499  1.00  0.00     0.049 A 
ATOM     17  N   UNL A   1      39.229  30.639  31.054  1.00  0.00    -0.248 NA
ATOM     18  C   UNL A   1      37.768  30.999  29.270  1.00  0.00     0.031 C 
ATOM     19  C   UNL A   1      37.316  34.037  33.250  1.00  0.00     0.029 A 
ATOM     20  N   UNL A   1      38.952  32.515  33.318  1.00  0.00    -0.354 N 
ATOM     21  C   UNL A   1      39.479  29.699  30.064  1.00  0.00     0.074 A 
ATOM     22  C   UNL A   1      38.535  29.951  28.996  1.00  0.00     0.031 C 
ATOM     23  C   UNL A   1      37.966  34.202  34.411  1.00  0.00     0.029 A 
ATOM     24  C   UNL A   1      39.008  33.189  34.513  1.00  0.00     0.049 A 
ATOM     25  H   UNL A   1      39.575  31.793  33.075  1.00  0.00     0.167 HD
ATOM     26  C   UNL A   1      40.415  28.720  30.058  1.00  0.00     0.037 A 
ATOM     27  C   UNL A   1      39.787  32.989  35.592  1.00  0.00     0.037 A 
ATOM     28  C   UNL A   1      41.369  28.504  31.116  1.00  0.00     0.049 A 
ATOM     29  C   UNL A   1      40.797  31.880  35.560  1.00  0.00     0.074 A 
ATOM     30  C   UNL A   1      42.418  27.602  31.160  1.00  0.00     0.029 A 
ATOM     31  N   UNL A   1      41.381  29.191  32.321  1.00  0.00    -0.354 N 
ATOM     32  N   UNL A   1      41.065  31.039  34.593  1.00  0.00    -0.248 NA
ATOM     33  C   UNL A   1      41.603  31.685  36.771  1.00  0.00     0.031 C 
ATOM     34  C   UNL A   1      43.033  27.708  32.412  1.00  0.00     0.029 A 
ATOM     35  C   UNL A   1      42.393  28.704  33.133  1.00  0.00     0.049 A 
ATOM     36  H   UNL A   1      40.761  29.916  32.565  1.00  0.00     0.167 HD
ATOM     37  C   UNL A   1      42.070  30.214  35.075  1.00  0.00     0.074 A 
ATOM     38  C   UNL A   1      42.382  30.675  36.413  1.00  0.00     0.031 C 
ATOM     39  C   UNL A   1      42.675  29.166  34.466  1.00  0.00     0.037 A 
BRANCH  26  40
ATOM     40  C   UNL A   1      40.457  27.788  28.884  1.00  0.00     0.064 A 
ATOM     41  C   UNL A   1      39.663  26.635  28.827  1.00  0.00     0.173 A 
ATOM     42  C   UNL A   1      41.239  28.104  27.762  1.00  0.00     0.173 A 
ATOM     43  F   UNL A   1      38.903  26.287  29.876  1.00  0.00    -0.203 F 
ATOM     44  C   UNL A   1      39.656  25.827  27.692  1.00  0.00     0.198 A 
ATOM     45  C   UNL A   1      41.214  27.305  26.622  1.00  0.00     0.198 A 
ATOM     46  F   UNL A   1      42.012  29.201  27.764  1.00  0.00    -0.203 F 
ATOM     47  F   UNL A   1      38.904  24.717  27.666  1.00  0.00    -0.200 F 
ATOM     48  C   UNL A   1      40.424  26.167  26.588  1.00  0.00     0.200 A 
ATOM     49  F   UNL A   1      41.948  27.642  25.552  1.00  0.00    -0.200 F 
ATOM     50  F   UNL A   1      40.403  25.395  25.492  1.00  0.00    -0.200 F 
ENDBRANCH  26  40
BRANCH  27  51
ATOM     51  C   UNL A   1      39.606  33.838  36.795  1.00  0.00     0.064 A 
ATOM     52  C   UNL A   1      40.221  35.092  36.894  1.00  0.00     0.173 A 
ATOM     53  C   UNL A   1      38.792  33.421  37.860  1.00  0.00     0.173 A 
ATOM     54  F   UNL A   1      41.022  35.525  35.909  1.00  0.00    -0.203 F 
ATOM     55  C   UNL A   1      40.038  35.893  38.019  1.00  0.00     0.198 A 
ATOM     56  C   UNL A   1      38.588  34.234  38.969  1.00  0.00     0.198 A 
ATOM     57  F   UNL A   1      38.177  32.230  37.807  1.00  0.00    -0.203 F 
ATOM     58  F   UNL A   1      40.665  37.074  38.106  1.00  0.00    -0.200 F 
ATOM     59  C   UNL A   1      39.216  35.467  39.053  1.00  0.00     0.200 A 
ATOM     60  F   UNL A   1      37.778  33.825  39.957  1.00  0.00    -0.200 F 
ATOM     61  F   UNL A   1      39.033  36.243  40.129  1.00  0.00    -0.200 F 
ENDBRANCH  27  51
BRANCH  39  62
ATOM     62  C   UNL A   1      43.729  28.446  35.250  1.00  0.00     0.064 A 
ATOM     63  C   UNL A   1      43.408  27.344  36.056  1.00  0.00     0.173 A 
ATOM     64  C   UNL A   1      45.073  28.838  35.169  1.00  0.00     0.173 A 
ATOM     65  F   UNL A   1      42.133  26.947  36.179  1.00  0.00    -0.203 F 
ATOM     66  C   UNL A   1      44.396  26.670  36.768  1.00  0.00     0.198 A 
ATOM     67  C   UNL A   1      46.061  28.147  35.863  1.00  0.00     0.198 A 
ATOM     68  F   UNL A   1      45.427  29.885  34.409  1.00  0.00    -0.203 F 
ATOM     69  F   UNL A   1      44.064  25.645  37.564  1.00  0.00    -0.200 F 
ATOM     70  C   UNL A   1      45.722  27.067  36.666  1.00  0.00     0.200 A 
ATOM     71  F   UNL A   1      47.341  28.526  35.756  1.00  0.00    -0.200 F 
ATOM     72  F   UNL A   1      46.672  26.413  37.347  1.00  0.00    -0.200 F 
ENDBRANCH  39  62
ENDBRANCH  13  14
ENDBRANCH   6   8
ENDBRANCH   3   4
ENDBRANCH   2   3
ENDBRANCH   1   2
BRANCH   1  73
ATOM     73  C   UNL A   1      32.077  29.583  27.251  1.00  0.00     0.002 C 
BRANCH  73  74
ATOM     74  C   UNL A   1      33.502  29.010  27.184  1.00  0.00     0.021 C 
BRANCH  74  75
ATOM     75  C   UNL A   1      33.713  27.961  26.096  1.00  0.00     0.116 C 
BRANCH  75  76
ATOM     76  N   UNL A   1      34.286  28.557  24.909  1.00  0.00    -0.352 N 
ATOM     77  C   UNL A   1      33.823  28.578  23.628  1.00  0.00     0.253 C 
ATOM     78  H   UNL A   1      35.144  29.019  25.048  1.00  0.00     0.163 HD
ATOM     79  O   UNL A   1      34.575  28.953  22.730  1.00  0.00    -0.269 OA
BRANCH  77  80
ATOM     80  C   UNL A   1      32.482  28.106  23.265  1.00  0.00     0.070 A 
ATOM     81  C   UNL A   1      31.455  28.953  23.680  1.00  0.00     0.125 A 
ATOM     82  C   UNL A   1      32.124  26.923  22.615  1.00  0.00     0.056 A 
ATOM     83  N   UNL A   1      30.140  28.748  23.434  1.00  0.00    -0.264 NA
ATOM     84  C   UNL A   1      30.760  26.708  22.336  1.00  0.00     0.035 A 
ATOM     85  C   UNL A   1      29.821  27.636  22.752  1.00  0.00     0.112 A 
BRANCH  82  86
ATOM     86  C   UNL A   1      33.024  25.887  22.052  1.00  0.00     0.256 C 
ATOM     87  O   UNL A   1      33.278  25.970  20.845  1.00  0.00    -0.269 OA
ATOM     88  N   UNL A   1      33.673  24.903  22.751  1.00  0.00    -0.322 N 
ATOM     89  H   UNL A   1      34.342  24.422  22.212  1.00  0.00     0.170 HD
BRANCH  88  90
ATOM     90  C   UNL A   1      33.588  24.435  24.064  1.00  0.00     0.043 A 
ATOM     91  C   UNL A   1      34.661  24.381  24.947  1.00  0.00     0.028 A 
ATOM     92  C   UNL A   1      32.336  23.960  24.470  1.00  0.00     0.048 A 
ATOM     93  C   UNL A   1      34.508  23.740  26.183  1.00  0.00     0.024 A 
ATOM     94  C   UNL A   1      32.192  23.279  25.679  1.00  0.00     0.061 A 
ATOM     95  C   UNL A   1      33.287  23.155  26.535  1.00  0.00     0.059 A 
ATOM     96  Cl  UNL A   1      30.653  22.568  26.014  1.00  0.00    -0.083 Cl
ATOM     97  Cl  UNL A   1      33.199  22.285  28.023  1.00  0.00    -0.083 Cl
ENDBRANCH  88  90
ENDBRANCH  82  86
ENDBRANCH  77  80
ENDBRANCH  75  76
ENDBRANCH  74  75
ENDBRANCH  73  74
ENDBRANCH   1  73
TORSDOF 15
ENDMDL
MODEL 2
REMARK VINA RESULT:     -12.5      1.129      2.140
REMARK SMILES O=C(NCCCCCCNC(=O)c1cnccc1C(=O)Nc1ccc(Cl)c(Cl)c1)c1ccc(-c2c3nc(c(-c4c(F)c(F)c(F)c(F)c4F)c4ccc([nH]4)c(-c4c(F)c(F)c(F)c(F)c4F)c4nc(c(-c5c(F)c(F)c(F)c(F)c5F)c5ccc2[nH]5)C=C4)C=C3)cc1
REMARK SMILES IDX 6 1 5 2 4 3 3 4 1 5 2 6 30 8 31 9 92 10 32 11 91 12 33 13
REMARK SMILES IDX 34 14 35 15 85 16 36 17 90 18 84 19 86 20 37 21 89 22 83 23
REMARK SMILES IDX 82 24 38 26 70 27 50 28 69 29 51 30 54 31 68 32 87 33 52 34
REMARK SMILES IDX 53 35 67 37 88 38 55 39 39 40 40 41 48 42 41 43 42 44 46 45
REMARK SMILES IDX 49 46 43 47 44 48 47 49 45 50 71 51 72 52 80 53 73 54 74 55
REMARK SMILES IDX 78 56 81 57 75 58 76 59 79 60 77 61 56 62 57 63 65 64 58 65
REMARK SMILES IDX 59 66 63 67 66 68 60 69 61 70 64 71 62 72 7 73 8 74 9 75
REMARK SMILES IDX 10 76 11 77 12 79 13 80 14 81 18 82 15 83 17 84 16 85 19 86
REMARK SMILES IDX 20 87 21 88 22 90 23 91 29 92 24 93 27 94 25 95 28 96 26 97
REMARK H PARENT 3 7 86 25 54 36 10 78 21 89
REMARK Flexibility Score: inf
ROOT
ATOM      1  C   UNL A   1      31.610  30.782  26.044  1.00  0.00     0.002 C 
ENDROOT
BRANCH   1   2
ATOM      2  C   UNL A   1      31.355  32.176  26.610  1.00  0.00     0.021 C 
BRANCH   2   3
ATOM      3  C   UNL A   1      32.574  32.868  27.196  1.00  0.00     0.116 C 
BRANCH   3   4
ATOM      4  N   UNL A   1      32.309  34.216  27.661  1.00  0.00    -0.352 N 
ATOM      5  O   UNL A   1      32.603  36.016  29.003  1.00  0.00    -0.269 OA
ATOM      6  C   UNL A   1      32.979  34.912  28.641  1.00  0.00     0.251 C 
ATOM      7  H   UNL A   1      31.564  34.689  27.225  1.00  0.00     0.163 HD
BRANCH   6   8
ATOM      8  C   UNL A   1      34.152  34.277  29.281  1.00  0.00     0.039 A 
ATOM      9  C   UNL A   1      34.003  33.523  30.449  1.00  0.00     0.014 A 
ATOM     10  C   UNL A   1      35.414  34.468  28.715  1.00  0.00     0.014 A 
ATOM     11  C   UNL A   1      35.127  33.047  31.110  1.00  0.00     0.010 A 
ATOM     12  C   UNL A   1      36.538  33.925  29.342  1.00  0.00     0.010 A 
ATOM     13  C   UNL A   1      36.402  33.223  30.550  1.00  0.00    -0.014 A 
BRANCH  13  14
ATOM     14  C   UNL A   1      37.572  32.562  31.175  1.00  0.00     0.031 A 
ATOM     15  C   UNL A   1      38.282  31.428  30.498  1.00  0.00     0.074 A 
ATOM     16  C   UNL A   1      37.967  32.992  32.388  1.00  0.00     0.049 A 
ATOM     17  N   UNL A   1      39.281  30.705  30.937  1.00  0.00    -0.248 NA
ATOM     18  C   UNL A   1      37.810  31.047  29.158  1.00  0.00     0.031 C 
ATOM     19  C   UNL A   1      37.329  34.075  33.142  1.00  0.00     0.029 A 
ATOM     20  N   UNL A   1      38.985  32.575  33.204  1.00  0.00    -0.354 N 
ATOM     21  C   UNL A   1      39.541  29.769  29.946  1.00  0.00     0.074 A 
ATOM     22  C   UNL A   1      38.591  30.009  28.880  1.00  0.00     0.031 C 
ATOM     23  C   UNL A   1      37.980  34.248  34.301  1.00  0.00     0.029 A 
ATOM     24  C   UNL A   1      39.035  33.248  34.399  1.00  0.00     0.049 A 
ATOM     25  H   UNL A   1      39.617  31.861  32.959  1.00  0.00     0.167 HD
ATOM     26  C   UNL A   1      40.489  28.802  29.936  1.00  0.00     0.037 A 
ATOM     27  C   UNL A   1      39.820  33.058  35.476  1.00  0.00     0.037 A 
ATOM     28  C   UNL A   1      41.448  28.597  30.991  1.00  0.00     0.049 A 
ATOM     29  C   UNL A   1      40.844  31.962  35.440  1.00  0.00     0.074 A 
ATOM     30  C   UNL A   1      42.509  27.709  31.031  1.00  0.00     0.029 A 
ATOM     31  N   UNL A   1      41.454  29.283  32.197  1.00  0.00    -0.354 N 
ATOM     32  N   UNL A   1      41.121  31.125  34.471  1.00  0.00    -0.248 NA
ATOM     33  C   UNL A   1      41.656  31.776  36.649  1.00  0.00     0.031 C 
ATOM     34  C   UNL A   1      43.126  27.821  32.282  1.00  0.00     0.029 A 
ATOM     35  C   UNL A   1      42.475  28.809  33.005  1.00  0.00     0.049 A 
ATOM     36  H   UNL A   1      40.826  30.000  32.443  1.00  0.00     0.167 HD
ATOM     37  C   UNL A   1      42.138  30.313  34.950  1.00  0.00     0.074 A 
ATOM     38  C   UNL A   1      42.447  30.776  36.287  1.00  0.00     0.031 C 
ATOM     39  C   UNL A   1      42.754  29.273  34.338  1.00  0.00     0.037 A 
BRANCH  26  40
ATOM     40  C   UNL A   1      40.540  27.872  28.761  1.00  0.00     0.064 A 
ATOM     41  C   UNL A   1      41.361  28.125  27.654  1.00  0.00     0.173 A 
ATOM     42  C   UNL A   1      39.821  26.666  28.786  1.00  0.00     0.173 A 
ATOM     43  F   UNL A   1      42.062  29.266  27.579  1.00  0.00    -0.203 F 
ATOM     44  C   UNL A   1      41.455  27.207  26.610  1.00  0.00     0.198 A 
ATOM     45  C   UNL A   1      39.934  25.743  27.750  1.00  0.00     0.198 A 
ATOM     46  F   UNL A   1      39.026  26.375  29.827  1.00  0.00    -0.203 F 
ATOM     47  F   UNL A   1      42.232  27.477  25.550  1.00  0.00    -0.200 F 
ATOM     48  C   UNL A   1      40.750  26.014  26.662  1.00  0.00     0.200 A 
ATOM     49  F   UNL A   1      39.260  24.586  27.809  1.00  0.00    -0.200 F 
ATOM     50  F   UNL A   1      40.855  25.126  25.664  1.00  0.00    -0.200 F 
ENDBRANCH  26  40
BRANCH  27  51
ATOM     51  C   UNL A   1      39.632  33.903  36.680  1.00  0.00     0.064 A 
ATOM     52  C   UNL A   1      40.239  35.160  36.784  1.00  0.00     0.173 A 
ATOM     53  C   UNL A   1      38.817  33.479  37.742  1.00  0.00     0.173 A 
ATOM     54  F   UNL A   1      41.041  35.599  35.802  1.00  0.00    -0.203 F 
ATOM     55  C   UNL A   1      40.049  35.957  37.910  1.00  0.00     0.198 A 
ATOM     56  C   UNL A   1      38.605  34.288  38.853  1.00  0.00     0.198 A 
ATOM     57  F   UNL A   1      38.208  32.285  37.685  1.00  0.00    -0.203 F 
ATOM     58  F   UNL A   1      40.670  37.141  38.002  1.00  0.00    -0.200 F 
ATOM     59  C   UNL A   1      39.227  35.525  38.940  1.00  0.00     0.200 A 
ATOM     60  F   UNL A   1      37.795  33.873  39.837  1.00  0.00    -0.200 F 
ATOM     61  F   UNL A   1      39.036  36.297  40.018  1.00  0.00    -0.200 F 
ENDBRANCH  27  51
BRANCH  39  62
ATOM     62  C   UNL A   1      43.820  28.566  35.119  1.00  0.00     0.064 A 
ATOM     63  C   UNL A   1      45.163  28.960  35.036  1.00  0.00     0.173 A 
ATOM     64  C   UNL A   1      43.492  27.508  35.979  1.00  0.00     0.173 A 
ATOM     65  F   UNL A   1      45.524  29.953  34.210  1.00  0.00    -0.203 F 
ATOM     66  C   UNL A   1      46.144  28.308  35.777  1.00  0.00     0.198 A 
ATOM     67  C   UNL A   1      44.472  26.875  36.737  1.00  0.00     0.198 A 
ATOM     68  F   UNL A   1      42.220  27.098  36.093  1.00  0.00    -0.203 F 
ATOM     69  F   UNL A   1      47.428  28.673  35.653  1.00  0.00    -0.200 F 
ATOM     70  C   UNL A   1      45.797  27.271  36.631  1.00  0.00     0.200 A 
ATOM     71  F   UNL A   1      44.135  25.880  37.568  1.00  0.00    -0.200 F 
ATOM     72  F   UNL A   1      46.743  26.649  37.349  1.00  0.00    -0.200 F 
ENDBRANCH  39  62
ENDBRANCH  13  14
ENDBRANCH   6   8
ENDBRANCH   3   4
ENDBRANCH   2   3
ENDBRANCH   1   2
BRANCH   1  73
ATOM     73  C   UNL A   1      32.948  30.141  26.419  1.00  0.00     0.002 C 
BRANCH  73  74
ATOM     74  C   UNL A   1      32.863  28.861  27.266  1.00  0.00     0.021 C 
BRANCH  74  75
ATOM     75  C   UNL A   1      31.455  28.294  27.419  1.00  0.00     0.116 C 
BRANCH  75  76
ATOM     76  N   UNL A   1      31.454  26.858  27.243  1.00  0.00    -0.352 N 
ATOM     77  C   UNL A   1      31.211  26.110  26.131  1.00  0.00     0.253 C 
ATOM     78  H   UNL A   1      31.663  26.340  28.055  1.00  0.00     0.163 HD
ATOM     79  O   UNL A   1      31.049  24.897  26.254  1.00  0.00    -0.269 OA
BRANCH  77  80
ATOM     80  C   UNL A   1      31.066  26.703  24.797  1.00  0.00     0.070 A 
ATOM     81  C   UNL A   1      29.742  26.908  24.412  1.00  0.00     0.125 A 
ATOM     82  C   UNL A   1      32.066  27.031  23.879  1.00  0.00     0.056 A 
ATOM     83  N   UNL A   1      29.356  27.471  23.243  1.00  0.00    -0.264 NA
ATOM     84  C   UNL A   1      31.678  27.635  22.666  1.00  0.00     0.035 A 
ATOM     85  C   UNL A   1      30.335  27.838  22.400  1.00  0.00     0.112 A 
BRANCH  82  86
ATOM     86  C   UNL A   1      33.534  26.940  24.063  1.00  0.00     0.256 C 
ATOM     87  O   UNL A   1      34.155  28.007  24.106  1.00  0.00    -0.269 OA
ATOM     88  N   UNL A   1      34.260  25.797  24.280  1.00  0.00    -0.322 N 
ATOM     89  H   UNL A   1      35.195  25.974  24.533  1.00  0.00     0.170 HD
BRANCH  88  90
ATOM     90  C   UNL A   1      33.957  24.435  24.219  1.00  0.00     0.043 A 
ATOM     91  C   UNL A   1      33.409  23.803  23.109  1.00  0.00     0.028 A 
ATOM     92  C   UNL A   1      34.196  23.698  25.385  1.00  0.00     0.048 A 
ATOM     93  C   UNL A   1      32.987  22.472  23.210  1.00  0.00     0.024 A 
ATOM     94  C   UNL A   1      33.735  22.386  25.503  1.00  0.00     0.061 A 
ATOM     95  C   UNL A   1      33.114  21.773  24.415  1.00  0.00     0.059 A 
ATOM     96  Cl  UNL A   1      33.912  21.616  27.040  1.00  0.00    -0.083 Cl
ATOM     97  Cl  UNL A   1      32.473  20.173  24.501  1.00  0.00    -0.083 Cl
ENDBRANCH  88  90
ENDBRANCH  82  86
ENDBRANCH  77  80
ENDBRANCH  75  76
ENDBRANCH  74  75
ENDBRANCH  73  74
ENDBRANCH   1  73
TORSDOF 15
ENDMDL
MODEL 3
REMARK VINA RESULT:     -12.5      1.182      1.775
REMARK SMILES O=C(NCCCCCCNC(=O)c1cnccc1C(=O)Nc1ccc(Cl)c(Cl)c1)c1ccc(-c2c3nc(c(-c4c(F)c(F)c(F)c(F)c4F)c4ccc([nH]4)c(-c4c(F)c(F)c(F)c(F)c4F)c4nc(c(-c5c(F)c(F)c(F)c(F)c5F)c5ccc2[nH]5)C=C4)C=C3)cc1
REMARK SMILES IDX 6 1 5 2 4 3 3 4 1 5 2 6 30 8 31 9 92 10 32 11 91 12 33 13
REMARK SMILES IDX 34 14 35 15 85 16 36 17 90 18 84 19 86 20 37 21 89 22 83 23
REMARK SMILES IDX 82 24 38 26 70 27 50 28 69 29 51 30 54 31 68 32 87 33 52 34
REMARK SMILES IDX 53 35 67 37 88 38 55 39 39 40 40 41 48 42 41 43 42 44 46 45
REMARK SMILES IDX 49 46 43 47 44 48 47 49 45 50 71 51 72 52 80 53 73 54 74 55
REMARK SMILES IDX 78 56 81 57 75 58 76 59 79 60 77 61 56 62 57 63 65 64 58 65
REMARK SMILES IDX 59 66 63 67 66 68 60 69 61 70 64 71 62 72 7 73 8 74 9 75
REMARK SMILES IDX 10 76 11 77 12 79 13 80 14 81 18 82 15 83 17 84 16 85 19 86
REMARK SMILES IDX 20 87 21 88 22 90 23 91 29 92 24 93 27 94 25 95 28 96 26 97
REMARK H PARENT 3 7 86 25 54 36 10 78 21 89
REMARK Flexibility Score: inf
ROOT
ATOM      1  C   UNL A   1      31.637  30.434  25.981  1.00  0.00     0.002 C 
ENDROOT
BRANCH   1   2
ATOM      2  C   UNL A   1      31.444  31.899  26.364  1.00  0.00     0.021 C 
BRANCH   2   3
ATOM      3  C   UNL A   1      32.568  32.503  27.190  1.00  0.00     0.116 C 
BRANCH   3   4
ATOM      4  N   UNL A   1      32.330  33.882  27.571  1.00  0.00    -0.352 N 
ATOM      5  O   UNL A   1      32.672  35.758  28.791  1.00  0.00    -0.269 OA
ATOM      6  C   UNL A   1      33.026  34.628  28.496  1.00  0.00     0.251 C 
ATOM      7  H   UNL A   1      31.586  34.338  27.117  1.00  0.00     0.163 HD
BRANCH   6   8
ATOM      8  C   UNL A   1      34.198  34.016  29.157  1.00  0.00     0.039 A 
ATOM      9  C   UNL A   1      34.028  33.092  30.193  1.00  0.00     0.014 A 
ATOM     10  C   UNL A   1      35.478  34.399  28.751  1.00  0.00     0.014 A 
ATOM     11  C   UNL A   1      35.135  32.630  30.893  1.00  0.00     0.010 A 
ATOM     12  C   UNL A   1      36.594  33.875  29.408  1.00  0.00     0.010 A 
ATOM     13  C   UNL A   1      36.428  32.998  30.491  1.00  0.00    -0.014 A 
BRANCH  13  14
ATOM     14  C   UNL A   1      37.601  32.362  31.135  1.00  0.00     0.031 A 
ATOM     15  C   UNL A   1      38.347  31.244  30.468  1.00  0.00     0.074 A 
ATOM     16  C   UNL A   1      37.967  32.799  32.354  1.00  0.00     0.049 A 
ATOM     17  N   UNL A   1      39.354  30.543  30.924  1.00  0.00    -0.248 NA
ATOM     18  C   UNL A   1      37.906  30.854  29.121  1.00  0.00     0.031 C 
ATOM     19  C   UNL A   1      37.294  33.868  33.098  1.00  0.00     0.029 A 
ATOM     20  N   UNL A   1      38.981  32.404  33.186  1.00  0.00    -0.354 N 
ATOM     21  C   UNL A   1      39.650  29.614  29.936  1.00  0.00     0.074 A 
ATOM     22  C   UNL A   1      38.713  29.834  28.855  1.00  0.00     0.031 C 
ATOM     23  C   UNL A   1      37.923  34.054  34.267  1.00  0.00     0.029 A 
ATOM     24  C   UNL A   1      38.997  33.078  34.382  1.00  0.00     0.049 A 
ATOM     25  H   UNL A   1      39.633  31.705  32.951  1.00  0.00     0.167 HD
ATOM     26  C   UNL A   1      40.619  28.668  29.941  1.00  0.00     0.037 A 
ATOM     27  C   UNL A   1      39.769  32.904  35.471  1.00  0.00     0.037 A 
ATOM     28  C   UNL A   1      41.566  28.483  31.012  1.00  0.00     0.049 A 
ATOM     29  C   UNL A   1      40.817  31.830  35.452  1.00  0.00     0.074 A 
ATOM     30  C   UNL A   1      42.645  27.618  31.069  1.00  0.00     0.029 A 
ATOM     31  N   UNL A   1      41.538  29.168  32.218  1.00  0.00    -0.354 N 
ATOM     32  N   UNL A   1      41.128  31.000  34.487  1.00  0.00    -0.248 NA
ATOM     33  C   UNL A   1      41.613  31.662  36.674  1.00  0.00     0.031 C 
ATOM     34  C   UNL A   1      43.239  27.743  32.329  1.00  0.00     0.029 A 
ATOM     35  C   UNL A   1      42.556  28.716  33.043  1.00  0.00     0.049 A 
ATOM     36  H   UNL A   1      40.890  29.871  32.454  1.00  0.00     0.167 HD
ATOM     37  C   UNL A   1      42.154  30.211  34.982  1.00  0.00     0.074 A 
ATOM     38  C   UNL A   1      42.432  30.680  36.324  1.00  0.00     0.031 C 
ATOM     39  C   UNL A   1      42.803  29.185  34.380  1.00  0.00     0.037 A 
BRANCH  26  40
ATOM     40  C   UNL A   1      40.710  27.740  28.767  1.00  0.00     0.064 A 
ATOM     41  C   UNL A   1      39.900  26.601  28.661  1.00  0.00     0.173 A 
ATOM     42  C   UNL A   1      41.557  28.047  27.691  1.00  0.00     0.173 A 
ATOM     43  F   UNL A   1      39.078  26.261  29.666  1.00  0.00    -0.203 F 
ATOM     44  C   UNL A   1      39.941  25.797  27.524  1.00  0.00     0.198 A 
ATOM     45  C   UNL A   1      41.581  27.252  26.548  1.00  0.00     0.198 A 
ATOM     46  F   UNL A   1      42.347  29.130  27.740  1.00  0.00    -0.203 F 
ATOM     47  F   UNL A   1      39.173  24.701  27.452  1.00  0.00    -0.200 F 
ATOM     48  C   UNL A   1      40.774  26.128  26.465  1.00  0.00     0.200 A 
ATOM     49  F   UNL A   1      42.378  27.580  25.521  1.00  0.00    -0.200 F 
ATOM     50  F   UNL A   1      40.800  25.361  25.366  1.00  0.00    -0.200 F 
ENDBRANCH  26  40
BRANCH  27  51
ATOM     51  C   UNL A   1      39.543  33.744  36.673  1.00  0.00     0.064 A 
ATOM     52  C   UNL A   1      38.752  33.289  37.734  1.00  0.00     0.173 A 
ATOM     53  C   UNL A   1      40.135  35.011  36.793  1.00  0.00     0.173 A 
ATOM     54  F   UNL A   1      38.150  32.092  37.657  1.00  0.00    -0.203 F 
ATOM     55  C   UNL A   1      38.552  34.074  38.868  1.00  0.00     0.198 A 
ATOM     56  C   UNL A   1      39.958  35.781  37.937  1.00  0.00     0.198 A 
ATOM     57  F   UNL A   1      40.907  35.487  35.804  1.00  0.00    -0.203 F 
ATOM     58  F   UNL A   1      37.762  33.631  39.855  1.00  0.00    -0.200 F 
ATOM     59  C   UNL A   1      39.161  35.316  38.971  1.00  0.00     0.200 A 
ATOM     60  F   UNL A   1      40.564  36.973  38.040  1.00  0.00    -0.200 F 
ATOM     61  F   UNL A   1      38.976  36.066  40.066  1.00  0.00    -0.200 F 
ENDBRANCH  27  51
BRANCH  39  62
ATOM     62  C   UNL A   1      43.871  28.501  35.177  1.00  0.00     0.064 A 
ATOM     63  C   UNL A   1      43.580  27.379  35.967  1.00  0.00     0.173 A 
ATOM     64  C   UNL A   1      45.199  28.948  35.125  1.00  0.00     0.173 A 
ATOM     65  F   UNL A   1      42.321  26.929  36.062  1.00  0.00    -0.203 F 
ATOM     66  C   UNL A   1      44.582  26.739  36.692  1.00  0.00     0.198 A 
ATOM     67  C   UNL A   1      46.201  28.291  35.832  1.00  0.00     0.198 A 
ATOM     68  F   UNL A   1      45.524  30.016  34.382  1.00  0.00    -0.203 F 
ATOM     69  F   UNL A   1      44.277  25.693  37.472  1.00  0.00    -0.200 F 
ATOM     70  C   UNL A   1      45.892  27.191  36.618  1.00  0.00     0.200 A 
ATOM     71  F   UNL A   1      47.467  28.723  35.753  1.00  0.00    -0.200 F 
ATOM     72  F   UNL A   1      46.855  26.569  37.311  1.00  0.00    -0.200 F 
ENDBRANCH  39  62
ENDBRANCH  13  14
ENDBRANCH   6   8
ENDBRANCH   3   4
ENDBRANCH   2   3
ENDBRANCH   1   2
BRANCH   1  73
ATOM     73  C   UNL A   1      31.953  29.477  27.133  1.00  0.00     0.002 C 
BRANCH  73  74
ATOM     74  C   UNL A   1      33.411  28.997  27.223  1.00  0.00     0.021 C 
BRANCH  74  75
ATOM     75  C   UNL A   1      33.936  28.323  25.958  1.00  0.00     0.116 C 
BRANCH  75  76
ATOM     76  N   UNL A   1      34.001  26.888  26.127  1.00  0.00    -0.352 N 
ATOM     77  C   UNL A   1      33.184  25.910  25.645  1.00  0.00     0.253 C 
ATOM     78  H   UNL A   1      34.754  26.568  26.675  1.00  0.00     0.163 HD
ATOM     79  O   UNL A   1      33.296  24.769  26.089  1.00  0.00    -0.269 OA
BRANCH  77  80
ATOM     80  C   UNL A   1      32.127  26.178  24.664  1.00  0.00     0.070 A 
ATOM     81  C   UNL A   1      30.912  26.558  25.234  1.00  0.00     0.125 A 
ATOM     82  C   UNL A   1      32.179  26.054  23.274  1.00  0.00     0.056 A 
ATOM     83  N   UNL A   1      29.801  26.888  24.535  1.00  0.00    -0.264 NA
ATOM     84  C   UNL A   1      31.034  26.413  22.534  1.00  0.00     0.035 A 
ATOM     85  C   UNL A   1      29.891  26.824  23.197  1.00  0.00     0.112 A 
BRANCH  82  86
ATOM     86  C   UNL A   1      33.351  25.703  22.437  1.00  0.00     0.256 C 
ATOM     87  O   UNL A   1      33.828  26.607  21.742  1.00  0.00    -0.269 OA
ATOM     88  N   UNL A   1      34.014  24.503  22.423  1.00  0.00    -0.322 N 
ATOM     89  H   UNL A   1      34.857  24.532  21.915  1.00  0.00     0.170 HD
BRANCH  88  90
ATOM     90  C   UNL A   1      33.750  23.248  22.976  1.00  0.00     0.043 A 
ATOM     91  C   UNL A   1      32.562  22.547  22.798  1.00  0.00     0.028 A 
ATOM     92  C   UNL A   1      34.753  22.710  23.791  1.00  0.00     0.048 A 
ATOM     93  C   UNL A   1      32.333  21.377  23.532  1.00  0.00     0.024 A 
ATOM     94  C   UNL A   1      34.509  21.570  24.559  1.00  0.00     0.061 A 
ATOM     95  C   UNL A   1      33.288  20.907  24.440  1.00  0.00     0.059 A 
ATOM     96  Cl  UNL A   1      35.738  21.084  25.672  1.00  0.00    -0.083 Cl
ATOM     97  Cl  UNL A   1      32.895  19.522  25.392  1.00  0.00    -0.083 Cl
ENDBRANCH  88  90
ENDBRANCH  82  86
ENDBRANCH  77  80
ENDBRANCH  75  76
ENDBRANCH  74  75
ENDBRANCH  73  74
ENDBRANCH   1  73
TORSDOF 15
ENDMDL
