MODEL 1
REMARK VINA RESULT:     -10.6      0.000      0.000
REMARK SMILES CC(C)CN(C)S(=O)(=O)c1ccc(C(=O)NCCCCCCNC(=O)c2ccc(-c3c4nc(c(-c5c(F)c(F)c(F)c(F)c5F)c5ccc([nH]5)c(-c5c(F)c(F)c(F)c(F)c5F)c5nc(c(-c6c(F)c(F)c(F)c(F)c6F)c6ccc3[nH]6)C=C5)C=C4)cc2)cc1
REMARK SMILES IDX 18 1 17 2 16 3 14 4 15 5 13 7 10 8 11 9 90 10 12 11 89 12
REMARK SMILES IDX 7 13 8 14 9 15 5 16 6 17 4 18 2 19 1 20 3 21 19 22 20 23
REMARK SMILES IDX 21 24 22 25 23 26 24 27 25 29 26 30 27 31 88 32 28 33 87 34
REMARK SMILES IDX 29 35 30 36 31 37 81 38 32 39 86 40 80 41 82 42 33 43 85 44
REMARK SMILES IDX 79 45 78 46 34 48 66 49 46 50 65 51 47 52 50 53 64 54 83 55
REMARK SMILES IDX 48 56 49 57 63 59 84 60 51 61 35 62 36 63 44 64 37 65 38 66
REMARK SMILES IDX 42 67 45 68 39 69 40 70 43 71 41 72 67 73 68 74 76 75 69 76
REMARK SMILES IDX 70 77 74 78 77 79 71 80 72 81 75 82 73 83 52 84 53 85 61 86
REMARK SMILES IDX 54 87 55 88 59 89 62 90 56 91 57 92 60 93 58 94
REMARK H PARENT 16 6 23 28 82 47 50 58
REMARK Flexibility Score: inf
ROOT
ATOM      1  C   UNL A   1      34.275  32.794  29.163  1.00  0.00     0.021 C 
ENDROOT
BRANCH   1   2
ATOM      2  C   UNL A   1      34.032  31.833  27.996  1.00  0.00     0.116 C 
BRANCH   2   3
ATOM      3  N   UNL A   1      35.120  30.884  27.911  1.00  0.00    -0.352 N 
ATOM      4  C   UNL A   1      35.192  29.579  27.505  1.00  0.00     0.251 C 
ATOM      5  O   UNL A   1      36.283  29.019  27.623  1.00  0.00    -0.269 OA
ATOM      6  H   UNL A   1      35.985  31.251  28.204  1.00  0.00     0.163 HD
BRANCH   4   7
ATOM      7  C   UNL A   1      34.059  28.828  26.885  1.00  0.00     0.039 A 
ATOM      8  C   UNL A   1      32.017  27.460  25.495  1.00  0.00     0.082 A 
ATOM      9  C   UNL A   1      33.143  27.936  24.812  1.00  0.00     0.022 A 
ATOM     10  C   UNL A   1      31.901  27.683  26.864  1.00  0.00     0.022 A 
ATOM     11  C   UNL A   1      34.145  28.623  25.500  1.00  0.00     0.015 A 
ATOM     12  C   UNL A   1      32.948  28.310  27.560  1.00  0.00     0.015 A 
BRANCH   8  13
ATOM     13  S   UNL A   1      30.813  26.598  24.501  1.00  0.00     0.242 S 
ATOM     14  O   UNL A   1      30.534  27.446  23.359  1.00  0.00    -0.207 OA
ATOM     15  O   UNL A   1      29.766  26.236  25.428  1.00  0.00    -0.207 OA
BRANCH  13  16
ATOM     16  N   UNL A   1      31.522  25.144  23.883  1.00  0.00    -0.201 NA
ATOM     17  C   UNL A   1      30.494  24.195  23.335  1.00  0.00     0.124 C 
BRANCH  16  18
ATOM     18  C   UNL A   1      32.318  24.388  24.936  1.00  0.00     0.105 C 
BRANCH  18  19
ATOM     19  C   UNL A   1      33.781  24.069  24.570  1.00  0.00    -0.002 C 
ATOM     20  C   UNL A   1      34.187  24.549  23.174  1.00  0.00     0.009 C 
ATOM     21  C   UNL A   1      34.701  24.767  25.589  1.00  0.00     0.009 C 
ENDBRANCH  18  19
ENDBRANCH  16  18
ENDBRANCH  13  16
ENDBRANCH   8  13
ENDBRANCH   4   7
ENDBRANCH   2   3
ENDBRANCH   1   2
BRANCH   1  22
ATOM     22  C   UNL A   1      35.232  33.940  28.807  1.00  0.00     0.002 C 
BRANCH  22  23
ATOM     23  C   UNL A   1      34.548  35.196  28.253  1.00  0.00     0.002 C 
BRANCH  23  24
ATOM     24  C   UNL A   1      33.217  35.552  28.920  1.00  0.00     0.021 C 
BRANCH  24  25
ATOM     25  C   UNL A   1      33.306  36.689  29.933  1.00  0.00     0.116 C 
BRANCH  25  26
ATOM     26  N   UNL A   1      32.382  36.495  31.037  1.00  0.00    -0.352 N 
ATOM     27  C   UNL A   1      32.449  35.607  32.079  1.00  0.00     0.251 C 
ATOM     28  H   UNL A   1      31.594  37.086  31.036  1.00  0.00     0.163 HD
ATOM     29  O   UNL A   1      31.469  35.419  32.793  1.00  0.00    -0.269 OA
BRANCH  27  30
ATOM     30  C   UNL A   1      33.704  34.874  32.348  1.00  0.00     0.039 A 
ATOM     31  C   UNL A   1      33.628  33.546  32.778  1.00  0.00     0.014 A 
ATOM     32  C   UNL A   1      34.945  35.508  32.238  1.00  0.00     0.014 A 
ATOM     33  C   UNL A   1      34.799  32.846  33.075  1.00  0.00     0.010 A 
ATOM     34  C   UNL A   1      36.114  34.792  32.477  1.00  0.00     0.010 A 
ATOM     35  C   UNL A   1      36.050  33.463  32.920  1.00  0.00    -0.014 A 
BRANCH  35  36
ATOM     36  C   UNL A   1      37.301  32.747  33.271  1.00  0.00     0.031 A 
ATOM     37  C   UNL A   1      38.002  33.063  34.563  1.00  0.00     0.074 A 
ATOM     38  C   UNL A   1      37.826  31.852  32.415  1.00  0.00     0.049 A 
ATOM     39  N   UNL A   1      39.132  32.592  35.030  1.00  0.00    -0.248 NA
ATOM     40  C   UNL A   1      37.363  34.061  35.434  1.00  0.00     0.031 C 
ATOM     41  C   UNL A   1      37.257  31.494  31.115  1.00  0.00     0.029 A 
ATOM     42  N   UNL A   1      38.959  31.087  32.507  1.00  0.00    -0.354 N 
ATOM     43  C   UNL A   1      39.344  33.250  36.235  1.00  0.00     0.074 A 
ATOM     44  C   UNL A   1      38.255  34.186  36.406  1.00  0.00     0.031 C 
ATOM     45  C   UNL A   1      38.036  30.562  30.539  1.00  0.00     0.029 A 
ATOM     46  C   UNL A   1      39.168  30.280  31.417  1.00  0.00     0.049 A 
ATOM     47  H   UNL A   1      39.566  31.114  33.282  1.00  0.00     0.167 HD
ATOM     48  C   UNL A   1      40.347  33.072  37.128  1.00  0.00     0.037 A 
ATOM     49  C   UNL A   1      40.162  29.409  31.158  1.00  0.00     0.037 A 
ATOM     50  C   UNL A   1      41.408  32.113  36.973  1.00  0.00     0.049 A 
ATOM     51  C   UNL A   1      41.249  29.210  32.180  1.00  0.00     0.074 A 
ATOM     52  C   UNL A   1      42.440  31.817  37.845  1.00  0.00     0.029 A 
ATOM     53  N   UNL A   1      41.565  31.285  35.871  1.00  0.00    -0.354 N 
ATOM     54  N   UNL A   1      41.410  29.798  33.340  1.00  0.00    -0.248 NA
ATOM     55  C   UNL A   1      42.284  28.217  31.860  1.00  0.00     0.031 C 
ATOM     56  C   UNL A   1      43.240  30.832  37.257  1.00  0.00     0.029 A 
ATOM     57  C   UNL A   1      42.683  30.486  36.036  1.00  0.00     0.049 A 
ATOM     58  H   UNL A   1      40.968  31.269  35.087  1.00  0.00     0.167 HD
ATOM     59  C   UNL A   1      42.545  29.228  33.902  1.00  0.00     0.074 A 
ATOM     60  C   UNL A   1      43.026  28.240  32.958  1.00  0.00     0.031 C 
ATOM     61  C   UNL A   1      43.136  29.498  35.091  1.00  0.00     0.037 A 
BRANCH  48  62
ATOM     62  C   UNL A   1      40.336  33.932  38.357  1.00  0.00     0.064 A 
ATOM     63  C   UNL A   1      39.629  33.558  39.510  1.00  0.00     0.173 A 
ATOM     64  C   UNL A   1      41.061  35.133  38.393  1.00  0.00     0.173 A 
ATOM     65  F   UNL A   1      38.908  32.426  39.521  1.00  0.00    -0.203 F 
ATOM     66  C   UNL A   1      39.624  34.368  40.642  1.00  0.00     0.198 A 
ATOM     67  C   UNL A   1      41.076  35.927  39.536  1.00  0.00     0.198 A 
ATOM     68  F   UNL A   1      41.758  35.534  37.319  1.00  0.00    -0.203 F 
ATOM     69  F   UNL A   1      38.900  34.014  41.713  1.00  0.00    -0.200 F 
ATOM     70  C   UNL A   1      40.352  35.547  40.657  1.00  0.00     0.200 A 
ATOM     71  F   UNL A   1      41.788  37.062  39.553  1.00  0.00    -0.200 F 
ATOM     72  F   UNL A   1      40.349  36.325  41.749  1.00  0.00    -0.200 F 
ENDBRANCH  48  62
BRANCH  49  73
ATOM     73  C   UNL A   1      40.152  28.629  29.896  1.00  0.00     0.064 A 
ATOM     74  C   UNL A   1      40.791  29.115  28.746  1.00  0.00     0.173 A 
ATOM     75  C   UNL A   1      39.509  27.386  29.810  1.00  0.00     0.173 A 
ATOM     76  F   UNL A   1      41.402  30.309  28.777  1.00  0.00    -0.203 F 
ATOM     77  C   UNL A   1      40.772  28.397  27.554  1.00  0.00     0.198 A 
ATOM     78  C   UNL A   1      39.512  26.656  28.623  1.00  0.00     0.198 A 
ATOM     79  F   UNL A   1      38.888  26.875  30.883  1.00  0.00    -0.203 F 
ATOM     80  F   UNL A   1      41.357  28.903  26.460  1.00  0.00    -0.200 F 
ATOM     81  C   UNL A   1      40.137  27.165  27.494  1.00  0.00     0.200 A 
ATOM     82  F   UNL A   1      38.907  25.461  28.573  1.00  0.00    -0.200 F 
ATOM     83  F   UNL A   1      40.122  26.472  26.348  1.00  0.00    -0.200 F 
ENDBRANCH  49  73
BRANCH  61  84
ATOM     84  C   UNL A   1      44.343  28.689  35.456  1.00  0.00     0.064 A 
ATOM     85  C   UNL A   1      44.236  27.489  36.172  1.00  0.00     0.173 A 
ATOM     86  C   UNL A   1      45.622  29.103  35.048  1.00  0.00     0.173 A 
ATOM     87  F   UNL A   1      43.037  27.062  36.596  1.00  0.00    -0.203 F 
ATOM     88  C   UNL A   1      45.367  26.741  36.486  1.00  0.00     0.198 A 
ATOM     89  C   UNL A   1      46.747  28.340  35.342  1.00  0.00     0.198 A 
ATOM     90  F   UNL A   1      45.775  30.241  34.356  1.00  0.00    -0.203 F 
ATOM     91  F   UNL A   1      45.247  25.617  37.207  1.00  0.00    -0.200 F 
ATOM     92  C   UNL A   1      46.620  27.164  36.066  1.00  0.00     0.200 A 
ATOM     93  F   UNL A   1      47.956  28.743  34.927  1.00  0.00    -0.200 F 
ATOM     94  F   UNL A   1      47.708  26.439  36.365  1.00  0.00    -0.200 F 
ENDBRANCH  61  84
ENDBRANCH  35  36
ENDBRANCH  27  30
ENDBRANCH  25  26
ENDBRANCH  24  25
ENDBRANCH  23  24
ENDBRANCH  22  23
ENDBRANCH   1  22
TORSDOF 17
ENDMDL
MODEL 2
REMARK VINA RESULT:     -10.4      4.176      6.374
REMARK SMILES CC(C)CN(C)S(=O)(=O)c1ccc(C(=O)NCCCCCCNC(=O)c2ccc(-c3c4nc(c(-c5c(F)c(F)c(F)c(F)c5F)c5ccc([nH]5)c(-c5c(F)c(F)c(F)c(F)c5F)c5nc(c(-c6c(F)c(F)c(F)c(F)c6F)c6ccc3[nH]6)C=C5)C=C4)cc2)cc1
REMARK SMILES IDX 18 1 17 2 16 3 14 4 15 5 13 7 10 8 11 9 90 10 12 11 89 12
REMARK SMILES IDX 7 13 8 14 9 15 5 16 6 17 4 18 2 19 1 20 3 21 19 22 20 23
REMARK SMILES IDX 21 24 22 25 23 26 24 27 25 29 26 30 27 31 88 32 28 33 87 34
REMARK SMILES IDX 29 35 30 36 31 37 81 38 32 39 86 40 80 41 82 42 33 43 85 44
REMARK SMILES IDX 79 45 78 46 34 48 66 49 46 50 65 51 47 52 50 53 64 54 83 55
REMARK SMILES IDX 48 56 49 57 63 59 84 60 51 61 35 62 36 63 44 64 37 65 38 66
REMARK SMILES IDX 42 67 45 68 39 69 40 70 43 71 41 72 67 73 68 74 76 75 69 76
REMARK SMILES IDX 70 77 74 78 77 79 71 80 72 81 75 82 73 83 52 84 53 85 61 86
REMARK SMILES IDX 54 87 55 88 59 89 62 90 56 91 57 92 60 93 58 94
REMARK H PARENT 16 6 23 28 82 47 50 58
REMARK Flexibility Score: inf
ROOT
ATOM      1  C   UNL A   1      31.695  28.999  23.115  1.00  0.00     0.021 C 
ENDROOT
BRANCH   1   2
ATOM      2  C   UNL A   1      33.127  28.621  22.727  1.00  0.00     0.116 C 
BRANCH   2   3
ATOM      3  N   UNL A   1      33.101  27.649  21.656  1.00  0.00    -0.352 N 
ATOM      4  C   UNL A   1      33.081  26.280  21.638  1.00  0.00     0.251 C 
ATOM      5  O   UNL A   1      33.133  25.739  20.532  1.00  0.00    -0.269 OA
ATOM      6  H   UNL A   1      33.096  28.053  20.759  1.00  0.00     0.163 HD
BRANCH   4   7
ATOM      7  C   UNL A   1      32.944  25.425  22.854  1.00  0.00     0.039 A 
ATOM      8  C   UNL A   1      32.927  23.780  25.150  1.00  0.00     0.082 A 
ATOM      9  C   UNL A   1      34.138  24.227  24.606  1.00  0.00     0.022 A 
ATOM     10  C   UNL A   1      31.728  24.138  24.538  1.00  0.00     0.022 A 
ATOM     11  C   UNL A   1      34.143  25.030  23.464  1.00  0.00     0.015 A 
ATOM     12  C   UNL A   1      31.741  25.005  23.433  1.00  0.00     0.015 A 
BRANCH   8  13
ATOM     13  S   UNL A   1      33.059  22.765  26.609  1.00  0.00     0.242 S 
ATOM     14  O   UNL A   1      31.805  22.896  27.323  1.00  0.00    -0.207 OA
ATOM     15  O   UNL A   1      34.305  23.165  27.222  1.00  0.00    -0.207 OA
BRANCH  13  16
ATOM     16  N   UNL A   1      33.194  21.104  26.137  1.00  0.00    -0.201 NA
ATOM     17  C   UNL A   1      34.544  20.779  25.564  1.00  0.00     0.124 C 
BRANCH  16  18
ATOM     18  C   UNL A   1      32.155  20.705  25.099  1.00  0.00     0.105 C 
BRANCH  18  19
ATOM     19  C   UNL A   1      32.710  20.246  23.737  1.00  0.00    -0.002 C 
ATOM     20  C   UNL A   1      32.372  18.793  23.391  1.00  0.00     0.009 C 
ATOM     21  C   UNL A   1      32.105  21.140  22.638  1.00  0.00     0.009 C 
ENDBRANCH  18  19
ENDBRANCH  16  18
ENDBRANCH  13  16
ENDBRANCH   8  13
ENDBRANCH   4   7
ENDBRANCH   2   3
ENDBRANCH   1   2
BRANCH   1  22
ATOM     22  C   UNL A   1      31.462  28.984  24.633  1.00  0.00     0.002 C 
BRANCH  22  23
ATOM     23  C   UNL A   1      32.124  27.813  25.369  1.00  0.00     0.002 C 
BRANCH  23  24
ATOM     24  C   UNL A   1      33.574  28.057  25.798  1.00  0.00     0.021 C 
BRANCH  24  25
ATOM     25  C   UNL A   1      33.744  28.384  27.278  1.00  0.00     0.116 C 
BRANCH  25  26
ATOM     26  N   UNL A   1      33.652  29.813  27.522  1.00  0.00    -0.352 N 
ATOM     27  C   UNL A   1      34.545  30.647  28.143  1.00  0.00     0.251 C 
ATOM     28  H   UNL A   1      32.829  30.245  27.195  1.00  0.00     0.163 HD
ATOM     29  O   UNL A   1      34.205  31.780  28.470  1.00  0.00    -0.269 OA
BRANCH  27  30
ATOM     30  C   UNL A   1      35.921  30.185  28.420  1.00  0.00     0.039 A 
ATOM     31  C   UNL A   1      36.215  29.668  29.684  1.00  0.00     0.014 A 
ATOM     32  C   UNL A   1      36.930  30.317  27.461  1.00  0.00     0.014 A 
ATOM     33  C   UNL A   1      37.518  29.261  29.980  1.00  0.00     0.010 A 
ATOM     34  C   UNL A   1      38.214  29.857  27.737  1.00  0.00     0.010 A 
ATOM     35  C   UNL A   1      38.524  29.346  29.006  1.00  0.00    -0.014 A 
BRANCH  35  36
ATOM     36  C   UNL A   1      39.921  28.958  29.318  1.00  0.00     0.031 A 
ATOM     37  C   UNL A   1      40.783  29.874  30.141  1.00  0.00     0.074 A 
ATOM     38  C   UNL A   1      40.425  27.811  28.828  1.00  0.00     0.049 A 
ATOM     39  N   UNL A   1      42.042  29.748  30.478  1.00  0.00    -0.248 NA
ATOM     40  C   UNL A   1      40.154  31.112  30.628  1.00  0.00     0.031 C 
ATOM     41  C   UNL A   1      39.697  26.863  27.984  1.00  0.00     0.029 A 
ATOM     42  N   UNL A   1      41.669  27.253  28.963  1.00  0.00    -0.354 N 
ATOM     43  C   UNL A   1      42.357  30.894  31.197  1.00  0.00     0.074 A 
ATOM     44  C   UNL A   1      41.174  31.726  31.208  1.00  0.00     0.031 C 
ATOM     45  C   UNL A   1      40.504  25.828  27.692  1.00  0.00     0.029 A 
ATOM     46  C   UNL A   1      41.809  26.055  28.307  1.00  0.00     0.049 A 
ATOM     47  H   UNL A   1      42.394  27.671  29.481  1.00  0.00     0.167 HD
ATOM     48  C   UNL A   1      43.522  31.212  31.811  1.00  0.00     0.037 A 
ATOM     49  C   UNL A   1      42.873  25.234  28.214  1.00  0.00     0.037 A 
ATOM     50  C   UNL A   1      44.684  30.364  31.831  1.00  0.00     0.049 A 
ATOM     51  C   UNL A   1      44.146  25.598  28.930  1.00  0.00     0.074 A 
ATOM     52  C   UNL A   1      45.894  30.570  32.469  1.00  0.00     0.029 A 
ATOM     53  N   UNL A   1      44.774  29.139  31.185  1.00  0.00    -0.354 N 
ATOM     54  N   UNL A   1      44.414  26.658  29.651  1.00  0.00    -0.248 NA
ATOM     55  C   UNL A   1      45.258  24.643  28.826  1.00  0.00     0.031 C 
ATOM     56  C   UNL A   1      46.728  29.484  32.186  1.00  0.00     0.029 A 
ATOM     57  C   UNL A   1      46.024  28.583  31.402  1.00  0.00     0.049 A 
ATOM     58  H   UNL A   1      44.056  28.728  30.652  1.00  0.00     0.167 HD
ATOM     59  C   UNL A   1      45.713  26.487  30.112  1.00  0.00     0.074 A 
ATOM     60  C   UNL A   1      46.174  25.215  29.596  1.00  0.00     0.031 C 
ATOM     61  C   UNL A   1      46.457  27.308  30.892  1.00  0.00     0.037 A 
BRANCH  48  62
ATOM     62  C   UNL A   1      43.591  32.533  32.518  1.00  0.00     0.064 A 
ATOM     63  C   UNL A   1      43.238  32.662  33.870  1.00  0.00     0.173 A 
ATOM     64  C   UNL A   1      44.036  33.680  31.844  1.00  0.00     0.173 A 
ATOM     65  F   UNL A   1      42.792  31.599  34.555  1.00  0.00    -0.203 F 
ATOM     66  C   UNL A   1      43.302  33.896  34.512  1.00  0.00     0.198 A 
ATOM     67  C   UNL A   1      44.126  34.906  32.497  1.00  0.00     0.198 A 
ATOM     68  F   UNL A   1      44.389  33.610  30.551  1.00  0.00    -0.203 F 
ATOM     69  F   UNL A   1      42.913  34.004  35.791  1.00  0.00    -0.200 F 
ATOM     70  C   UNL A   1      43.751  35.015  33.828  1.00  0.00     0.200 A 
ATOM     71  F   UNL A   1      44.569  35.985  31.837  1.00  0.00    -0.200 F 
ATOM     72  F   UNL A   1      43.815  36.201  34.449  1.00  0.00    -0.200 F 
ENDBRANCH  48  62
BRANCH  49  73
ATOM     73  C   UNL A   1      42.764  23.967  27.449  1.00  0.00     0.064 A 
ATOM     74  C   UNL A   1      42.326  22.789  28.070  1.00  0.00     0.173 A 
ATOM     75  C   UNL A   1      43.090  23.906  26.087  1.00  0.00     0.173 A 
ATOM     76  F   UNL A   1      42.022  22.796  29.377  1.00  0.00    -0.203 F 
ATOM     77  C   UNL A   1      42.236  21.593  27.362  1.00  0.00     0.198 A 
ATOM     78  C   UNL A   1      42.976  22.715  25.374  1.00  0.00     0.198 A 
ATOM     79  F   UNL A   1      43.508  25.008  25.446  1.00  0.00    -0.203 F 
ATOM     80  F   UNL A   1      41.853  20.473  27.990  1.00  0.00    -0.200 F 
ATOM     81  C   UNL A   1      42.556  21.558  26.014  1.00  0.00     0.200 A 
ATOM     82  F   UNL A   1      43.275  22.688  24.068  1.00  0.00    -0.200 F 
ATOM     83  F   UNL A   1      42.467  20.408  25.331  1.00  0.00    -0.200 F 
ENDBRANCH  49  73
BRANCH  61  84
ATOM     84  C   UNL A   1      47.831  26.840  31.265  1.00  0.00     0.064 A 
ATOM     85  C   UNL A   1      48.045  25.979  32.350  1.00  0.00     0.173 A 
ATOM     86  C   UNL A   1      48.943  27.229  30.501  1.00  0.00     0.173 A 
ATOM     87  F   UNL A   1      47.015  25.594  33.119  1.00  0.00    -0.203 F 
ATOM     88  C   UNL A   1      49.326  25.540  32.671  1.00  0.00     0.198 A 
ATOM     89  C   UNL A   1      50.218  26.767  30.810  1.00  0.00     0.198 A 
ATOM     90  F   UNL A   1      48.788  28.047  29.450  1.00  0.00    -0.203 F 
ATOM     91  F   UNL A   1      49.514  24.750  33.738  1.00  0.00    -0.200 F 
ATOM     92  C   UNL A   1      50.410  25.929  31.898  1.00  0.00     0.200 A 
ATOM     93  F   UNL A   1      51.264  27.136  30.056  1.00  0.00    -0.200 F 
ATOM     94  F   UNL A   1      51.642  25.500  32.206  1.00  0.00    -0.200 F 
ENDBRANCH  61  84
ENDBRANCH  35  36
ENDBRANCH  27  30
ENDBRANCH  25  26
ENDBRANCH  24  25
ENDBRANCH  23  24
ENDBRANCH  22  23
ENDBRANCH   1  22
TORSDOF 17
ENDMDL
MODEL 3
REMARK VINA RESULT:     -10.3      3.417      5.636
REMARK SMILES CC(C)CN(C)S(=O)(=O)c1ccc(C(=O)NCCCCCCNC(=O)c2ccc(-c3c4nc(c(-c5c(F)c(F)c(F)c(F)c5F)c5ccc([nH]5)c(-c5c(F)c(F)c(F)c(F)c5F)c5nc(c(-c6c(F)c(F)c(F)c(F)c6F)c6ccc3[nH]6)C=C5)C=C4)cc2)cc1
REMARK SMILES IDX 18 1 17 2 16 3 14 4 15 5 13 7 10 8 11 9 90 10 12 11 89 12
REMARK SMILES IDX 7 13 8 14 9 15 5 16 6 17 4 18 2 19 1 20 3 21 19 22 20 23
REMARK SMILES IDX 21 24 22 25 23 26 24 27 25 29 26 30 27 31 88 32 28 33 87 34
REMARK SMILES IDX 29 35 30 36 31 37 81 38 32 39 86 40 80 41 82 42 33 43 85 44
REMARK SMILES IDX 79 45 78 46 34 48 66 49 46 50 65 51 47 52 50 53 64 54 83 55
REMARK SMILES IDX 48 56 49 57 63 59 84 60 51 61 35 62 36 63 44 64 37 65 38 66
REMARK SMILES IDX 42 67 45 68 39 69 40 70 43 71 41 72 67 73 68 74 76 75 69 76
REMARK SMILES IDX 70 77 74 78 77 79 71 80 72 81 75 82 73 83 52 84 53 85 61 86
REMARK SMILES IDX 54 87 55 88 59 89 62 90 56 91 57 92 60 93 58 94
REMARK H PARENT 16 6 23 28 82 47 50 58
REMARK Flexibility Score: inf
ROOT
ATOM      1  C   UNL A   1      31.817  28.512  22.935  1.00  0.00     0.021 C 
ENDROOT
BRANCH   1   2
ATOM      2  C   UNL A   1      31.105  27.247  22.448  1.00  0.00     0.116 C 
BRANCH   2   3
ATOM      3  N   UNL A   1      31.769  26.737  21.269  1.00  0.00    -0.352 N 
ATOM      4  C   UNL A   1      32.683  25.738  21.070  1.00  0.00     0.251 C 
ATOM      5  O   UNL A   1      33.112  25.598  19.923  1.00  0.00    -0.269 OA
ATOM      6  H   UNL A   1      31.510  27.202  20.441  1.00  0.00     0.163 HD
BRANCH   4   7
ATOM      7  C   UNL A   1      33.136  24.790  22.131  1.00  0.00     0.039 A 
ATOM      8  C   UNL A   1      34.114  23.185  24.240  1.00  0.00     0.082 A 
ATOM      9  C   UNL A   1      34.298  24.573  24.261  1.00  0.00     0.022 A 
ATOM     10  C   UNL A   1      33.461  22.597  23.159  1.00  0.00     0.022 A 
ATOM     11  C   UNL A   1      33.824  25.363  23.211  1.00  0.00     0.015 A 
ATOM     12  C   UNL A   1      32.924  23.407  22.144  1.00  0.00     0.015 A 
BRANCH   8  13
ATOM     13  S   UNL A   1      34.763  22.295  25.640  1.00  0.00     0.242 S 
ATOM     14  O   UNL A   1      35.481  23.259  26.450  1.00  0.00    -0.207 OA
ATOM     15  O   UNL A   1      35.444  21.156  25.066  1.00  0.00    -0.207 OA
BRANCH  13  16
ATOM     16  N   UNL A   1      33.448  21.713  26.605  1.00  0.00    -0.201 NA
ATOM     17  C   UNL A   1      32.687  20.608  25.929  1.00  0.00     0.124 C 
BRANCH  16  18
ATOM     18  C   UNL A   1      32.447  22.805  26.949  1.00  0.00     0.105 C 
BRANCH  18  19
ATOM     19  C   UNL A   1      31.084  22.716  26.236  1.00  0.00    -0.002 C 
ATOM     20  C   UNL A   1      29.891  22.633  27.192  1.00  0.00     0.009 C 
ATOM     21  C   UNL A   1      30.902  23.978  25.372  1.00  0.00     0.009 C 
ENDBRANCH  18  19
ENDBRANCH  16  18
ENDBRANCH  13  16
ENDBRANCH   8  13
ENDBRANCH   4   7
ENDBRANCH   2   3
ENDBRANCH   1   2
BRANCH   1  22
ATOM     22  C   UNL A   1      31.605  28.781  24.432  1.00  0.00     0.002 C 
BRANCH  22  23
ATOM     23  C   UNL A   1      31.882  27.578  25.342  1.00  0.00     0.002 C 
BRANCH  23  24
ATOM     24  C   UNL A   1      32.919  27.826  26.442  1.00  0.00     0.021 C 
BRANCH  24  25
ATOM     25  C   UNL A   1      34.063  28.746  26.029  1.00  0.00     0.116 C 
BRANCH  25  26
ATOM     26  N   UNL A   1      33.840  30.110  26.476  1.00  0.00    -0.352 N 
ATOM     27  C   UNL A   1      34.484  30.819  27.456  1.00  0.00     0.251 C 
ATOM     28  H   UNL A   1      33.121  30.595  26.007  1.00  0.00     0.163 HD
ATOM     29  O   UNL A   1      34.015  31.878  27.860  1.00  0.00    -0.269 OA
BRANCH  27  30
ATOM     30  C   UNL A   1      35.749  30.311  28.027  1.00  0.00     0.039 A 
ATOM     31  C   UNL A   1      35.706  29.595  29.227  1.00  0.00     0.014 A 
ATOM     32  C   UNL A   1      36.977  30.590  27.418  1.00  0.00     0.014 A 
ATOM     33  C   UNL A   1      36.892  29.140  29.805  1.00  0.00     0.010 A 
ATOM     34  C   UNL A   1      38.153  30.085  27.964  1.00  0.00     0.010 A 
ATOM     35  C   UNL A   1      38.123  29.375  29.174  1.00  0.00    -0.014 A 
BRANCH  35  36
ATOM     36  C   UNL A   1      39.395  28.935  29.796  1.00  0.00     0.031 A 
ATOM     37  C   UNL A   1      39.916  29.649  31.012  1.00  0.00     0.074 A 
ATOM     38  C   UNL A   1      40.099  27.929  29.246  1.00  0.00     0.049 A 
ATOM     39  N   UNL A   1      41.031  29.457  31.673  1.00  0.00    -0.248 NA
ATOM     40  C   UNL A   1      39.087  30.743  31.541  1.00  0.00     0.031 C 
ATOM     41  C   UNL A   1      39.714  27.189  28.043  1.00  0.00     0.029 A 
ATOM     42  N   UNL A   1      41.288  27.362  29.622  1.00  0.00    -0.354 N 
ATOM     43  C   UNL A   1      41.043  30.415  32.678  1.00  0.00     0.074 A 
ATOM     44  C   UNL A   1      39.851  31.218  32.514  1.00  0.00     0.031 C 
ATOM     45  C   UNL A   1      40.642  26.251  27.792  1.00  0.00     0.029 A 
ATOM     46  C   UNL A   1      41.696  26.342  28.799  1.00  0.00     0.049 A 
ATOM     47  H   UNL A   1      41.801  27.657  30.408  1.00  0.00     0.167 HD
ATOM     48  C   UNL A   1      41.956  30.594  33.662  1.00  0.00     0.037 A 
ATOM     49  C   UNL A   1      42.796  25.567  28.854  1.00  0.00     0.037 A 
ATOM     50  C   UNL A   1      43.120  29.770  33.845  1.00  0.00     0.049 A 
ATOM     51  C   UNL A   1      43.781  25.769  29.975  1.00  0.00     0.074 A 
ATOM     52  C   UNL A   1      44.077  29.834  34.842  1.00  0.00     0.029 A 
ATOM     53  N   UNL A   1      43.480  28.720  33.012  1.00  0.00    -0.354 N 
ATOM     54  N   UNL A   1      43.754  26.643  30.951  1.00  0.00    -0.248 NA
ATOM     55  C   UNL A   1      44.941  24.867  30.005  1.00  0.00     0.031 C 
ATOM     56  C   UNL A   1      45.033  28.843  34.595  1.00  0.00     0.029 A 
ATOM     57  C   UNL A   1      44.650  28.136  33.466  1.00  0.00     0.049 A 
ATOM     58  H   UNL A   1      42.977  28.434  32.215  1.00  0.00     0.167 HD
ATOM     59  C   UNL A   1      44.874  26.380  31.728  1.00  0.00     0.074 A 
ATOM     60  C   UNL A   1      45.554  25.257  31.115  1.00  0.00     0.031 C 
ATOM     61  C   UNL A   1      45.302  27.010  32.849  1.00  0.00     0.037 A 
BRANCH  48  62
ATOM     62  C   UNL A   1      41.724  31.724  34.621  1.00  0.00     0.064 A 
ATOM     63  C   UNL A   1      40.923  31.568  35.762  1.00  0.00     0.173 A 
ATOM     64  C   UNL A   1      42.329  32.972  34.410  1.00  0.00     0.173 A 
ATOM     65  F   UNL A   1      40.310  30.398  36.000  1.00  0.00    -0.203 F 
ATOM     66  C   UNL A   1      40.712  32.627  36.641  1.00  0.00     0.198 A 
ATOM     67  C   UNL A   1      42.139  34.021  35.306  1.00  0.00     0.198 A 
ATOM     68  F   UNL A   1      43.109  33.174  33.337  1.00  0.00    -0.203 F 
ATOM     69  F   UNL A   1      39.902  32.467  37.697  1.00  0.00    -0.200 F 
ATOM     70  C   UNL A   1      41.325  33.850  36.416  1.00  0.00     0.200 A 
ATOM     71  F   UNL A   1      42.739  35.200  35.094  1.00  0.00    -0.200 F 
ATOM     72  F   UNL A   1      41.123  34.868  37.265  1.00  0.00    -0.200 F 
ENDBRANCH  48  62
BRANCH  49  73
ATOM     73  C   UNL A   1      43.003  24.503  27.841  1.00  0.00     0.064 A 
ATOM     74  C   UNL A   1      43.602  24.794  26.607  1.00  0.00     0.173 A 
ATOM     75  C   UNL A   1      42.612  23.179  28.082  1.00  0.00     0.173 A 
ATOM     76  F   UNL A   1      43.975  26.051  26.325  1.00  0.00    -0.203 F 
ATOM     77  C   UNL A   1      43.785  23.804  25.645  1.00  0.00     0.198 A 
ATOM     78  C   UNL A   1      42.818  22.184  27.129  1.00  0.00     0.198 A 
ATOM     79  F   UNL A   1      42.039  22.849  29.249  1.00  0.00    -0.203 F 
ATOM     80  F   UNL A   1      44.324  24.116  24.459  1.00  0.00    -0.200 F 
ATOM     81  C   UNL A   1      43.397  22.498  25.909  1.00  0.00     0.200 A 
ATOM     82  F   UNL A   1      42.452  20.921  27.392  1.00  0.00    -0.200 F 
ATOM     83  F   UNL A   1      43.576  21.545  24.984  1.00  0.00    -0.200 F 
ENDBRANCH  49  73
BRANCH  61  84
ATOM     84  C   UNL A   1      46.540  26.478  33.505  1.00  0.00     0.064 A 
ATOM     85  C   UNL A   1      47.811  26.978  33.191  1.00  0.00     0.173 A 
ATOM     86  C   UNL A   1      46.447  25.482  34.490  1.00  0.00     0.173 A 
ATOM     87  F   UNL A   1      47.950  27.919  32.245  1.00  0.00    -0.203 F 
ATOM     88  C   UNL A   1      48.948  26.486  33.824  1.00  0.00     0.198 A 
ATOM     89  C   UNL A   1      47.584  25.010  35.138  1.00  0.00     0.198 A 
ATOM     90  F   UNL A   1      45.252  24.976  34.828  1.00  0.00    -0.203 F 
ATOM     91  F   UNL A   1      50.159  26.948  33.479  1.00  0.00    -0.200 F 
ATOM     92  C   UNL A   1      48.833  25.506  34.800  1.00  0.00     0.200 A 
ATOM     93  F   UNL A   1      47.471  24.071  36.088  1.00  0.00    -0.200 F 
ATOM     94  F   UNL A   1      49.930  25.037  35.412  1.00  0.00    -0.200 F 
ENDBRANCH  61  84
ENDBRANCH  35  36
ENDBRANCH  27  30
ENDBRANCH  25  26
ENDBRANCH  24  25
ENDBRANCH  23  24
ENDBRANCH  22  23
ENDBRANCH   1  22
TORSDOF 17
ENDMDL
