MODEL 1
REMARK VINA RESULT:     -11.6      0.000      0.000
REMARK SMILES C[C@@H]1[C@@H](C(=O)NCCCCCCNC(=O)c2ccc(-c3c4nc(c(-c5c(F)c(F)c(F)c(F)c5F)c5ccc([nH]5)c(-c5c(F)c(F)c(F)c(F)c5F)c5nc(c(-c6c(F)c(F)c(F)c(F)c6F)c6ccc3[nH]6)C=C5)C=C4)cc2)CCN1C(=O)[C@]1([NH3+])CCOC1
REMARK SMILES IDX 9 1 8 2 7 3 6 4 4 5 5 6 3 8 1 9 2 10 81 11 79 12 80 13 82 14
REMARK SMILES IDX 83 15 84 16 86 17 89 18 87 19 88 20 85 21 10 25 11 26 12 27
REMARK SMILES IDX 13 28 14 29 15 31 16 32 17 33 78 34 18 35 77 36 19 37 20 38
REMARK SMILES IDX 21 39 71 40 22 41 76 42 70 43 72 44 23 45 75 46 69 47 68 48
REMARK SMILES IDX 24 50 56 51 36 52 55 53 37 54 40 55 54 56 73 57 38 58 39 59
REMARK SMILES IDX 53 61 74 62 41 63 25 64 26 65 34 66 27 67 28 68 32 69 35 70
REMARK SMILES IDX 29 71 30 72 33 73 31 74 57 75 58 76 66 77 59 78 60 79 64 80
REMARK SMILES IDX 67 81 61 82 62 83 65 84 63 85 42 86 43 87 51 88 44 89 45 90
REMARK SMILES IDX 49 91 52 92 46 93 47 94 50 95 48 96
REMARK H PARENT 6 7 85 22 85 23 85 24 13 30 72 49 40 60
REMARK Flexibility Score: inf
ROOT
ATOM      1  C   UNL A   1      34.530  32.697  29.114  1.00  0.00     0.002 C 
ENDROOT
BRANCH   1   2
ATOM      2  C   UNL A   1      35.447  31.857  28.214  1.00  0.00     0.021 C 
BRANCH   2   3
ATOM      3  C   UNL A   1      34.776  30.647  27.562  1.00  0.00     0.116 C 
BRANCH   3   4
ATOM      4  N   UNL A   1      33.394  30.928  27.226  1.00  0.00    -0.356 N 
ATOM      5  C   UNL A   1      32.576  30.357  26.302  1.00  0.00     0.225 C 
ATOM      6  O   UNL A   1      31.424  30.782  26.217  1.00  0.00    -0.275 OA
ATOM      7  H   UNL A   1      32.980  31.650  27.753  1.00  0.00     0.163 HD
BRANCH   5   8
ATOM      8  C   UNL A   1      33.088  29.200  25.457  1.00  0.00     0.102 C 
ATOM      9  C   UNL A   1      33.497  28.501  23.088  1.00  0.00     0.032 C 
ATOM     10  C   UNL A   1      32.510  29.205  24.028  1.00  0.00     0.094 C 
ATOM     11  N   UNL A   1      31.254  28.456  24.135  1.00  0.00    -0.334 N 
ATOM     12  C   UNL A   1      32.611  27.851  26.002  1.00  0.00     0.037 C 
ATOM     13  C   UNL A   1      31.238  27.676  25.371  1.00  0.00     0.121 C 
BRANCH  11  14
ATOM     14  C   UNL A   1      30.104  28.478  23.376  1.00  0.00     0.286 C 
ATOM     15  O   UNL A   1      29.461  27.421  23.247  1.00  0.00    -0.267 OA
BRANCH  14  16
ATOM     16  C   UNL A   1      29.517  29.767  22.684  1.00  0.00     0.199 C 
ATOM     17  C   UNL A   1      29.332  30.970  23.585  1.00  0.00     0.110 C 
ATOM     18  C   UNL A   1      28.144  29.546  22.058  1.00  0.00     0.239 C 
ATOM     19  C   UNL A   1      27.835  31.165  23.710  1.00  0.00     0.167 C 
ATOM     20  O   UNL A   1      27.168  30.229  22.862  1.00  0.00    -0.374 OA
BRANCH  16  21
ATOM     21  N   UNL A   1      30.497  30.161  21.617  1.00  0.00    -0.343 N 
ATOM     22  H   UNL A   1      31.354  30.504  22.051  1.00  0.00     0.345 HD
ATOM     23  H   UNL A   1      30.092  30.896  21.037  1.00  0.00     0.345 HD
ATOM     24  H   UNL A   1      30.712  29.350  21.037  1.00  0.00     0.345 HD
ENDBRANCH  16  21
ENDBRANCH  14  16
ENDBRANCH  11  14
ENDBRANCH   5   8
ENDBRANCH   3   4
ENDBRANCH   2   3
ENDBRANCH   1   2
BRANCH   1  25
ATOM     25  C   UNL A   1      34.543  34.205  28.846  1.00  0.00     0.002 C 
BRANCH  25  26
ATOM     26  C   UNL A   1      33.196  34.911  29.015  1.00  0.00     0.021 C 
BRANCH  26  27
ATOM     27  C   UNL A   1      33.254  36.260  29.728  1.00  0.00     0.116 C 
BRANCH  27  28
ATOM     28  N   UNL A   1      32.421  36.299  30.918  1.00  0.00    -0.352 N 
ATOM     29  C   UNL A   1      32.582  35.667  32.126  1.00  0.00     0.251 C 
ATOM     30  H   UNL A   1      31.619  36.866  30.847  1.00  0.00     0.163 HD
ATOM     31  O   UNL A   1      31.684  35.709  32.961  1.00  0.00    -0.269 OA
BRANCH  29  32
ATOM     32  C   UNL A   1      33.821  34.912  32.424  1.00  0.00     0.039 A 
ATOM     33  C   UNL A   1      35.047  35.574  32.313  1.00  0.00     0.014 A 
ATOM     34  C   UNL A   1      33.790  33.560  32.773  1.00  0.00     0.014 A 
ATOM     35  C   UNL A   1      36.235  34.896  32.599  1.00  0.00     0.010 A 
ATOM     36  C   UNL A   1      34.968  32.902  33.124  1.00  0.00     0.010 A 
ATOM     37  C   UNL A   1      36.203  33.561  33.033  1.00  0.00    -0.014 A 
BRANCH  37  38
ATOM     38  C   UNL A   1      37.457  32.845  33.384  1.00  0.00     0.031 A 
ATOM     39  C   UNL A   1      38.174  33.151  34.670  1.00  0.00     0.074 A 
ATOM     40  C   UNL A   1      37.974  31.947  32.524  1.00  0.00     0.049 A 
ATOM     41  N   UNL A   1      39.291  32.651  35.136  1.00  0.00    -0.248 NA
ATOM     42  C   UNL A   1      37.566  34.171  35.540  1.00  0.00     0.031 C 
ATOM     43  C   UNL A   1      37.401  31.596  31.224  1.00  0.00     0.029 A 
ATOM     44  N   UNL A   1      39.101  31.168  32.612  1.00  0.00    -0.354 N 
ATOM     45  C   UNL A   1      39.524  33.301  36.340  1.00  0.00     0.074 A 
ATOM     46  C   UNL A   1      38.463  34.269  36.511  1.00  0.00     0.031 C 
ATOM     47  C   UNL A   1      38.165  30.653  30.648  1.00  0.00     0.029 A 
ATOM     48  C   UNL A   1      39.296  30.358  31.520  1.00  0.00     0.049 A 
ATOM     49  H   UNL A   1      39.712  31.188  33.384  1.00  0.00     0.167 HD
ATOM     50  C   UNL A   1      40.520  33.091  37.236  1.00  0.00     0.037 A 
ATOM     51  C   UNL A   1      40.279  29.475  31.254  1.00  0.00     0.037 A 
ATOM     52  C   UNL A   1      41.560  32.110  37.079  1.00  0.00     0.049 A 
ATOM     53  C   UNL A   1      41.372  29.262  32.265  1.00  0.00     0.074 A 
ATOM     54  C   UNL A   1      42.576  31.779  37.959  1.00  0.00     0.029 A 
ATOM     55  N   UNL A   1      41.719  31.299  35.964  1.00  0.00    -0.354 N 
ATOM     56  N   UNL A   1      41.541  29.831  33.434  1.00  0.00    -0.248 NA
ATOM     57  C   UNL A   1      42.408  28.278  31.923  1.00  0.00     0.031 C 
ATOM     58  C   UNL A   1      43.375  30.801  37.359  1.00  0.00     0.029 A 
ATOM     59  C   UNL A   1      42.830  30.486  36.125  1.00  0.00     0.049 A 
ATOM     60  H   UNL A   1      41.130  31.302  35.176  1.00  0.00     0.167 HD
ATOM     61  C   UNL A   1      42.684  29.259  33.976  1.00  0.00     0.074 A 
ATOM     62  C   UNL A   1      43.157  28.283  33.016  1.00  0.00     0.031 C 
ATOM     63  C   UNL A   1      43.287  29.518  35.162  1.00  0.00     0.037 A 
BRANCH  50  64
ATOM     64  C   UNL A   1      40.525  33.939  38.476  1.00  0.00     0.064 A 
ATOM     65  C   UNL A   1      39.808  33.567  39.624  1.00  0.00     0.173 A 
ATOM     66  C   UNL A   1      41.290  35.115  38.532  1.00  0.00     0.173 A 
ATOM     67  F   UNL A   1      39.054  32.459  39.618  1.00  0.00    -0.203 F 
ATOM     68  C   UNL A   1      39.832  34.357  40.771  1.00  0.00     0.198 A 
ATOM     69  C   UNL A   1      41.335  35.885  39.692  1.00  0.00     0.198 A 
ATOM     70  F   UNL A   1      42.000  35.512  37.466  1.00  0.00    -0.203 F 
ATOM     71  F   UNL A   1      39.100  34.007  41.837  1.00  0.00    -0.200 F 
ATOM     72  C   UNL A   1      40.601  35.510  40.806  1.00  0.00     0.200 A 
ATOM     73  F   UNL A   1      42.088  36.993  39.729  1.00  0.00    -0.200 F 
ATOM     74  F   UNL A   1      40.628  36.265  41.913  1.00  0.00    -0.200 F 
ENDBRANCH  50  64
BRANCH  51  75
ATOM     75  C   UNL A   1      40.258  28.703  29.984  1.00  0.00     0.064 A 
ATOM     76  C   UNL A   1      40.910  29.186  28.840  1.00  0.00     0.173 A 
ATOM     77  C   UNL A   1      39.585  27.478  29.884  1.00  0.00     0.173 A 
ATOM     78  F   UNL A   1      41.550  30.364  28.881  1.00  0.00    -0.203 F 
ATOM     79  C   UNL A   1      40.871  28.481  27.639  1.00  0.00     0.198 A 
ATOM     80  C   UNL A   1      39.569  26.761  28.689  1.00  0.00     0.198 A 
ATOM     81  F   UNL A   1      38.949  26.971  30.951  1.00  0.00    -0.203 F 
ATOM     82  F   UNL A   1      41.463  28.988  26.548  1.00  0.00    -0.200 F 
ATOM     83  C   UNL A   1      40.206  27.267  27.566  1.00  0.00     0.200 A 
ATOM     84  F   UNL A   1      38.937  25.581  28.626  1.00  0.00    -0.200 F 
ATOM     85  F   UNL A   1      40.170  26.588  26.411  1.00  0.00    -0.200 F 
ENDBRANCH  51  75
BRANCH  63  86
ATOM     86  C   UNL A   1      44.512  28.718  35.498  1.00  0.00     0.064 A 
ATOM     87  C   UNL A   1      44.425  27.489  36.168  1.00  0.00     0.173 A 
ATOM     88  C   UNL A   1      45.784  29.171  35.115  1.00  0.00     0.173 A 
ATOM     89  F   UNL A   1      43.234  27.022  36.569  1.00  0.00    -0.203 F 
ATOM     90  C   UNL A   1      45.570  26.756  36.466  1.00  0.00     0.198 A 
ATOM     91  C   UNL A   1      46.923  28.420  35.389  1.00  0.00     0.198 A 
ATOM     92  F   UNL A   1      45.920  30.337  34.467  1.00  0.00    -0.203 F 
ATOM     93  F   UNL A   1      45.469  25.607  37.151  1.00  0.00    -0.200 F 
ATOM     94  C   UNL A   1      46.817  27.217  36.071  1.00  0.00     0.200 A 
ATOM     95  F   UNL A   1      48.126  28.862  34.995  1.00  0.00    -0.200 F 
ATOM     96  F   UNL A   1      47.917  26.507  36.354  1.00  0.00    -0.200 F 
ENDBRANCH  63  86
ENDBRANCH  37  38
ENDBRANCH  29  32
ENDBRANCH  27  28
ENDBRANCH  26  27
ENDBRANCH  25  26
ENDBRANCH   1  25
TORSDOF 16
ENDMDL
MODEL 2
REMARK VINA RESULT:     -11.5      1.613      7.631
REMARK SMILES C[C@@H]1[C@@H](C(=O)NCCCCCCNC(=O)c2ccc(-c3c4nc(c(-c5c(F)c(F)c(F)c(F)c5F)c5ccc([nH]5)c(-c5c(F)c(F)c(F)c(F)c5F)c5nc(c(-c6c(F)c(F)c(F)c(F)c6F)c6ccc3[nH]6)C=C5)C=C4)cc2)CCN1C(=O)[C@]1([NH3+])CCOC1
REMARK SMILES IDX 9 1 8 2 7 3 6 4 4 5 5 6 3 8 1 9 2 10 81 11 79 12 80 13 82 14
REMARK SMILES IDX 83 15 84 16 86 17 89 18 87 19 88 20 85 21 10 25 11 26 12 27
REMARK SMILES IDX 13 28 14 29 15 31 16 32 17 33 78 34 18 35 77 36 19 37 20 38
REMARK SMILES IDX 21 39 71 40 22 41 76 42 70 43 72 44 23 45 75 46 69 47 68 48
REMARK SMILES IDX 24 50 56 51 36 52 55 53 37 54 40 55 54 56 73 57 38 58 39 59
REMARK SMILES IDX 53 61 74 62 41 63 25 64 26 65 34 66 27 67 28 68 32 69 35 70
REMARK SMILES IDX 29 71 30 72 33 73 31 74 57 75 58 76 66 77 59 78 60 79 64 80
REMARK SMILES IDX 67 81 61 82 62 83 65 84 63 85 42 86 43 87 51 88 44 89 45 90
REMARK SMILES IDX 49 91 52 92 46 93 47 94 50 95 48 96
REMARK H PARENT 6 7 85 22 85 23 85 24 13 30 72 49 40 60
REMARK Flexibility Score: inf
ROOT
ATOM      1  C   UNL A   1      32.449  29.817  27.250  1.00  0.00     0.002 C 
ENDROOT
BRANCH   1   2
ATOM      2  C   UNL A   1      32.168  28.310  27.171  1.00  0.00     0.021 C 
BRANCH   2   3
ATOM      3  C   UNL A   1      33.331  27.465  26.652  1.00  0.00     0.116 C 
BRANCH   3   4
ATOM      4  N   UNL A   1      32.863  26.212  26.092  1.00  0.00    -0.356 N 
ATOM      5  C   UNL A   1      32.706  25.827  24.797  1.00  0.00     0.225 C 
ATOM      6  O   UNL A   1      32.290  24.688  24.585  1.00  0.00    -0.275 OA
ATOM      7  H   UNL A   1      32.619  25.528  26.757  1.00  0.00     0.163 HD
BRANCH   5   8
ATOM      8  C   UNL A   1      33.093  26.781  23.677  1.00  0.00     0.102 C 
ATOM      9  C   UNL A   1      33.080  29.202  23.038  1.00  0.00     0.032 C 
ATOM     10  C   UNL A   1      32.261  28.078  23.685  1.00  0.00     0.094 C 
ATOM     11  N   UNL A   1      31.073  27.760  22.885  1.00  0.00    -0.334 N 
ATOM     12  C   UNL A   1      32.774  26.192  22.300  1.00  0.00     0.037 C 
ATOM     13  C   UNL A   1      31.315  26.562  22.082  1.00  0.00     0.121 C 
BRANCH  11  14
ATOM     14  C   UNL A   1      29.802  28.293  22.876  1.00  0.00     0.286 C 
ATOM     15  O   UNL A   1      28.864  27.590  23.290  1.00  0.00    -0.267 OA
BRANCH  14  16
ATOM     16  C   UNL A   1      29.453  29.758  22.409  1.00  0.00     0.199 C 
ATOM     17  C   UNL A   1      29.425  30.806  23.502  1.00  0.00     0.110 C 
ATOM     18  C   UNL A   1      28.088  29.871  21.739  1.00  0.00     0.239 C 
ATOM     19  C   UNL A   1      27.974  31.217  23.641  1.00  0.00     0.167 C 
ATOM     20  O   UNL A   1      27.201  30.557  22.637  1.00  0.00    -0.374 OA
BRANCH  16  21
ATOM     21  N   UNL A   1      30.523  30.161  21.437  1.00  0.00    -0.343 N 
ATOM     22  H   UNL A   1      30.267  31.045  20.996  1.00  0.00     0.345 HD
ATOM     23  H   UNL A   1      30.622  29.441  20.721  1.00  0.00     0.345 HD
ATOM     24  H   UNL A   1      31.408  30.273  21.933  1.00  0.00     0.345 HD
ENDBRANCH  16  21
ENDBRANCH  14  16
ENDBRANCH  11  14
ENDBRANCH   5   8
ENDBRANCH   3   4
ENDBRANCH   2   3
ENDBRANCH   1   2
BRANCH   1  25
ATOM     25  C   UNL A   1      31.608  30.696  26.319  1.00  0.00     0.002 C 
BRANCH  25  26
ATOM     26  C   UNL A   1      31.410  32.140  26.784  1.00  0.00     0.021 C 
BRANCH  26  27
ATOM     27  C   UNL A   1      32.695  32.913  27.070  1.00  0.00     0.116 C 
BRANCH  27  28
ATOM     28  N   UNL A   1      32.442  34.246  27.590  1.00  0.00    -0.352 N 
ATOM     29  C   UNL A   1      33.023  34.903  28.645  1.00  0.00     0.251 C 
ATOM     30  H   UNL A   1      31.748  34.755  27.111  1.00  0.00     0.163 HD
ATOM     31  O   UNL A   1      32.563  35.977  29.023  1.00  0.00    -0.269 OA
BRANCH  29  32
ATOM     32  C   UNL A   1      34.186  34.319  29.352  1.00  0.00     0.039 A 
ATOM     33  C   UNL A   1      33.953  33.554  30.499  1.00  0.00     0.014 A 
ATOM     34  C   UNL A   1      35.495  34.546  28.921  1.00  0.00     0.014 A 
ATOM     35  C   UNL A   1      35.025  32.978  31.183  1.00  0.00     0.010 A 
ATOM     36  C   UNL A   1      36.561  33.915  29.563  1.00  0.00     0.010 A 
ATOM     37  C   UNL A   1      36.337  33.131  30.705  1.00  0.00    -0.014 A 
BRANCH  37  38
ATOM     38  C   UNL A   1      37.480  32.485  31.400  1.00  0.00     0.031 A 
ATOM     39  C   UNL A   1      38.214  31.341  30.755  1.00  0.00     0.074 A 
ATOM     40  C   UNL A   1      37.834  32.900  32.631  1.00  0.00     0.049 A 
ATOM     41  N   UNL A   1      39.216  30.634  31.215  1.00  0.00    -0.248 NA
ATOM     42  C   UNL A   1      37.745  30.920  29.425  1.00  0.00     0.031 C 
ATOM     43  C   UNL A   1      37.172  33.966  33.384  1.00  0.00     0.029 A 
ATOM     44  N   UNL A   1      38.834  32.472  33.469  1.00  0.00    -0.354 N 
ATOM     45  C   UNL A   1      39.488  29.683  30.240  1.00  0.00     0.074 A 
ATOM     46  C   UNL A   1      38.514  29.866  29.187  1.00  0.00     0.031 C 
ATOM     47  C   UNL A   1      37.800  34.128  34.560  1.00  0.00     0.029 A 
ATOM     48  C   UNL A   1      38.885  33.157  34.659  1.00  0.00     0.049 A 
ATOM     49  H   UNL A   1      39.456  31.744  33.239  1.00  0.00     0.167 HD
ATOM     50  C   UNL A   1      40.478  28.757  30.214  1.00  0.00     0.037 A 
ATOM     51  C   UNL A   1      39.715  33.016  35.710  1.00  0.00     0.037 A 
ATOM     52  C   UNL A   1      41.463  28.592  31.250  1.00  0.00     0.049 A 
ATOM     53  C   UNL A   1      40.804  31.979  35.656  1.00  0.00     0.074 A 
ATOM     54  C   UNL A   1      42.541  27.725  31.286  1.00  0.00     0.029 A 
ATOM     55  N   UNL A   1      41.489  29.312  32.437  1.00  0.00    -0.354 N 
ATOM     56  N   UNL A   1      41.096  31.134  34.697  1.00  0.00    -0.248 NA
ATOM     57  C   UNL A   1      41.684  31.882  36.829  1.00  0.00     0.031 C 
ATOM     58  C   UNL A   1      43.194  27.888  32.513  1.00  0.00     0.029 A 
ATOM     59  C   UNL A   1      42.552  28.891  33.221  1.00  0.00     0.049 A 
ATOM     60  H   UNL A   1      40.848  30.016  32.684  1.00  0.00     0.167 HD
ATOM     61  C   UNL A   1      42.204  30.424  35.138  1.00  0.00     0.074 A 
ATOM     62  C   UNL A   1      42.544  30.951  36.444  1.00  0.00     0.031 C 
ATOM     63  C   UNL A   1      42.879  29.426  34.517  1.00  0.00     0.037 A 
BRANCH  50  64
ATOM     64  C   UNL A   1      40.548  27.851  29.019  1.00  0.00     0.064 A 
ATOM     65  C   UNL A   1      39.785  26.676  28.941  1.00  0.00     0.173 A 
ATOM     66  C   UNL A   1      41.355  28.183  27.920  1.00  0.00     0.173 A 
ATOM     67  F   UNL A   1      39.006  26.308  29.969  1.00  0.00    -0.203 F 
ATOM     68  C   UNL A   1      39.851  25.851  27.821  1.00  0.00     0.198 A 
ATOM     69  C   UNL A   1      41.395  27.371  26.788  1.00  0.00     0.198 A 
ATOM     70  F   UNL A   1      42.098  29.300  27.938  1.00  0.00    -0.203 F 
ATOM     71  F   UNL A   1      39.151  24.709  27.790  1.00  0.00    -0.200 F 
ATOM     72  C   UNL A   1      40.650  26.203  26.743  1.00  0.00     0.200 A 
ATOM     73  F   UNL A   1      42.156  27.719  25.742  1.00  0.00    -0.200 F 
ATOM     74  F   UNL A   1      40.707  25.412  25.663  1.00  0.00    -0.200 F 
ENDBRANCH  50  64
BRANCH  51  75
ATOM     75  C   UNL A   1      39.565  33.899  36.897  1.00  0.00     0.064 A 
ATOM     76  C   UNL A   1      40.200  35.148  36.946  1.00  0.00     0.173 A 
ATOM     77  C   UNL A   1      38.796  33.513  38.003  1.00  0.00     0.173 A 
ATOM     78  F   UNL A   1      40.964  35.552  35.921  1.00  0.00    -0.203 F 
ATOM     79  C   UNL A   1      40.087  35.968  38.067  1.00  0.00     0.198 A 
ATOM     80  C   UNL A   1      38.662  34.346  39.112  1.00  0.00     0.198 A 
ATOM     81  F   UNL A   1      38.166  32.328  38.003  1.00  0.00    -0.203 F 
ATOM     82  F   UNL A   1      40.742  37.136  38.108  1.00  0.00    -0.200 F 
ATOM     83  C   UNL A   1      39.313  35.569  39.146  1.00  0.00     0.200 A 
ATOM     84  F   UNL A   1      37.902  33.962  40.147  1.00  0.00    -0.200 F 
ATOM     85  F   UNL A   1      39.203  36.359  40.223  1.00  0.00    -0.200 F 
ENDBRANCH  51  75
BRANCH  63  86
ATOM     86  C   UNL A   1      44.068  28.854  35.233  1.00  0.00     0.064 A 
ATOM     87  C   UNL A   1      45.354  29.388  35.063  1.00  0.00     0.173 A 
ATOM     88  C   UNL A   1      43.913  27.781  36.123  1.00  0.00     0.173 A 
ATOM     89  F   UNL A   1      45.556  30.403  34.210  1.00  0.00    -0.203 F 
ATOM     90  C   UNL A   1      46.446  28.850  35.739  1.00  0.00     0.198 A 
ATOM     91  C   UNL A   1      45.003  27.266  36.820  1.00  0.00     0.198 A 
ATOM     92  F   UNL A   1      42.704  27.238  36.325  1.00  0.00    -0.203 F 
ATOM     93  F   UNL A   1      47.674  29.344  35.525  1.00  0.00    -0.200 F 
ATOM     94  C   UNL A   1      46.269  27.795  36.622  1.00  0.00     0.200 A 
ATOM     95  F   UNL A   1      44.828  26.254  37.682  1.00  0.00    -0.200 F 
ATOM     96  F   UNL A   1      47.321  27.283  37.276  1.00  0.00    -0.200 F 
ENDBRANCH  63  86
ENDBRANCH  37  38
ENDBRANCH  29  32
ENDBRANCH  27  28
ENDBRANCH  26  27
ENDBRANCH  25  26
ENDBRANCH   1  25
TORSDOF 16
ENDMDL
MODEL 3
REMARK VINA RESULT:     -11.3      1.765      3.039
REMARK SMILES C[C@@H]1[C@@H](C(=O)NCCCCCCNC(=O)c2ccc(-c3c4nc(c(-c5c(F)c(F)c(F)c(F)c5F)c5ccc([nH]5)c(-c5c(F)c(F)c(F)c(F)c5F)c5nc(c(-c6c(F)c(F)c(F)c(F)c6F)c6ccc3[nH]6)C=C5)C=C4)cc2)CCN1C(=O)[C@]1([NH3+])CCOC1
REMARK SMILES IDX 9 1 8 2 7 3 6 4 4 5 5 6 3 8 1 9 2 10 81 11 79 12 80 13 82 14
REMARK SMILES IDX 83 15 84 16 86 17 89 18 87 19 88 20 85 21 10 25 11 26 12 27
REMARK SMILES IDX 13 28 14 29 15 31 16 32 17 33 78 34 18 35 77 36 19 37 20 38
REMARK SMILES IDX 21 39 71 40 22 41 76 42 70 43 72 44 23 45 75 46 69 47 68 48
REMARK SMILES IDX 24 50 56 51 36 52 55 53 37 54 40 55 54 56 73 57 38 58 39 59
REMARK SMILES IDX 53 61 74 62 41 63 25 64 26 65 34 66 27 67 28 68 32 69 35 70
REMARK SMILES IDX 29 71 30 72 33 73 31 74 57 75 58 76 66 77 59 78 60 79 64 80
REMARK SMILES IDX 67 81 61 82 62 83 65 84 63 85 42 86 43 87 51 88 44 89 45 90
REMARK SMILES IDX 49 91 52 92 46 93 47 94 50 95 48 96
REMARK H PARENT 6 7 85 22 85 23 85 24 13 30 72 49 40 60
REMARK Flexibility Score: inf
ROOT
ATOM      1  C   UNL A   1      32.312  29.611  27.274  1.00  0.00     0.002 C 
ENDROOT
BRANCH   1   2
ATOM      2  C   UNL A   1      32.102  28.103  27.081  1.00  0.00     0.021 C 
BRANCH   2   3
ATOM      3  C   UNL A   1      33.313  27.349  26.532  1.00  0.00     0.116 C 
BRANCH   3   4
ATOM      4  N   UNL A   1      32.920  26.092  25.924  1.00  0.00    -0.356 N 
ATOM      5  C   UNL A   1      32.804  25.742  24.615  1.00  0.00     0.225 C 
ATOM      6  O   UNL A   1      32.452  24.590  24.360  1.00  0.00    -0.275 OA
ATOM      7  H   UNL A   1      32.702  25.375  26.563  1.00  0.00     0.163 HD
BRANCH   5   8
ATOM      8  C   UNL A   1      33.158  26.750  23.533  1.00  0.00     0.102 C 
ATOM      9  C   UNL A   1      33.121  29.199  23.012  1.00  0.00     0.032 C 
ATOM     10  C   UNL A   1      32.322  28.042  23.627  1.00  0.00     0.094 C 
ATOM     11  N   UNL A   1      31.115  27.758  22.844  1.00  0.00    -0.334 N 
ATOM     12  C   UNL A   1      32.804  26.227  22.138  1.00  0.00     0.037 C 
ATOM     13  C   UNL A   1      31.338  26.601  21.978  1.00  0.00     0.121 C 
BRANCH  11  14
ATOM     14  C   UNL A   1      29.842  28.285  22.894  1.00  0.00     0.286 C 
ATOM     15  O   UNL A   1      28.932  27.586  23.372  1.00  0.00    -0.267 OA
BRANCH  14  16
ATOM     16  C   UNL A   1      29.460  29.740  22.421  1.00  0.00     0.199 C 
ATOM     17  C   UNL A   1      29.394  30.789  23.511  1.00  0.00     0.110 C 
ATOM     18  C   UNL A   1      28.100  29.816  21.737  1.00  0.00     0.239 C 
ATOM     19  C   UNL A   1      27.932  31.162  23.635  1.00  0.00     0.167 C 
ATOM     20  O   UNL A   1      27.187  30.481  22.625  1.00  0.00    -0.374 OA
BRANCH  16  21
ATOM     21  N   UNL A   1      30.530  30.169  21.459  1.00  0.00    -0.343 N 
ATOM     22  H   UNL A   1      31.244  29.443  21.398  1.00  0.00     0.345 HD
ATOM     23  H   UNL A   1      30.955  31.036  21.788  1.00  0.00     0.345 HD
ATOM     24  H   UNL A   1      30.119  30.318  20.538  1.00  0.00     0.345 HD
ENDBRANCH  16  21
ENDBRANCH  14  16
ENDBRANCH  11  14
ENDBRANCH   5   8
ENDBRANCH   3   4
ENDBRANCH   2   3
ENDBRANCH   1   2
BRANCH   1  25
ATOM     25  C   UNL A   1      31.542  30.515  26.307  1.00  0.00     0.002 C 
BRANCH  25  26
ATOM     26  C   UNL A   1      31.408  31.975  26.743  1.00  0.00     0.021 C 
BRANCH  26  27
ATOM     27  C   UNL A   1      32.725  32.732  26.897  1.00  0.00     0.116 C 
BRANCH  27  28
ATOM     28  N   UNL A   1      32.560  34.013  27.562  1.00  0.00    -0.352 N 
ATOM     29  C   UNL A   1      33.213  34.528  28.653  1.00  0.00     0.251 C 
ATOM     30  H   UNL A   1      31.874  34.601  27.169  1.00  0.00     0.163 HD
ATOM     31  O   UNL A   1      32.823  35.577  29.159  1.00  0.00    -0.269 OA
BRANCH  29  32
ATOM     32  C   UNL A   1      34.371  33.820  29.244  1.00  0.00     0.039 A 
ATOM     33  C   UNL A   1      35.657  34.274  28.937  1.00  0.00     0.014 A 
ATOM     34  C   UNL A   1      34.206  32.699  30.061  1.00  0.00     0.014 A 
ATOM     35  C   UNL A   1      36.772  33.637  29.487  1.00  0.00     0.010 A 
ATOM     36  C   UNL A   1      35.315  32.105  30.665  1.00  0.00     0.010 A 
ATOM     37  C   UNL A   1      36.609  32.563  30.377  1.00  0.00    -0.014 A 
BRANCH  37  38
ATOM     38  C   UNL A   1      37.787  31.908  31.003  1.00  0.00     0.031 A 
ATOM     39  C   UNL A   1      38.225  32.294  32.389  1.00  0.00     0.074 A 
ATOM     40  C   UNL A   1      38.489  30.993  30.307  1.00  0.00     0.049 A 
ATOM     41  N   UNL A   1      39.240  31.855  33.090  1.00  0.00    -0.248 NA
ATOM     42  C   UNL A   1      37.429  33.328  33.071  1.00  0.00     0.031 C 
ATOM     43  C   UNL A   1      38.196  30.568  28.938  1.00  0.00     0.029 A 
ATOM     44  N   UNL A   1      39.597  30.261  30.654  1.00  0.00    -0.354 N 
ATOM     45  C   UNL A   1      39.211  32.563  34.284  1.00  0.00     0.074 A 
ATOM     46  C   UNL A   1      38.112  33.499  34.194  1.00  0.00     0.031 C 
ATOM     47  C   UNL A   1      39.084  29.629  28.571  1.00  0.00     0.029 A 
ATOM     48  C   UNL A   1      40.027  29.412  29.663  1.00  0.00     0.049 A 
ATOM     49  H   UNL A   1      40.040  30.335  31.530  1.00  0.00     0.167 HD
ATOM     50  C   UNL A   1      40.013  32.428  35.368  1.00  0.00     0.037 A 
ATOM     51  C   UNL A   1      41.066  28.555  29.640  1.00  0.00     0.037 A 
ATOM     52  C   UNL A   1      41.090  31.479  35.468  1.00  0.00     0.049 A 
ATOM     53  C   UNL A   1      41.941  28.425  30.856  1.00  0.00     0.074 A 
ATOM     54  C   UNL A   1      41.919  31.223  36.546  1.00  0.00     0.029 A 
ATOM     55  N   UNL A   1      41.490  30.628  34.447  1.00  0.00    -0.354 N 
ATOM     56  N   UNL A   1      41.859  29.049  32.006  1.00  0.00    -0.248 NA
ATOM     57  C   UNL A   1      43.051  27.465  30.774  1.00  0.00     0.031 C 
ATOM     58  C   UNL A   1      42.848  30.249  36.164  1.00  0.00     0.029 A 
ATOM     59  C   UNL A   1      42.568  29.863  34.864  1.00  0.00     0.049 A 
ATOM     60  H   UNL A   1      41.069  30.576  33.559  1.00  0.00     0.167 HD
ATOM     61  C   UNL A   1      42.886  28.541  32.790  1.00  0.00     0.074 A 
ATOM     62  C   UNL A   1      43.567  27.543  31.991  1.00  0.00     0.031 C 
ATOM     63  C   UNL A   1      43.233  28.872  34.058  1.00  0.00     0.037 A 
BRANCH  50  64
ATOM     64  C   UNL A   1      39.749  33.326  36.542  1.00  0.00     0.064 A 
ATOM     65  C   UNL A   1      40.384  34.572  36.672  1.00  0.00     0.173 A 
ATOM     66  C   UNL A   1      38.821  32.957  37.528  1.00  0.00     0.173 A 
ATOM     67  F   UNL A   1      41.287  34.966  35.762  1.00  0.00    -0.203 F 
ATOM     68  C   UNL A   1      40.120  35.400  37.760  1.00  0.00     0.198 A 
ATOM     69  C   UNL A   1      38.539  33.803  38.598  1.00  0.00     0.198 A 
ATOM     70  F   UNL A   1      38.180  31.781  37.448  1.00  0.00    -0.203 F 
ATOM     71  F   UNL A   1      40.775  36.563  37.887  1.00  0.00    -0.200 F 
ATOM     72  C   UNL A   1      39.194  35.019  38.717  1.00  0.00     0.200 A 
ATOM     73  F   UNL A   1      37.633  33.439  39.516  1.00  0.00    -0.200 F 
ATOM     74  F   UNL A   1      38.937  35.820  39.760  1.00  0.00    -0.200 F 
ENDBRANCH  50  64
BRANCH  51  75
ATOM     75  C   UNL A   1      41.320  27.730  28.429  1.00  0.00     0.064 A 
ATOM     76  C   UNL A   1      42.214  28.163  27.440  1.00  0.00     0.173 A 
ATOM     77  C   UNL A   1      40.672  26.502  28.233  1.00  0.00     0.173 A 
ATOM     78  F   UNL A   1      42.841  29.340  27.573  1.00  0.00    -0.203 F 
ATOM     79  C   UNL A   1      42.435  27.408  26.290  1.00  0.00     0.198 A 
ATOM     80  C   UNL A   1      40.915  25.735  27.095  1.00  0.00     0.198 A 
ATOM     81  F   UNL A   1      39.810  26.042  29.152  1.00  0.00    -0.203 F 
ATOM     82  F   UNL A   1      43.259  27.866  25.339  1.00  0.00    -0.200 F 
ATOM     83  C   UNL A   1      41.789  26.192  26.122  1.00  0.00     0.200 A 
ATOM     84  F   UNL A   1      40.299  24.555  26.942  1.00  0.00    -0.200 F 
ATOM     85  F   UNL A   1      42.004  25.465  25.016  1.00  0.00    -0.200 F 
ENDBRANCH  51  75
BRANCH  63  86
ATOM     86  C   UNL A   1      44.388  28.132  34.668  1.00  0.00     0.064 A 
ATOM     87  C   UNL A   1      45.698  28.626  34.595  1.00  0.00     0.173 A 
ATOM     88  C   UNL A   1      44.175  26.931  35.363  1.00  0.00     0.173 A 
ATOM     89  F   UNL A   1      45.956  29.760  33.928  1.00  0.00    -0.203 F 
ATOM     90  C   UNL A   1      46.758  27.931  35.172  1.00  0.00     0.198 A 
ATOM     91  C   UNL A   1      45.233  26.255  35.965  1.00  0.00     0.198 A 
ATOM     92  F   UNL A   1      42.940  26.420  35.467  1.00  0.00    -0.203 F 
ATOM     93  F   UNL A   1      48.009  28.396  35.049  1.00  0.00    -0.200 F 
ATOM     94  C   UNL A   1      46.523  26.751  35.863  1.00  0.00     0.200 A 
ATOM     95  F   UNL A   1      45.003  25.121  36.642  1.00  0.00    -0.200 F 
ATOM     96  F   UNL A   1      47.544  26.086  36.422  1.00  0.00    -0.200 F 
ENDBRANCH  63  86
ENDBRANCH  37  38
ENDBRANCH  29  32
ENDBRANCH  27  28
ENDBRANCH  26  27
ENDBRANCH  25  26
ENDBRANCH   1  25
TORSDOF 16
ENDMDL
