MODEL 1
REMARK VINA RESULT:     -10.5      0.000      0.000
REMARK SMILES CC[N@H+](CC(C)(C)C(=O)NCCCCCCNC(=O)c1ccc(-c2c3nc(c(-c4c(F)c(F)c(F)c(F)c4F)c4ccc([nH]4)c(-c4c(F)c(F)c(F)c(F)c4F)c4nc(c(-c5c(F)c(F)c(F)c(F)c5F)c5ccc2[nH]5)C=C4)C=C3)cc1)[C@H]1CC[NH2+]C1
REMARK SMILES IDX 13 1 12 2 11 3 10 4 8 5 9 6 5 8 6 9 7 10 4 11 3 12 2 14 1 15
REMARK SMILES IDX 83 16 84 17 87 18 85 19 86 20 14 23 15 24 16 25 17 26 18 27
REMARK SMILES IDX 19 29 20 30 21 31 82 32 22 33 81 34 23 35 24 36 25 37 75 38
REMARK SMILES IDX 26 39 80 40 74 41 76 42 27 43 79 44 73 45 72 46 28 48 60 49
REMARK SMILES IDX 40 50 59 51 41 52 44 53 58 54 77 55 42 56 43 57 57 59 78 60
REMARK SMILES IDX 45 61 29 62 30 63 38 64 31 65 32 66 36 67 39 68 33 69 34 70
REMARK SMILES IDX 37 71 35 72 61 73 62 74 70 75 63 76 64 77 68 78 71 79 65 80
REMARK SMILES IDX 66 81 69 82 67 83 46 84 47 85 55 86 48 87 49 88 53 89 56 90
REMARK SMILES IDX 50 91 51 92 54 93 52 94
REMARK H PARENT 10 7 3 13 86 21 86 22 17 28 76 47 44 58
REMARK Flexibility Score: inf
ROOT
ATOM      1  C   UNL A   1      34.760  32.663  28.946  1.00  0.00     0.002 C 
ENDROOT
BRANCH   1   2
ATOM      2  C   UNL A   1      35.120  31.771  27.749  1.00  0.00     0.021 C 
BRANCH   2   3
ATOM      3  C   UNL A   1      34.582  30.343  27.846  1.00  0.00     0.116 C 
BRANCH   3   4
ATOM      4  N   UNL A   1      34.572  29.738  26.533  1.00  0.00    -0.355 N 
ATOM      5  C   UNL A   1      33.609  29.016  25.911  1.00  0.00     0.231 C 
ATOM      6  O   UNL A   1      34.017  28.106  25.183  1.00  0.00    -0.274 OA
ATOM      7  H   UNL A   1      35.395  29.872  26.008  1.00  0.00     0.163 HD
BRANCH   5   8
ATOM      8  C   UNL A   1      32.108  29.292  26.110  1.00  0.00     0.092 C 
ATOM      9  C   UNL A   1      31.744  30.785  26.200  1.00  0.00     0.027 C 
ATOM     10  C   UNL A   1      31.666  28.561  27.394  1.00  0.00     0.027 C 
BRANCH   8  11
ATOM     11  C   UNL A   1      31.311  28.659  24.911  1.00  0.00     0.279 C 
BRANCH  11  12
ATOM     12  N   UNL A   1      30.970  29.530  23.741  1.00  0.00    -0.327 N 
ATOM     13  H   UNL A   1      31.405  30.447  23.829  1.00  0.00     0.348 HD
BRANCH  12  14
ATOM     14  C   UNL A   1      31.534  28.978  22.490  1.00  0.00     0.259 C 
ATOM     15  C   UNL A   1      32.120  27.573  22.531  1.00  0.00     0.071 C 
ENDBRANCH  12  14
BRANCH  12  16
ATOM     16  C   UNL A   1      29.508  29.764  23.723  1.00  0.00     0.245 C 
ATOM     17  C   UNL A   1      29.114  31.229  23.556  1.00  0.00     0.132 C 
ATOM     18  C   UNL A   1      28.603  29.005  22.730  1.00  0.00     0.326 C 
ATOM     19  C   UNL A   1      27.665  31.125  23.119  1.00  0.00     0.267 C 
ATOM     20  N   UNL A   1      27.632  29.983  22.198  1.00  0.00    -0.341 N 
ATOM     21  H   UNL A   1      27.901  30.276  21.259  1.00  0.00     0.346 HD
ATOM     22  H   UNL A   1      26.696  29.582  22.131  1.00  0.00     0.346 HD
ENDBRANCH  12  16
ENDBRANCH  11  12
ENDBRANCH   8  11
ENDBRANCH   5   8
ENDBRANCH   3   4
ENDBRANCH   2   3
ENDBRANCH   1   2
BRANCH   1  23
ATOM     23  C   UNL A   1      34.607  34.152  28.620  1.00  0.00     0.002 C 
BRANCH  23  24
ATOM     24  C   UNL A   1      33.228  34.740  28.929  1.00  0.00     0.021 C 
BRANCH  24  25
ATOM     25  C   UNL A   1      33.254  36.131  29.550  1.00  0.00     0.116 C 
BRANCH  25  26
ATOM     26  N   UNL A   1      32.448  36.212  30.756  1.00  0.00    -0.352 N 
ATOM     27  C   UNL A   1      32.632  35.595  31.964  1.00  0.00     0.251 C 
ATOM     28  H   UNL A   1      31.656  36.794  30.696  1.00  0.00     0.163 HD
ATOM     29  O   UNL A   1      31.752  35.642  32.822  1.00  0.00    -0.269 OA
BRANCH  27  30
ATOM     30  C   UNL A   1      33.879  34.848  32.231  1.00  0.00     0.039 A 
ATOM     31  C   UNL A   1      35.095  35.533  32.164  1.00  0.00     0.014 A 
ATOM     32  C   UNL A   1      33.857  33.482  32.532  1.00  0.00     0.014 A 
ATOM     33  C   UNL A   1      36.284  34.859  32.442  1.00  0.00     0.010 A 
ATOM     34  C   UNL A   1      35.037  32.829  32.878  1.00  0.00     0.010 A 
ATOM     35  C   UNL A   1      36.263  33.508  32.827  1.00  0.00    -0.014 A 
BRANCH  35  36
ATOM     36  C   UNL A   1      37.522  32.806  33.183  1.00  0.00     0.031 A 
ATOM     37  C   UNL A   1      38.231  33.115  34.470  1.00  0.00     0.074 A 
ATOM     38  C   UNL A   1      38.045  31.912  32.321  1.00  0.00     0.049 A 
ATOM     39  N   UNL A   1      39.332  32.596  34.953  1.00  0.00    -0.248 NA
ATOM     40  C   UNL A   1      37.644  34.166  35.315  1.00  0.00     0.031 C 
ATOM     41  C   UNL A   1      37.484  31.576  31.011  1.00  0.00     0.029 A 
ATOM     42  N   UNL A   1      39.163  31.125  32.416  1.00  0.00    -0.354 N 
ATOM     43  C   UNL A   1      39.572  33.261  36.148  1.00  0.00     0.074 A 
ATOM     44  C   UNL A   1      38.535  34.260  36.291  1.00  0.00     0.031 C 
ATOM     45  C   UNL A   1      38.245  30.630  30.439  1.00  0.00     0.029 A 
ATOM     46  C   UNL A   1      39.358  30.312  31.327  1.00  0.00     0.049 A 
ATOM     47  H   UNL A   1      39.769  31.141  33.193  1.00  0.00     0.167 HD
ATOM     48  C   UNL A   1      40.553  33.040  37.055  1.00  0.00     0.037 A 
ATOM     49  C   UNL A   1      40.323  29.409  31.076  1.00  0.00     0.037 A 
ATOM     50  C   UNL A   1      41.569  32.028  36.921  1.00  0.00     0.049 A 
ATOM     51  C   UNL A   1      41.386  29.164  32.111  1.00  0.00     0.074 A 
ATOM     52  C   UNL A   1      42.562  31.676  37.818  1.00  0.00     0.029 A 
ATOM     53  N   UNL A   1      41.723  31.209  35.813  1.00  0.00    -0.354 N 
ATOM     54  N   UNL A   1      41.552  29.737  33.279  1.00  0.00    -0.248 NA
ATOM     55  C   UNL A   1      42.388  28.136  31.799  1.00  0.00     0.031 C 
ATOM     56  C   UNL A   1      43.347  30.675  37.233  1.00  0.00     0.029 A 
ATOM     57  C   UNL A   1      42.812  30.368  35.992  1.00  0.00     0.049 A 
ATOM     58  H   UNL A   1      41.145  31.222  35.015  1.00  0.00     0.167 HD
ATOM     59  C   UNL A   1      42.662  29.128  33.849  1.00  0.00     0.074 A 
ATOM     60  C   UNL A   1      43.114  28.124  32.908  1.00  0.00     0.031 C 
ATOM     61  C   UNL A   1      43.255  29.380  35.042  1.00  0.00     0.037 A 
BRANCH  48  62
ATOM     62  C   UNL A   1      40.574  33.911  38.280  1.00  0.00     0.064 A 
ATOM     63  C   UNL A   1      41.356  35.075  38.344  1.00  0.00     0.173 A 
ATOM     64  C   UNL A   1      39.777  33.595  39.391  1.00  0.00     0.173 A 
ATOM     65  F   UNL A   1      42.144  35.416  37.314  1.00  0.00    -0.203 F 
ATOM     66  C   UNL A   1      41.364  35.871  39.487  1.00  0.00     0.198 A 
ATOM     67  C   UNL A   1      39.765  34.411  40.520  1.00  0.00     0.198 A 
ATOM     68  F   UNL A   1      39.005  32.498  39.381  1.00  0.00    -0.203 F 
ATOM     69  F   UNL A   1      42.160  36.948  39.544  1.00  0.00    -0.200 F 
ATOM     70  C   UNL A   1      40.564  35.542  40.571  1.00  0.00     0.200 A 
ATOM     71  F   UNL A   1      38.981  34.099  41.562  1.00  0.00    -0.200 F 
ATOM     72  F   UNL A   1      40.569  36.313  41.667  1.00  0.00    -0.200 F 
ENDBRANCH  48  62
BRANCH  49  73
ATOM     73  C   UNL A   1      40.304  28.643  29.803  1.00  0.00     0.064 A 
ATOM     74  C   UNL A   1      39.574  27.451  29.691  1.00  0.00     0.173 A 
ATOM     75  C   UNL A   1      41.007  29.088  28.675  1.00  0.00     0.173 A 
ATOM     76  F   UNL A   1      38.901  26.976  30.749  1.00  0.00    -0.203 F 
ATOM     77  C   UNL A   1      39.562  26.724  28.502  1.00  0.00     0.198 A 
ATOM     78  C   UNL A   1      40.971  28.375  27.478  1.00  0.00     0.198 A 
ATOM     79  F   UNL A   1      41.714  30.226  28.729  1.00  0.00    -0.203 F 
ATOM     80  F   UNL A   1      38.891  25.568  28.435  1.00  0.00    -0.200 F 
ATOM     81  C   UNL A   1      40.256  27.190  27.395  1.00  0.00     0.200 A 
ATOM     82  F   UNL A   1      41.630  28.837  26.407  1.00  0.00    -0.200 F 
ATOM     83  F   UNL A   1      40.239  26.494  26.250  1.00  0.00    -0.200 F 
ENDBRANCH  49  73
BRANCH  61  84
ATOM     84  C   UNL A   1      44.449  28.543  35.399  1.00  0.00     0.064 A 
ATOM     85  C   UNL A   1      44.315  27.327  36.086  1.00  0.00     0.173 A 
ATOM     86  C   UNL A   1      45.740  28.954  35.036  1.00  0.00     0.173 A 
ATOM     87  F   UNL A   1      43.104  26.898  36.470  1.00  0.00    -0.203 F 
ATOM     88  C   UNL A   1      45.434  26.572  36.430  1.00  0.00     0.198 A 
ATOM     89  C   UNL A   1      46.854  28.180  35.352  1.00  0.00     0.198 A 
ATOM     90  F   UNL A   1      45.922  30.105  34.371  1.00  0.00    -0.203 F 
ATOM     91  F   UNL A   1      45.287  25.444  37.138  1.00  0.00    -0.200 F 
ATOM     92  C   UNL A   1      46.701  26.997  36.057  1.00  0.00     0.200 A 
ATOM     93  F   UNL A   1      48.077  28.584  34.980  1.00  0.00    -0.200 F 
ATOM     94  F   UNL A   1      47.776  26.268  36.388  1.00  0.00    -0.200 F 
ENDBRANCH  61  84
ENDBRANCH  35  36
ENDBRANCH  27  30
ENDBRANCH  25  26
ENDBRANCH  24  25
ENDBRANCH  23  24
ENDBRANCH   1  23
TORSDOF 17
ENDMDL
MODEL 2
REMARK VINA RESULT:     -10.5      1.602      2.852
REMARK SMILES CC[N@H+](CC(C)(C)C(=O)NCCCCCCNC(=O)c1ccc(-c2c3nc(c(-c4c(F)c(F)c(F)c(F)c4F)c4ccc([nH]4)c(-c4c(F)c(F)c(F)c(F)c4F)c4nc(c(-c5c(F)c(F)c(F)c(F)c5F)c5ccc2[nH]5)C=C4)C=C3)cc1)[C@H]1CC[NH2+]C1
REMARK SMILES IDX 13 1 12 2 11 3 10 4 8 5 9 6 5 8 6 9 7 10 4 11 3 12 2 14 1 15
REMARK SMILES IDX 83 16 84 17 87 18 85 19 86 20 14 23 15 24 16 25 17 26 18 27
REMARK SMILES IDX 19 29 20 30 21 31 82 32 22 33 81 34 23 35 24 36 25 37 75 38
REMARK SMILES IDX 26 39 80 40 74 41 76 42 27 43 79 44 73 45 72 46 28 48 60 49
REMARK SMILES IDX 40 50 59 51 41 52 44 53 58 54 77 55 42 56 43 57 57 59 78 60
REMARK SMILES IDX 45 61 29 62 30 63 38 64 31 65 32 66 36 67 39 68 33 69 34 70
REMARK SMILES IDX 37 71 35 72 61 73 62 74 70 75 63 76 64 77 68 78 71 79 65 80
REMARK SMILES IDX 66 81 69 82 67 83 46 84 47 85 55 86 48 87 49 88 53 89 56 90
REMARK SMILES IDX 50 91 51 92 54 93 52 94
REMARK H PARENT 10 7 3 13 86 21 86 22 17 28 76 47 44 58
REMARK Flexibility Score: inf
ROOT
ATOM      1  C   UNL A   1      33.575  30.236  27.426  1.00  0.00     0.002 C 
ENDROOT
BRANCH   1   2
ATOM      2  C   UNL A   1      34.204  28.910  26.976  1.00  0.00     0.021 C 
BRANCH   2   3
ATOM      3  C   UNL A   1      33.192  27.858  26.519  1.00  0.00     0.116 C 
BRANCH   3   4
ATOM      4  N   UNL A   1      33.825  26.944  25.596  1.00  0.00    -0.355 N 
ATOM      5  C   UNL A   1      33.431  26.533  24.365  1.00  0.00     0.231 C 
ATOM      6  O   UNL A   1      33.706  25.362  24.086  1.00  0.00    -0.274 OA
ATOM      7  H   UNL A   1      34.676  26.560  25.909  1.00  0.00     0.163 HD
BRANCH   5   8
ATOM      8  C   UNL A   1      32.675  27.450  23.388  1.00  0.00     0.092 C 
ATOM      9  C   UNL A   1      32.362  26.806  22.025  1.00  0.00     0.027 C 
ATOM     10  C   UNL A   1      33.527  28.721  23.190  1.00  0.00     0.027 C 
BRANCH   8  11
ATOM     11  C   UNL A   1      31.319  27.892  24.051  1.00  0.00     0.279 C 
BRANCH  11  12
ATOM     12  N   UNL A   1      30.044  27.632  23.310  1.00  0.00    -0.327 N 
ATOM     13  H   UNL A   1      30.230  27.236  22.389  1.00  0.00     0.348 HD
BRANCH  12  14
ATOM     14  C   UNL A   1      29.237  26.598  23.994  1.00  0.00     0.259 C 
ATOM     15  C   UNL A   1      29.841  25.914  25.214  1.00  0.00     0.071 C 
ENDBRANCH  12  14
BRANCH  12  16
ATOM     16  C   UNL A   1      29.351  28.919  23.075  1.00  0.00     0.245 C 
ATOM     17  C   UNL A   1      29.992  29.784  21.993  1.00  0.00     0.132 C 
ATOM     18  C   UNL A   1      27.842  28.951  22.751  1.00  0.00     0.326 C 
ATOM     19  C   UNL A   1      28.877  30.753  21.652  1.00  0.00     0.267 C 
ATOM     20  N   UNL A   1      27.654  29.941  21.671  1.00  0.00    -0.341 N 
ATOM     21  H   UNL A   1      27.528  29.470  20.775  1.00  0.00     0.346 HD
ATOM     22  H   UNL A   1      26.826  30.515  21.829  1.00  0.00     0.346 HD
ENDBRANCH  12  16
ENDBRANCH  11  12
ENDBRANCH   8  11
ENDBRANCH   5   8
ENDBRANCH   3   4
ENDBRANCH   2   3
ENDBRANCH   1   2
BRANCH   1  23
ATOM     23  C   UNL A   1      32.165  30.498  26.888  1.00  0.00     0.002 C 
BRANCH  23  24
ATOM     24  C   UNL A   1      31.738  31.968  26.890  1.00  0.00     0.021 C 
BRANCH  24  25
ATOM     25  C   UNL A   1      32.891  32.965  26.911  1.00  0.00     0.116 C 
BRANCH  25  26
ATOM     26  N   UNL A   1      32.537  34.203  27.584  1.00  0.00    -0.352 N 
ATOM     27  C   UNL A   1      33.044  34.736  28.739  1.00  0.00     0.251 C 
ATOM     28  H   UNL A   1      31.833  34.734  27.149  1.00  0.00     0.163 HD
ATOM     29  O   UNL A   1      32.504  35.711  29.258  1.00  0.00    -0.269 OA
BRANCH  27  30
ATOM     30  C   UNL A   1      34.228  34.126  29.380  1.00  0.00     0.039 A 
ATOM     31  C   UNL A   1      34.028  33.140  30.350  1.00  0.00     0.014 A 
ATOM     32  C   UNL A   1      35.524  34.528  29.043  1.00  0.00     0.014 A 
ATOM     33  C   UNL A   1      35.129  32.527  30.948  1.00  0.00     0.010 A 
ATOM     34  C   UNL A   1      36.621  33.866  29.589  1.00  0.00     0.010 A 
ATOM     35  C   UNL A   1      36.434  32.866  30.554  1.00  0.00    -0.014 A 
BRANCH  35  36
ATOM     36  C   UNL A   1      37.604  32.170  31.146  1.00  0.00     0.031 A 
ATOM     37  C   UNL A   1      38.085  32.521  32.525  1.00  0.00     0.074 A 
ATOM     38  C   UNL A   1      38.258  31.243  30.419  1.00  0.00     0.049 A 
ATOM     39  N   UNL A   1      39.079  32.013  33.209  1.00  0.00    -0.248 NA
ATOM     40  C   UNL A   1      37.373  33.605  33.219  1.00  0.00     0.031 C 
ATOM     41  C   UNL A   1      37.928  30.863  29.044  1.00  0.00     0.029 A 
ATOM     42  N   UNL A   1      39.334  30.453  30.733  1.00  0.00    -0.354 N 
ATOM     43  C   UNL A   1      39.116  32.719  34.404  1.00  0.00     0.074 A 
ATOM     44  C   UNL A   1      38.083  33.728  34.331  1.00  0.00     0.031 C 
ATOM     45  C   UNL A   1      38.765  29.893  28.644  1.00  0.00     0.029 A 
ATOM     46  C   UNL A   1      39.704  29.601  29.722  1.00  0.00     0.049 A 
ATOM     47  H   UNL A   1      39.796  30.493  31.602  1.00  0.00     0.167 HD
ATOM     48  C   UNL A   1      39.924  32.525  35.474  1.00  0.00     0.037 A 
ATOM     49  C   UNL A   1      40.688  28.684  29.673  1.00  0.00     0.037 A 
ATOM     50  C   UNL A   1      40.935  31.503  35.553  1.00  0.00     0.049 A 
ATOM     51  C   UNL A   1      41.552  28.470  30.884  1.00  0.00     0.074 A 
ATOM     52  C   UNL A   1      41.754  31.177  36.620  1.00  0.00     0.029 A 
ATOM     53  N   UNL A   1      41.269  30.644  34.516  1.00  0.00    -0.354 N 
ATOM     54  N   UNL A   1      41.521  29.083  32.043  1.00  0.00    -0.248 NA
ATOM     55  C   UNL A   1      42.581  27.426  30.786  1.00  0.00     0.031 C 
ATOM     56  C   UNL A   1      42.616  30.152  36.214  1.00  0.00     0.029 A 
ATOM     57  C   UNL A   1      42.300  29.803  34.910  1.00  0.00     0.049 A 
ATOM     58  H   UNL A   1      40.838  30.631  33.631  1.00  0.00     0.167 HD
ATOM     59  C   UNL A   1      42.508  28.489  32.817  1.00  0.00     0.074 A 
ATOM     60  C   UNL A   1      43.105  27.450  32.003  1.00  0.00     0.031 C 
ATOM     61  C   UNL A   1      42.889  28.779  34.085  1.00  0.00     0.037 A 
BRANCH  48  62
ATOM     62  C   UNL A   1      39.743  33.439  36.654  1.00  0.00     0.064 A 
ATOM     63  C   UNL A   1      38.856  33.129  37.697  1.00  0.00     0.173 A 
ATOM     64  C   UNL A   1      40.488  34.623  36.758  1.00  0.00     0.173 A 
ATOM     65  F   UNL A   1      38.111  32.014  37.641  1.00  0.00    -0.203 F 
ATOM     66  C   UNL A   1      38.698  33.986  38.783  1.00  0.00     0.198 A 
ATOM     67  C   UNL A   1      40.350  35.462  37.861  1.00  0.00     0.198 A 
ATOM     68  F   UNL A   1      41.354  34.965  35.792  1.00  0.00    -0.203 F 
ATOM     69  F   UNL A   1      37.806  33.695  39.740  1.00  0.00    -0.200 F 
ATOM     70  C   UNL A   1      39.450  35.149  38.867  1.00  0.00     0.200 A 
ATOM     71  F   UNL A   1      41.086  36.579  37.947  1.00  0.00    -0.200 F 
ATOM     72  F   UNL A   1      39.301  35.970  39.916  1.00  0.00    -0.200 F 
ENDBRANCH  48  62
BRANCH  49  73
ATOM     73  C   UNL A   1      40.879  27.873  28.443  1.00  0.00     0.064 A 
ATOM     74  C   UNL A   1      41.704  28.325  27.404  1.00  0.00     0.173 A 
ATOM     75  C   UNL A   1      40.250  26.630  28.285  1.00  0.00     0.173 A 
ATOM     76  F   UNL A   1      42.313  29.516  27.502  1.00  0.00    -0.203 F 
ATOM     77  C   UNL A   1      41.878  27.572  26.244  1.00  0.00     0.198 A 
ATOM     78  C   UNL A   1      40.447  25.866  27.137  1.00  0.00     0.198 A 
ATOM     79  F   UNL A   1      39.457  26.151  29.254  1.00  0.00    -0.203 F 
ATOM     80  F   UNL A   1      42.638  28.047  25.249  1.00  0.00    -0.200 F 
ATOM     81  C   UNL A   1      41.254  26.341  26.114  1.00  0.00     0.200 A 
ATOM     82  F   UNL A   1      39.854  24.669  27.022  1.00  0.00    -0.200 F 
ATOM     83  F   UNL A   1      41.427  25.614  25.002  1.00  0.00    -0.200 F 
ENDBRANCH  49  73
BRANCH  61  84
ATOM     84  C   UNL A   1      43.994  27.949  34.672  1.00  0.00     0.064 A 
ATOM     85  C   UNL A   1      43.729  26.758  35.364  1.00  0.00     0.173 A 
ATOM     86  C   UNL A   1      45.332  28.341  34.527  1.00  0.00     0.173 A 
ATOM     87  F   UNL A   1      42.465  26.348  35.543  1.00  0.00    -0.203 F 
ATOM     88  C   UNL A   1      44.763  26.009  35.922  1.00  0.00     0.198 A 
ATOM     89  C   UNL A   1      46.366  27.573  35.058  1.00  0.00     0.198 A 
ATOM     90  F   UNL A   1      45.641  29.468  33.867  1.00  0.00    -0.203 F 
ATOM     91  F   UNL A   1      44.482  24.906  36.629  1.00  0.00    -0.200 F 
ATOM     92  C   UNL A   1      46.079  26.415  35.762  1.00  0.00     0.200 A 
ATOM     93  F   UNL A   1      47.639  27.959  34.892  1.00  0.00    -0.200 F 
ATOM     94  F   UNL A   1      47.073  25.692  36.299  1.00  0.00    -0.200 F 
ENDBRANCH  61  84
ENDBRANCH  35  36
ENDBRANCH  27  30
ENDBRANCH  25  26
ENDBRANCH  24  25
ENDBRANCH  23  24
ENDBRANCH   1  23
TORSDOF 17
ENDMDL
MODEL 3
REMARK VINA RESULT:     -10.4      0.808      2.296
REMARK SMILES CC[N@H+](CC(C)(C)C(=O)NCCCCCCNC(=O)c1ccc(-c2c3nc(c(-c4c(F)c(F)c(F)c(F)c4F)c4ccc([nH]4)c(-c4c(F)c(F)c(F)c(F)c4F)c4nc(c(-c5c(F)c(F)c(F)c(F)c5F)c5ccc2[nH]5)C=C4)C=C3)cc1)[C@H]1CC[NH2+]C1
REMARK SMILES IDX 13 1 12 2 11 3 10 4 8 5 9 6 5 8 6 9 7 10 4 11 3 12 2 14 1 15
REMARK SMILES IDX 83 16 84 17 87 18 85 19 86 20 14 23 15 24 16 25 17 26 18 27
REMARK SMILES IDX 19 29 20 30 21 31 82 32 22 33 81 34 23 35 24 36 25 37 75 38
REMARK SMILES IDX 26 39 80 40 74 41 76 42 27 43 79 44 73 45 72 46 28 48 60 49
REMARK SMILES IDX 40 50 59 51 41 52 44 53 58 54 77 55 42 56 43 57 57 59 78 60
REMARK SMILES IDX 45 61 29 62 30 63 38 64 31 65 32 66 36 67 39 68 33 69 34 70
REMARK SMILES IDX 37 71 35 72 61 73 62 74 70 75 63 76 64 77 68 78 71 79 65 80
REMARK SMILES IDX 66 81 69 82 67 83 46 84 47 85 55 86 48 87 49 88 53 89 56 90
REMARK SMILES IDX 50 91 51 92 54 93 52 94
REMARK H PARENT 10 7 3 13 86 21 86 22 17 28 76 47 44 58
REMARK Flexibility Score: inf
ROOT
ATOM      1  C   UNL A   1      34.367  32.623  28.872  1.00  0.00     0.002 C 
ENDROOT
BRANCH   1   2
ATOM      2  C   UNL A   1      35.256  31.690  28.037  1.00  0.00     0.021 C 
BRANCH   2   3
ATOM      3  C   UNL A   1      34.547  30.432  27.534  1.00  0.00     0.116 C 
BRANCH   3   4
ATOM      4  N   UNL A   1      33.180  30.750  27.190  1.00  0.00    -0.355 N 
ATOM      5  C   UNL A   1      32.298  30.082  26.407  1.00  0.00     0.231 C 
ATOM      6  O   UNL A   1      31.529  30.792  25.751  1.00  0.00    -0.274 OA
ATOM      7  H   UNL A   1      32.835  31.583  27.587  1.00  0.00     0.163 HD
BRANCH   5   8
ATOM      8  C   UNL A   1      32.265  28.546  26.321  1.00  0.00     0.092 C 
ATOM      9  C   UNL A   1      32.157  27.835  27.683  1.00  0.00     0.027 C 
ATOM     10  C   UNL A   1      33.545  28.093  25.588  1.00  0.00     0.027 C 
BRANCH   8  11
ATOM     11  C   UNL A   1      31.039  28.112  25.437  1.00  0.00     0.279 C 
BRANCH  11  12
ATOM     12  N   UNL A   1      31.289  27.222  24.258  1.00  0.00    -0.327 N 
ATOM     13  H   UNL A   1      32.287  27.060  24.127  1.00  0.00     0.348 HD
BRANCH  12  14
ATOM     14  C   UNL A   1      30.728  25.872  24.487  1.00  0.00     0.259 C 
ATOM     15  C   UNL A   1      29.903  25.648  25.748  1.00  0.00     0.071 C 
ENDBRANCH  12  14
BRANCH  12  16
ATOM     16  C   UNL A   1      30.814  27.901  23.031  1.00  0.00     0.245 C 
ATOM     17  C   UNL A   1      29.440  28.552  23.171  1.00  0.00     0.132 C 
ATOM     18  C   UNL A   1      31.682  28.976  22.342  1.00  0.00     0.326 C 
ATOM     19  C   UNL A   1      29.420  29.515  22.000  1.00  0.00     0.267 C 
ATOM     20  N   UNL A   1      30.776  30.074  21.949  1.00  0.00    -0.341 N 
ATOM     21  H   UNL A   1      30.863  30.855  22.599  1.00  0.00     0.346 HD
ATOM     22  H   UNL A   1      31.000  30.430  21.020  1.00  0.00     0.346 HD
ENDBRANCH  12  16
ENDBRANCH  11  12
ENDBRANCH   8  11
ENDBRANCH   5   8
ENDBRANCH   3   4
ENDBRANCH   2   3
ENDBRANCH   1   2
BRANCH   1  23
ATOM     23  C   UNL A   1      34.362  34.087  28.420  1.00  0.00     0.002 C 
BRANCH  23  24
ATOM     24  C   UNL A   1      33.089  34.862  28.764  1.00  0.00     0.021 C 
BRANCH  24  25
ATOM     25  C   UNL A   1      33.325  36.193  29.469  1.00  0.00     0.116 C 
BRANCH  25  26
ATOM     26  N   UNL A   1      32.527  36.327  30.675  1.00  0.00    -0.352 N 
ATOM     27  C   UNL A   1      32.700  35.738  31.899  1.00  0.00     0.251 C 
ATOM     28  H   UNL A   1      31.750  36.928  30.603  1.00  0.00     0.163 HD
ATOM     29  O   UNL A   1      31.826  35.831  32.759  1.00  0.00    -0.269 OA
BRANCH  27  30
ATOM     30  C   UNL A   1      33.928  34.966  32.182  1.00  0.00     0.039 A 
ATOM     31  C   UNL A   1      35.155  35.634  32.167  1.00  0.00     0.014 A 
ATOM     32  C   UNL A   1      33.879  33.593  32.444  1.00  0.00     0.014 A 
ATOM     33  C   UNL A   1      36.326  34.935  32.460  1.00  0.00     0.010 A 
ATOM     34  C   UNL A   1      35.039  32.913  32.806  1.00  0.00     0.010 A 
ATOM     35  C   UNL A   1      36.275  33.575  32.809  1.00  0.00    -0.014 A 
BRANCH  35  36
ATOM     36  C   UNL A   1      37.513  32.846  33.181  1.00  0.00     0.031 A 
ATOM     37  C   UNL A   1      38.213  33.140  34.477  1.00  0.00     0.074 A 
ATOM     38  C   UNL A   1      38.026  31.938  32.327  1.00  0.00     0.049 A 
ATOM     39  N   UNL A   1      39.295  32.596  34.974  1.00  0.00    -0.248 NA
ATOM     40  C   UNL A   1      37.639  34.205  35.313  1.00  0.00     0.031 C 
ATOM     41  C   UNL A   1      37.474  31.613  31.010  1.00  0.00     0.029 A 
ATOM     42  N   UNL A   1      39.126  31.126  32.437  1.00  0.00    -0.354 N 
ATOM     43  C   UNL A   1      39.535  33.258  36.172  1.00  0.00     0.074 A 
ATOM     44  C   UNL A   1      38.520  34.280  36.300  1.00  0.00     0.031 C 
ATOM     45  C   UNL A   1      38.221  30.649  30.449  1.00  0.00     0.029 A 
ATOM     46  C   UNL A   1      39.315  30.308  31.351  1.00  0.00     0.049 A 
ATOM     47  H   UNL A   1      39.721  31.130  33.222  1.00  0.00     0.167 HD
ATOM     48  C   UNL A   1      40.500  33.016  37.091  1.00  0.00     0.037 A 
ATOM     49  C   UNL A   1      40.263  29.383  31.113  1.00  0.00     0.037 A 
ATOM     50  C   UNL A   1      41.494  31.982  36.971  1.00  0.00     0.049 A 
ATOM     51  C   UNL A   1      41.307  29.116  32.162  1.00  0.00     0.074 A 
ATOM     52  C   UNL A   1      42.467  31.608  37.881  1.00  0.00     0.029 A 
ATOM     53  N   UNL A   1      41.644  31.157  35.865  1.00  0.00    -0.354 N 
ATOM     54  N   UNL A   1      41.471  29.686  33.331  1.00  0.00    -0.248 NA
ATOM     55  C   UNL A   1      42.290  28.065  31.864  1.00  0.00     0.031 C 
ATOM     56  C   UNL A   1      43.236  30.589  37.307  1.00  0.00     0.029 A 
ATOM     57  C   UNL A   1      42.710  30.292  36.060  1.00  0.00     0.049 A 
ATOM     58  H   UNL A   1      41.076  31.182  35.061  1.00  0.00     0.167 HD
ATOM     59  C   UNL A   1      42.559  29.053  33.916  1.00  0.00     0.074 A 
ATOM     60  C   UNL A   1      43.001  28.038  32.982  1.00  0.00     0.031 C 
ATOM     61  C   UNL A   1      43.143  29.293  35.116  1.00  0.00     0.037 A 
BRANCH  48  62
ATOM     62  C   UNL A   1      40.524  33.888  38.315  1.00  0.00     0.064 A 
ATOM     63  C   UNL A   1      39.758  33.585  39.452  1.00  0.00     0.173 A 
ATOM     64  C   UNL A   1      41.348  35.023  38.364  1.00  0.00     0.173 A 
ATOM     65  F   UNL A   1      38.945  32.517  39.453  1.00  0.00    -0.203 F 
ATOM     66  C   UNL A   1      39.791  34.402  40.578  1.00  0.00     0.198 A 
ATOM     67  C   UNL A   1      41.401  35.821  39.505  1.00  0.00     0.198 A 
ATOM     68  F   UNL A   1      42.105  35.356  37.309  1.00  0.00    -0.203 F 
ATOM     69  F   UNL A   1      39.010  34.121  41.631  1.00  0.00    -0.200 F 
ATOM     70  C   UNL A   1      40.617  35.516  40.606  1.00  0.00     0.200 A 
ATOM     71  F   UNL A   1      42.209  36.890  39.535  1.00  0.00    -0.200 F 
ATOM     72  F   UNL A   1      40.652  36.299  41.693  1.00  0.00    -0.200 F 
ENDBRANCH  48  62
BRANCH  49  73
ATOM     73  C   UNL A   1      40.243  28.616  29.842  1.00  0.00     0.064 A 
ATOM     74  C   UNL A   1      40.918  29.085  28.706  1.00  0.00     0.173 A 
ATOM     75  C   UNL A   1      39.556  27.398  29.737  1.00  0.00     0.173 A 
ATOM     76  F   UNL A   1      41.573  30.254  28.753  1.00  0.00    -0.203 F 
ATOM     77  C   UNL A   1      40.892  28.374  27.508  1.00  0.00     0.198 A 
ATOM     78  C   UNL A   1      39.554  26.674  28.546  1.00  0.00     0.198 A 
ATOM     79  F   UNL A   1      38.901  26.902  30.797  1.00  0.00    -0.203 F 
ATOM     80  F   UNL A   1      41.510  28.866  26.427  1.00  0.00    -0.200 F 
ATOM     81  C   UNL A   1      40.215  27.166  27.431  1.00  0.00     0.200 A 
ATOM     82  F   UNL A   1      38.913  25.499  28.481  1.00  0.00    -0.200 F 
ATOM     83  F   UNL A   1      40.197  26.479  26.281  1.00  0.00    -0.200 F 
ENDBRANCH  49  73
BRANCH  61  84
ATOM     84  C   UNL A   1      44.314  28.430  35.489  1.00  0.00     0.064 A 
ATOM     85  C   UNL A   1      45.627  28.788  35.152  1.00  0.00     0.173 A 
ATOM     86  C   UNL A   1      44.120  27.239  36.205  1.00  0.00     0.173 A 
ATOM     87  F   UNL A   1      45.863  29.909  34.455  1.00  0.00    -0.203 F 
ATOM     88  C   UNL A   1      46.702  27.967  35.486  1.00  0.00     0.198 A 
ATOM     89  C   UNL A   1      45.200  26.436  36.566  1.00  0.00     0.198 A 
ATOM     90  F   UNL A   1      42.885  26.854  36.559  1.00  0.00    -0.203 F 
ATOM     91  F   UNL A   1      47.941  28.300  35.102  1.00  0.00    -0.200 F 
ATOM     92  C   UNL A   1      46.487  26.796  36.197  1.00  0.00     0.200 A 
ATOM     93  F   UNL A   1      44.993  25.311  37.264  1.00  0.00    -0.200 F 
ATOM     94  F   UNL A   1      47.522  26.007  36.518  1.00  0.00    -0.200 F 
ENDBRANCH  61  84
ENDBRANCH  35  36
ENDBRANCH  27  30
ENDBRANCH  25  26
ENDBRANCH  24  25
ENDBRANCH  23  24
ENDBRANCH   1  23
TORSDOF 17
ENDMDL
