MODEL 1
REMARK VINA RESULT:     -12.4      0.000      0.000
REMARK SMILES O=C(NCCCCCCNC(=O)[C@H]1C=C[C@H](NC(=O)c2ccc(Cl)cc2Cl)C1)c1ccc(-c2c3nc(c(-c4c(F)c(F)c(F)c(F)c4F)c4ccc([nH]4)c(-c4c(F)c(F)c(F)c(F)c4F)c4nc(c(-c5c(F)c(F)c(F)c(F)c5F)c5ccc2[nH]5)C=C4)C=C3)cc1
REMARK SMILES IDX 6 1 5 2 4 3 3 4 1 5 2 6 29 8 30 9 91 10 31 11 90 12 32 13
REMARK SMILES IDX 33 14 34 15 84 16 35 17 89 18 83 19 85 20 36 21 88 22 82 23
REMARK SMILES IDX 81 24 37 26 69 27 49 28 68 29 50 30 53 31 67 32 86 33 51 34
REMARK SMILES IDX 52 35 66 37 87 38 54 39 38 40 39 41 47 42 40 43 41 44 45 45
REMARK SMILES IDX 48 46 42 47 43 48 46 49 44 50 70 51 71 52 79 53 72 54 73 55
REMARK SMILES IDX 77 56 80 57 74 58 75 59 78 60 76 61 55 62 56 63 64 64 57 65
REMARK SMILES IDX 58 66 62 67 65 68 59 69 60 70 63 71 61 72 7 73 8 74 9 75
REMARK SMILES IDX 10 76 11 77 12 79 13 80 14 81 28 82 15 83 16 84 17 85 18 86
REMARK SMILES IDX 19 88 20 89 21 90 26 91 22 92 25 93 27 94 23 95 24 96
REMARK H PARENT 3 7 85 25 53 36 10 78 17 87
REMARK Flexibility Score: inf
ROOT
ATOM      1  C   UNL A   1      31.652  30.388  25.764  1.00  0.00     0.002 C 
ENDROOT
BRANCH   1   2
ATOM      2  C   UNL A   1      31.407  31.702  26.504  1.00  0.00     0.021 C 
BRANCH   2   3
ATOM      3  C   UNL A   1      32.653  32.421  26.988  1.00  0.00     0.116 C 
BRANCH   3   4
ATOM      4  N   UNL A   1      32.392  33.771  27.448  1.00  0.00    -0.352 N 
ATOM      5  O   UNL A   1      32.630  35.576  28.784  1.00  0.00    -0.269 OA
ATOM      6  C   UNL A   1      33.044  34.483  28.428  1.00  0.00     0.251 C 
ATOM      7  H   UNL A   1      31.650  34.238  27.000  1.00  0.00     0.163 HD
BRANCH   6   8
ATOM      8  C   UNL A   1      34.242  33.897  29.071  1.00  0.00     0.039 A 
ATOM      9  C   UNL A   1      35.525  34.291  28.682  1.00  0.00     0.014 A 
ATOM     10  C   UNL A   1      34.076  32.933  30.070  1.00  0.00     0.014 A 
ATOM     11  C   UNL A   1      36.634  33.629  29.192  1.00  0.00     0.010 A 
ATOM     12  C   UNL A   1      35.198  32.332  30.649  1.00  0.00     0.010 A 
ATOM     13  C   UNL A   1      36.485  32.661  30.199  1.00  0.00    -0.014 A 
BRANCH  13  14
ATOM     14  C   UNL A   1      37.705  32.087  30.822  1.00  0.00     0.031 A 
ATOM     15  C   UNL A   1      38.147  32.483  32.201  1.00  0.00     0.074 A 
ATOM     16  C   UNL A   1      38.387  31.154  30.129  1.00  0.00     0.049 A 
ATOM     17  N   UNL A   1      39.159  32.030  32.900  1.00  0.00    -0.248 NA
ATOM     18  C   UNL A   1      37.363  33.521  32.886  1.00  0.00     0.031 C 
ATOM     19  C   UNL A   1      38.061  30.714  28.770  1.00  0.00     0.029 A 
ATOM     20  N   UNL A   1      39.471  30.390  30.474  1.00  0.00    -0.354 N 
ATOM     21  C   UNL A   1      39.141  32.733  34.097  1.00  0.00     0.074 A 
ATOM     22  C   UNL A   1      38.032  33.661  34.024  1.00  0.00     0.031 C 
ATOM     23  C   UNL A   1      38.888  29.720  28.419  1.00  0.00     0.029 A 
ATOM     24  C   UNL A   1      39.839  29.494  29.500  1.00  0.00     0.049 A 
ATOM     25  H   UNL A   1      39.940  30.474  31.335  1.00  0.00     0.167 HD
ATOM     26  C   UNL A   1      39.972  32.606  35.161  1.00  0.00     0.037 A 
ATOM     27  C   UNL A   1      40.839  28.596  29.473  1.00  0.00     0.037 A 
ATOM     28  C   UNL A   1      41.070  31.672  35.229  1.00  0.00     0.049 A 
ATOM     29  C   UNL A   1      41.738  28.477  30.669  1.00  0.00     0.074 A 
ATOM     30  C   UNL A   1      41.960  31.461  36.267  1.00  0.00     0.029 A 
ATOM     31  N   UNL A   1      41.425  30.795  34.215  1.00  0.00    -0.354 N 
ATOM     32  N   UNL A   1      41.695  29.133  31.803  1.00  0.00    -0.248 NA
ATOM     33  C   UNL A   1      42.825  27.495  30.581  1.00  0.00     0.031 C 
ATOM     34  C   UNL A   1      42.875  30.478  35.869  1.00  0.00     0.029 A 
ATOM     35  C   UNL A   1      42.527  30.048  34.599  1.00  0.00     0.049 A 
ATOM     36  H   UNL A   1      40.961  30.714  33.350  1.00  0.00     0.167 HD
ATOM     37  C   UNL A   1      42.746  28.647  32.563  1.00  0.00     0.074 A 
ATOM     38  C   UNL A   1      43.386  27.612  31.776  1.00  0.00     0.031 C 
ATOM     39  C   UNL A   1      43.155  29.031  33.796  1.00  0.00     0.037 A 
BRANCH  26  40
ATOM     40  C   UNL A   1      39.737  33.498  36.345  1.00  0.00     0.064 A 
ATOM     41  C   UNL A   1      40.295  34.782  36.415  1.00  0.00     0.173 A 
ATOM     42  C   UNL A   1      38.884  33.095  37.384  1.00  0.00     0.173 A 
ATOM     43  F   UNL A   1      41.126  35.211  35.453  1.00  0.00    -0.203 F 
ATOM     44  C   UNL A   1      40.017  35.626  37.488  1.00  0.00     0.198 A 
ATOM     45  C   UNL A   1      38.590  33.950  38.443  1.00  0.00     0.198 A 
ATOM     46  F   UNL A   1      38.320  31.879  37.361  1.00  0.00    -0.203 F 
ATOM     47  F   UNL A   1      40.583  36.840  37.547  1.00  0.00    -0.200 F 
ATOM     48  C   UNL A   1      39.158  35.214  38.495  1.00  0.00     0.200 A 
ATOM     49  F   UNL A   1      37.751  33.553  39.409  1.00  0.00    -0.200 F 
ATOM     50  F   UNL A   1      38.880  36.033  39.519  1.00  0.00    -0.200 F 
ENDBRANCH  26  40
BRANCH  27  51
ATOM     51  C   UNL A   1      41.041  27.750  28.270  1.00  0.00     0.064 A 
ATOM     52  C   UNL A   1      41.876  28.166  27.224  1.00  0.00     0.173 A 
ATOM     53  C   UNL A   1      40.412  26.501  28.148  1.00  0.00     0.173 A 
ATOM     54  F   UNL A   1      42.485  29.359  27.288  1.00  0.00    -0.203 F 
ATOM     55  C   UNL A   1      42.057  27.374  26.092  1.00  0.00     0.198 A 
ATOM     56  C   UNL A   1      40.621  25.697  27.031  1.00  0.00     0.198 A 
ATOM     57  F   UNL A   1      39.611  26.055  29.127  1.00  0.00    -0.203 F 
ATOM     58  F   UNL A   1      42.825  27.814  25.087  1.00  0.00    -0.200 F 
ATOM     59  C   UNL A   1      41.436  26.138  26.000  1.00  0.00     0.200 A 
ATOM     60  F   UNL A   1      40.032  24.496  26.956  1.00  0.00    -0.200 F 
ATOM     61  F   UNL A   1      41.618  25.374  24.915  1.00  0.00    -0.200 F 
ENDBRANCH  27  51
BRANCH  39  62
ATOM     62  C   UNL A   1      44.349  28.319  34.360  1.00  0.00     0.064 A 
ATOM     63  C   UNL A   1      44.212  27.131  35.093  1.00  0.00     0.173 A 
ATOM     64  C   UNL A   1      45.640  28.830  34.166  1.00  0.00     0.173 A 
ATOM     65  F   UNL A   1      42.994  26.616  35.320  1.00  0.00    -0.203 F 
ATOM     66  C   UNL A   1      45.323  26.498  35.641  1.00  0.00     0.198 A 
ATOM     67  C   UNL A   1      46.751  28.180  34.693  1.00  0.00     0.198 A 
ATOM     68  F   UNL A   1      45.823  29.962  33.470  1.00  0.00    -0.203 F 
ATOM     69  F   UNL A   1      45.163  25.396  36.387  1.00  0.00    -0.200 F 
ATOM     70  C   UNL A   1      46.591  27.021  35.439  1.00  0.00     0.200 A 
ATOM     71  F   UNL A   1      47.978  28.680  34.490  1.00  0.00    -0.200 F 
ATOM     72  F   UNL A   1      47.660  26.413  35.972  1.00  0.00    -0.200 F 
ENDBRANCH  39  62
ENDBRANCH  13  14
ENDBRANCH   6   8
ENDBRANCH   3   4
ENDBRANCH   2   3
ENDBRANCH   1   2
BRANCH   1  73
ATOM     73  C   UNL A   1      30.684  30.057  24.625  1.00  0.00     0.002 C 
BRANCH  73  74
ATOM     74  C   UNL A   1      31.205  29.124  23.528  1.00  0.00     0.021 C 
BRANCH  74  75
ATOM     75  C   UNL A   1      32.720  29.061  23.377  1.00  0.00     0.116 C 
BRANCH  75  76
ATOM     76  N   UNL A   1      33.136  28.111  22.371  1.00  0.00    -0.356 N 
ATOM     77  C   UNL A   1      33.343  26.773  22.448  1.00  0.00     0.227 C 
ATOM     78  H   UNL A   1      33.296  28.500  21.480  1.00  0.00     0.163 HD
ATOM     79  O   UNL A   1      33.671  26.190  21.410  1.00  0.00    -0.274 OA
BRANCH  77  80
ATOM     80  C   UNL A   1      33.200  25.994  23.753  1.00  0.00     0.103 C 
ATOM     81  C   UNL A   1      33.923  26.617  24.910  1.00  0.00    -0.016 C 
ATOM     82  C   UNL A   1      31.766  25.786  24.263  1.00  0.00     0.047 C 
ATOM     83  C   UNL A   1      33.169  26.630  26.015  1.00  0.00    -0.006 C 
ATOM     84  C   UNL A   1      31.809  26.068  25.771  1.00  0.00     0.106 C 
BRANCH  84  85
ATOM     85  N   UNL A   1      31.537  24.954  26.662  1.00  0.00    -0.346 N 
ATOM     86  C   UNL A   1      32.115  23.724  26.840  1.00  0.00     0.253 C 
ATOM     87  H   UNL A   1      30.776  25.117  27.265  1.00  0.00     0.164 HD
ATOM     88  O   UNL A   1      31.678  22.953  27.688  1.00  0.00    -0.269 OA
BRANCH  86  89
ATOM     89  C   UNL A   1      33.286  23.320  26.052  1.00  0.00     0.058 A 
ATOM     90  C   UNL A   1      34.557  23.568  26.584  1.00  0.00     0.017 A 
ATOM     91  C   UNL A   1      33.148  22.663  24.825  1.00  0.00     0.055 A 
ATOM     92  C   UNL A   1      35.693  23.242  25.841  1.00  0.00     0.021 A 
ATOM     93  C   UNL A   1      34.287  22.337  24.084  1.00  0.00     0.041 A 
ATOM     94  Cl  UNL A   1      31.606  22.270  24.152  1.00  0.00    -0.083 Cl
ATOM     95  C   UNL A   1      35.552  22.642  24.590  1.00  0.00     0.042 A 
ATOM     96  Cl  UNL A   1      36.952  22.287  23.656  1.00  0.00    -0.084 Cl
ENDBRANCH  86  89
ENDBRANCH  84  85
ENDBRANCH  77  80
ENDBRANCH  75  76
ENDBRANCH  74  75
ENDBRANCH  73  74
ENDBRANCH   1  73
TORSDOF 15
ENDMDL
MODEL 2
REMARK VINA RESULT:     -12.3      4.990     10.550
REMARK SMILES O=C(NCCCCCCNC(=O)[C@H]1C=C[C@H](NC(=O)c2ccc(Cl)cc2Cl)C1)c1ccc(-c2c3nc(c(-c4c(F)c(F)c(F)c(F)c4F)c4ccc([nH]4)c(-c4c(F)c(F)c(F)c(F)c4F)c4nc(c(-c5c(F)c(F)c(F)c(F)c5F)c5ccc2[nH]5)C=C4)C=C3)cc1
REMARK SMILES IDX 6 1 5 2 4 3 3 4 1 5 2 6 29 8 30 9 91 10 31 11 90 12 32 13
REMARK SMILES IDX 33 14 34 15 84 16 35 17 89 18 83 19 85 20 36 21 88 22 82 23
REMARK SMILES IDX 81 24 37 26 69 27 49 28 68 29 50 30 53 31 67 32 86 33 51 34
REMARK SMILES IDX 52 35 66 37 87 38 54 39 38 40 39 41 47 42 40 43 41 44 45 45
REMARK SMILES IDX 48 46 42 47 43 48 46 49 44 50 70 51 71 52 79 53 72 54 73 55
REMARK SMILES IDX 77 56 80 57 74 58 75 59 78 60 76 61 55 62 56 63 64 64 57 65
REMARK SMILES IDX 58 66 62 67 65 68 59 69 60 70 63 71 61 72 7 73 8 74 9 75
REMARK SMILES IDX 10 76 11 77 12 79 13 80 14 81 28 82 15 83 16 84 17 85 18 86
REMARK SMILES IDX 19 88 20 89 21 90 26 91 22 92 25 93 27 94 23 95 24 96
REMARK H PARENT 3 7 85 25 53 36 10 78 17 87
REMARK Flexibility Score: inf
ROOT
ATOM      1  C   UNL A   1      36.294  20.521  25.016  1.00  0.00     0.002 C 
ENDROOT
BRANCH   1   2
ATOM      2  C   UNL A   1      37.566  19.695  24.842  1.00  0.00     0.021 C 
BRANCH   2   3
ATOM      3  C   UNL A   1      38.783  20.203  25.593  1.00  0.00     0.116 C 
BRANCH   3   4
ATOM      4  N   UNL A   1      39.820  19.202  25.746  1.00  0.00    -0.352 N 
ATOM      5  O   UNL A   1      41.926  18.446  26.060  1.00  0.00    -0.269 OA
ATOM      6  C   UNL A   1      41.142  19.383  26.084  1.00  0.00     0.251 C 
ATOM      7  H   UNL A   1      39.542  18.272  25.588  1.00  0.00     0.163 HD
BRANCH   6   8
ATOM      8  C   UNL A   1      41.616  20.737  26.451  1.00  0.00     0.039 A 
ATOM      9  C   UNL A   1      41.756  21.731  25.479  1.00  0.00     0.014 A 
ATOM     10  C   UNL A   1      41.934  21.009  27.784  1.00  0.00     0.014 A 
ATOM     11  C   UNL A   1      42.338  22.947  25.815  1.00  0.00     0.010 A 
ATOM     12  C   UNL A   1      42.433  22.266  28.138  1.00  0.00     0.010 A 
ATOM     13  C   UNL A   1      42.660  23.238  27.151  1.00  0.00    -0.014 A 
BRANCH  13  14
ATOM     14  C   UNL A   1      43.138  24.602  27.488  1.00  0.00     0.031 A 
ATOM     15  C   UNL A   1      44.542  25.043  27.189  1.00  0.00     0.074 A 
ATOM     16  C   UNL A   1      42.256  25.463  28.033  1.00  0.00     0.049 A 
ATOM     17  N   UNL A   1      45.091  26.218  27.376  1.00  0.00    -0.248 NA
ATOM     18  C   UNL A   1      45.451  24.042  26.613  1.00  0.00     0.031 C 
ATOM     19  C   UNL A   1      40.874  25.132  28.391  1.00  0.00     0.029 A 
ATOM     20  N   UNL A   1      42.373  26.789  28.357  1.00  0.00    -0.354 N 
ATOM     21  C   UNL A   1      46.408  26.095  26.953  1.00  0.00     0.074 A 
ATOM     22  C   UNL A   1      46.585  24.725  26.521  1.00  0.00     0.031 C 
ATOM     23  C   UNL A   1      40.256  26.237  28.829  1.00  0.00     0.029 A 
ATOM     24  C   UNL A   1      41.211  27.337  28.841  1.00  0.00     0.049 A 
ATOM     25  H   UNL A   1      43.208  27.299  28.251  1.00  0.00     0.167 HD
ATOM     26  C   UNL A   1      47.374  27.046  26.923  1.00  0.00     0.037 A 
ATOM     27  C   UNL A   1      40.944  28.587  29.260  1.00  0.00     0.037 A 
ATOM     28  C   UNL A   1      47.186  28.412  27.348  1.00  0.00     0.049 A 
ATOM     29  C   UNL A   1      42.035  29.616  29.209  1.00  0.00     0.074 A 
ATOM     30  C   UNL A   1      48.100  29.451  27.345  1.00  0.00     0.029 A 
ATOM     31  N   UNL A   1      46.000  28.927  27.853  1.00  0.00    -0.354 N 
ATOM     32  N   UNL A   1      43.269  29.492  28.786  1.00  0.00    -0.248 NA
ATOM     33  C   UNL A   1      41.697  30.959  29.696  1.00  0.00     0.031 C 
ATOM     34  C   UNL A   1      47.478  30.587  27.878  1.00  0.00     0.029 A 
ATOM     35  C   UNL A   1      46.163  30.265  28.173  1.00  0.00     0.049 A 
ATOM     36  H   UNL A   1      45.166  28.416  27.965  1.00  0.00     0.167 HD
ATOM     37  C   UNL A   1      43.856  30.736  28.955  1.00  0.00     0.074 A 
ATOM     38  C   UNL A   1      42.830  31.612  29.483  1.00  0.00     0.031 C 
ATOM     39  C   UNL A   1      45.132  31.116  28.708  1.00  0.00     0.037 A 
BRANCH  26  40
ATOM     40  C   UNL A   1      48.731  26.651  26.418  1.00  0.00     0.064 A 
ATOM     41  C   UNL A   1      49.118  26.897  25.093  1.00  0.00     0.173 A 
ATOM     42  C   UNL A   1      49.681  26.093  27.287  1.00  0.00     0.173 A 
ATOM     43  F   UNL A   1      48.245  27.420  24.220  1.00  0.00    -0.203 F 
ATOM     44  C   UNL A   1      50.403  26.587  24.653  1.00  0.00     0.198 A 
ATOM     45  C   UNL A   1      50.971  25.804  26.850  1.00  0.00     0.198 A 
ATOM     46  F   UNL A   1      49.363  25.844  28.566  1.00  0.00    -0.203 F 
ATOM     47  F   UNL A   1      50.742  26.806  23.375  1.00  0.00    -0.200 F 
ATOM     48  C   UNL A   1      51.331  26.050  25.533  1.00  0.00     0.200 A 
ATOM     49  F   UNL A   1      51.869  25.296  27.704  1.00  0.00    -0.200 F 
ATOM     50  F   UNL A   1      52.571  25.766  25.111  1.00  0.00    -0.200 F 
ENDBRANCH  26  40
BRANCH  27  51
ATOM     51  C   UNL A   1      39.590  28.923  29.769  1.00  0.00     0.064 A 
ATOM     52  C   UNL A   1      39.251  28.718  31.113  1.00  0.00     0.173 A 
ATOM     53  C   UNL A   1      38.612  29.467  28.922  1.00  0.00     0.173 A 
ATOM     54  F   UNL A   1      40.147  28.185  31.956  1.00  0.00    -0.203 F 
ATOM     55  C   UNL A   1      37.977  29.026  31.586  1.00  0.00     0.198 A 
ATOM     56  C   UNL A   1      37.350  29.804  29.405  1.00  0.00     0.198 A 
ATOM     57  F   UNL A   1      38.892  29.690  27.630  1.00  0.00    -0.203 F 
ATOM     58  F   UNL A   1      37.664  28.780  32.865  1.00  0.00    -0.200 F 
ATOM     59  C   UNL A   1      37.031  29.576  30.734  1.00  0.00     0.200 A 
ATOM     60  F   UNL A   1      36.447  30.352  28.581  1.00  0.00    -0.200 F 
ATOM     61  F   UNL A   1      35.809  29.879  31.192  1.00  0.00    -0.200 F 
ENDBRANCH  27  51
BRANCH  39  62
ATOM     62  C   UNL A   1      45.478  32.544  29.010  1.00  0.00     0.064 A 
ATOM     63  C   UNL A   1      45.989  32.923  30.260  1.00  0.00     0.173 A 
ATOM     64  C   UNL A   1      45.294  33.541  28.041  1.00  0.00     0.173 A 
ATOM     65  F   UNL A   1      46.163  32.006  31.223  1.00  0.00    -0.203 F 
ATOM     66  C   UNL A   1      46.273  34.256  30.541  1.00  0.00     0.198 A 
ATOM     67  C   UNL A   1      45.605  34.869  28.317  1.00  0.00     0.198 A 
ATOM     68  F   UNL A   1      44.810  33.228  26.830  1.00  0.00    -0.203 F 
ATOM     69  F   UNL A   1      46.706  34.603  31.760  1.00  0.00    -0.200 F 
ATOM     70  C   UNL A   1      46.084  35.227  29.569  1.00  0.00     0.200 A 
ATOM     71  F   UNL A   1      45.429  35.806  27.376  1.00  0.00    -0.200 F 
ATOM     72  F   UNL A   1      46.353  36.511  29.843  1.00  0.00    -0.200 F 
ENDBRANCH  39  62
ENDBRANCH  13  14
ENDBRANCH   6   8
ENDBRANCH   3   4
ENDBRANCH   2   3
ENDBRANCH   1   2
BRANCH   1  73
ATOM     73  C   UNL A   1      34.968  19.765  24.892  1.00  0.00     0.002 C 
BRANCH  73  74
ATOM     74  C   UNL A   1      33.747  20.404  25.561  1.00  0.00     0.021 C 
BRANCH  74  75
ATOM     75  C   UNL A   1      34.026  21.193  26.834  1.00  0.00     0.116 C 
BRANCH  75  76
ATOM     76  N   UNL A   1      32.842  21.835  27.356  1.00  0.00    -0.356 N 
ATOM     77  C   UNL A   1      32.246  23.005  27.015  1.00  0.00     0.227 C 
ATOM     78  H   UNL A   1      32.393  21.342  28.080  1.00  0.00     0.163 HD
ATOM     79  O   UNL A   1      31.208  23.306  27.612  1.00  0.00    -0.274 OA
BRANCH  77  80
ATOM     80  C   UNL A   1      32.819  23.941  25.953  1.00  0.00     0.103 C 
ATOM     81  C   UNL A   1      34.303  24.131  26.055  1.00  0.00    -0.016 C 
ATOM     82  C   UNL A   1      32.583  23.529  24.493  1.00  0.00     0.047 C 
ATOM     83  C   UNL A   1      34.895  24.055  24.857  1.00  0.00    -0.006 C 
ATOM     84  C   UNL A   1      33.919  23.754  23.770  1.00  0.00     0.106 C 
BRANCH  84  85
ATOM     85  N   UNL A   1      33.951  24.777  22.740  1.00  0.00    -0.346 N 
ATOM     86  C   UNL A   1      33.579  26.095  22.707  1.00  0.00     0.253 C 
ATOM     87  H   UNL A   1      34.319  24.455  21.886  1.00  0.00     0.164 HD
ATOM     88  O   UNL A   1      33.720  26.752  21.680  1.00  0.00    -0.269 OA
BRANCH  86  89
ATOM     89  C   UNL A   1      33.042  26.758  23.901  1.00  0.00     0.058 A 
ATOM     90  C   UNL A   1      33.942  27.395  24.765  1.00  0.00     0.017 A 
ATOM     91  C   UNL A   1      31.667  26.797  24.158  1.00  0.00     0.055 A 
ATOM     92  C   UNL A   1      33.472  27.993  25.935  1.00  0.00     0.021 A 
ATOM     93  C   UNL A   1      31.200  27.397  25.331  1.00  0.00     0.041 A 
ATOM     94  Cl  UNL A   1      30.505  26.087  23.095  1.00  0.00    -0.083 Cl
ATOM     95  C   UNL A   1      32.106  27.977  26.219  1.00  0.00     0.042 A 
ATOM     96  Cl  UNL A   1      31.536  28.671  27.686  1.00  0.00    -0.084 Cl
ENDBRANCH  86  89
ENDBRANCH  84  85
ENDBRANCH  77  80
ENDBRANCH  75  76
ENDBRANCH  74  75
ENDBRANCH  73  74
ENDBRANCH   1  73
TORSDOF 15
ENDMDL
MODEL 3
REMARK VINA RESULT:     -12.2      5.065     10.568
REMARK SMILES O=C(NCCCCCCNC(=O)[C@H]1C=C[C@H](NC(=O)c2ccc(Cl)cc2Cl)C1)c1ccc(-c2c3nc(c(-c4c(F)c(F)c(F)c(F)c4F)c4ccc([nH]4)c(-c4c(F)c(F)c(F)c(F)c4F)c4nc(c(-c5c(F)c(F)c(F)c(F)c5F)c5ccc2[nH]5)C=C4)C=C3)cc1
REMARK SMILES IDX 6 1 5 2 4 3 3 4 1 5 2 6 29 8 30 9 91 10 31 11 90 12 32 13
REMARK SMILES IDX 33 14 34 15 84 16 35 17 89 18 83 19 85 20 36 21 88 22 82 23
REMARK SMILES IDX 81 24 37 26 69 27 49 28 68 29 50 30 53 31 67 32 86 33 51 34
REMARK SMILES IDX 52 35 66 37 87 38 54 39 38 40 39 41 47 42 40 43 41 44 45 45
REMARK SMILES IDX 48 46 42 47 43 48 46 49 44 50 70 51 71 52 79 53 72 54 73 55
REMARK SMILES IDX 77 56 80 57 74 58 75 59 78 60 76 61 55 62 56 63 64 64 57 65
REMARK SMILES IDX 58 66 62 67 65 68 59 69 60 70 63 71 61 72 7 73 8 74 9 75
REMARK SMILES IDX 10 76 11 77 12 79 13 80 14 81 28 82 15 83 16 84 17 85 18 86
REMARK SMILES IDX 19 88 20 89 21 90 26 91 22 92 25 93 27 94 23 95 24 96
REMARK H PARENT 3 7 85 25 53 36 10 78 17 87
REMARK Flexibility Score: inf
ROOT
ATOM      1  C   UNL A   1      36.884  20.537  24.986  1.00  0.00     0.002 C 
ENDROOT
BRANCH   1   2
ATOM      2  C   UNL A   1      38.146  19.681  24.892  1.00  0.00     0.021 C 
BRANCH   2   3
ATOM      3  C   UNL A   1      39.250  20.036  25.871  1.00  0.00     0.116 C 
BRANCH   3   4
ATOM      4  N   UNL A   1      40.341  19.082  25.874  1.00  0.00    -0.352 N 
ATOM      5  O   UNL A   1      42.500  18.418  25.911  1.00  0.00    -0.269 OA
ATOM      6  C   UNL A   1      41.684  19.318  26.052  1.00  0.00     0.251 C 
ATOM      7  H   UNL A   1      40.086  18.142  25.728  1.00  0.00     0.163 HD
BRANCH   6   8
ATOM      8  C   UNL A   1      42.140  20.686  26.390  1.00  0.00     0.039 A 
ATOM      9  C   UNL A   1      42.375  21.051  27.718  1.00  0.00     0.014 A 
ATOM     10  C   UNL A   1      42.323  21.615  25.363  1.00  0.00     0.014 A 
ATOM     11  C   UNL A   1      42.660  22.374  28.029  1.00  0.00     0.010 A 
ATOM     12  C   UNL A   1      42.701  22.926  25.670  1.00  0.00     0.010 A 
ATOM     13  C   UNL A   1      42.852  23.321  27.009  1.00  0.00    -0.014 A 
BRANCH  13  14
ATOM     14  C   UNL A   1      43.303  24.686  27.378  1.00  0.00     0.031 A 
ATOM     15  C   UNL A   1      44.700  25.159  27.094  1.00  0.00     0.074 A 
ATOM     16  C   UNL A   1      42.403  25.518  27.938  1.00  0.00     0.049 A 
ATOM     17  N   UNL A   1      45.227  26.339  27.309  1.00  0.00    -0.248 NA
ATOM     18  C   UNL A   1      45.630  24.188  26.500  1.00  0.00     0.031 C 
ATOM     19  C   UNL A   1      41.026  25.153  28.283  1.00  0.00     0.029 A 
ATOM     20  N   UNL A   1      42.495  26.839  28.290  1.00  0.00    -0.354 N 
ATOM     21  C   UNL A   1      46.547  26.251  26.889  1.00  0.00     0.074 A 
ATOM     22  C   UNL A   1      46.751  24.894  26.428  1.00  0.00     0.031 C 
ATOM     23  C   UNL A   1      40.386  26.237  28.741  1.00  0.00     0.029 A 
ATOM     24  C   UNL A   1      41.320  27.354  28.782  1.00  0.00     0.049 A 
ATOM     25  H   UNL A   1      43.320  27.366  28.200  1.00  0.00     0.167 HD
ATOM     26  C   UNL A   1      47.495  27.220  26.884  1.00  0.00     0.037 A 
ATOM     27  C   UNL A   1      41.029  28.589  29.227  1.00  0.00     0.037 A 
ATOM     28  C   UNL A   1      47.279  28.572  27.338  1.00  0.00     0.049 A 
ATOM     29  C   UNL A   1      42.100  29.639  29.203  1.00  0.00     0.074 A 
ATOM     30  C   UNL A   1      48.174  29.628  27.361  1.00  0.00     0.029 A 
ATOM     31  N   UNL A   1      46.083  29.054  27.848  1.00  0.00    -0.354 N 
ATOM     32  N   UNL A   1      43.337  29.547  28.782  1.00  0.00    -0.248 NA
ATOM     33  C   UNL A   1      41.735  30.965  29.717  1.00  0.00     0.031 C 
ATOM     34  C   UNL A   1      47.529  30.740  27.916  1.00  0.00     0.029 A 
ATOM     35  C   UNL A   1      46.219  30.387  28.199  1.00  0.00     0.049 A 
ATOM     36  H   UNL A   1      45.258  28.526  27.946  1.00  0.00     0.167 HD
ATOM     37  C   UNL A   1      43.901  30.798  28.981  1.00  0.00     0.074 A 
ATOM     38  C   UNL A   1      42.857  31.644  29.524  1.00  0.00     0.031 C 
ATOM     39  C   UNL A   1      45.171  31.207  28.748  1.00  0.00     0.037 A 
BRANCH  26  40
ATOM     40  C   UNL A   1      48.861  26.862  26.376  1.00  0.00     0.064 A 
ATOM     41  C   UNL A   1      49.808  26.238  27.201  1.00  0.00     0.173 A 
ATOM     42  C   UNL A   1      49.201  27.073  25.031  1.00  0.00     0.173 A 
ATOM     43  F   UNL A   1      49.537  26.022  28.497  1.00  0.00    -0.203 F 
ATOM     44  C   UNL A   1      51.049  25.849  26.701  1.00  0.00     0.198 A 
ATOM     45  C   UNL A   1      50.433  26.664  24.529  1.00  0.00     0.198 A 
ATOM     46  F   UNL A   1      48.328  27.661  24.199  1.00  0.00    -0.203 F 
ATOM     47  F   UNL A   1      51.948  25.279  27.515  1.00  0.00    -0.200 F 
ATOM     48  C   UNL A   1      51.357  26.054  25.365  1.00  0.00     0.200 A 
ATOM     49  F   UNL A   1      50.724  26.852  23.235  1.00  0.00    -0.200 F 
ATOM     50  F   UNL A   1      52.546  25.666  24.882  1.00  0.00    -0.200 F 
ENDBRANCH  26  40
BRANCH  27  51
ATOM     51  C   UNL A   1      39.667  28.889  29.737  1.00  0.00     0.064 A 
ATOM     52  C   UNL A   1      38.700  29.483  28.914  1.00  0.00     0.173 A 
ATOM     53  C   UNL A   1      39.302  28.576  31.055  1.00  0.00     0.173 A 
ATOM     54  F   UNL A   1      39.007  29.815  27.652  1.00  0.00    -0.203 F 
ATOM     55  C   UNL A   1      37.425  29.771  29.398  1.00  0.00     0.198 A 
ATOM     56  C   UNL A   1      38.017  28.834  31.527  1.00  0.00     0.198 A 
ATOM     57  F   UNL A   1      40.190  27.998  31.878  1.00  0.00    -0.203 F 
ATOM     58  F   UNL A   1      36.533  30.378  28.605  1.00  0.00    -0.200 F 
ATOM     59  C   UNL A   1      37.083  29.440  30.701  1.00  0.00     0.200 A 
ATOM     60  F   UNL A   1      37.687  28.495  32.780  1.00  0.00    -0.200 F 
ATOM     61  F   UNL A   1      35.855  29.709  31.161  1.00  0.00    -0.200 F 
ENDBRANCH  27  51
BRANCH  39  62
ATOM     62  C   UNL A   1      45.488  32.634  29.082  1.00  0.00     0.064 A 
ATOM     63  C   UNL A   1      45.300  33.662  28.145  1.00  0.00     0.173 A 
ATOM     64  C   UNL A   1      45.986  32.977  30.347  1.00  0.00     0.173 A 
ATOM     65  F   UNL A   1      44.843  33.379  26.916  1.00  0.00    -0.203 F 
ATOM     66  C   UNL A   1      45.630  34.978  28.453  1.00  0.00     0.198 A 
ATOM     67  C   UNL A   1      46.290  34.298  30.660  1.00  0.00     0.198 A 
ATOM     68  F   UNL A   1      46.181  32.031  31.277  1.00  0.00    -0.203 F 
ATOM     69  F   UNL A   1      45.497  35.935  27.525  1.00  0.00    -0.200 F 
ATOM     70  C   UNL A   1      46.122  35.296  29.711  1.00  0.00     0.200 A 
ATOM     71  F   UNL A   1      46.758  34.606  31.877  1.00  0.00    -0.200 F 
ATOM     72  F   UNL A   1      46.445  36.563  30.004  1.00  0.00    -0.200 F 
ENDBRANCH  39  62
ENDBRANCH  13  14
ENDBRANCH   6   8
ENDBRANCH   3   4
ENDBRANCH   2   3
ENDBRANCH   1   2
BRANCH   1  73
ATOM     73  C   UNL A   1      36.960  21.932  24.360  1.00  0.00     0.002 C 
BRANCH  73  74
ATOM     74  C   UNL A   1      37.488  23.059  25.253  1.00  0.00     0.021 C 
BRANCH  74  75
ATOM     75  C   UNL A   1      36.430  23.887  25.971  1.00  0.00     0.116 C 
BRANCH  75  76
ATOM     76  N   UNL A   1      35.598  23.087  26.840  1.00  0.00    -0.356 N 
ATOM     77  C   UNL A   1      34.259  22.873  26.833  1.00  0.00     0.227 C 
ATOM     78  H   UNL A   1      36.085  22.619  27.557  1.00  0.00     0.163 HD
ATOM     79  O   UNL A   1      33.804  22.106  27.686  1.00  0.00    -0.274 OA
BRANCH  77  80
ATOM     80  C   UNL A   1      33.324  23.551  25.834  1.00  0.00     0.103 C 
ATOM     81  C   UNL A   1      33.422  22.998  24.444  1.00  0.00    -0.016 C 
ATOM     82  C   UNL A   1      31.825  23.494  26.165  1.00  0.00     0.047 C 
ATOM     83  C   UNL A   1      32.215  22.806  23.901  1.00  0.00    -0.006 C 
ATOM     84  C   UNL A   1      31.115  23.147  24.849  1.00  0.00     0.106 C 
BRANCH  84  85
ATOM     85  N   UNL A   1      30.234  24.155  24.286  1.00  0.00    -0.346 N 
ATOM     86  C   UNL A   1      30.259  25.525  24.264  1.00  0.00     0.253 C 
ATOM     87  H   UNL A   1      29.455  23.773  23.822  1.00  0.00     0.164 HD
ATOM     88  O   UNL A   1      29.366  26.150  23.702  1.00  0.00    -0.269 OA
BRANCH  86  89
ATOM     89  C   UNL A   1      31.365  26.269  24.877  1.00  0.00     0.058 A 
ATOM     90  C   UNL A   1      31.239  26.654  26.218  1.00  0.00     0.017 A 
ATOM     91  C   UNL A   1      32.536  26.553  24.167  1.00  0.00     0.055 A 
ATOM     92  C   UNL A   1      32.250  27.406  26.820  1.00  0.00     0.021 A 
ATOM     93  C   UNL A   1      33.547  27.305  24.773  1.00  0.00     0.041 A 
ATOM     94  Cl  UNL A   1      32.776  26.045  22.533  1.00  0.00    -0.083 Cl
ATOM     95  C   UNL A   1      33.391  27.740  26.089  1.00  0.00     0.042 A 
ATOM     96  Cl  UNL A   1      34.612  28.708  26.818  1.00  0.00    -0.084 Cl
ENDBRANCH  86  89
ENDBRANCH  84  85
ENDBRANCH  77  80
ENDBRANCH  75  76
ENDBRANCH  74  75
ENDBRANCH  73  74
ENDBRANCH   1  73
TORSDOF 15
ENDMDL
