MODEL 1
REMARK VINA RESULT:     -13.2      0.000      0.000
REMARK SMILES Cc1ccc(F)c(C(=O)Nc2cccc(C(=O)NCCCCCCNC(=O)c3ccc(-c4c5nc(c(-c6c(F)c(F)c(F)c(F)c6F)c6ccc([nH]6)c(-c6c(F)c(F)c(F)c(F)c6F)c6nc(c(-c7c(F)c(F)c(F)c(F)c7F)c7ccc4[nH]7)C=C6)C=C5)cc3)c2)c1
REMARK SMILES IDX 21 1 20 2 19 3 18 4 16 5 17 6 15 8 11 9 12 10 91 11 13 12
REMARK SMILES IDX 14 13 10 14 8 15 9 16 7 18 1 19 2 20 3 21 92 22 4 23 5 24
REMARK SMILES IDX 6 25 22 26 23 27 24 28 25 29 26 30 27 32 28 33 29 34 90 35
REMARK SMILES IDX 30 36 89 37 31 38 32 39 33 40 83 41 34 42 88 43 82 44 84 45
REMARK SMILES IDX 35 46 87 47 81 48 80 49 36 51 68 52 48 53 67 54 49 55 52 56
REMARK SMILES IDX 66 57 85 58 50 59 51 60 65 62 86 63 53 64 37 65 38 66 46 67
REMARK SMILES IDX 39 68 40 69 44 70 47 71 41 72 42 73 45 74 43 75 69 76 70 77
REMARK SMILES IDX 78 78 71 79 72 80 76 81 79 82 73 83 74 84 77 85 75 86 54 87
REMARK SMILES IDX 55 88 63 89 56 90 57 91 61 92 64 93 58 94 59 95 62 96 60 97
REMARK H PARENT 18 7 10 17 25 31 84 50 52 61
REMARK Flexibility Score: inf
ROOT
ATOM      1  C   UNL A   1      34.214  28.173  23.776  1.00  0.00     0.002 C 
ENDROOT
BRANCH   1   2
ATOM      2  C   UNL A   1      34.014  26.668  23.591  1.00  0.00     0.021 C 
BRANCH   2   3
ATOM      3  C   UNL A   1      33.510  26.332  22.194  1.00  0.00     0.116 C 
BRANCH   3   4
ATOM      4  N   UNL A   1      32.293  27.052  21.899  1.00  0.00    -0.352 N 
ATOM      5  C   UNL A   1      31.051  27.070  22.473  1.00  0.00     0.251 C 
ATOM      6  O   UNL A   1      30.215  27.822  21.972  1.00  0.00    -0.269 OA
ATOM      7  H   UNL A   1      32.375  27.654  21.125  1.00  0.00     0.163 HD
BRANCH   5   8
ATOM      8  C   UNL A   1      30.702  26.314  23.709  1.00  0.00     0.041 A 
ATOM      9  C   UNL A   1      30.506  24.280  25.003  1.00  0.00     0.042 A 
ATOM     10  C   UNL A   1      30.386  25.013  26.180  1.00  0.00     0.026 A 
ATOM     11  C   UNL A   1      30.505  24.935  23.772  1.00  0.00     0.040 A 
ATOM     12  C   UNL A   1      30.455  26.404  26.131  1.00  0.00     0.003 A 
ATOM     13  C   UNL A   1      30.659  27.046  24.907  1.00  0.00     0.014 A 
BRANCH   9  14
ATOM     14  N   UNL A   1      30.726  22.902  25.098  1.00  0.00    -0.322 N 
ATOM     15  C   UNL A   1      31.892  22.159  24.955  1.00  0.00     0.258 C 
ATOM     16  O   UNL A   1      31.765  20.936  24.882  1.00  0.00    -0.269 OA
ATOM     17  H   UNL A   1      29.922  22.369  25.300  1.00  0.00     0.170 HD
BRANCH  15  18
ATOM     18  C   UNL A   1      33.273  22.751  25.006  1.00  0.00     0.076 A 
ATOM     19  C   UNL A   1      36.493  22.977  22.959  1.00  0.00     0.044 C 
ATOM     20  C   UNL A   1      35.488  23.216  24.051  1.00  0.00    -0.050 A 
ATOM     21  C   UNL A   1      35.885  23.824  25.242  1.00  0.00     0.006 A 
ATOM     22  C   UNL A   1      34.159  22.772  23.914  1.00  0.00     0.020 A 
ATOM     23  C   UNL A   1      34.984  23.924  26.299  1.00  0.00     0.040 A 
ATOM     24  C   UNL A   1      33.707  23.366  26.189  1.00  0.00     0.135 A 
ATOM     25  F   UNL A   1      32.923  23.430  27.274  1.00  0.00    -0.206 F 
ENDBRANCH  15  18
ENDBRANCH   9  14
ENDBRANCH   5   8
ENDBRANCH   3   4
ENDBRANCH   2   3
ENDBRANCH   1   2
BRANCH   1  26
ATOM     26  C   UNL A   1      33.648  28.739  25.094  1.00  0.00     0.002 C 
BRANCH  26  27
ATOM     27  C   UNL A   1      34.043  27.976  26.371  1.00  0.00     0.021 C 
BRANCH  27  28
ATOM     28  C   UNL A   1      33.508  28.655  27.608  1.00  0.00     0.116 C 
BRANCH  28  29
ATOM     29  N   UNL A   1      33.707  30.100  27.529  1.00  0.00    -0.352 N 
ATOM     30  C   UNL A   1      34.702  30.856  28.110  1.00  0.00     0.251 C 
ATOM     31  H   UNL A   1      33.049  30.596  26.992  1.00  0.00     0.163 HD
ATOM     32  O   UNL A   1      34.558  32.049  28.312  1.00  0.00    -0.269 OA
BRANCH  30  33
ATOM     33  C   UNL A   1      35.969  30.185  28.429  1.00  0.00     0.039 A 
ATOM     34  C   UNL A   1      36.224  29.629  29.687  1.00  0.00     0.014 A 
ATOM     35  C   UNL A   1      36.948  30.204  27.443  1.00  0.00     0.014 A 
ATOM     36  C   UNL A   1      37.487  29.102  29.941  1.00  0.00     0.010 A 
ATOM     37  C   UNL A   1      38.079  29.479  27.604  1.00  0.00     0.010 A 
ATOM     38  C   UNL A   1      38.399  29.053  28.886  1.00  0.00    -0.014 A 
BRANCH  38  39
ATOM     39  C   UNL A   1      39.777  28.634  28.979  1.00  0.00     0.031 A 
ATOM     40  C   UNL A   1      40.106  27.251  28.665  1.00  0.00     0.074 A 
ATOM     41  C   UNL A   1      40.674  29.635  29.129  1.00  0.00     0.049 A 
ATOM     42  N   UNL A   1      41.118  26.631  29.149  1.00  0.00    -0.248 NA
ATOM     43  C   UNL A   1      39.285  26.435  27.773  1.00  0.00     0.031 C 
ATOM     44  C   UNL A   1      42.112  29.665  28.937  1.00  0.00     0.029 A 
ATOM     45  N   UNL A   1      40.379  30.927  29.603  1.00  0.00    -0.354 N 
ATOM     46  C   UNL A   1      41.290  25.515  28.366  1.00  0.00     0.074 A 
ATOM     47  C   UNL A   1      40.048  25.343  27.650  1.00  0.00     0.031 C 
ATOM     48  C   UNL A   1      42.603  30.735  29.595  1.00  0.00     0.029 A 
ATOM     49  C   UNL A   1      41.505  31.346  30.332  1.00  0.00     0.049 A 
ATOM     50  H   UNL A   1      39.549  31.436  29.454  1.00  0.00     0.167 HD
ATOM     51  C   UNL A   1      42.545  25.000  28.239  1.00  0.00     0.037 A 
ATOM     52  C   UNL A   1      41.365  31.410  31.692  1.00  0.00     0.037 A 
ATOM     53  C   UNL A   1      43.506  25.824  28.979  1.00  0.00     0.049 A 
ATOM     54  C   UNL A   1      42.087  30.278  32.391  1.00  0.00     0.074 A 
ATOM     55  C   UNL A   1      44.359  26.855  28.618  1.00  0.00     0.029 A 
ATOM     56  N   UNL A   1      43.356  25.933  30.349  1.00  0.00    -0.354 N 
ATOM     57  N   UNL A   1      42.664  29.287  31.768  1.00  0.00    -0.248 NA
ATOM     58  C   UNL A   1      42.179  30.148  33.841  1.00  0.00     0.031 C 
ATOM     59  C   UNL A   1      44.682  27.600  29.796  1.00  0.00     0.029 A 
ATOM     60  C   UNL A   1      44.035  27.015  30.871  1.00  0.00     0.049 A 
ATOM     61  H   UNL A   1      42.824  25.307  30.891  1.00  0.00     0.167 HD
ATOM     62  C   UNL A   1      43.201  28.416  32.668  1.00  0.00     0.074 A 
ATOM     63  C   UNL A   1      42.842  28.984  33.960  1.00  0.00     0.031 C 
ATOM     64  C   UNL A   1      43.896  27.298  32.294  1.00  0.00     0.037 A 
BRANCH  51  65
ATOM     65  C   UNL A   1      42.914  23.957  27.221  1.00  0.00     0.064 A 
ATOM     66  C   UNL A   1      42.621  22.596  27.445  1.00  0.00     0.173 A 
ATOM     67  C   UNL A   1      43.555  24.238  25.997  1.00  0.00     0.173 A 
ATOM     68  F   UNL A   1      41.958  22.196  28.538  1.00  0.00    -0.203 F 
ATOM     69  C   UNL A   1      43.001  21.592  26.553  1.00  0.00     0.198 A 
ATOM     70  C   UNL A   1      43.978  23.227  25.127  1.00  0.00     0.198 A 
ATOM     71  F   UNL A   1      43.750  25.500  25.590  1.00  0.00    -0.203 F 
ATOM     72  F   UNL A   1      42.685  20.317  26.820  1.00  0.00    -0.200 F 
ATOM     73  C   UNL A   1      43.702  21.903  25.406  1.00  0.00     0.200 A 
ATOM     74  F   UNL A   1      44.649  23.545  24.011  1.00  0.00    -0.200 F 
ATOM     75  F   UNL A   1      44.088  20.935  24.565  1.00  0.00    -0.200 F 
ENDBRANCH  51  65
BRANCH  52  76
ATOM     76  C   UNL A   1      40.020  31.983  32.056  1.00  0.00     0.064 A 
ATOM     77  C   UNL A   1      39.121  31.097  32.692  1.00  0.00     0.173 A 
ATOM     78  C   UNL A   1      39.853  33.352  32.306  1.00  0.00     0.173 A 
ATOM     79  F   UNL A   1      39.204  29.777  32.456  1.00  0.00    -0.203 F 
ATOM     80  C   UNL A   1      38.276  31.534  33.711  1.00  0.00     0.198 A 
ATOM     81  C   UNL A   1      38.960  33.791  33.292  1.00  0.00     0.198 A 
ATOM     82  F   UNL A   1      40.640  34.254  31.704  1.00  0.00    -0.203 F 
ATOM     83  F   UNL A   1      37.595  30.640  34.444  1.00  0.00    -0.200 F 
ATOM     84  C   UNL A   1      38.231  32.876  34.040  1.00  0.00     0.200 A 
ATOM     85  F   UNL A   1      38.872  35.098  33.576  1.00  0.00    -0.200 F 
ATOM     86  F   UNL A   1      37.522  33.275  35.105  1.00  0.00    -0.200 F 
ENDBRANCH  52  76
BRANCH  64  87
ATOM     87  C   UNL A   1      44.506  26.355  33.290  1.00  0.00     0.064 A 
ATOM     88  C   UNL A   1      45.884  26.100  33.322  1.00  0.00     0.173 A 
ATOM     89  C   UNL A   1      43.718  25.604  34.193  1.00  0.00     0.173 A 
ATOM     90  F   UNL A   1      46.708  26.662  32.427  1.00  0.00    -0.203 F 
ATOM     91  C   UNL A   1      46.447  25.245  34.270  1.00  0.00     0.198 A 
ATOM     92  C   UNL A   1      44.274  24.694  35.083  1.00  0.00     0.198 A 
ATOM     93  F   UNL A   1      42.389  25.746  34.269  1.00  0.00    -0.203 F 
ATOM     94  F   UNL A   1      47.777  25.109  34.329  1.00  0.00    -0.200 F 
ATOM     95  C   UNL A   1      45.641  24.541  35.147  1.00  0.00     0.200 A 
ATOM     96  F   UNL A   1      43.472  23.984  35.890  1.00  0.00    -0.200 F 
ATOM     97  F   UNL A   1      46.182  23.716  36.053  1.00  0.00    -0.200 F 
ENDBRANCH  64  87
ENDBRANCH  38  39
ENDBRANCH  30  33
ENDBRANCH  28  29
ENDBRANCH  27  28
ENDBRANCH  26  27
ENDBRANCH   1  26
TORSDOF 15
ENDMDL
MODEL 2
REMARK VINA RESULT:     -12.9      1.765      2.261
REMARK SMILES Cc1ccc(F)c(C(=O)Nc2cccc(C(=O)NCCCCCCNC(=O)c3ccc(-c4c5nc(c(-c6c(F)c(F)c(F)c(F)c6F)c6ccc([nH]6)c(-c6c(F)c(F)c(F)c(F)c6F)c6nc(c(-c7c(F)c(F)c(F)c(F)c7F)c7ccc4[nH]7)C=C6)C=C5)cc3)c2)c1
REMARK SMILES IDX 21 1 20 2 19 3 18 4 16 5 17 6 15 8 11 9 12 10 91 11 13 12
REMARK SMILES IDX 14 13 10 14 8 15 9 16 7 18 1 19 2 20 3 21 92 22 4 23 5 24
REMARK SMILES IDX 6 25 22 26 23 27 24 28 25 29 26 30 27 32 28 33 29 34 90 35
REMARK SMILES IDX 30 36 89 37 31 38 32 39 33 40 83 41 34 42 88 43 82 44 84 45
REMARK SMILES IDX 35 46 87 47 81 48 80 49 36 51 68 52 48 53 67 54 49 55 52 56
REMARK SMILES IDX 66 57 85 58 50 59 51 60 65 62 86 63 53 64 37 65 38 66 46 67
REMARK SMILES IDX 39 68 40 69 44 70 47 71 41 72 42 73 45 74 43 75 69 76 70 77
REMARK SMILES IDX 78 78 71 79 72 80 76 81 79 82 73 83 74 84 77 85 75 86 54 87
REMARK SMILES IDX 55 88 63 89 56 90 57 91 61 92 64 93 58 94 59 95 62 96 60 97
REMARK H PARENT 18 7 10 17 25 31 84 50 52 61
REMARK Flexibility Score: inf
ROOT
ATOM      1  C   UNL A   1      31.495  28.157  25.684  1.00  0.00     0.002 C 
ENDROOT
BRANCH   1   2
ATOM      2  C   UNL A   1      31.838  29.091  24.523  1.00  0.00     0.021 C 
BRANCH   2   3
ATOM      3  C   UNL A   1      31.392  28.517  23.185  1.00  0.00     0.116 C 
BRANCH   3   4
ATOM      4  N   UNL A   1      32.512  27.959  22.465  1.00  0.00    -0.352 N 
ATOM      5  C   UNL A   1      33.052  26.703  22.399  1.00  0.00     0.251 C 
ATOM      6  O   UNL A   1      34.028  26.552  21.663  1.00  0.00    -0.269 OA
ATOM      7  H   UNL A   1      32.984  28.617  21.907  1.00  0.00     0.163 HD
BRANCH   5   8
ATOM      8  C   UNL A   1      32.465  25.514  23.081  1.00  0.00     0.041 A 
ATOM      9  C   UNL A   1      32.122  24.093  25.007  1.00  0.00     0.042 A 
ATOM     10  C   UNL A   1      31.032  23.483  24.392  1.00  0.00     0.026 A 
ATOM     11  C   UNL A   1      32.918  24.985  24.290  1.00  0.00     0.040 A 
ATOM     12  C   UNL A   1      30.633  23.911  23.128  1.00  0.00     0.003 A 
ATOM     13  C   UNL A   1      31.319  24.952  22.497  1.00  0.00     0.014 A 
BRANCH   9  14
ATOM     14  N   UNL A   1      32.329  23.863  26.372  1.00  0.00    -0.322 N 
ATOM     15  C   UNL A   1      33.063  22.877  27.021  1.00  0.00     0.258 C 
ATOM     16  O   UNL A   1      32.906  22.782  28.240  1.00  0.00    -0.269 OA
ATOM     17  H   UNL A   1      31.883  24.505  26.971  1.00  0.00     0.170 HD
BRANCH  15  18
ATOM     18  C   UNL A   1      34.103  22.025  26.347  1.00  0.00     0.076 A 
ATOM     19  C   UNL A   1      37.831  21.981  25.511  1.00  0.00     0.044 C 
ATOM     20  C   UNL A   1      36.405  21.529  25.650  1.00  0.00    -0.050 A 
ATOM     21  C   UNL A   1      35.964  20.393  24.969  1.00  0.00     0.006 A 
ATOM     22  C   UNL A   1      35.484  22.278  26.408  1.00  0.00     0.020 A 
ATOM     23  C   UNL A   1      34.615  20.054  24.995  1.00  0.00     0.040 A 
ATOM     24  C   UNL A   1      33.695  20.878  25.651  1.00  0.00     0.135 A 
ATOM     25  F   UNL A   1      32.402  20.531  25.565  1.00  0.00    -0.206 F 
ENDBRANCH  15  18
ENDBRANCH   9  14
ENDBRANCH   5   8
ENDBRANCH   3   4
ENDBRANCH   2   3
ENDBRANCH   1   2
BRANCH   1  26
ATOM     26  C   UNL A   1      32.715  27.613  26.453  1.00  0.00     0.002 C 
BRANCH  26  27
ATOM     27  C   UNL A   1      33.437  28.626  27.360  1.00  0.00     0.021 C 
BRANCH  27  28
ATOM     28  C   UNL A   1      34.868  28.833  26.928  1.00  0.00     0.116 C 
BRANCH  28  29
ATOM     29  N   UNL A   1      35.289  30.207  27.187  1.00  0.00    -0.352 N 
ATOM     30  C   UNL A   1      36.310  30.647  28.001  1.00  0.00     0.251 C 
ATOM     31  H   UNL A   1      34.780  30.909  26.720  1.00  0.00     0.163 HD
ATOM     32  O   UNL A   1      36.323  31.780  28.450  1.00  0.00    -0.269 OA
BRANCH  30  33
ATOM     33  C   UNL A   1      37.416  29.718  28.269  1.00  0.00     0.039 A 
ATOM     34  C   UNL A   1      37.479  28.946  29.434  1.00  0.00     0.014 A 
ATOM     35  C   UNL A   1      38.454  29.704  27.345  1.00  0.00     0.014 A 
ATOM     36  C   UNL A   1      38.609  28.168  29.660  1.00  0.00     0.010 A 
ATOM     37  C   UNL A   1      39.428  28.771  27.441  1.00  0.00     0.010 A 
ATOM     38  C   UNL A   1      39.575  28.110  28.654  1.00  0.00    -0.014 A 
BRANCH  38  39
ATOM     39  C   UNL A   1      40.850  27.439  28.743  1.00  0.00     0.031 A 
ATOM     40  C   UNL A   1      40.904  26.009  28.476  1.00  0.00     0.074 A 
ATOM     41  C   UNL A   1      41.924  28.256  28.843  1.00  0.00     0.049 A 
ATOM     42  N   UNL A   1      41.789  25.225  28.969  1.00  0.00    -0.248 NA
ATOM     43  C   UNL A   1      39.924  25.334  27.627  1.00  0.00     0.031 C 
ATOM     44  C   UNL A   1      43.336  28.004  28.630  1.00  0.00     0.029 A 
ATOM     45  N   UNL A   1      41.890  29.595  29.273  1.00  0.00    -0.354 N 
ATOM     46  C   UNL A   1      41.730  24.070  28.226  1.00  0.00     0.074 A 
ATOM     47  C   UNL A   1      40.462  24.114  27.534  1.00  0.00     0.031 C 
ATOM     48  C   UNL A   1      44.036  28.983  29.240  1.00  0.00     0.029 A 
ATOM     49  C   UNL A   1      43.090  29.816  29.969  1.00  0.00     0.049 A 
ATOM     50  H   UNL A   1      41.168  30.248  29.116  1.00  0.00     0.167 HD
ATOM     51  C   UNL A   1      42.861  23.321  28.101  1.00  0.00     0.037 A 
ATOM     52  C   UNL A   1      42.993  29.953  31.328  1.00  0.00     0.037 A 
ATOM     53  C   UNL A   1      43.977  23.972  28.795  1.00  0.00     0.049 A 
ATOM     54  C   UNL A   1      43.500  28.728  32.059  1.00  0.00     0.074 A 
ATOM     55  C   UNL A   1      45.002  24.809  28.385  1.00  0.00     0.029 A 
ATOM     56  N   UNL A   1      43.878  24.155  30.163  1.00  0.00    -0.354 N 
ATOM     57  N   UNL A   1      43.866  27.625  31.465  1.00  0.00    -0.248 NA
ATOM     58  C   UNL A   1      43.597  28.633  33.511  1.00  0.00     0.031 C 
ATOM     59  C   UNL A   1      45.485  25.518  29.530  1.00  0.00     0.029 A 
ATOM     60  C   UNL A   1      44.761  25.104  30.635  1.00  0.00     0.049 A 
ATOM     61  H   UNL A   1      43.248  23.660  30.736  1.00  0.00     0.167 HD
ATOM     62  C   UNL A   1      44.246  26.699  32.389  1.00  0.00     0.074 A 
ATOM     63  C   UNL A   1      44.029  27.368  33.664  1.00  0.00     0.031 C 
ATOM     64  C   UNL A   1      44.708  25.457  32.048  1.00  0.00     0.037 A 
BRANCH  51  65
ATOM     65  C   UNL A   1      43.003  22.193  27.117  1.00  0.00     0.064 A 
ATOM     66  C   UNL A   1      42.206  21.036  27.228  1.00  0.00     0.173 A 
ATOM     67  C   UNL A   1      43.908  22.196  26.036  1.00  0.00     0.173 A 
ATOM     68  F   UNL A   1      41.262  20.927  28.171  1.00  0.00    -0.203 F 
ATOM     69  C   UNL A   1      42.351  19.943  26.372  1.00  0.00     0.198 A 
ATOM     70  C   UNL A   1      44.087  21.081  25.209  1.00  0.00     0.198 A 
ATOM     71  F   UNL A   1      44.613  23.293  25.724  1.00  0.00    -0.203 F 
ATOM     72  F   UNL A   1      41.556  18.875  26.524  1.00  0.00    -0.200 F 
ATOM     73  C   UNL A   1      43.308  19.954  25.379  1.00  0.00     0.200 A 
ATOM     74  F   UNL A   1      45.013  21.110  24.240  1.00  0.00    -0.200 F 
ATOM     75  F   UNL A   1      43.462  18.893  24.575  1.00  0.00    -0.200 F 
ENDBRANCH  51  65
BRANCH  52  76
ATOM     76  C   UNL A   1      41.789  30.783  31.689  1.00  0.00     0.064 A 
ATOM     77  C   UNL A   1      40.730  30.096  32.324  1.00  0.00     0.173 A 
ATOM     78  C   UNL A   1      41.898  32.159  31.937  1.00  0.00     0.173 A 
ATOM     79  F   UNL A   1      40.548  28.786  32.090  1.00  0.00    -0.203 F 
ATOM     80  C   UNL A   1      39.988  30.695  33.341  1.00  0.00     0.198 A 
ATOM     81  C   UNL A   1      41.110  32.768  32.921  1.00  0.00     0.198 A 
ATOM     82  F   UNL A   1      42.851  32.884  31.336  1.00  0.00    -0.203 F 
ATOM     83  F   UNL A   1      39.141  29.955  34.074  1.00  0.00    -0.200 F 
ATOM     84  C   UNL A   1      40.212  32.019  33.669  1.00  0.00     0.200 A 
ATOM     85  F   UNL A   1      41.285  34.067  33.204  1.00  0.00    -0.200 F 
ATOM     86  F   UNL A   1      39.595  32.553  34.733  1.00  0.00    -0.200 F 
ENDBRANCH  52  76
BRANCH  64  87
ATOM     87  C   UNL A   1      45.148  24.449  33.070  1.00  0.00     0.064 A 
ATOM     88  C   UNL A   1      46.437  24.468  33.622  1.00  0.00     0.173 A 
ATOM     89  C   UNL A   1      44.322  23.373  33.467  1.00  0.00     0.173 A 
ATOM     90  F   UNL A   1      47.345  25.369  33.220  1.00  0.00    -0.203 F 
ATOM     91  C   UNL A   1      46.829  23.546  34.593  1.00  0.00     0.198 A 
ATOM     92  C   UNL A   1      44.743  22.411  34.376  1.00  0.00     0.198 A 
ATOM     93  F   UNL A   1      43.069  23.232  33.018  1.00  0.00    -0.203 F 
ATOM     94  F   UNL A   1      48.033  23.663  35.166  1.00  0.00    -0.200 F 
ATOM     95  C   UNL A   1      45.983  22.517  34.967  1.00  0.00     0.200 A 
ATOM     96  F   UNL A   1      43.928  21.393  34.687  1.00  0.00    -0.200 F 
ATOM     97  F   UNL A   1      46.363  21.630  35.895  1.00  0.00    -0.200 F 
ENDBRANCH  64  87
ENDBRANCH  38  39
ENDBRANCH  30  33
ENDBRANCH  28  29
ENDBRANCH  27  28
ENDBRANCH  26  27
ENDBRANCH   1  26
TORSDOF 15
ENDMDL
MODEL 3
REMARK VINA RESULT:     -12.9      1.986      3.394
REMARK SMILES Cc1ccc(F)c(C(=O)Nc2cccc(C(=O)NCCCCCCNC(=O)c3ccc(-c4c5nc(c(-c6c(F)c(F)c(F)c(F)c6F)c6ccc([nH]6)c(-c6c(F)c(F)c(F)c(F)c6F)c6nc(c(-c7c(F)c(F)c(F)c(F)c7F)c7ccc4[nH]7)C=C6)C=C5)cc3)c2)c1
REMARK SMILES IDX 21 1 20 2 19 3 18 4 16 5 17 6 15 8 11 9 12 10 91 11 13 12
REMARK SMILES IDX 14 13 10 14 8 15 9 16 7 18 1 19 2 20 3 21 92 22 4 23 5 24
REMARK SMILES IDX 6 25 22 26 23 27 24 28 25 29 26 30 27 32 28 33 29 34 90 35
REMARK SMILES IDX 30 36 89 37 31 38 32 39 33 40 83 41 34 42 88 43 82 44 84 45
REMARK SMILES IDX 35 46 87 47 81 48 80 49 36 51 68 52 48 53 67 54 49 55 52 56
REMARK SMILES IDX 66 57 85 58 50 59 51 60 65 62 86 63 53 64 37 65 38 66 46 67
REMARK SMILES IDX 39 68 40 69 44 70 47 71 41 72 42 73 45 74 43 75 69 76 70 77
REMARK SMILES IDX 78 78 71 79 72 80 76 81 79 82 73 83 74 84 77 85 75 86 54 87
REMARK SMILES IDX 55 88 63 89 56 90 57 91 61 92 64 93 58 94 59 95 62 96 60 97
REMARK H PARENT 18 7 10 17 25 31 84 50 52 61
REMARK Flexibility Score: inf
ROOT
ATOM      1  C   UNL A   1      31.389  27.670  26.673  1.00  0.00     0.002 C 
ENDROOT
BRANCH   1   2
ATOM      2  C   UNL A   1      31.409  26.156  26.463  1.00  0.00     0.021 C 
BRANCH   2   3
ATOM      3  C   UNL A   1      30.093  25.647  25.890  1.00  0.00     0.116 C 
BRANCH   3   4
ATOM      4  N   UNL A   1      29.584  24.544  26.670  1.00  0.00    -0.352 N 
ATOM      5  C   UNL A   1      30.034  23.273  26.902  1.00  0.00     0.251 C 
ATOM      6  O   UNL A   1      29.352  22.565  27.645  1.00  0.00    -0.269 OA
ATOM      7  H   UNL A   1      28.739  24.750  27.131  1.00  0.00     0.163 HD
BRANCH   5   8
ATOM      8  C   UNL A   1      31.334  22.750  26.392  1.00  0.00     0.041 A 
ATOM      9  C   UNL A   1      32.894  22.229  24.619  1.00  0.00     0.042 A 
ATOM     10  C   UNL A   1      33.933  22.109  25.537  1.00  0.00     0.026 A 
ATOM     11  C   UNL A   1      31.583  22.393  25.067  1.00  0.00     0.040 A 
ATOM     12  C   UNL A   1      33.683  22.342  26.888  1.00  0.00     0.003 A 
ATOM     13  C   UNL A   1      32.400  22.706  27.304  1.00  0.00     0.014 A 
BRANCH   9  14
ATOM     14  N   UNL A   1      33.212  22.281  23.257  1.00  0.00    -0.322 N 
ATOM     15  C   UNL A   1      33.100  23.320  22.341  1.00  0.00     0.258 C 
ATOM     16  O   UNL A   1      33.257  23.031  21.154  1.00  0.00    -0.269 OA
ATOM     17  H   UNL A   1      33.576  21.444  22.887  1.00  0.00     0.170 HD
BRANCH  15  18
ATOM     18  C   UNL A   1      32.923  24.762  22.727  1.00  0.00     0.076 A 
ATOM     19  C   UNL A   1      30.502  27.687  22.288  1.00  0.00     0.044 C 
ATOM     20  C   UNL A   1      31.670  26.874  22.772  1.00  0.00    -0.050 A 
ATOM     21  C   UNL A   1      32.732  27.502  23.426  1.00  0.00     0.006 A 
ATOM     22  C   UNL A   1      31.740  25.491  22.516  1.00  0.00     0.020 A 
ATOM     23  C   UNL A   1      33.868  26.769  23.755  1.00  0.00     0.040 A 
ATOM     24  C   UNL A   1      33.971  25.425  23.382  1.00  0.00     0.135 A 
ATOM     25  F   UNL A   1      35.127  24.806  23.661  1.00  0.00    -0.206 F 
ENDBRANCH  15  18
ENDBRANCH   9  14
ENDBRANCH   5   8
ENDBRANCH   3   4
ENDBRANCH   2   3
ENDBRANCH   1   2
BRANCH   1  26
ATOM     26  C   UNL A   1      32.645  28.239  27.364  1.00  0.00     0.002 C 
BRANCH  26  27
ATOM     27  C   UNL A   1      33.580  29.068  26.467  1.00  0.00     0.021 C 
BRANCH  27  28
ATOM     28  C   UNL A   1      34.997  29.058  26.986  1.00  0.00     0.116 C 
BRANCH  28  29
ATOM     29  N   UNL A   1      35.407  30.401  27.390  1.00  0.00    -0.352 N 
ATOM     30  C   UNL A   1      36.408  30.759  28.265  1.00  0.00     0.251 C 
ATOM     31  H   UNL A   1      34.904  31.144  26.985  1.00  0.00     0.163 HD
ATOM     32  O   UNL A   1      36.407  31.842  28.825  1.00  0.00    -0.269 OA
BRANCH  30  33
ATOM     33  C   UNL A   1      37.513  29.811  28.462  1.00  0.00     0.039 A 
ATOM     34  C   UNL A   1      37.546  28.913  29.534  1.00  0.00     0.014 A 
ATOM     35  C   UNL A   1      38.579  29.906  27.575  1.00  0.00     0.014 A 
ATOM     36  C   UNL A   1      38.676  28.119  29.706  1.00  0.00     0.010 A 
ATOM     37  C   UNL A   1      39.557  28.972  27.596  1.00  0.00     0.010 A 
ATOM     38  C   UNL A   1      39.672  28.180  28.731  1.00  0.00    -0.014 A 
BRANCH  38  39
ATOM     39  C   UNL A   1      40.949  27.509  28.783  1.00  0.00     0.031 A 
ATOM     40  C   UNL A   1      40.994  26.076  28.527  1.00  0.00     0.074 A 
ATOM     41  C   UNL A   1      42.026  28.326  28.842  1.00  0.00     0.049 A 
ATOM     42  N   UNL A   1      41.894  25.296  28.997  1.00  0.00    -0.248 NA
ATOM     43  C   UNL A   1      39.986  25.396  27.716  1.00  0.00     0.031 C 
ATOM     44  C   UNL A   1      43.431  28.071  28.585  1.00  0.00     0.029 A 
ATOM     45  N   UNL A   1      42.006  29.669  29.262  1.00  0.00    -0.354 N 
ATOM     46  C   UNL A   1      41.811  24.135  28.265  1.00  0.00     0.074 A 
ATOM     47  C   UNL A   1      40.521  24.174  27.615  1.00  0.00     0.031 C 
ATOM     48  C   UNL A   1      44.150  29.055  29.164  1.00  0.00     0.029 A 
ATOM     49  C   UNL A   1      43.228  29.895  29.917  1.00  0.00     0.049 A 
ATOM     50  H   UNL A   1      41.280  30.320  29.124  1.00  0.00     0.167 HD
ATOM     51  C   UNL A   1      42.936  23.385  28.110  1.00  0.00     0.037 A 
ATOM     52  C   UNL A   1      43.176  30.042  31.277  1.00  0.00     0.037 A 
ATOM     53  C   UNL A   1      44.075  24.040  28.762  1.00  0.00     0.049 A 
ATOM     54  C   UNL A   1      43.706  28.823  32.001  1.00  0.00     0.074 A 
ATOM     55  C   UNL A   1      45.087  24.873  28.312  1.00  0.00     0.029 A 
ATOM     56  N   UNL A   1      44.021  24.234  30.131  1.00  0.00    -0.354 N 
ATOM     57  N   UNL A   1      44.052  27.715  31.405  1.00  0.00    -0.248 NA
ATOM     58  C   UNL A   1      43.850  28.739  33.450  1.00  0.00     0.031 C 
ATOM     59  C   UNL A   1      45.607  25.591  29.435  1.00  0.00     0.029 A 
ATOM     60  C   UNL A   1      44.919  25.187  30.566  1.00  0.00     0.049 A 
ATOM     61  H   UNL A   1      43.410  23.745  30.728  1.00  0.00     0.167 HD
ATOM     62  C   UNL A   1      44.462  26.796  32.324  1.00  0.00     0.074 A 
ATOM     63  C   UNL A   1      44.286  27.476  33.599  1.00  0.00     0.031 C 
ATOM     64  C   UNL A   1      44.912  25.551  31.977  1.00  0.00     0.037 A 
BRANCH  51  65
ATOM     65  C   UNL A   1      43.047  22.248  27.131  1.00  0.00     0.064 A 
ATOM     66  C   UNL A   1      42.246  21.097  27.271  1.00  0.00     0.173 A 
ATOM     67  C   UNL A   1      43.923  22.238  26.027  1.00  0.00     0.173 A 
ATOM     68  F   UNL A   1      41.325  21.001  28.239  1.00  0.00    -0.203 F 
ATOM     69  C   UNL A   1      42.361  19.997  26.420  1.00  0.00     0.198 A 
ATOM     70  C   UNL A   1      44.073  21.116  25.204  1.00  0.00     0.198 A 
ATOM     71  F   UNL A   1      44.627  23.328  25.689  1.00  0.00    -0.203 F 
ATOM     72  F   UNL A   1      41.564  18.935  26.601  1.00  0.00    -0.200 F 
ATOM     73  C   UNL A   1      43.292  19.995  25.402  1.00  0.00     0.200 A 
ATOM     74  F   UNL A   1      44.975  21.132  24.212  1.00  0.00    -0.200 F 
ATOM     75  F   UNL A   1      43.419  18.927  24.603  1.00  0.00    -0.200 F 
ENDBRANCH  51  65
BRANCH  52  76
ATOM     76  C   UNL A   1      41.984  30.876  31.670  1.00  0.00     0.064 A 
ATOM     77  C   UNL A   1      41.935  32.180  31.128  1.00  0.00     0.173 A 
ATOM     78  C   UNL A   1      40.763  30.284  32.023  1.00  0.00     0.173 A 
ATOM     79  F   UNL A   1      43.075  32.816  30.812  1.00  0.00    -0.203 F 
ATOM     80  C   UNL A   1      40.727  32.751  30.728  1.00  0.00     0.198 A 
ATOM     81  C   UNL A   1      39.551  30.889  31.668  1.00  0.00     0.198 A 
ATOM     82  F   UNL A   1      40.735  29.066  32.581  1.00  0.00    -0.203 F 
ATOM     83  F   UNL A   1      40.730  33.891  30.021  1.00  0.00    -0.200 F 
ATOM     84  C   UNL A   1      39.540  32.082  30.958  1.00  0.00     0.200 A 
ATOM     85  F   UNL A   1      38.393  30.269  31.940  1.00  0.00    -0.200 F 
ATOM     86  F   UNL A   1      38.396  32.567  30.455  1.00  0.00    -0.200 F 
ENDBRANCH  52  76
BRANCH  64  87
ATOM     87  C   UNL A   1      45.385  24.551  32.992  1.00  0.00     0.064 A 
ATOM     88  C   UNL A   1      44.563  23.509  33.445  1.00  0.00     0.173 A 
ATOM     89  C   UNL A   1      46.650  24.655  33.615  1.00  0.00     0.173 A 
ATOM     90  F   UNL A   1      43.299  23.394  33.014  1.00  0.00    -0.203 F 
ATOM     91  C   UNL A   1      45.020  22.567  34.366  1.00  0.00     0.198 A 
ATOM     92  C   UNL A   1      47.072  23.760  34.590  1.00  0.00     0.198 A 
ATOM     93  F   UNL A   1      47.535  25.602  33.280  1.00  0.00    -0.203 F 
ATOM     94  F   UNL A   1      44.238  21.531  34.694  1.00  0.00    -0.200 F 
ATOM     95  C   UNL A   1      46.272  22.695  34.940  1.00  0.00     0.200 A 
ATOM     96  F   UNL A   1      48.269  23.931  35.170  1.00  0.00    -0.200 F 
ATOM     97  F   UNL A   1      46.708  21.793  35.829  1.00  0.00    -0.200 F 
ENDBRANCH  64  87
ENDBRANCH  38  39
ENDBRANCH  30  33
ENDBRANCH  28  29
ENDBRANCH  27  28
ENDBRANCH  26  27
ENDBRANCH   1  26
TORSDOF 15
ENDMDL
