MODEL 1
REMARK VINA RESULT:     -10.8      0.000      0.000
REMARK SMILES O=C(CNC(=O)CNC(=O)OCc1ccccc1)NCCCCCCNC(=O)c1ccc(-c2c3nc(c(-c4c(F)c(F)c(F)c(F)c4F)c4ccc([nH]4)c(-c4c(F)c(F)c(F)c(F)c4F)c4nc(c(-c5c(F)c(F)c(F)c(F)c5F)c5ccc2[nH]5)C=C4)C=C3)cc1
REMARK SMILES IDX 20 1 19 2 1 3 2 4 3 6 4 7 5 8 6 10 7 11 8 12 9 13 10 15
REMARK SMILES IDX 11 16 12 17 13 18 14 19 18 20 15 21 17 22 16 23 21 24 22 25
REMARK SMILES IDX 23 26 24 27 25 28 26 29 27 30 28 32 29 33 30 34 91 35 31 36
REMARK SMILES IDX 90 37 32 38 33 39 34 40 84 41 35 42 89 43 83 44 85 45 36 46
REMARK SMILES IDX 88 47 82 48 81 49 37 51 69 52 49 53 68 54 50 55 53 56 67 57
REMARK SMILES IDX 86 58 51 59 52 60 66 62 87 63 54 64 38 65 39 66 47 67 40 68
REMARK SMILES IDX 41 69 45 70 48 71 42 72 43 73 46 74 44 75 70 76 71 77 79 78
REMARK SMILES IDX 72 79 73 80 77 81 80 82 74 83 75 84 78 85 76 86 55 87 56 88
REMARK SMILES IDX 64 89 57 90 58 91 62 92 65 93 59 94 60 95 63 96 61 97
REMARK H PARENT 19 5 4 9 8 14 26 31 85 50 53 61
REMARK Flexibility Score: inf
ROOT
ATOM      1  C   UNL A   1      33.980  31.553  27.894  1.00  0.00     0.116 C 
ENDROOT
BRANCH   1   2
ATOM      2  N   UNL A   1      33.991  30.498  26.898  1.00  0.00    -0.355 N 
ATOM      3  O   UNL A   1      31.809  29.853  27.203  1.00  0.00    -0.273 OA
ATOM      4  C   UNL A   1      32.875  29.746  26.600  1.00  0.00     0.239 C 
ATOM      5  H   UNL A   1      34.828  30.313  26.413  1.00  0.00     0.163 HD
BRANCH   4   6
ATOM      6  C   UNL A   1      33.062  28.685  25.506  1.00  0.00     0.216 C 
BRANCH   6   7
ATOM      7  N   UNL A   1      31.828  28.054  25.048  1.00  0.00    -0.346 N 
ATOM      8  C   UNL A   1      31.469  27.675  23.786  1.00  0.00     0.239 C 
ATOM      9  H   UNL A   1      31.159  27.875  25.748  1.00  0.00     0.164 HD
ATOM     10  O   UNL A   1      30.366  27.152  23.626  1.00  0.00    -0.273 OA
BRANCH   8  11
ATOM     11  C   UNL A   1      32.391  27.977  22.605  1.00  0.00     0.219 C 
BRANCH  11  12
ATOM     12  N   UNL A   1      32.200  26.919  21.636  1.00  0.00    -0.312 N 
ATOM     13  C   UNL A   1      33.054  25.902  21.363  1.00  0.00     0.407 C 
ATOM     14  H   UNL A   1      31.361  26.940  21.120  1.00  0.00     0.167 HD
ATOM     15  O   UNL A   1      32.935  25.259  20.328  1.00  0.00    -0.225 OA
BRANCH  13  16
ATOM     16  O   UNL A   1      34.001  25.707  22.306  1.00  0.00    -0.445 OA
BRANCH  16  17
ATOM     17  C   UNL A   1      33.649  24.769  23.337  1.00  0.00     0.270 C 
BRANCH  17  18
ATOM     18  C   UNL A   1      34.856  24.092  23.950  1.00  0.00    -0.011 A 
ATOM     19  C   UNL A   1      35.666  23.232  23.191  1.00  0.00     0.007 A 
ATOM     20  C   UNL A   1      35.214  24.333  25.283  1.00  0.00     0.007 A 
ATOM     21  C   UNL A   1      36.783  22.611  23.749  1.00  0.00     0.000 A 
ATOM     22  C   UNL A   1      36.346  23.726  25.838  1.00  0.00     0.000 A 
ATOM     23  C   UNL A   1      37.126  22.861  25.072  1.00  0.00     0.000 A 
ENDBRANCH  17  18
ENDBRANCH  16  17
ENDBRANCH  13  16
ENDBRANCH  11  12
ENDBRANCH   8  11
ENDBRANCH   6   7
ENDBRANCH   4   6
ENDBRANCH   1   2
BRANCH   1  24
ATOM     24  C   UNL A   1      35.322  32.273  28.028  1.00  0.00     0.021 C 
BRANCH  24  25
ATOM     25  C   UNL A   1      35.297  33.536  28.899  1.00  0.00     0.002 C 
BRANCH  25  26
ATOM     26  C   UNL A   1      35.068  34.860  28.169  1.00  0.00     0.002 C 
BRANCH  26  27
ATOM     27  C   UNL A   1      34.010  35.778  28.778  1.00  0.00     0.021 C 
BRANCH  27  28
ATOM     28  C   UNL A   1      32.936  35.074  29.602  1.00  0.00     0.116 C 
BRANCH  28  29
ATOM     29  N   UNL A   1      32.402  35.910  30.668  1.00  0.00    -0.352 N 
ATOM     30  C   UNL A   1      32.755  35.968  31.995  1.00  0.00     0.251 C 
ATOM     31  H   UNL A   1      31.683  36.527  30.398  1.00  0.00     0.163 HD
ATOM     32  O   UNL A   1      32.097  36.639  32.784  1.00  0.00    -0.269 OA
BRANCH  30  33
ATOM     33  C   UNL A   1      33.917  35.195  32.485  1.00  0.00     0.039 A 
ATOM     34  C   UNL A   1      33.708  33.918  33.014  1.00  0.00     0.014 A 
ATOM     35  C   UNL A   1      35.209  35.727  32.428  1.00  0.00     0.014 A 
ATOM     36  C   UNL A   1      34.800  33.143  33.416  1.00  0.00     0.010 A 
ATOM     37  C   UNL A   1      36.300  34.930  32.769  1.00  0.00     0.010 A 
ATOM     38  C   UNL A   1      36.107  33.630  33.262  1.00  0.00    -0.014 A 
BRANCH  38  39
ATOM     39  C   UNL A   1      37.294  32.806  33.611  1.00  0.00     0.031 A 
ATOM     40  C   UNL A   1      38.051  33.083  34.880  1.00  0.00     0.074 A 
ATOM     41  C   UNL A   1      37.745  31.877  32.745  1.00  0.00     0.049 A 
ATOM     42  N   UNL A   1      39.188  32.583  35.293  1.00  0.00    -0.248 NA
ATOM     43  C   UNL A   1      37.464  34.075  35.795  1.00  0.00     0.031 C 
ATOM     44  C   UNL A   1      37.122  31.539  31.464  1.00  0.00     0.029 A 
ATOM     45  N   UNL A   1      38.850  31.063  32.801  1.00  0.00    -0.354 N 
ATOM     46  C   UNL A   1      39.468  33.222  36.494  1.00  0.00     0.074 A 
ATOM     47  C   UNL A   1      38.398  34.166  36.732  1.00  0.00     0.031 C 
ATOM     48  C   UNL A   1      37.851  30.586  30.859  1.00  0.00     0.029 A 
ATOM     49  C   UNL A   1      39.011  30.274  31.688  1.00  0.00     0.049 A 
ATOM     50  H   UNL A   1      39.467  31.046  33.568  1.00  0.00     0.167 HD
ATOM     51  C   UNL A   1      40.516  33.027  37.329  1.00  0.00     0.037 A 
ATOM     52  C   UNL A   1      39.994  29.412  31.365  1.00  0.00     0.037 A 
ATOM     53  C   UNL A   1      41.552  32.051  37.117  1.00  0.00     0.049 A 
ATOM     54  C   UNL A   1      41.139  29.205  32.321  1.00  0.00     0.074 A 
ATOM     55  C   UNL A   1      42.613  31.728  37.945  1.00  0.00     0.029 A 
ATOM     56  N   UNL A   1      41.653  31.238  36.000  1.00  0.00    -0.354 N 
ATOM     57  N   UNL A   1      41.358  29.770  33.482  1.00  0.00    -0.248 NA
ATOM     58  C   UNL A   1      42.171  28.237  31.923  1.00  0.00     0.031 C 
ATOM     59  C   UNL A   1      43.377  30.743  37.312  1.00  0.00     0.029 A 
ATOM     60  C   UNL A   1      42.768  30.424  36.110  1.00  0.00     0.049 A 
ATOM     61  H   UNL A   1      41.026  31.239  35.240  1.00  0.00     0.167 HD
ATOM     62  C   UNL A   1      42.527  29.201  33.968  1.00  0.00     0.074 A 
ATOM     63  C   UNL A   1      42.970  28.242  32.980  1.00  0.00     0.031 C 
ATOM     64  C   UNL A   1      43.176  29.451  35.131  1.00  0.00     0.037 A 
BRANCH  51  65
ATOM     65  C   UNL A   1      40.599  33.879  38.560  1.00  0.00     0.064 A 
ATOM     66  C   UNL A   1      39.947  33.518  39.748  1.00  0.00     0.173 A 
ATOM     67  C   UNL A   1      41.399  35.031  38.570  1.00  0.00     0.173 A 
ATOM     68  F   UNL A   1      39.164  32.430  39.785  1.00  0.00    -0.203 F 
ATOM     69  C   UNL A   1      40.081  34.289  40.899  1.00  0.00     0.198 A 
ATOM     70  C   UNL A   1      41.551  35.786  39.731  1.00  0.00     0.198 A 
ATOM     71  F   UNL A   1      42.048  35.415  37.461  1.00  0.00    -0.203 F 
ATOM     72  F   UNL A   1      39.425  33.944  42.015  1.00  0.00    -0.200 F 
ATOM     73  C   UNL A   1      40.889  35.417  40.892  1.00  0.00     0.200 A 
ATOM     74  F   UNL A   1      42.342  36.868  39.726  1.00  0.00    -0.200 F 
ATOM     75  F   UNL A   1      41.029  36.149  42.006  1.00  0.00    -0.200 F 
ENDBRANCH  51  65
BRANCH  52  76
ATOM     76  C   UNL A   1      39.944  28.664  30.081  1.00  0.00     0.064 A 
ATOM     77  C   UNL A   1      39.353  27.395  30.011  1.00  0.00     0.173 A 
ATOM     78  C   UNL A   1      40.512  29.184  28.909  1.00  0.00     0.173 A 
ATOM     79  F   UNL A   1      38.818  26.846  31.111  1.00  0.00    -0.203 F 
ATOM     80  C   UNL A   1      39.358  26.661  28.827  1.00  0.00     0.198 A 
ATOM     81  C   UNL A   1      40.492  28.462  27.718  1.00  0.00     0.198 A 
ATOM     82  F   UNL A   1      41.087  30.395  28.921  1.00  0.00    -0.203 F 
ATOM     83  F   UNL A   1      38.837  25.427  28.804  1.00  0.00    -0.200 F 
ATOM     84  C   UNL A   1      39.925  27.196  27.681  1.00  0.00     0.200 A 
ATOM     85  F   UNL A   1      41.031  28.987  26.609  1.00  0.00    -0.200 F 
ATOM     86  F   UNL A   1      39.936  26.488  26.543  1.00  0.00    -0.200 F 
ENDBRANCH  52  76
BRANCH  64  87
ATOM     87  C   UNL A   1      44.399  28.638  35.430  1.00  0.00     0.064 A 
ATOM     88  C   UNL A   1      45.680  29.070  35.057  1.00  0.00     0.173 A 
ATOM     89  C   UNL A   1      44.291  27.438  36.150  1.00  0.00     0.173 A 
ATOM     90  F   UNL A   1      45.832  30.203  34.355  1.00  0.00    -0.203 F 
ATOM     91  C   UNL A   1      46.808  28.320  35.382  1.00  0.00     0.198 A 
ATOM     92  C   UNL A   1      45.423  26.705  36.494  1.00  0.00     0.198 A 
ATOM     93  F   UNL A   1      43.087  26.987  36.535  1.00  0.00    -0.203 F 
ATOM     94  F   UNL A   1      48.020  28.733  34.985  1.00  0.00    -0.200 F 
ATOM     95  C   UNL A   1      46.679  27.145  36.106  1.00  0.00     0.200 A 
ATOM     96  F   UNL A   1      45.297  25.576  37.204  1.00  0.00    -0.200 F 
ATOM     97  F   UNL A   1      47.767  26.430  36.426  1.00  0.00    -0.200 F 
ENDBRANCH  64  87
ENDBRANCH  38  39
ENDBRANCH  30  33
ENDBRANCH  28  29
ENDBRANCH  27  28
ENDBRANCH  26  27
ENDBRANCH  25  26
ENDBRANCH  24  25
ENDBRANCH   1  24
TORSDOF 19
ENDMDL
MODEL 2
REMARK VINA RESULT:     -10.8      6.910     12.437
REMARK SMILES O=C(CNC(=O)CNC(=O)OCc1ccccc1)NCCCCCCNC(=O)c1ccc(-c2c3nc(c(-c4c(F)c(F)c(F)c(F)c4F)c4ccc([nH]4)c(-c4c(F)c(F)c(F)c(F)c4F)c4nc(c(-c5c(F)c(F)c(F)c(F)c5F)c5ccc2[nH]5)C=C4)C=C3)cc1
REMARK SMILES IDX 20 1 19 2 1 3 2 4 3 6 4 7 5 8 6 10 7 11 8 12 9 13 10 15
REMARK SMILES IDX 11 16 12 17 13 18 14 19 18 20 15 21 17 22 16 23 21 24 22 25
REMARK SMILES IDX 23 26 24 27 25 28 26 29 27 30 28 32 29 33 30 34 91 35 31 36
REMARK SMILES IDX 90 37 32 38 33 39 34 40 84 41 35 42 89 43 83 44 85 45 36 46
REMARK SMILES IDX 88 47 82 48 81 49 37 51 69 52 49 53 68 54 50 55 53 56 67 57
REMARK SMILES IDX 86 58 51 59 52 60 66 62 87 63 54 64 38 65 39 66 47 67 40 68
REMARK SMILES IDX 41 69 45 70 48 71 42 72 43 73 46 74 44 75 70 76 71 77 79 78
REMARK SMILES IDX 72 79 73 80 77 81 80 82 74 83 75 84 78 85 76 86 55 87 56 88
REMARK SMILES IDX 64 89 57 90 58 91 62 92 65 93 59 94 60 95 63 96 61 97
REMARK H PARENT 19 5 4 9 8 14 26 31 85 50 53 61
REMARK Flexibility Score: inf
ROOT
ATOM      1  C   UNL A   1      38.881  22.578  26.011  1.00  0.00     0.116 C 
ENDROOT
BRANCH   1   2
ATOM      2  N   UNL A   1      37.453  22.586  26.267  1.00  0.00    -0.355 N 
ATOM      3  O   UNL A   1      36.868  21.349  24.423  1.00  0.00    -0.273 OA
ATOM      4  C   UNL A   1      36.550  21.928  25.460  1.00  0.00     0.239 C 
ATOM      5  H   UNL A   1      37.114  23.080  27.049  1.00  0.00     0.163 HD
BRANCH   4   6
ATOM      6  C   UNL A   1      35.079  22.027  25.890  1.00  0.00     0.216 C 
BRANCH   6   7
ATOM      7  N   UNL A   1      34.370  20.752  25.947  1.00  0.00    -0.346 N 
ATOM      8  C   UNL A   1      33.104  20.450  25.534  1.00  0.00     0.239 C 
ATOM      9  H   UNL A   1      34.877  20.004  26.336  1.00  0.00     0.164 HD
ATOM     10  O   UNL A   1      32.705  19.294  25.677  1.00  0.00    -0.273 OA
BRANCH   8  11
ATOM     11  C   UNL A   1      32.193  21.550  24.989  1.00  0.00     0.219 C 
BRANCH  11  12
ATOM     12  N   UNL A   1      31.248  21.877  26.035  1.00  0.00    -0.312 N 
ATOM     13  C   UNL A   1      30.811  23.113  26.378  1.00  0.00     0.407 C 
ATOM     14  H   UNL A   1      30.885  21.122  26.552  1.00  0.00     0.167 HD
ATOM     15  O   UNL A   1      30.265  23.296  27.459  1.00  0.00    -0.225 OA
BRANCH  13  16
ATOM     16  O   UNL A   1      31.049  24.062  25.447  1.00  0.00    -0.445 OA
BRANCH  16  17
ATOM     17  C   UNL A   1      30.514  25.362  25.752  1.00  0.00     0.270 C 
BRANCH  17  18
ATOM     18  C   UNL A   1      31.583  26.357  26.148  1.00  0.00    -0.011 A 
ATOM     19  C   UNL A   1      32.882  26.271  25.621  1.00  0.00     0.007 A 
ATOM     20  C   UNL A   1      31.294  27.408  27.028  1.00  0.00     0.007 A 
ATOM     21  C   UNL A   1      33.869  27.189  25.977  1.00  0.00     0.000 A 
ATOM     22  C   UNL A   1      32.278  28.341  27.371  1.00  0.00     0.000 A 
ATOM     23  C   UNL A   1      33.566  28.227  26.850  1.00  0.00     0.000 A 
ENDBRANCH  17  18
ENDBRANCH  16  17
ENDBRANCH  13  16
ENDBRANCH  11  12
ENDBRANCH   8  11
ENDBRANCH   6   7
ENDBRANCH   4   6
ENDBRANCH   1   2
BRANCH   1  24
ATOM     24  C   UNL A   1      39.722  22.831  27.263  1.00  0.00     0.021 C 
BRANCH  24  25
ATOM     25  C   UNL A   1      41.012  22.005  27.357  1.00  0.00     0.002 C 
BRANCH  25  26
ATOM     26  C   UNL A   1      41.535  21.410  26.049  1.00  0.00     0.002 C 
BRANCH  26  27
ATOM     27  C   UNL A   1      41.508  19.886  25.958  1.00  0.00     0.021 C 
BRANCH  27  28
ATOM     28  C   UNL A   1      42.798  19.187  26.376  1.00  0.00     0.116 C 
BRANCH  28  29
ATOM     29  N   UNL A   1      43.603  18.760  25.241  1.00  0.00    -0.352 N 
ATOM     30  C   UNL A   1      44.451  19.493  24.445  1.00  0.00     0.251 C 
ATOM     31  H   UNL A   1      43.531  17.806  25.009  1.00  0.00     0.163 HD
ATOM     32  O   UNL A   1      44.945  18.993  23.439  1.00  0.00    -0.269 OA
BRANCH  30  33
ATOM     33  C   UNL A   1      44.752  20.901  24.786  1.00  0.00     0.039 A 
ATOM     34  C   UNL A   1      44.449  21.902  23.858  1.00  0.00     0.014 A 
ATOM     35  C   UNL A   1      45.334  21.235  26.012  1.00  0.00     0.014 A 
ATOM     36  C   UNL A   1      44.659  23.244  24.189  1.00  0.00     0.010 A 
ATOM     37  C   UNL A   1      45.483  22.574  26.365  1.00  0.00     0.010 A 
ATOM     38  C   UNL A   1      45.144  23.592  25.459  1.00  0.00    -0.014 A 
BRANCH  38  39
ATOM     39  C   UNL A   1      45.310  25.011  25.870  1.00  0.00     0.031 A 
ATOM     40  C   UNL A   1      46.667  25.654  25.806  1.00  0.00     0.074 A 
ATOM     41  C   UNL A   1      44.266  25.687  26.388  1.00  0.00     0.049 A 
ATOM     42  N   UNL A   1      47.052  26.823  26.252  1.00  0.00    -0.248 NA
ATOM     43  C   UNL A   1      47.742  24.867  25.179  1.00  0.00     0.031 C 
ATOM     44  C   UNL A   1      42.907  25.163  26.539  1.00  0.00     0.029 A 
ATOM     45  N   UNL A   1      44.192  26.956  26.909  1.00  0.00    -0.354 N 
ATOM     46  C   UNL A   1      48.414  26.896  25.992  1.00  0.00     0.074 A 
ATOM     47  C   UNL A   1      48.797  25.646  25.374  1.00  0.00     0.031 C 
ATOM     48  C   UNL A   1      42.134  26.103  27.108  1.00  0.00     0.029 A 
ATOM     49  C   UNL A   1      42.949  27.279  27.398  1.00  0.00     0.049 A 
ATOM     50  H   UNL A   1      44.956  27.576  26.928  1.00  0.00     0.167 HD
ATOM     51  C   UNL A   1      49.265  27.922  26.234  1.00  0.00     0.037 A 
ATOM     52  C   UNL A   1      42.521  28.391  28.028  1.00  0.00     0.037 A 
ATOM     53  C   UNL A   1      48.873  29.185  26.801  1.00  0.00     0.049 A 
ATOM     54  C   UNL A   1      43.488  29.520  28.269  1.00  0.00     0.074 A 
ATOM     55  C   UNL A   1      49.650  30.311  27.014  1.00  0.00     0.029 A 
ATOM     56  N   UNL A   1      47.595  29.490  27.240  1.00  0.00    -0.354 N 
ATOM     57  N   UNL A   1      44.758  29.601  27.960  1.00  0.00    -0.248 NA
ATOM     58  C   UNL A   1      42.958  30.715  28.942  1.00  0.00     0.031 C 
ATOM     59  C   UNL A   1      48.848  31.287  27.614  1.00  0.00     0.029 A 
ATOM     60  C   UNL A   1      47.564  30.783  27.737  1.00  0.00     0.049 A 
ATOM     61  H   UNL A   1      46.823  28.879  27.205  1.00  0.00     0.167 HD
ATOM     62  C   UNL A   1      45.169  30.864  28.366  1.00  0.00     0.074 A 
ATOM     63  C   UNL A   1      44.013  31.518  28.939  1.00  0.00     0.031 C 
ATOM     64  C   UNL A   1      46.396  31.430  28.273  1.00  0.00     0.037 A 
BRANCH  51  65
ATOM     65  C   UNL A   1      50.710  27.732  25.881  1.00  0.00     0.064 A 
ATOM     66  C   UNL A   1      51.652  27.327  26.837  1.00  0.00     0.173 A 
ATOM     67  C   UNL A   1      51.141  27.889  24.555  1.00  0.00     0.173 A 
ATOM     68  F   UNL A   1      51.290  27.172  28.119  1.00  0.00    -0.203 F 
ATOM     69  C   UNL A   1      52.978  27.099  26.481  1.00  0.00     0.198 A 
ATOM     70  C   UNL A   1      52.463  27.636  24.198  1.00  0.00     0.198 A 
ATOM     71  F   UNL A   1      50.277  28.270  23.603  1.00  0.00    -0.203 F 
ATOM     72  F   UNL A   1      53.870  26.742  27.415  1.00  0.00    -0.200 F 
ATOM     73  C   UNL A   1      53.381  27.245  25.161  1.00  0.00     0.200 A 
ATOM     74  F   UNL A   1      52.846  27.765  22.920  1.00  0.00    -0.200 F 
ATOM     75  F   UNL A   1      54.655  27.011  24.817  1.00  0.00    -0.200 F 
ENDBRANCH  51  65
BRANCH  52  76
ATOM     76  C   UNL A   1      41.107  28.505  28.471  1.00  0.00     0.064 A 
ATOM     77  C   UNL A   1      40.718  28.077  29.747  1.00  0.00     0.173 A 
ATOM     78  C   UNL A   1      40.112  29.008  27.620  1.00  0.00     0.173 A 
ATOM     79  F   UNL A   1      41.629  27.566  30.588  1.00  0.00    -0.203 F 
ATOM     80  C   UNL A   1      39.384  28.121  30.148  1.00  0.00     0.198 A 
ATOM     81  C   UNL A   1      38.783  29.079  28.031  1.00  0.00     0.198 A 
ATOM     82  F   UNL A   1      40.432  29.433  26.389  1.00  0.00    -0.203 F 
ATOM     83  F   UNL A   1      39.032  27.652  31.352  1.00  0.00    -0.200 F 
ATOM     84  C   UNL A   1      38.418  28.624  29.290  1.00  0.00     0.200 A 
ATOM     85  F   UNL A   1      37.853  29.575  27.203  1.00  0.00    -0.200 F 
ATOM     86  F   UNL A   1      37.134  28.660  29.672  1.00  0.00    -0.200 F 
ENDBRANCH  52  76
BRANCH  64  87
ATOM     87  C   UNL A   1      46.543  32.846  28.743  1.00  0.00     0.064 A 
ATOM     88  C   UNL A   1      46.317  33.933  27.888  1.00  0.00     0.173 A 
ATOM     89  C   UNL A   1      46.856  33.116  30.084  1.00  0.00     0.173 A 
ATOM     90  F   UNL A   1      46.029  33.725  26.594  1.00  0.00    -0.203 F 
ATOM     91  C   UNL A   1      46.415  35.241  28.354  1.00  0.00     0.198 A 
ATOM     92  C   UNL A   1      46.929  34.424  30.553  1.00  0.00     0.198 A 
ATOM     93  F   UNL A   1      47.074  32.108  30.944  1.00  0.00    -0.203 F 
ATOM     94  F   UNL A   1      46.231  36.266  27.511  1.00  0.00    -0.200 F 
ATOM     95  C   UNL A   1      46.713  35.485  29.687  1.00  0.00     0.200 A 
ATOM     96  F   UNL A   1      47.204  34.657  31.843  1.00  0.00    -0.200 F 
ATOM     97  F   UNL A   1      46.798  36.745  30.136  1.00  0.00    -0.200 F 
ENDBRANCH  64  87
ENDBRANCH  38  39
ENDBRANCH  30  33
ENDBRANCH  28  29
ENDBRANCH  27  28
ENDBRANCH  26  27
ENDBRANCH  25  26
ENDBRANCH  24  25
ENDBRANCH   1  24
TORSDOF 19
ENDMDL
MODEL 3
REMARK VINA RESULT:     -10.7      4.250      6.867
REMARK SMILES O=C(CNC(=O)CNC(=O)OCc1ccccc1)NCCCCCCNC(=O)c1ccc(-c2c3nc(c(-c4c(F)c(F)c(F)c(F)c4F)c4ccc([nH]4)c(-c4c(F)c(F)c(F)c(F)c4F)c4nc(c(-c5c(F)c(F)c(F)c(F)c5F)c5ccc2[nH]5)C=C4)C=C3)cc1
REMARK SMILES IDX 20 1 19 2 1 3 2 4 3 6 4 7 5 8 6 10 7 11 8 12 9 13 10 15
REMARK SMILES IDX 11 16 12 17 13 18 14 19 18 20 15 21 17 22 16 23 21 24 22 25
REMARK SMILES IDX 23 26 24 27 25 28 26 29 27 30 28 32 29 33 30 34 91 35 31 36
REMARK SMILES IDX 90 37 32 38 33 39 34 40 84 41 35 42 89 43 83 44 85 45 36 46
REMARK SMILES IDX 88 47 82 48 81 49 37 51 69 52 49 53 68 54 50 55 53 56 67 57
REMARK SMILES IDX 86 58 51 59 52 60 66 62 87 63 54 64 38 65 39 66 47 67 40 68
REMARK SMILES IDX 41 69 45 70 48 71 42 72 43 73 46 74 44 75 70 76 71 77 79 78
REMARK SMILES IDX 72 79 73 80 77 81 80 82 74 83 75 84 78 85 76 86 55 87 56 88
REMARK SMILES IDX 64 89 57 90 58 91 62 92 65 93 59 94 60 95 63 96 61 97
REMARK H PARENT 19 5 4 9 8 14 26 31 85 50 53 61
REMARK Flexibility Score: inf
ROOT
ATOM      1  C   UNL A   1      33.366  26.547  22.318  1.00  0.00     0.116 C 
ENDROOT
BRANCH   1   2
ATOM      2  N   UNL A   1      33.937  25.878  23.473  1.00  0.00    -0.355 N 
ATOM      3  O   UNL A   1      34.147  23.818  22.482  1.00  0.00    -0.273 OA
ATOM      4  C   UNL A   1      34.324  24.556  23.449  1.00  0.00     0.239 C 
ATOM      5  H   UNL A   1      34.055  26.390  24.306  1.00  0.00     0.163 HD
BRANCH   4   6
ATOM      6  C   UNL A   1      34.926  24.016  24.755  1.00  0.00     0.216 C 
BRANCH   6   7
ATOM      7  N   UNL A   1      35.860  22.908  24.586  1.00  0.00    -0.346 N 
ATOM      8  C   UNL A   1      35.866  21.684  25.193  1.00  0.00     0.239 C 
ATOM      9  H   UNL A   1      36.589  23.063  23.944  1.00  0.00     0.164 HD
ATOM     10  O   UNL A   1      36.759  20.891  24.896  1.00  0.00    -0.273 OA
BRANCH   8  11
ATOM     11  C   UNL A   1      34.832  21.359  26.271  1.00  0.00     0.219 C 
BRANCH  11  12
ATOM     12  N   UNL A   1      34.023  20.269  25.769  1.00  0.00    -0.312 N 
ATOM     13  C   UNL A   1      32.770  20.355  25.258  1.00  0.00     0.407 C 
ATOM     14  H   UNL A   1      34.425  19.371  25.801  1.00  0.00     0.167 HD
ATOM     15  O   UNL A   1      32.076  19.351  25.156  1.00  0.00    -0.225 OA
BRANCH  13  16
ATOM     16  O   UNL A   1      32.399  21.606  24.910  1.00  0.00    -0.445 OA
BRANCH  16  17
ATOM     17  C   UNL A   1      31.441  22.222  25.787  1.00  0.00     0.270 C 
BRANCH  17  18
ATOM     18  C   UNL A   1      30.902  23.527  25.242  1.00  0.00    -0.011 A 
ATOM     19  C   UNL A   1      30.509  24.563  26.104  1.00  0.00     0.007 A 
ATOM     20  C   UNL A   1      30.810  23.745  23.861  1.00  0.00     0.007 A 
ATOM     21  C   UNL A   1      30.018  25.771  25.608  1.00  0.00     0.000 A 
ATOM     22  C   UNL A   1      30.337  24.962  23.362  1.00  0.00     0.000 A 
ATOM     23  C   UNL A   1      29.935  25.972  24.235  1.00  0.00     0.000 A 
ENDBRANCH  17  18
ENDBRANCH  16  17
ENDBRANCH  13  16
ENDBRANCH  11  12
ENDBRANCH   8  11
ENDBRANCH   6   7
ENDBRANCH   4   6
ENDBRANCH   1   2
BRANCH   1  24
ATOM     24  C   UNL A   1      32.724  27.893  22.655  1.00  0.00     0.021 C 
BRANCH  24  25
ATOM     25  C   UNL A   1      33.494  28.744  23.672  1.00  0.00     0.002 C 
BRANCH  25  26
ATOM     26  C   UNL A   1      32.737  29.139  24.940  1.00  0.00     0.002 C 
BRANCH  26  27
ATOM     27  C   UNL A   1      32.786  28.126  26.083  1.00  0.00     0.021 C 
BRANCH  27  28
ATOM     28  C   UNL A   1      33.714  28.492  27.237  1.00  0.00     0.116 C 
BRANCH  28  29
ATOM     29  N   UNL A   1      33.671  29.909  27.570  1.00  0.00    -0.352 N 
ATOM     30  C   UNL A   1      34.621  30.694  28.179  1.00  0.00     0.251 C 
ATOM     31  H   UNL A   1      32.840  30.374  27.320  1.00  0.00     0.163 HD
ATOM     32  O   UNL A   1      34.356  31.846  28.508  1.00  0.00    -0.269 OA
BRANCH  30  33
ATOM     33  C   UNL A   1      35.963  30.141  28.467  1.00  0.00     0.039 A 
ATOM     34  C   UNL A   1      36.950  30.209  27.479  1.00  0.00     0.014 A 
ATOM     35  C   UNL A   1      36.248  29.555  29.703  1.00  0.00     0.014 A 
ATOM     36  C   UNL A   1      38.244  29.758  27.756  1.00  0.00     0.010 A 
ATOM     37  C   UNL A   1      37.552  29.164  29.999  1.00  0.00     0.010 A 
ATOM     38  C   UNL A   1      38.564  29.266  29.030  1.00  0.00    -0.014 A 
BRANCH  38  39
ATOM     39  C   UNL A   1      39.946  28.845  29.382  1.00  0.00     0.031 A 
ATOM     40  C   UNL A   1      40.833  29.771  30.166  1.00  0.00     0.074 A 
ATOM     41  C   UNL A   1      40.431  27.678  28.916  1.00  0.00     0.049 A 
ATOM     42  N   UNL A   1      42.106  29.658  30.447  1.00  0.00    -0.248 NA
ATOM     43  C   UNL A   1      40.211  31.001  30.682  1.00  0.00     0.031 C 
ATOM     44  C   UNL A   1      39.685  26.709  28.112  1.00  0.00     0.029 A 
ATOM     45  N   UNL A   1      41.681  27.120  29.031  1.00  0.00    -0.354 N 
ATOM     46  C   UNL A   1      42.444  30.814  31.139  1.00  0.00     0.074 A 
ATOM     47  C   UNL A   1      41.251  31.628  31.214  1.00  0.00     0.031 C 
ATOM     48  C   UNL A   1      40.488  25.675  27.811  1.00  0.00     0.029 A 
ATOM     49  C   UNL A   1      41.815  25.925  28.365  1.00  0.00     0.049 A 
ATOM     50  H   UNL A   1      42.412  27.536  29.543  1.00  0.00     0.167 HD
ATOM     51  C   UNL A   1      43.639  31.156  31.677  1.00  0.00     0.037 A 
ATOM     52  C   UNL A   1      42.892  25.132  28.204  1.00  0.00     0.037 A 
ATOM     53  C   UNL A   1      44.811  30.323  31.648  1.00  0.00     0.049 A 
ATOM     54  C   UNL A   1      44.203  25.533  28.826  1.00  0.00     0.074 A 
ATOM     55  C   UNL A   1      46.046  30.552  32.231  1.00  0.00     0.029 A 
ATOM     56  N   UNL A   1      44.892  29.098  31.004  1.00  0.00    -0.354 N 
ATOM     57  N   UNL A   1      44.492  26.597  29.533  1.00  0.00    -0.248 NA
ATOM     58  C   UNL A   1      45.338  24.618  28.633  1.00  0.00     0.031 C 
ATOM     59  C   UNL A   1      46.885  29.481  31.910  1.00  0.00     0.029 A 
ATOM     60  C   UNL A   1      46.161  28.566  31.163  1.00  0.00     0.049 A 
ATOM     61  H   UNL A   1      44.157  28.670  30.507  1.00  0.00     0.167 HD
ATOM     62  C   UNL A   1      45.825  26.463  29.898  1.00  0.00     0.074 A 
ATOM     63  C   UNL A   1      46.289  25.210  29.341  1.00  0.00     0.031 C 
ATOM     64  C   UNL A   1      46.596  27.303  30.629  1.00  0.00     0.037 A 
BRANCH  51  65
ATOM     65  C   UNL A   1      43.746  32.489  32.355  1.00  0.00     0.064 A 
ATOM     66  C   UNL A   1      44.111  33.645  31.650  1.00  0.00     0.173 A 
ATOM     67  C   UNL A   1      43.410  32.623  33.711  1.00  0.00     0.173 A 
ATOM     68  F   UNL A   1      44.449  33.567  30.354  1.00  0.00    -0.203 F 
ATOM     69  C   UNL A   1      44.149  34.885  32.281  1.00  0.00     0.198 A 
ATOM     70  C   UNL A   1      43.426  33.869  34.332  1.00  0.00     0.198 A 
ATOM     71  F   UNL A   1      43.050  31.548  34.428  1.00  0.00    -0.203 F 
ATOM     72  F   UNL A   1      44.530  35.972  31.596  1.00  0.00    -0.200 F 
ATOM     73  C   UNL A   1      43.799  34.998  33.619  1.00  0.00     0.200 A 
ATOM     74  F   UNL A   1      43.075  33.977  35.621  1.00  0.00    -0.200 F 
ATOM     75  F   UNL A   1      43.822  36.195  34.220  1.00  0.00    -0.200 F 
ENDBRANCH  51  65
BRANCH  52  76
ATOM     76  C   UNL A   1      42.784  23.869  27.427  1.00  0.00     0.064 A 
ATOM     77  C   UNL A   1      42.393  22.675  28.048  1.00  0.00     0.173 A 
ATOM     78  C   UNL A   1      43.101  23.821  26.062  1.00  0.00     0.173 A 
ATOM     79  F   UNL A   1      42.103  22.667  29.357  1.00  0.00    -0.203 F 
ATOM     80  C   UNL A   1      42.350  21.475  27.342  1.00  0.00     0.198 A 
ATOM     81  C   UNL A   1      43.030  22.626  25.349  1.00  0.00     0.198 A 
ATOM     82  F   UNL A   1      43.478  24.936  25.419  1.00  0.00    -0.203 F 
ATOM     83  F   UNL A   1      42.028  20.338  27.974  1.00  0.00    -0.200 F 
ATOM     84  C   UNL A   1      42.666  21.452  25.992  1.00  0.00     0.200 A 
ATOM     85  F   UNL A   1      43.327  22.609  24.042  1.00  0.00    -0.200 F 
ATOM     86  F   UNL A   1      42.632  20.297  25.314  1.00  0.00    -0.200 F 
ENDBRANCH  52  76
BRANCH  64  87
ATOM     87  C   UNL A   1      48.001  26.872  30.924  1.00  0.00     0.064 A 
ATOM     88  C   UNL A   1      48.298  26.004  31.983  1.00  0.00     0.173 A 
ATOM     89  C   UNL A   1      49.056  27.289  30.097  1.00  0.00     0.173 A 
ATOM     90  F   UNL A   1      47.326  25.590  32.810  1.00  0.00    -0.203 F 
ATOM     91  C   UNL A   1      49.605  25.581  32.215  1.00  0.00     0.198 A 
ATOM     92  C   UNL A   1      50.356  26.845  30.316  1.00  0.00     0.198 A 
ATOM     93  F   UNL A   1      48.820  28.115  29.066  1.00  0.00    -0.203 F 
ATOM     94  F   UNL A   1      49.873  24.780  33.255  1.00  0.00    -0.200 F 
ATOM     95  C   UNL A   1      50.630  25.995  31.377  1.00  0.00     0.200 A 
ATOM     96  F   UNL A   1      51.343  27.236  29.499  1.00  0.00    -0.200 F 
ATOM     97  F   UNL A   1      51.885  25.579  31.595  1.00  0.00    -0.200 F 
ENDBRANCH  64  87
ENDBRANCH  38  39
ENDBRANCH  30  33
ENDBRANCH  28  29
ENDBRANCH  27  28
ENDBRANCH  26  27
ENDBRANCH  25  26
ENDBRANCH  24  25
ENDBRANCH   1  24
TORSDOF 19
ENDMDL
