MODEL 1
REMARK VINA RESULT:     -12.4      0.000      0.000
REMARK SMILES Cc1cc(N2CCCC[C@H]2C(=O)NCCCCCCNC(=O)c2ccc(-c3c4nc(c(-c5c(F)c(F)c(F)c(F)c5F)c5ccc([nH]5)c(-c5c(F)c(F)c(F)c(F)c5F)c5nc(c(-c6c(F)c(F)c(F)c(F)c6F)c6ccc3[nH]6)C=C5)C=C4)cc2)ncc1[N+](=O)[O-]
REMARK SMILES IDX 16 1 15 2 14 3 13 4 11 5 12 6 10 8 5 9 6 10 7 11 9 12 8 13
REMARK SMILES IDX 4 14 1 15 2 16 3 17 88 18 87 19 86 20 89 21 90 22 91 23
REMARK SMILES IDX 17 24 18 25 19 26 20 27 21 28 22 30 23 31 24 32 85 33 25 34
REMARK SMILES IDX 84 35 26 36 27 37 28 38 78 39 29 40 83 41 77 42 79 43 30 44
REMARK SMILES IDX 82 45 76 46 75 47 31 49 63 50 43 51 62 52 44 53 47 54 61 55
REMARK SMILES IDX 80 56 45 57 46 58 60 60 81 61 48 62 32 63 33 64 41 65 34 66
REMARK SMILES IDX 35 67 39 68 42 69 36 70 37 71 40 72 38 73 64 74 65 75 73 76
REMARK SMILES IDX 66 77 67 78 71 79 74 80 68 81 69 82 72 83 70 84 49 85 50 86
REMARK SMILES IDX 58 87 51 88 52 89 56 90 59 91 53 92 54 93 57 94 55 95
REMARK H PARENT 13 7 20 29 79 48 47 59
REMARK Flexibility Score: inf
ROOT
ATOM      1  C   UNL A   1      31.844  29.527  26.885  1.00  0.00     0.002 C 
ENDROOT
BRANCH   1   2
ATOM      2  C   UNL A   1      33.184  28.822  26.638  1.00  0.00     0.021 C 
BRANCH   2   3
ATOM      3  C   UNL A   1      33.546  28.639  25.166  1.00  0.00     0.116 C 
BRANCH   3   4
ATOM      4  N   UNL A   1      34.024  27.300  24.905  1.00  0.00    -0.354 N 
ATOM      5  C   UNL A   1      33.342  26.122  24.853  1.00  0.00     0.242 C 
ATOM      6  O   UNL A   1      34.011  25.116  24.591  1.00  0.00    -0.273 OA
ATOM      7  H   UNL A   1      34.991  27.227  24.740  1.00  0.00     0.163 HD
BRANCH   5   8
ATOM      8  C   UNL A   1      31.816  26.069  25.107  1.00  0.00     0.173 C 
ATOM      9  N   UNL A   1      31.037  26.096  23.861  1.00  0.00    -0.345 N 
ATOM     10  C   UNL A   1      31.216  24.990  22.933  1.00  0.00     0.119 C 
ATOM     11  C   UNL A   1      30.784  23.702  23.625  1.00  0.00     0.022 C 
ATOM     12  C   UNL A   1      31.429  24.769  25.850  1.00  0.00     0.035 C 
ATOM     13  C   UNL A   1      31.479  23.510  24.972  1.00  0.00     0.004 C 
BRANCH   9  14
ATOM     14  C   UNL A   1      30.478  27.256  23.385  1.00  0.00     0.129 A 
ATOM     15  C   UNL A   1      26.987  28.717  23.253  1.00  0.00     0.052 C 
ATOM     16  C   UNL A   1      28.462  28.591  23.011  1.00  0.00     0.032 A 
ATOM     17  C   UNL A   1      29.101  27.448  23.521  1.00  0.00     0.057 A 
ATOM     18  C   UNL A   1      29.263  29.492  22.304  1.00  0.00     0.290 A 
ATOM     19  C   UNL A   1      30.630  29.253  22.225  1.00  0.00     0.199 A 
ATOM     20  N   UNL A   1      31.246  28.173  22.772  1.00  0.00    -0.232 NA
BRANCH  18  21
ATOM     21  N   UNL A   1      28.750  30.666  21.612  1.00  0.00     0.064 N 
ATOM     22  O   UNL A   1      28.120  30.475  20.561  1.00  0.00    -0.258 OA
ATOM     23  O   UNL A   1      28.936  31.775  22.126  1.00  0.00    -0.258 OA
ENDBRANCH  18  21
ENDBRANCH   9  14
ENDBRANCH   5   8
ENDBRANCH   3   4
ENDBRANCH   2   3
ENDBRANCH   1   2
BRANCH   1  24
ATOM     24  C   UNL A   1      31.482  30.624  25.879  1.00  0.00     0.002 C 
BRANCH  24  25
ATOM     25  C   UNL A   1      31.315  32.026  26.469  1.00  0.00     0.021 C 
BRANCH  25  26
ATOM     26  C   UNL A   1      32.546  32.575  27.185  1.00  0.00     0.116 C 
BRANCH  26  27
ATOM     27  N   UNL A   1      32.387  33.964  27.581  1.00  0.00    -0.352 N 
ATOM     28  C   UNL A   1      33.074  34.683  28.522  1.00  0.00     0.251 C 
ATOM     29  H   UNL A   1      31.683  34.460  27.102  1.00  0.00     0.163 HD
ATOM     30  O   UNL A   1      32.695  35.815  28.830  1.00  0.00    -0.269 OA
BRANCH  28  31
ATOM     31  C   UNL A   1      34.255  34.102  29.194  1.00  0.00     0.039 A 
ATOM     32  C   UNL A   1      34.056  33.287  30.311  1.00  0.00     0.014 A 
ATOM     33  C   UNL A   1      35.551  34.365  28.741  1.00  0.00     0.014 A 
ATOM     34  C   UNL A   1      35.150  32.691  30.939  1.00  0.00     0.010 A 
ATOM     35  C   UNL A   1      36.637  33.716  29.327  1.00  0.00     0.010 A 
ATOM     36  C   UNL A   1      36.448  32.874  30.433  1.00  0.00    -0.014 A 
BRANCH  36  37
ATOM     37  C   UNL A   1      37.609  32.181  31.048  1.00  0.00     0.031 A 
ATOM     38  C   UNL A   1      38.081  32.557  32.425  1.00  0.00     0.074 A 
ATOM     39  C   UNL A   1      38.268  31.242  30.341  1.00  0.00     0.049 A 
ATOM     40  N   UNL A   1      39.086  32.077  33.114  1.00  0.00    -0.248 NA
ATOM     41  C   UNL A   1      37.343  33.628  33.111  1.00  0.00     0.031 C 
ATOM     42  C   UNL A   1      37.940  30.827  28.976  1.00  0.00     0.029 A 
ATOM     43  N   UNL A   1      39.353  30.469  30.670  1.00  0.00    -0.354 N 
ATOM     44  C   UNL A   1      39.111  32.796  34.301  1.00  0.00     0.074 A 
ATOM     45  C   UNL A   1      38.049  33.775  34.225  1.00  0.00     0.031 C 
ATOM     46  C   UNL A   1      38.786  29.857  28.594  1.00  0.00     0.029 A 
ATOM     47  C   UNL A   1      39.736  29.605  29.673  1.00  0.00     0.049 A 
ATOM     48  H   UNL A   1      39.814  30.528  31.538  1.00  0.00     0.167 HD
ATOM     49  C   UNL A   1      39.933  32.640  35.366  1.00  0.00     0.037 A 
ATOM     50  C   UNL A   1      40.742  28.711  29.634  1.00  0.00     0.037 A 
ATOM     51  C   UNL A   1      40.964  31.639  35.455  1.00  0.00     0.049 A 
ATOM     52  C   UNL A   1      41.635  28.557  30.837  1.00  0.00     0.074 A 
ATOM     53  C   UNL A   1      41.787  31.342  36.528  1.00  0.00     0.029 A 
ATOM     54  N   UNL A   1      41.315  30.773  34.431  1.00  0.00    -0.354 N 
ATOM     55  N   UNL A   1      41.586  29.178  31.990  1.00  0.00    -0.248 NA
ATOM     56  C   UNL A   1      42.719  27.570  30.733  1.00  0.00     0.031 C 
ATOM     57  C   UNL A   1      42.671  30.333  36.136  1.00  0.00     0.029 A 
ATOM     58  C   UNL A   1      42.365  29.964  34.837  1.00  0.00     0.049 A 
ATOM     59  H   UNL A   1      40.884  30.739  33.547  1.00  0.00     0.167 HD
ATOM     60  C   UNL A   1      42.608  28.636  32.757  1.00  0.00     0.074 A 
ATOM     61  C   UNL A   1      43.248  27.623  31.946  1.00  0.00     0.031 C 
ATOM     62  C   UNL A   1      42.985  28.951  34.021  1.00  0.00     0.037 A 
BRANCH  49  63
ATOM     63  C   UNL A   1      39.757  33.569  36.532  1.00  0.00     0.064 A 
ATOM     64  C   UNL A   1      40.377  34.826  36.573  1.00  0.00     0.173 A 
ATOM     65  C   UNL A   1      38.902  33.225  37.590  1.00  0.00     0.173 A 
ATOM     66  F   UNL A   1      41.212  35.200  35.592  1.00  0.00    -0.203 F 
ATOM     67  C   UNL A   1      40.162  35.697  37.638  1.00  0.00     0.198 A 
ATOM     68  C   UNL A   1      38.667  34.109  38.640  1.00  0.00     0.198 A 
ATOM     69  F   UNL A   1      38.279  32.036  37.597  1.00  0.00    -0.203 F 
ATOM     70  F   UNL A   1      40.793  36.878  37.675  1.00  0.00    -0.200 F 
ATOM     71  C   UNL A   1      39.301  35.342  38.665  1.00  0.00     0.200 A 
ATOM     72  F   UNL A   1      37.823  33.769  39.624  1.00  0.00    -0.200 F 
ATOM     73  F   UNL A   1      39.082  36.187  39.682  1.00  0.00    -0.200 F 
ENDBRANCH  49  63
BRANCH  50  74
ATOM     74  C   UNL A   1      40.953  27.868  28.427  1.00  0.00     0.064 A 
ATOM     75  C   UNL A   1      41.756  28.316  27.369  1.00  0.00     0.173 A 
ATOM     76  C   UNL A   1      40.331  26.619  28.290  1.00  0.00     0.173 A 
ATOM     77  F   UNL A   1      42.354  29.514  27.444  1.00  0.00    -0.203 F 
ATOM     78  C   UNL A   1      41.905  27.561  26.208  1.00  0.00     0.198 A 
ATOM     79  C   UNL A   1      40.505  25.851  27.140  1.00  0.00     0.198 A 
ATOM     80  F   UNL A   1      39.553  26.143  29.274  1.00  0.00    -0.203 F 
ATOM     81  F   UNL A   1      42.630  28.041  25.189  1.00  0.00    -0.200 F 
ATOM     82  C   UNL A   1      41.282  26.328  26.095  1.00  0.00     0.200 A 
ATOM     83  F   UNL A   1      39.910  24.655  27.040  1.00  0.00    -0.200 F 
ATOM     84  F   UNL A   1      41.420  25.604  24.976  1.00  0.00    -0.200 F 
ENDBRANCH  50  74
BRANCH  62  85
ATOM     85  C   UNL A   1      44.118  28.166  34.616  1.00  0.00     0.064 A 
ATOM     86  C   UNL A   1      43.902  26.950  35.280  1.00  0.00     0.173 A 
ATOM     87  C   UNL A   1      45.439  28.625  34.497  1.00  0.00     0.173 A 
ATOM     88  F   UNL A   1      42.656  26.477  35.435  1.00  0.00    -0.203 F 
ATOM     89  C   UNL A   1      44.964  26.239  35.833  1.00  0.00     0.198 A 
ATOM     90  C   UNL A   1      46.501  27.895  35.021  1.00  0.00     0.198 A 
ATOM     91  F   UNL A   1      45.700  29.778  33.863  1.00  0.00    -0.203 F 
ATOM     92  F   UNL A   1      44.729  25.108  36.512  1.00  0.00    -0.200 F 
ATOM     93  C   UNL A   1      46.262  26.708  35.697  1.00  0.00     0.200 A 
ATOM     94  F   UNL A   1      47.756  28.342  34.876  1.00  0.00    -0.200 F 
ATOM     95  F   UNL A   1      47.283  26.019  36.225  1.00  0.00    -0.200 F 
ENDBRANCH  62  85
ENDBRANCH  36  37
ENDBRANCH  28  31
ENDBRANCH  26  27
ENDBRANCH  25  26
ENDBRANCH  24  25
ENDBRANCH   1  24
TORSDOF 15
ENDMDL
MODEL 2
REMARK VINA RESULT:     -12.3      0.838      7.362
REMARK SMILES Cc1cc(N2CCCC[C@H]2C(=O)NCCCCCCNC(=O)c2ccc(-c3c4nc(c(-c5c(F)c(F)c(F)c(F)c5F)c5ccc([nH]5)c(-c5c(F)c(F)c(F)c(F)c5F)c5nc(c(-c6c(F)c(F)c(F)c(F)c6F)c6ccc3[nH]6)C=C5)C=C4)cc2)ncc1[N+](=O)[O-]
REMARK SMILES IDX 16 1 15 2 14 3 13 4 11 5 12 6 10 8 5 9 6 10 7 11 9 12 8 13
REMARK SMILES IDX 4 14 1 15 2 16 3 17 88 18 87 19 86 20 89 21 90 22 91 23
REMARK SMILES IDX 17 24 18 25 19 26 20 27 21 28 22 30 23 31 24 32 85 33 25 34
REMARK SMILES IDX 84 35 26 36 27 37 28 38 78 39 29 40 83 41 77 42 79 43 30 44
REMARK SMILES IDX 82 45 76 46 75 47 31 49 63 50 43 51 62 52 44 53 47 54 61 55
REMARK SMILES IDX 80 56 45 57 46 58 60 60 81 61 48 62 32 63 33 64 41 65 34 66
REMARK SMILES IDX 35 67 39 68 42 69 36 70 37 71 40 72 38 73 64 74 65 75 73 76
REMARK SMILES IDX 66 77 67 78 71 79 74 80 68 81 69 82 72 83 70 84 49 85 50 86
REMARK SMILES IDX 58 87 51 88 52 89 56 90 59 91 53 92 54 93 57 94 55 95
REMARK H PARENT 13 7 20 29 79 48 47 59
REMARK Flexibility Score: inf
ROOT
ATOM      1  C   UNL A   1      32.350  29.900  27.138  1.00  0.00     0.002 C 
ENDROOT
BRANCH   1   2
ATOM      2  C   UNL A   1      31.695  28.598  27.615  1.00  0.00     0.021 C 
BRANCH   2   3
ATOM      3  C   UNL A   1      31.386  27.595  26.506  1.00  0.00     0.116 C 
BRANCH   3   4
ATOM      4  N   UNL A   1      32.332  26.501  26.509  1.00  0.00    -0.354 N 
ATOM      5  C   UNL A   1      32.362  25.369  25.753  1.00  0.00     0.242 C 
ATOM      6  O   UNL A   1      33.309  24.602  25.957  1.00  0.00    -0.273 OA
ATOM      7  H   UNL A   1      33.067  26.588  27.157  1.00  0.00     0.163 HD
BRANCH   5   8
ATOM      8  C   UNL A   1      31.264  25.081  24.699  1.00  0.00     0.173 C 
ATOM      9  N   UNL A   1      31.494  25.797  23.437  1.00  0.00    -0.345 N 
ATOM     10  C   UNL A   1      32.703  25.475  22.693  1.00  0.00     0.119 C 
ATOM     11  C   UNL A   1      32.650  24.004  22.294  1.00  0.00     0.022 C 
ATOM     12  C   UNL A   1      31.215  23.574  24.358  1.00  0.00     0.035 C 
ATOM     13  C   UNL A   1      32.386  23.091  23.490  1.00  0.00     0.004 C 
BRANCH   9  14
ATOM     14  C   UNL A   1      30.852  26.975  23.148  1.00  0.00     0.129 A 
ATOM     15  C   UNL A   1      27.296  28.249  23.422  1.00  0.00     0.052 C 
ATOM     16  C   UNL A   1      28.755  28.234  23.074  1.00  0.00     0.032 A 
ATOM     17  C   UNL A   1      29.479  27.073  23.393  1.00  0.00     0.057 A 
ATOM     18  C   UNL A   1      29.463  29.258  22.439  1.00  0.00     0.290 A 
ATOM     19  C   UNL A   1      30.831  29.105  22.245  1.00  0.00     0.199 A 
ATOM     20  N   UNL A   1      31.532  28.000  22.610  1.00  0.00    -0.232 NA
BRANCH  18  21
ATOM     21  N   UNL A   1      28.850  30.480  21.935  1.00  0.00     0.064 N 
ATOM     22  O   UNL A   1      28.215  30.399  20.874  1.00  0.00    -0.258 OA
ATOM     23  O   UNL A   1      28.964  31.510  22.609  1.00  0.00    -0.258 OA
ENDBRANCH  18  21
ENDBRANCH   9  14
ENDBRANCH   5   8
ENDBRANCH   3   4
ENDBRANCH   2   3
ENDBRANCH   1   2
BRANCH   1  24
ATOM     24  C   UNL A   1      31.512  30.742  26.170  1.00  0.00     0.002 C 
BRANCH  24  25
ATOM     25  C   UNL A   1      31.374  32.220  26.539  1.00  0.00     0.021 C 
BRANCH  25  26
ATOM     26  C   UNL A   1      32.585  32.826  27.241  1.00  0.00     0.116 C 
BRANCH  26  27
ATOM     27  N   UNL A   1      32.369  34.208  27.634  1.00  0.00    -0.352 N 
ATOM     28  C   UNL A   1      32.989  34.942  28.609  1.00  0.00     0.251 C 
ATOM     29  H   UNL A   1      31.674  34.687  27.126  1.00  0.00     0.163 HD
ATOM     30  O   UNL A   1      32.564  36.060  28.904  1.00  0.00    -0.269 OA
BRANCH  28  31
ATOM     31  C   UNL A   1      34.154  34.391  29.334  1.00  0.00     0.039 A 
ATOM     32  C   UNL A   1      33.935  33.709  30.533  1.00  0.00     0.014 A 
ATOM     33  C   UNL A   1      35.455  34.553  28.848  1.00  0.00     0.014 A 
ATOM     34  C   UNL A   1      35.012  33.143  31.216  1.00  0.00     0.010 A 
ATOM     35  C   UNL A   1      36.521  33.930  29.494  1.00  0.00     0.010 A 
ATOM     36  C   UNL A   1      36.311  33.220  30.686  1.00  0.00    -0.014 A 
BRANCH  36  37
ATOM     37  C   UNL A   1      37.451  32.553  31.365  1.00  0.00     0.031 A 
ATOM     38  C   UNL A   1      38.169  31.409  30.706  1.00  0.00     0.074 A 
ATOM     39  C   UNL A   1      37.809  32.952  32.602  1.00  0.00     0.049 A 
ATOM     40  N   UNL A   1      39.171  30.693  31.153  1.00  0.00    -0.248 NA
ATOM     41  C   UNL A   1      37.686  30.997  29.379  1.00  0.00     0.031 C 
ATOM     42  C   UNL A   1      37.156  34.015  33.369  1.00  0.00     0.029 A 
ATOM     43  N   UNL A   1      38.806  32.508  33.434  1.00  0.00    -0.354 N 
ATOM     44  C   UNL A   1      39.424  29.741  30.176  1.00  0.00     0.074 A 
ATOM     45  C   UNL A   1      38.446  29.939  29.128  1.00  0.00     0.031 C 
ATOM     46  C   UNL A   1      37.785  34.160  34.546  1.00  0.00     0.029 A 
ATOM     47  C   UNL A   1      38.864  33.180  34.631  1.00  0.00     0.049 A 
ATOM     48  H   UNL A   1      39.421  31.777  33.196  1.00  0.00     0.167 HD
ATOM     49  C   UNL A   1      40.398  28.800  30.146  1.00  0.00     0.037 A 
ATOM     50  C   UNL A   1      39.693  33.022  35.680  1.00  0.00     0.037 A 
ATOM     51  C   UNL A   1      41.394  28.631  31.171  1.00  0.00     0.049 A 
ATOM     52  C   UNL A   1      40.769  31.970  35.613  1.00  0.00     0.074 A 
ATOM     53  C   UNL A   1      42.476  27.767  31.188  1.00  0.00     0.029 A 
ATOM     54  N   UNL A   1      41.429  29.337  32.363  1.00  0.00    -0.354 N 
ATOM     55  N   UNL A   1      41.057  31.141  34.640  1.00  0.00    -0.248 NA
ATOM     56  C   UNL A   1      41.640  31.841  36.789  1.00  0.00     0.031 C 
ATOM     57  C   UNL A   1      43.135  27.913  32.411  1.00  0.00     0.029 A 
ATOM     58  C   UNL A   1      42.496  28.906  33.136  1.00  0.00     0.049 A 
ATOM     59  H   UNL A   1      40.791  30.041  32.622  1.00  0.00     0.167 HD
ATOM     60  C   UNL A   1      42.159  30.415  35.073  1.00  0.00     0.074 A 
ATOM     61  C   UNL A   1      42.498  30.915  36.388  1.00  0.00     0.031 C 
ATOM     62  C   UNL A   1      42.828  29.421  34.439  1.00  0.00     0.037 A 
BRANCH  49  63
ATOM     63  C   UNL A   1      40.444  27.873  28.965  1.00  0.00     0.064 A 
ATOM     64  C   UNL A   1      39.696  26.688  28.928  1.00  0.00     0.173 A 
ATOM     65  C   UNL A   1      41.194  28.212  27.828  1.00  0.00     0.173 A 
ATOM     66  F   UNL A   1      38.970  26.315  29.992  1.00  0.00    -0.203 F 
ATOM     67  C   UNL A   1      39.710  25.866  27.804  1.00  0.00     0.198 A 
ATOM     68  C   UNL A   1      41.184  27.402  26.695  1.00  0.00     0.198 A 
ATOM     69  F   UNL A   1      41.923  29.338  27.809  1.00  0.00    -0.203 F 
ATOM     70  F   UNL A   1      39.016  24.720  27.805  1.00  0.00    -0.200 F 
ATOM     71  C   UNL A   1      40.446  26.228  26.686  1.00  0.00     0.200 A 
ATOM     72  F   UNL A   1      41.885  27.761  25.611  1.00  0.00    -0.200 F 
ATOM     73  F   UNL A   1      40.447  25.444  25.598  1.00  0.00    -0.200 F 
ENDBRANCH  49  63
BRANCH  50  74
ATOM     74  C   UNL A   1      39.564  33.892  36.878  1.00  0.00     0.064 A 
ATOM     75  C   UNL A   1      38.802  33.486  37.982  1.00  0.00     0.173 A 
ATOM     76  C   UNL A   1      40.168  35.157  36.932  1.00  0.00     0.173 A 
ATOM     77  F   UNL A   1      38.186  32.295  37.969  1.00  0.00    -0.203 F 
ATOM     78  C   UNL A   1      38.622  34.323  39.081  1.00  0.00     0.198 A 
ATOM     79  C   UNL A   1      40.012  35.981  38.045  1.00  0.00     0.198 A 
ATOM     80  F   UNL A   1      40.909  35.593  35.903  1.00  0.00    -0.203 F 
ATOM     81  F   UNL A   1      37.839  33.933  40.096  1.00  0.00    -0.200 F 
ATOM     82  C   UNL A   1      39.230  35.568  39.113  1.00  0.00     0.200 A 
ATOM     83  F   UNL A   1      40.611  37.179  38.077  1.00  0.00    -0.200 F 
ATOM     84  F   UNL A   1      39.053  36.376  40.168  1.00  0.00    -0.200 F 
ENDBRANCH  50  74
BRANCH  62  85
ATOM     85  C   UNL A   1      44.017  28.836  35.145  1.00  0.00     0.064 A 
ATOM     86  C   UNL A   1      43.898  27.724  35.990  1.00  0.00     0.173 A 
ATOM     87  C   UNL A   1      45.296  29.382  34.953  1.00  0.00     0.173 A 
ATOM     88  F   UNL A   1      42.695  27.175  36.219  1.00  0.00    -0.203 F 
ATOM     89  C   UNL A   1      45.011  27.199  36.643  1.00  0.00     0.198 A 
ATOM     90  C   UNL A   1      46.411  28.834  35.581  1.00  0.00     0.198 A 
ATOM     91  F   UNL A   1      45.465  30.441  34.148  1.00  0.00    -0.203 F 
ATOM     92  F   UNL A   1      44.864  26.170  37.489  1.00  0.00    -0.200 F 
ATOM     93  C   UNL A   1      46.266  27.750  36.433  1.00  0.00     0.200 A 
ATOM     94  F   UNL A   1      47.624  29.359  35.366  1.00  0.00    -0.200 F 
ATOM     95  F   UNL A   1      47.335  27.240  37.059  1.00  0.00    -0.200 F 
ENDBRANCH  62  85
ENDBRANCH  36  37
ENDBRANCH  28  31
ENDBRANCH  26  27
ENDBRANCH  25  26
ENDBRANCH  24  25
ENDBRANCH   1  24
TORSDOF 15
ENDMDL
MODEL 3
REMARK VINA RESULT:     -12.3      0.342      1.649
REMARK SMILES Cc1cc(N2CCCC[C@H]2C(=O)NCCCCCCNC(=O)c2ccc(-c3c4nc(c(-c5c(F)c(F)c(F)c(F)c5F)c5ccc([nH]5)c(-c5c(F)c(F)c(F)c(F)c5F)c5nc(c(-c6c(F)c(F)c(F)c(F)c6F)c6ccc3[nH]6)C=C5)C=C4)cc2)ncc1[N+](=O)[O-]
REMARK SMILES IDX 16 1 15 2 14 3 13 4 11 5 12 6 10 8 5 9 6 10 7 11 9 12 8 13
REMARK SMILES IDX 4 14 1 15 2 16 3 17 88 18 87 19 86 20 89 21 90 22 91 23
REMARK SMILES IDX 17 24 18 25 19 26 20 27 21 28 22 30 23 31 24 32 85 33 25 34
REMARK SMILES IDX 84 35 26 36 27 37 28 38 78 39 29 40 83 41 77 42 79 43 30 44
REMARK SMILES IDX 82 45 76 46 75 47 31 49 63 50 43 51 62 52 44 53 47 54 61 55
REMARK SMILES IDX 80 56 45 57 46 58 60 60 81 61 48 62 32 63 33 64 41 65 34 66
REMARK SMILES IDX 35 67 39 68 42 69 36 70 37 71 40 72 38 73 64 74 65 75 73 76
REMARK SMILES IDX 66 77 67 78 71 79 74 80 68 81 69 82 72 83 70 84 49 85 50 86
REMARK SMILES IDX 58 87 51 88 52 89 56 90 59 91 53 92 54 93 57 94 55 95
REMARK H PARENT 13 7 20 29 79 48 47 59
REMARK Flexibility Score: inf
ROOT
ATOM      1  C   UNL A   1      32.698  30.244  27.176  1.00  0.00     0.002 C 
ENDROOT
BRANCH   1   2
ATOM      2  C   UNL A   1      33.405  29.254  26.241  1.00  0.00     0.021 C 
BRANCH   2   3
ATOM      3  C   UNL A   1      33.497  27.826  26.775  1.00  0.00     0.116 C 
BRANCH   3   4
ATOM      4  N   UNL A   1      33.945  26.910  25.750  1.00  0.00    -0.354 N 
ATOM      5  C   UNL A   1      33.232  26.043  24.979  1.00  0.00     0.242 C 
ATOM      6  O   UNL A   1      33.879  25.383  24.160  1.00  0.00    -0.273 OA
ATOM      7  H   UNL A   1      34.915  26.911  25.585  1.00  0.00     0.163 HD
BRANCH   5   8
ATOM      8  C   UNL A   1      31.696  25.912  25.133  1.00  0.00     0.173 C 
ATOM      9  N   UNL A   1      30.993  25.995  23.846  1.00  0.00    -0.345 N 
ATOM     10  C   UNL A   1      31.275  24.963  22.858  1.00  0.00     0.119 C 
ATOM     11  C   UNL A   1      30.859  23.614  23.435  1.00  0.00     0.022 C 
ATOM     12  C   UNL A   1      31.324  24.550  25.762  1.00  0.00     0.035 C 
ATOM     13  C   UNL A   1      31.480  23.357  24.808  1.00  0.00     0.004 C 
BRANCH   9  14
ATOM     14  C   UNL A   1      30.413  27.161  23.413  1.00  0.00     0.129 A 
ATOM     15  C   UNL A   1      26.900  28.573  23.359  1.00  0.00     0.052 C 
ATOM     16  C   UNL A   1      28.375  28.477  23.101  1.00  0.00     0.032 A 
ATOM     17  C   UNL A   1      29.034  27.327  23.567  1.00  0.00     0.057 A 
ATOM     18  C   UNL A   1      29.156  29.414  22.419  1.00  0.00     0.290 A 
ATOM     19  C   UNL A   1      30.526  29.198  22.321  1.00  0.00     0.199 A 
ATOM     20  N   UNL A   1      31.162  28.110  22.826  1.00  0.00    -0.232 NA
BRANCH  18  21
ATOM     21  N   UNL A   1      28.620  30.603  21.771  1.00  0.00     0.064 N 
ATOM     22  O   UNL A   1      28.810  31.690  22.336  1.00  0.00    -0.258 OA
ATOM     23  O   UNL A   1      28.046  30.468  20.684  1.00  0.00    -0.258 OA
ENDBRANCH  18  21
ENDBRANCH   9  14
ENDBRANCH   5   8
ENDBRANCH   3   4
ENDBRANCH   2   3
ENDBRANCH   1   2
BRANCH   1  24
ATOM     24  C   UNL A   1      31.410  30.863  26.624  1.00  0.00     0.002 C 
BRANCH  24  25
ATOM     25  C   UNL A   1      31.406  32.391  26.529  1.00  0.00     0.021 C 
BRANCH  25  26
ATOM     26  C   UNL A   1      32.678  33.071  27.027  1.00  0.00     0.116 C 
BRANCH  26  27
ATOM     27  N   UNL A   1      32.418  34.364  27.636  1.00  0.00    -0.352 N 
ATOM     28  C   UNL A   1      33.005  34.945  28.727  1.00  0.00     0.251 C 
ATOM     29  H   UNL A   1      31.716  34.900  27.200  1.00  0.00     0.163 HD
ATOM     30  O   UNL A   1      32.545  35.989  29.193  1.00  0.00    -0.269 OA
BRANCH  28  31
ATOM     31  C   UNL A   1      34.176  34.314  29.372  1.00  0.00     0.039 A 
ATOM     32  C   UNL A   1      33.966  33.475  30.468  1.00  0.00     0.014 A 
ATOM     33  C   UNL A   1      35.476  34.553  28.913  1.00  0.00     0.014 A 
ATOM     34  C   UNL A   1      35.049  32.833  31.070  1.00  0.00     0.010 A 
ATOM     35  C   UNL A   1      36.548  33.861  29.471  1.00  0.00     0.010 A 
ATOM     36  C   UNL A   1      36.346  32.995  30.556  1.00  0.00    -0.014 A 
BRANCH  36  37
ATOM     37  C   UNL A   1      37.494  32.254  31.140  1.00  0.00     0.031 A 
ATOM     38  C   UNL A   1      37.985  32.576  32.524  1.00  0.00     0.074 A 
ATOM     39  C   UNL A   1      38.123  31.320  30.401  1.00  0.00     0.049 A 
ATOM     40  N   UNL A   1      38.982  32.050  33.191  1.00  0.00    -0.248 NA
ATOM     41  C   UNL A   1      37.280  33.645  33.248  1.00  0.00     0.031 C 
ATOM     42  C   UNL A   1      37.775  30.954  29.026  1.00  0.00     0.029 A 
ATOM     43  N   UNL A   1      39.190  30.510  30.698  1.00  0.00    -0.354 N 
ATOM     44  C   UNL A   1      39.035  32.733  34.398  1.00  0.00     0.074 A 
ATOM     45  C   UNL A   1      37.997  33.740  34.360  1.00  0.00     0.031 C 
ATOM     46  C   UNL A   1      38.593  29.975  28.609  1.00  0.00     0.029 A 
ATOM     47  C   UNL A   1      39.544  29.666  29.673  1.00  0.00     0.049 A 
ATOM     48  H   UNL A   1      39.659  30.531  31.563  1.00  0.00     0.167 HD
ATOM     49  C   UNL A   1      39.860  32.524  35.452  1.00  0.00     0.037 A 
ATOM     50  C   UNL A   1      40.526  28.749  29.598  1.00  0.00     0.037 A 
ATOM     51  C   UNL A   1      40.865  31.495  35.502  1.00  0.00     0.049 A 
ATOM     52  C   UNL A   1      41.424  28.537  30.789  1.00  0.00     0.074 A 
ATOM     53  C   UNL A   1      41.688  31.145  36.560  1.00  0.00     0.029 A 
ATOM     54  N   UNL A   1      41.187  30.651  34.450  1.00  0.00    -0.354 N 
ATOM     55  N   UNL A   1      41.399  29.123  31.961  1.00  0.00    -0.248 NA
ATOM     56  C   UNL A   1      42.481  27.526  30.648  1.00  0.00     0.031 C 
ATOM     57  C   UNL A   1      42.543  30.125  36.131  1.00  0.00     0.029 A 
ATOM     58  C   UNL A   1      42.218  29.804  34.823  1.00  0.00     0.049 A 
ATOM     59  H   UNL A   1      40.748  30.655  33.569  1.00  0.00     0.167 HD
ATOM     60  C   UNL A   1      42.412  28.532  32.704  1.00  0.00     0.074 A 
ATOM     61  C   UNL A   1      43.020  27.528  31.857  1.00  0.00     0.031 C 
ATOM     62  C   UNL A   1      42.806  28.800  33.973  1.00  0.00     0.037 A 
BRANCH  49  63
ATOM     63  C   UNL A   1      39.717  33.422  36.646  1.00  0.00     0.064 A 
ATOM     64  C   UNL A   1      40.418  34.632  36.747  1.00  0.00     0.173 A 
ATOM     65  C   UNL A   1      38.814  33.099  37.670  1.00  0.00     0.173 A 
ATOM     66  F   UNL A   1      41.300  34.983  35.799  1.00  0.00    -0.203 F 
ATOM     67  C   UNL A   1      40.234  35.478  37.838  1.00  0.00     0.198 A 
ATOM     68  C   UNL A   1      38.611  33.960  38.746  1.00  0.00     0.198 A 
ATOM     69  F   UNL A   1      38.113  31.956  37.620  1.00  0.00    -0.203 F 
ATOM     70  F   UNL A   1      40.941  36.612  37.931  1.00  0.00    -0.200 F 
ATOM     71  C   UNL A   1      39.325  35.146  38.831  1.00  0.00     0.200 A 
ATOM     72  F   UNL A   1      37.722  33.644  39.697  1.00  0.00    -0.200 F 
ATOM     73  F   UNL A   1      39.137  35.969  39.873  1.00  0.00    -0.200 F 
ENDBRANCH  49  63
BRANCH  50  74
ATOM     74  C   UNL A   1      40.706  27.937  28.366  1.00  0.00     0.064 A 
ATOM     75  C   UNL A   1      40.098  26.681  28.238  1.00  0.00     0.173 A 
ATOM     76  C   UNL A   1      41.513  28.383  27.309  1.00  0.00     0.173 A 
ATOM     77  F   UNL A   1      39.335  26.202  29.231  1.00  0.00    -0.203 F 
ATOM     78  C   UNL A   1      40.315  25.887  27.114  1.00  0.00     0.198 A 
ATOM     79  C   UNL A   1      41.705  27.600  26.172  1.00  0.00     0.198 A 
ATOM     80  F   UNL A   1      42.117  29.578  27.381  1.00  0.00    -0.203 F 
ATOM     81  F   UNL A   1      39.769  24.665  27.045  1.00  0.00    -0.200 F 
ATOM     82  C   UNL A   1      41.116  26.348  26.081  1.00  0.00     0.200 A 
ATOM     83  F   UNL A   1      42.471  28.054  25.170  1.00  0.00    -0.200 F 
ATOM     84  F   UNL A   1      41.329  25.582  25.002  1.00  0.00    -0.200 F 
ENDBRANCH  50  74
BRANCH  62  85
ATOM     85  C   UNL A   1      43.923  27.969  34.535  1.00  0.00     0.064 A 
ATOM     86  C   UNL A   1      45.259  28.387  34.465  1.00  0.00     0.173 A 
ATOM     87  C   UNL A   1      43.647  26.748  35.171  1.00  0.00     0.173 A 
ATOM     88  F   UNL A   1      45.576  29.538  33.852  1.00  0.00    -0.203 F 
ATOM     89  C   UNL A   1      46.283  27.598  34.985  1.00  0.00     0.198 A 
ATOM     90  C   UNL A   1      44.670  25.979  35.719  1.00  0.00     0.198 A 
ATOM     91  F   UNL A   1      42.385  26.307  35.271  1.00  0.00    -0.203 F 
ATOM     92  F   UNL A   1      47.558  27.992  34.858  1.00  0.00    -0.200 F 
ATOM     93  C   UNL A   1      45.987  26.400  35.616  1.00  0.00     0.200 A 
ATOM     94  F   UNL A   1      44.381  24.828  36.341  1.00  0.00    -0.200 F 
ATOM     95  F   UNL A   1      46.974  25.645  36.119  1.00  0.00    -0.200 F 
ENDBRANCH  62  85
ENDBRANCH  36  37
ENDBRANCH  28  31
ENDBRANCH  26  27
ENDBRANCH  25  26
ENDBRANCH  24  25
ENDBRANCH   1  24
TORSDOF 15
ENDMDL
