MODEL 1
REMARK VINA RESULT:     -12.5      0.000      0.000
REMARK SMILES [NH3+]C[C@H]1CC[C@@H](C(=O)Nc2ccc(C(=O)NCCCCCCNC(=O)c3ccc(-c4c5nc(c(-c6c(F)c(F)c(F)c(F)c6F)c6ccc([nH]6)c(-c6c(F)c(F)c(F)c(F)c6F)c6nc(c(-c7c(F)c(F)c(F)c(F)c7F)c7ccc4[nH]7)C=C6)C=C5)cc3)cc2Br)CC1
REMARK SMILES IDX 18 1 17 2 16 3 14 4 15 5 13 7 10 8 11 9 90 10 12 11 89 12
REMARK SMILES IDX 91 13 9 14 7 15 8 16 6 18 3 19 4 20 93 21 5 22 92 23 2 24
REMARK SMILES IDX 1 25 19 29 20 30 21 31 22 32 23 33 24 34 25 36 26 37 27 38
REMARK SMILES IDX 88 39 28 40 87 41 29 42 30 43 31 44 81 45 32 46 86 47 80 48
REMARK SMILES IDX 82 49 33 50 85 51 79 52 78 53 34 55 66 56 46 57 65 58 47 59
REMARK SMILES IDX 50 60 64 61 83 62 48 63 49 64 63 66 84 67 51 68 35 69 36 70
REMARK SMILES IDX 44 71 37 72 38 73 42 74 45 75 39 76 40 77 43 78 41 79 67 80
REMARK SMILES IDX 68 81 76 82 69 83 70 84 74 85 77 86 71 87 72 88 75 89 73 90
REMARK SMILES IDX 52 91 53 92 61 93 54 94 55 95 59 96 62 97 56 98 57 99 60 100
REMARK SMILES IDX 58 101
REMARK H PARENT 16 6 9 17 1 26 1 27 1 28 23 35 82 54 50 65
REMARK Flexibility Score: inf
ROOT
ATOM      1  C   UNL A   1      33.117  28.729  25.734  1.00  0.00     0.021 C 
ENDROOT
BRANCH   1   2
ATOM      2  C   UNL A   1      33.617  28.764  24.293  1.00  0.00     0.116 C 
BRANCH   2   3
ATOM      3  N   UNL A   1      32.602  29.326  23.415  1.00  0.00    -0.352 N 
ATOM      4  C   UNL A   1      31.540  28.759  22.753  1.00  0.00     0.251 C 
ATOM      5  O   UNL A   1      30.810  29.469  22.068  1.00  0.00    -0.269 OA
ATOM      6  H   UNL A   1      32.693  30.296  23.268  1.00  0.00     0.163 HD
BRANCH   4   7
ATOM      7  C   UNL A   1      31.185  27.333  22.957  1.00  0.00     0.041 A 
ATOM      8  C   UNL A   1      30.826  24.755  23.978  1.00  0.00     0.055 A 
ATOM      9  C   UNL A   1      29.919  25.770  24.302  1.00  0.00     0.028 A 
ATOM     10  C   UNL A   1      31.744  24.981  22.942  1.00  0.00     0.042 A 
ATOM     11  C   UNL A   1      30.112  27.063  23.814  1.00  0.00     0.016 A 
ATOM     12  C   UNL A   1      31.921  26.274  22.428  1.00  0.00     0.031 A 
ATOM     13  Br  UNL A   1      32.738  23.577  22.143  1.00  0.00    -0.049 Br
BRANCH   8  14
ATOM     14  N   UNL A   1      30.653  23.528  24.621  1.00  0.00    -0.325 N 
ATOM     15  C   UNL A   1      31.345  22.868  25.590  1.00  0.00     0.227 C 
ATOM     16  O   UNL A   1      31.032  21.675  25.728  1.00  0.00    -0.274 OA
ATOM     17  H   UNL A   1      29.863  23.033  24.306  1.00  0.00     0.169 HD
BRANCH  15  18
ATOM     18  C   UNL A   1      32.276  23.489  26.659  1.00  0.00     0.079 C 
ATOM     19  C   UNL A   1      35.291  23.384  26.407  1.00  0.00     0.044 C 
ATOM     20  C   UNL A   1      34.405  24.209  25.466  1.00  0.00     0.010 C 
ATOM     21  C   UNL A   1      34.513  22.312  27.193  1.00  0.00     0.010 C 
ATOM     22  C   UNL A   1      33.101  24.653  26.107  1.00  0.00     0.014 C 
ATOM     23  C   UNL A   1      33.100  22.662  27.636  1.00  0.00     0.014 C 
BRANCH  19  24
ATOM     24  C   UNL A   1      36.444  22.684  25.654  1.00  0.00     0.262 C 
BRANCH  24  25
ATOM     25  N   UNL A   1      37.561  23.521  25.253  1.00  0.00    -0.357 N 
ATOM     26  H   UNL A   1      37.699  23.443  24.246  1.00  0.00     0.344 HD
ATOM     27  H   UNL A   1      38.405  23.216  25.737  1.00  0.00     0.344 HD
ATOM     28  H   UNL A   1      37.362  24.492  25.495  1.00  0.00     0.344 HD
ENDBRANCH  24  25
ENDBRANCH  19  24
ENDBRANCH  15  18
ENDBRANCH   8  14
ENDBRANCH   4   7
ENDBRANCH   2   3
ENDBRANCH   1   2
BRANCH   1  29
ATOM     29  C   UNL A   1      32.949  30.127  26.343  1.00  0.00     0.002 C 
BRANCH  29  30
ATOM     30  C   UNL A   1      31.525  30.692  26.279  1.00  0.00     0.002 C 
BRANCH  30  31
ATOM     31  C   UNL A   1      31.402  32.192  26.557  1.00  0.00     0.021 C 
BRANCH  31  32
ATOM     32  C   UNL A   1      32.600  32.815  27.266  1.00  0.00     0.116 C 
BRANCH  32  33
ATOM     33  N   UNL A   1      32.373  34.205  27.626  1.00  0.00    -0.352 N 
ATOM     34  C   UNL A   1      32.970  34.965  28.601  1.00  0.00     0.251 C 
ATOM     35  H   UNL A   1      31.687  34.670  27.092  1.00  0.00     0.163 HD
ATOM     36  O   UNL A   1      32.530  36.074  28.876  1.00  0.00    -0.269 OA
BRANCH  34  37
ATOM     37  C   UNL A   1      34.137  34.432  29.339  1.00  0.00     0.039 A 
ATOM     38  C   UNL A   1      33.919  33.769  30.548  1.00  0.00     0.014 A 
ATOM     39  C   UNL A   1      35.436  34.590  28.848  1.00  0.00     0.014 A 
ATOM     40  C   UNL A   1      34.999  33.212  31.236  1.00  0.00     0.010 A 
ATOM     41  C   UNL A   1      36.500  33.966  29.493  1.00  0.00     0.010 A 
ATOM     42  C   UNL A   1      36.294  33.274  30.695  1.00  0.00    -0.014 A 
BRANCH  42  43
ATOM     43  C   UNL A   1      37.438  32.612  31.373  1.00  0.00     0.031 A 
ATOM     44  C   UNL A   1      38.143  31.454  30.723  1.00  0.00     0.074 A 
ATOM     45  C   UNL A   1      37.798  33.012  32.607  1.00  0.00     0.049 A 
ATOM     46  N   UNL A   1      39.126  30.720  31.180  1.00  0.00    -0.248 NA
ATOM     47  C   UNL A   1      37.658  31.047  29.396  1.00  0.00     0.031 C 
ATOM     48  C   UNL A   1      37.153  34.081  33.370  1.00  0.00     0.029 A 
ATOM     49  N   UNL A   1      38.786  32.556  33.445  1.00  0.00    -0.354 N 
ATOM     50  C   UNL A   1      39.363  29.758  30.207  1.00  0.00     0.074 A 
ATOM     51  C   UNL A   1      38.386  29.966  29.162  1.00  0.00     0.031 C 
ATOM     52  C   UNL A   1      37.770  34.212  34.553  1.00  0.00     0.029 A 
ATOM     53  C   UNL A   1      38.828  33.210  34.652  1.00  0.00     0.049 A 
ATOM     54  H   UNL A   1      39.404  31.828  33.205  1.00  0.00     0.167 HD
ATOM     55  C   UNL A   1      40.322  28.801  30.181  1.00  0.00     0.037 A 
ATOM     56  C   UNL A   1      39.620  33.017  35.724  1.00  0.00     0.037 A 
ATOM     57  C   UNL A   1      41.304  28.612  31.218  1.00  0.00     0.049 A 
ATOM     58  C   UNL A   1      40.682  31.954  35.670  1.00  0.00     0.074 A 
ATOM     59  C   UNL A   1      42.369  27.729  31.248  1.00  0.00     0.029 A 
ATOM     60  N   UNL A   1      41.330  29.308  32.419  1.00  0.00    -0.354 N 
ATOM     61  N   UNL A   1      40.960  31.110  34.705  1.00  0.00    -0.248 NA
ATOM     62  C   UNL A   1      41.547  31.821  36.849  1.00  0.00     0.031 C 
ATOM     63  C   UNL A   1      42.998  27.843  32.492  1.00  0.00     0.029 A 
ATOM     64  C   UNL A   1      42.369  28.845  33.213  1.00  0.00     0.049 A 
ATOM     65  H   UNL A   1      40.704  30.025  32.670  1.00  0.00     0.167 HD
ATOM     66  C   UNL A   1      42.040  30.360  35.150  1.00  0.00     0.074 A 
ATOM     67  C   UNL A   1      42.381  30.865  36.465  1.00  0.00     0.031 C 
ATOM     68  C   UNL A   1      42.691  29.347  34.527  1.00  0.00     0.037 A 
BRANCH  55  69
ATOM     69  C   UNL A   1      40.342  27.871  29.000  1.00  0.00     0.064 A 
ATOM     70  C   UNL A   1      41.083  28.156  27.841  1.00  0.00     0.173 A 
ATOM     71  C   UNL A   1      39.623  26.666  29.033  1.00  0.00     0.173 A 
ATOM     72  F   UNL A   1      41.784  29.297  27.751  1.00  0.00    -0.203 F 
ATOM     73  C   UNL A   1      41.064  27.296  26.746  1.00  0.00     0.198 A 
ATOM     74  C   UNL A   1      39.637  25.790  27.951  1.00  0.00     0.198 A 
ATOM     75  F   UNL A   1      38.904  26.337  30.117  1.00  0.00    -0.203 F 
ATOM     76  F   UNL A   1      41.724  27.623  25.627  1.00  0.00    -0.200 F 
ATOM     77  C   UNL A   1      40.346  26.111  26.804  1.00  0.00     0.200 A 
ATOM     78  F   UNL A   1      38.956  24.637  28.015  1.00  0.00    -0.200 F 
ATOM     79  F   UNL A   1      40.331  25.282  25.750  1.00  0.00    -0.200 F 
ENDBRANCH  55  69
BRANCH  56  80
ATOM     80  C   UNL A   1      39.439  33.866  36.930  1.00  0.00     0.064 A 
ATOM     81  C   UNL A   1      38.688  33.419  38.025  1.00  0.00     0.173 A 
ATOM     82  C   UNL A   1      40.039  35.131  37.023  1.00  0.00     0.173 A 
ATOM     83  F   UNL A   1      38.079  32.225  37.977  1.00  0.00    -0.203 F 
ATOM     84  C   UNL A   1      38.531  34.211  39.161  1.00  0.00     0.198 A 
ATOM     85  C   UNL A   1      39.907  35.909  38.171  1.00  0.00     0.198 A 
ATOM     86  F   UNL A   1      40.775  35.602  36.006  1.00  0.00    -0.203 F 
ATOM     87  F   UNL A   1      37.775  33.776  40.179  1.00  0.00    -0.200 F 
ATOM     88  C   UNL A   1      39.147  35.450  39.237  1.00  0.00     0.200 A 
ATOM     89  F   UNL A   1      40.521  37.097  38.248  1.00  0.00    -0.200 F 
ATOM     90  F   UNL A   1      39.009  36.204  40.336  1.00  0.00    -0.200 F 
ENDBRANCH  56  80
BRANCH  68  91
ATOM     91  C   UNL A   1      43.851  28.724  35.251  1.00  0.00     0.064 A 
ATOM     92  C   UNL A   1      43.678  27.652  36.138  1.00  0.00     0.173 A 
ATOM     93  C   UNL A   1      45.158  29.186  35.029  1.00  0.00     0.173 A 
ATOM     94  F   UNL A   1      42.450  27.181  36.398  1.00  0.00    -0.203 F 
ATOM     95  C   UNL A   1      44.767  27.084  36.797  1.00  0.00     0.198 A 
ATOM     96  C   UNL A   1      46.247  28.592  35.662  1.00  0.00     0.198 A 
ATOM     97  F   UNL A   1      45.382  30.205  34.185  1.00  0.00    -0.203 F 
ATOM     98  F   UNL A   1      44.570  26.096  37.682  1.00  0.00    -0.200 F 
ATOM     99  C   UNL A   1      46.050  27.548  36.552  1.00  0.00     0.200 A 
ATOM    100  F   UNL A   1      47.487  29.032  35.410  1.00  0.00    -0.200 F 
ATOM    101  F   UNL A   1      47.096  26.996  37.181  1.00  0.00    -0.200 F 
ENDBRANCH  68  91
ENDBRANCH  42  43
ENDBRANCH  34  37
ENDBRANCH  32  33
ENDBRANCH  31  32
ENDBRANCH  30  31
ENDBRANCH  29  30
ENDBRANCH   1  29
TORSDOF 17
ENDMDL
MODEL 2
REMARK VINA RESULT:     -12.3      5.388     10.795
REMARK SMILES [NH3+]C[C@H]1CC[C@@H](C(=O)Nc2ccc(C(=O)NCCCCCCNC(=O)c3ccc(-c4c5nc(c(-c6c(F)c(F)c(F)c(F)c6F)c6ccc([nH]6)c(-c6c(F)c(F)c(F)c(F)c6F)c6nc(c(-c7c(F)c(F)c(F)c(F)c7F)c7ccc4[nH]7)C=C6)C=C5)cc3)cc2Br)CC1
REMARK SMILES IDX 18 1 17 2 16 3 14 4 15 5 13 7 10 8 11 9 90 10 12 11 89 12
REMARK SMILES IDX 91 13 9 14 7 15 8 16 6 18 3 19 4 20 93 21 5 22 92 23 2 24
REMARK SMILES IDX 1 25 19 29 20 30 21 31 22 32 23 33 24 34 25 36 26 37 27 38
REMARK SMILES IDX 88 39 28 40 87 41 29 42 30 43 31 44 81 45 32 46 86 47 80 48
REMARK SMILES IDX 82 49 33 50 85 51 79 52 78 53 34 55 66 56 46 57 65 58 47 59
REMARK SMILES IDX 50 60 64 61 83 62 48 63 49 64 63 66 84 67 51 68 35 69 36 70
REMARK SMILES IDX 44 71 37 72 38 73 42 74 45 75 39 76 40 77 43 78 41 79 67 80
REMARK SMILES IDX 68 81 76 82 69 83 70 84 74 85 77 86 71 87 72 88 75 89 73 90
REMARK SMILES IDX 52 91 53 92 61 93 54 94 55 95 59 96 62 97 56 98 57 99 60 100
REMARK SMILES IDX 58 101
REMARK H PARENT 16 6 9 17 1 26 1 27 1 28 23 35 82 54 50 65
REMARK Flexibility Score: inf
ROOT
ATOM      1  C   UNL A   1      35.676  22.103  26.217  1.00  0.00     0.021 C 
ENDROOT
BRANCH   1   2
ATOM      2  C   UNL A   1      34.380  21.814  26.966  1.00  0.00     0.116 C 
BRANCH   2   3
ATOM      3  N   UNL A   1      33.765  20.593  26.467  1.00  0.00    -0.352 N 
ATOM      4  C   UNL A   1      32.715  20.375  25.608  1.00  0.00     0.251 C 
ATOM      5  O   UNL A   1      32.392  19.224  25.332  1.00  0.00    -0.269 OA
ATOM      6  H   UNL A   1      34.180  19.768  26.809  1.00  0.00     0.163 HD
BRANCH   4   7
ATOM      7  C   UNL A   1      32.053  21.503  24.906  1.00  0.00     0.041 A 
ATOM      8  C   UNL A   1      31.466  23.908  23.608  1.00  0.00     0.055 A 
ATOM      9  C   UNL A   1      32.001  22.835  22.887  1.00  0.00     0.028 A 
ATOM     10  C   UNL A   1      30.990  23.674  24.906  1.00  0.00     0.042 A 
ATOM     11  C   UNL A   1      32.319  21.643  23.539  1.00  0.00     0.016 A 
ATOM     12  C   UNL A   1      31.282  22.465  25.556  1.00  0.00     0.031 A 
ATOM     13  Br  UNL A   1      29.893  24.920  25.825  1.00  0.00    -0.049 Br
BRANCH   8  14
ATOM     14  N   UNL A   1      31.313  25.114  22.921  1.00  0.00    -0.325 N 
ATOM     15  C   UNL A   1      31.928  26.326  23.001  1.00  0.00     0.227 C 
ATOM     16  O   UNL A   1      31.345  27.242  22.397  1.00  0.00    -0.274 OA
ATOM     17  H   UNL A   1      30.611  25.081  22.232  1.00  0.00     0.169 HD
BRANCH  15  18
ATOM     18  C   UNL A   1      33.348  26.619  23.542  1.00  0.00     0.079 C 
ATOM     19  C   UNL A   1      33.794  27.838  26.276  1.00  0.00     0.044 C 
ATOM     20  C   UNL A   1      33.233  26.425  26.076  1.00  0.00     0.010 C 
ATOM     21  C   UNL A   1      33.708  28.712  25.012  1.00  0.00     0.010 C 
ATOM     22  C   UNL A   1      33.684  25.780  24.777  1.00  0.00     0.014 C 
ATOM     23  C   UNL A   1      33.922  28.022  23.673  1.00  0.00     0.014 C 
BRANCH  19  24
ATOM     24  C   UNL A   1      33.084  28.586  27.427  1.00  0.00     0.262 C 
BRANCH  24  25
ATOM     25  N   UNL A   1      31.933  27.929  28.018  1.00  0.00    -0.357 N 
ATOM     26  H   UNL A   1      32.083  27.814  29.019  1.00  0.00     0.344 HD
ATOM     27  H   UNL A   1      31.805  27.014  27.586  1.00  0.00     0.344 HD
ATOM     28  H   UNL A   1      31.099  28.496  27.861  1.00  0.00     0.344 HD
ENDBRANCH  24  25
ENDBRANCH  19  24
ENDBRANCH  15  18
ENDBRANCH   8  14
ENDBRANCH   4   7
ENDBRANCH   2   3
ENDBRANCH   1   2
BRANCH   1  29
ATOM     29  C   UNL A   1      35.923  21.138  25.051  1.00  0.00     0.002 C 
BRANCH  29  30
ATOM     30  C   UNL A   1      37.358  21.133  24.509  1.00  0.00     0.002 C 
BRANCH  30  31
ATOM     31  C   UNL A   1      38.198  19.911  24.887  1.00  0.00     0.021 C 
BRANCH  31  32
ATOM     32  C   UNL A   1      39.226  20.152  25.988  1.00  0.00     0.116 C 
BRANCH  32  33
ATOM     33  N   UNL A   1      40.272  19.143  26.003  1.00  0.00    -0.352 N 
ATOM     34  C   UNL A   1      41.629  19.291  26.151  1.00  0.00     0.251 C 
ATOM     35  H   UNL A   1      39.961  18.215  25.890  1.00  0.00     0.163 HD
ATOM     36  O   UNL A   1      42.378  18.341  25.966  1.00  0.00    -0.269 OA
BRANCH  34  37
ATOM     37  C   UNL A   1      42.191  20.612  26.510  1.00  0.00     0.039 A 
ATOM     38  C   UNL A   1      42.611  21.463  25.486  1.00  0.00     0.014 A 
ATOM     39  C   UNL A   1      42.310  21.008  27.845  1.00  0.00     0.014 A 
ATOM     40  C   UNL A   1      43.096  22.735  25.797  1.00  0.00     0.010 A 
ATOM     41  C   UNL A   1      42.717  22.304  28.149  1.00  0.00     0.010 A 
ATOM     42  C   UNL A   1      43.118  23.180  27.130  1.00  0.00    -0.014 A 
BRANCH  42  43
ATOM     43  C   UNL A   1      43.550  24.560  27.468  1.00  0.00     0.031 A 
ATOM     44  C   UNL A   1      42.539  25.600  27.862  1.00  0.00     0.074 A 
ATOM     45  C   UNL A   1      44.850  24.894  27.353  1.00  0.00     0.049 A 
ATOM     46  N   UNL A   1      42.719  26.866  28.143  1.00  0.00    -0.248 NA
ATOM     47  C   UNL A   1      41.135  25.168  27.916  1.00  0.00     0.031 C 
ATOM     48  C   UNL A   1      45.918  23.993  26.921  1.00  0.00     0.029 A 
ATOM     49  N   UNL A   1      45.492  26.087  27.576  1.00  0.00    -0.354 N 
ATOM     50  C   UNL A   1      41.454  27.383  28.389  1.00  0.00     0.074 A 
ATOM     51  C   UNL A   1      40.511  26.309  28.169  1.00  0.00     0.031 C 
ATOM     52  C   UNL A   1      47.083  24.656  26.926  1.00  0.00     0.029 A 
ATOM     53  C   UNL A   1      46.841  26.041  27.323  1.00  0.00     0.049 A 
ATOM     54  H   UNL A   1      45.029  26.899  27.887  1.00  0.00     0.167 HD
ATOM     55  C   UNL A   1      41.113  28.634  28.782  1.00  0.00     0.037 A 
ATOM     56  C   UNL A   1      47.777  27.006  27.389  1.00  0.00     0.037 A 
ATOM     57  C   UNL A   1      42.061  29.693  29.017  1.00  0.00     0.049 A 
ATOM     58  C   UNL A   1      47.377  28.386  27.834  1.00  0.00     0.074 A 
ATOM     59  C   UNL A   1      41.827  30.969  29.498  1.00  0.00     0.029 A 
ATOM     60  N   UNL A   1      43.424  29.605  28.770  1.00  0.00    -0.354 N 
ATOM     61  N   UNL A   1      46.190  28.840  28.156  1.00  0.00    -0.248 NA
ATOM     62  C   UNL A   1      48.448  29.386  27.933  1.00  0.00     0.031 C 
ATOM     63  C   UNL A   1      43.035  31.673  29.478  1.00  0.00     0.029 A 
ATOM     64  C   UNL A   1      44.037  30.816  29.051  1.00  0.00     0.049 A 
ATOM     65  H   UNL A   1      43.888  28.800  28.443  1.00  0.00     0.167 HD
ATOM     66  C   UNL A   1      46.371  30.169  28.514  1.00  0.00     0.074 A 
ATOM     67  C   UNL A   1      47.789  30.443  28.390  1.00  0.00     0.031 C 
ATOM     68  C   UNL A   1      45.449  31.080  28.911  1.00  0.00     0.037 A 
BRANCH  55  69
ATOM     69  C   UNL A   1      39.650  28.930  28.963  1.00  0.00     0.064 A 
ATOM     70  C   UNL A   1      39.026  28.856  30.219  1.00  0.00     0.173 A 
ATOM     71  C   UNL A   1      38.862  29.311  27.866  1.00  0.00     0.173 A 
ATOM     72  F   UNL A   1      39.729  28.490  31.302  1.00  0.00    -0.203 F 
ATOM     73  C   UNL A   1      37.664  29.105  30.360  1.00  0.00     0.198 A 
ATOM     74  C   UNL A   1      37.508  29.597  28.017  1.00  0.00     0.198 A 
ATOM     75  F   UNL A   1      39.406  29.407  26.643  1.00  0.00    -0.203 F 
ATOM     76  F   UNL A   1      37.078  28.962  31.558  1.00  0.00    -0.200 F 
ATOM     77  C   UNL A   1      36.907  29.481  29.261  1.00  0.00     0.200 A 
ATOM     78  F   UNL A   1      36.782  29.975  26.956  1.00  0.00    -0.200 F 
ATOM     79  F   UNL A   1      35.596  29.723  29.399  1.00  0.00    -0.200 F 
ENDBRANCH  55  69
BRANCH  56  80
ATOM     80  C   UNL A   1      49.185  26.688  27.036  1.00  0.00     0.064 A 
ATOM     81  C   UNL A   1      50.110  26.307  28.017  1.00  0.00     0.173 A 
ATOM     82  C   UNL A   1      49.626  26.732  25.705  1.00  0.00     0.173 A 
ATOM     83  F   UNL A   1      49.741  26.268  29.306  1.00  0.00    -0.203 F 
ATOM     84  C   UNL A   1      51.426  25.995  27.683  1.00  0.00     0.198 A 
ATOM     85  C   UNL A   1      50.935  26.390  25.368  1.00  0.00     0.198 A 
ATOM     86  F   UNL A   1      48.779  27.083  24.727  1.00  0.00    -0.203 F 
ATOM     87  F   UNL A   1      52.300  25.671  28.645  1.00  0.00    -0.200 F 
ATOM     88  C   UNL A   1      51.835  26.028  26.359  1.00  0.00     0.200 A 
ATOM     89  F   UNL A   1      51.319  26.405  24.085  1.00  0.00    -0.200 F 
ATOM     90  F   UNL A   1      53.097  25.714  26.036  1.00  0.00    -0.200 F 
ENDBRANCH  56  80
BRANCH  68  91
ATOM     91  C   UNL A   1      45.943  32.456  29.256  1.00  0.00     0.064 A 
ATOM     92  C   UNL A   1      46.376  32.783  30.550  1.00  0.00     0.173 A 
ATOM     93  C   UNL A   1      46.016  33.454  28.270  1.00  0.00     0.173 A 
ATOM     94  F   UNL A   1      46.315  31.872  31.533  1.00  0.00    -0.203 F 
ATOM     95  C   UNL A   1      46.836  34.063  30.850  1.00  0.00     0.198 A 
ATOM     96  C   UNL A   1      46.509  34.722  28.567  1.00  0.00     0.198 A 
ATOM     97  F   UNL A   1      45.621  33.195  27.015  1.00  0.00    -0.203 F 
ATOM     98  F   UNL A   1      47.193  34.366  32.106  1.00  0.00    -0.200 F 
ATOM     99  C   UNL A   1      46.910  35.028  29.857  1.00  0.00     0.200 A 
ATOM    100  F   UNL A   1      46.596  35.647  27.602  1.00  0.00    -0.200 F 
ATOM    101  F   UNL A   1      47.360  36.257  30.147  1.00  0.00    -0.200 F 
ENDBRANCH  68  91
ENDBRANCH  42  43
ENDBRANCH  34  37
ENDBRANCH  32  33
ENDBRANCH  31  32
ENDBRANCH  30  31
ENDBRANCH  29  30
ENDBRANCH   1  29
TORSDOF 17
ENDMDL
MODEL 3
REMARK VINA RESULT:     -12.1      6.324     11.092
REMARK SMILES [NH3+]C[C@H]1CC[C@@H](C(=O)Nc2ccc(C(=O)NCCCCCCNC(=O)c3ccc(-c4c5nc(c(-c6c(F)c(F)c(F)c(F)c6F)c6ccc([nH]6)c(-c6c(F)c(F)c(F)c(F)c6F)c6nc(c(-c7c(F)c(F)c(F)c(F)c7F)c7ccc4[nH]7)C=C6)C=C5)cc3)cc2Br)CC1
REMARK SMILES IDX 18 1 17 2 16 3 14 4 15 5 13 7 10 8 11 9 90 10 12 11 89 12
REMARK SMILES IDX 91 13 9 14 7 15 8 16 6 18 3 19 4 20 93 21 5 22 92 23 2 24
REMARK SMILES IDX 1 25 19 29 20 30 21 31 22 32 23 33 24 34 25 36 26 37 27 38
REMARK SMILES IDX 88 39 28 40 87 41 29 42 30 43 31 44 81 45 32 46 86 47 80 48
REMARK SMILES IDX 82 49 33 50 85 51 79 52 78 53 34 55 66 56 46 57 65 58 47 59
REMARK SMILES IDX 50 60 64 61 83 62 48 63 49 64 63 66 84 67 51 68 35 69 36 70
REMARK SMILES IDX 44 71 37 72 38 73 42 74 45 75 39 76 40 77 43 78 41 79 67 80
REMARK SMILES IDX 68 81 76 82 69 83 70 84 74 85 77 86 71 87 72 88 75 89 73 90
REMARK SMILES IDX 52 91 53 92 61 93 54 94 55 95 59 96 62 97 56 98 57 99 60 100
REMARK SMILES IDX 58 101
REMARK H PARENT 16 6 9 17 1 26 1 27 1 28 23 35 82 54 50 65
REMARK Flexibility Score: inf
ROOT
ATOM      1  C   UNL A   1      40.038  22.511  26.980  1.00  0.00     0.021 C 
ENDROOT
BRANCH   1   2
ATOM      2  C   UNL A   1      38.808  22.771  26.117  1.00  0.00     0.116 C 
BRANCH   2   3
ATOM      3  N   UNL A   1      38.234  21.516  25.655  1.00  0.00    -0.352 N 
ATOM      4  C   UNL A   1      36.945  21.147  25.357  1.00  0.00     0.251 C 
ATOM      5  O   UNL A   1      36.721  20.006  24.967  1.00  0.00    -0.269 OA
ATOM      6  H   UNL A   1      38.895  20.796  25.533  1.00  0.00     0.163 HD
BRANCH   4   7
ATOM      7  C   UNL A   1      35.842  22.141  25.369  1.00  0.00     0.041 A 
ATOM      8  C   UNL A   1      33.365  23.429  25.513  1.00  0.00     0.055 A 
ATOM      9  C   UNL A   1      34.068  23.128  26.685  1.00  0.00     0.028 A 
ATOM     10  C   UNL A   1      34.032  23.318  24.284  1.00  0.00     0.042 A 
ATOM     11  C   UNL A   1      35.292  22.462  26.616  1.00  0.00     0.016 A 
ATOM     12  C   UNL A   1      35.276  22.674  24.213  1.00  0.00     0.031 A 
ATOM     13  Br  UNL A   1      33.341  24.068  22.684  1.00  0.00    -0.049 Br
BRANCH   8  14
ATOM     14  N   UNL A   1      32.084  23.960  25.667  1.00  0.00    -0.325 N 
ATOM     15  C   UNL A   1      31.602  25.105  26.225  1.00  0.00     0.227 C 
ATOM     16  O   UNL A   1      30.373  25.115  26.405  1.00  0.00    -0.274 OA
ATOM     17  H   UNL A   1      31.378  23.386  25.294  1.00  0.00     0.169 HD
BRANCH  15  18
ATOM     18  C   UNL A   1      32.363  26.437  26.428  1.00  0.00     0.079 C 
ATOM     19  C   UNL A   1      32.660  28.462  24.197  1.00  0.00     0.044 C 
ATOM     20  C   UNL A   1      31.313  28.140  24.856  1.00  0.00     0.010 C 
ATOM     21  C   UNL A   1      33.737  27.394  24.461  1.00  0.00     0.010 C 
ATOM     22  C   UNL A   1      31.448  27.656  26.290  1.00  0.00     0.014 C 
ATOM     23  C   UNL A   1      33.731  26.722  25.826  1.00  0.00     0.014 C 
BRANCH  19  24
ATOM     24  C   UNL A   1      32.529  28.644  22.669  1.00  0.00     0.262 C 
BRANCH  24  25
ATOM     25  N   UNL A   1      31.463  29.515  22.207  1.00  0.00    -0.357 N 
ATOM     26  H   UNL A   1      31.866  30.353  21.787  1.00  0.00     0.344 HD
ATOM     27  H   UNL A   1      30.874  29.779  22.996  1.00  0.00     0.344 HD
ATOM     28  H   UNL A   1      30.900  29.024  21.512  1.00  0.00     0.344 HD
ENDBRANCH  24  25
ENDBRANCH  19  24
ENDBRANCH  15  18
ENDBRANCH   8  14
ENDBRANCH   4   7
ENDBRANCH   2   3
ENDBRANCH   1   2
BRANCH   1  29
ATOM     29  C   UNL A   1      41.193  21.870  26.198  1.00  0.00     0.002 C 
BRANCH  29  30
ATOM     30  C   UNL A   1      41.738  20.570  26.802  1.00  0.00     0.002 C 
BRANCH  30  31
ATOM     31  C   UNL A   1      42.063  19.465  25.793  1.00  0.00     0.021 C 
BRANCH  31  32
ATOM     32  C   UNL A   1      43.342  18.687  26.082  1.00  0.00     0.116 C 
BRANCH  32  33
ATOM     33  N   UNL A   1      44.178  18.533  24.903  1.00  0.00    -0.352 N 
ATOM     34  C   UNL A   1      44.833  19.487  24.164  1.00  0.00     0.251 C 
ATOM     35  H   UNL A   1      44.290  17.606  24.587  1.00  0.00     0.163 HD
ATOM     36  O   UNL A   1      45.353  19.190  23.096  1.00  0.00    -0.269 OA
BRANCH  34  37
ATOM     37  C   UNL A   1      44.889  20.884  24.647  1.00  0.00     0.039 A 
ATOM     38  C   UNL A   1      45.425  21.135  25.912  1.00  0.00     0.014 A 
ATOM     39  C   UNL A   1      44.412  21.939  23.865  1.00  0.00     0.014 A 
ATOM     40  C   UNL A   1      45.536  22.450  26.368  1.00  0.00     0.010 A 
ATOM     41  C   UNL A   1      44.596  23.252  24.287  1.00  0.00     0.010 A 
ATOM     42  C   UNL A   1      45.157  23.522  25.544  1.00  0.00    -0.014 A 
BRANCH  42  43
ATOM     43  C   UNL A   1      45.349  24.929  25.982  1.00  0.00     0.031 A 
ATOM     44  C   UNL A   1      46.708  25.568  25.915  1.00  0.00     0.074 A 
ATOM     45  C   UNL A   1      44.310  25.607  26.504  1.00  0.00     0.049 A 
ATOM     46  N   UNL A   1      47.080  26.764  26.297  1.00  0.00    -0.248 NA
ATOM     47  C   UNL A   1      47.800  24.744  25.378  1.00  0.00     0.031 C 
ATOM     48  C   UNL A   1      42.958  25.077  26.680  1.00  0.00     0.029 A 
ATOM     49  N   UNL A   1      44.232  26.886  26.998  1.00  0.00    -0.354 N 
ATOM     50  C   UNL A   1      48.447  26.828  26.062  1.00  0.00     0.074 A 
ATOM     51  C   UNL A   1      48.848  25.533  25.559  1.00  0.00     0.031 C 
ATOM     52  C   UNL A   1      42.180  26.024  27.224  1.00  0.00     0.029 A 
ATOM     53  C   UNL A   1      42.986  27.216  27.473  1.00  0.00     0.049 A 
ATOM     54  H   UNL A   1      44.996  27.507  27.011  1.00  0.00     0.167 HD
ATOM     55  C   UNL A   1      49.286  27.878  26.233  1.00  0.00     0.037 A 
ATOM     56  C   UNL A   1      42.544  28.346  28.058  1.00  0.00     0.037 A 
ATOM     57  C   UNL A   1      48.874  29.170  26.718  1.00  0.00     0.049 A 
ATOM     58  C   UNL A   1      43.492  29.501  28.231  1.00  0.00     0.074 A 
ATOM     59  C   UNL A   1      49.628  30.324  26.846  1.00  0.00     0.029 A 
ATOM     60  N   UNL A   1      47.599  29.476  27.172  1.00  0.00    -0.354 N 
ATOM     61  N   UNL A   1      44.763  29.583  27.918  1.00  0.00    -0.248 NA
ATOM     62  C   UNL A   1      42.942  30.724  28.831  1.00  0.00     0.031 C 
ATOM     63  C   UNL A   1      48.828  31.306  27.439  1.00  0.00     0.029 A 
ATOM     64  C   UNL A   1      47.555  30.788  27.618  1.00  0.00     0.049 A 
ATOM     65  H   UNL A   1      46.836  28.853  27.176  1.00  0.00     0.167 HD
ATOM     66  C   UNL A   1      45.161  30.868  28.263  1.00  0.00     0.074 A 
ATOM     67  C   UNL A   1      43.989  31.538  28.790  1.00  0.00     0.031 C 
ATOM     68  C   UNL A   1      46.385  31.441  28.153  1.00  0.00     0.037 A 
BRANCH  55  69
ATOM     69  C   UNL A   1      50.739  27.664  25.912  1.00  0.00     0.064 A 
ATOM     70  C   UNL A   1      51.675  27.312  26.898  1.00  0.00     0.173 A 
ATOM     71  C   UNL A   1      51.201  27.796  24.593  1.00  0.00     0.173 A 
ATOM     72  F   UNL A   1      51.291  27.179  28.177  1.00  0.00    -0.203 F 
ATOM     73  C   UNL A   1      53.022  27.148  26.584  1.00  0.00     0.198 A 
ATOM     74  C   UNL A   1      52.542  27.593  24.276  1.00  0.00     0.198 A 
ATOM     75  F   UNL A   1      50.350  28.122  23.608  1.00  0.00    -0.203 F 
ATOM     76  F   UNL A   1      53.907  26.879  27.555  1.00  0.00    -0.200 F 
ATOM     77  C   UNL A   1      53.453  27.283  25.273  1.00  0.00     0.200 A 
ATOM     78  F   UNL A   1      52.953  27.708  23.006  1.00  0.00    -0.200 F 
ATOM     79  F   UNL A   1      54.749  27.122  24.972  1.00  0.00    -0.200 F 
ENDBRANCH  55  69
BRANCH  56  80
ATOM     80  C   UNL A   1      41.130  28.435  28.505  1.00  0.00     0.064 A 
ATOM     81  C   UNL A   1      40.131  28.926  27.655  1.00  0.00     0.173 A 
ATOM     82  C   UNL A   1      40.747  28.005  29.785  1.00  0.00     0.173 A 
ATOM     83  F   UNL A   1      40.450  29.367  26.430  1.00  0.00    -0.203 F 
ATOM     84  C   UNL A   1      38.803  28.995  28.072  1.00  0.00     0.198 A 
ATOM     85  C   UNL A   1      39.414  28.047  30.189  1.00  0.00     0.198 A 
ATOM     86  F   UNL A   1      41.664  27.520  30.634  1.00  0.00    -0.203 F 
ATOM     87  F   UNL A   1      37.872  29.504  27.253  1.00  0.00    -0.200 F 
ATOM     88  C   UNL A   1      38.444  28.548  29.335  1.00  0.00     0.200 A 
ATOM     89  F   UNL A   1      39.070  27.595  31.402  1.00  0.00    -0.200 F 
ATOM     90  F   UNL A   1      37.164  28.601  29.729  1.00  0.00    -0.200 F 
ENDBRANCH  56  80
BRANCH  68  91
ATOM     91  C   UNL A   1      46.519  32.870  28.595  1.00  0.00     0.064 A 
ATOM     92  C   UNL A   1      46.897  33.207  29.904  1.00  0.00     0.173 A 
ATOM     93  C   UNL A   1      46.298  33.919  27.688  1.00  0.00     0.173 A 
ATOM     94  F   UNL A   1      47.105  32.245  30.815  1.00  0.00    -0.203 F 
ATOM     95  C   UNL A   1      47.020  34.538  30.295  1.00  0.00     0.198 A 
ATOM     96  C   UNL A   1      46.458  35.247  28.073  1.00  0.00     0.198 A 
ATOM     97  F   UNL A   1      45.942  33.655  26.422  1.00  0.00    -0.203 F 
ATOM     98  F   UNL A   1      47.329  34.835  31.565  1.00  0.00    -0.200 F 
ATOM     99  C   UNL A   1      46.810  35.556  29.378  1.00  0.00     0.200 A 
ATOM    100  F   UNL A   1      46.271  36.229  27.180  1.00  0.00    -0.200 F 
ATOM    101  F   UNL A   1      46.937  36.836  29.754  1.00  0.00    -0.200 F 
ENDBRANCH  68  91
ENDBRANCH  42  43
ENDBRANCH  34  37
ENDBRANCH  32  33
ENDBRANCH  31  32
ENDBRANCH  30  31
ENDBRANCH  29  30
ENDBRANCH   1  29
TORSDOF 17
ENDMDL
