MODEL 1
REMARK VINA RESULT:     -12.5      0.000      0.000
REMARK SMILES O=C(NCCCCCCNC(=O)c1coc(-c2csc(-c3ccc(Cl)cn3)n2)c1)c1ccc(-c2c3nc(c(-c4c(F)c(F)c(F)c(F)c4F)c4ccc([nH]4)c(-c4c(F)c(F)c(F)c(F)c4F)c4nc(c(-c5c(F)c(F)c(F)c(F)c5F)c5ccc2[nH]5)C=C4)C=C3)cc1
REMARK SMILES IDX 6 1 5 2 4 3 3 4 1 5 2 6 30 8 31 9 92 10 32 11 91 12 33 13
REMARK SMILES IDX 34 14 35 15 85 16 36 17 90 18 84 19 86 20 37 21 89 22 83 23
REMARK SMILES IDX 82 24 38 26 70 27 50 28 69 29 51 30 54 31 68 32 87 33 52 34
REMARK SMILES IDX 53 35 67 37 88 38 55 39 39 40 40 41 48 42 41 43 42 44 46 45
REMARK SMILES IDX 49 46 43 47 44 48 47 49 45 50 71 51 72 52 80 53 73 54 74 55
REMARK SMILES IDX 78 56 81 57 75 58 76 59 79 60 77 61 56 62 57 63 65 64 58 65
REMARK SMILES IDX 59 66 63 67 66 68 60 69 61 70 64 71 62 72 7 73 8 74 9 75
REMARK SMILES IDX 10 76 11 77 12 79 13 80 14 81 29 82 15 83 16 84 17 85 18 86
REMARK SMILES IDX 28 87 19 88 20 89 21 90 22 91 27 92 23 93 26 94 24 95 25 96
REMARK H PARENT 3 7 86 25 54 36 10 78
REMARK Flexibility Score: inf
ROOT
ATOM      1  C   UNL A   1      31.838  27.203  26.041  1.00  0.00     0.002 C 
ENDROOT
BRANCH   1   2
ATOM      2  C   UNL A   1      31.778  28.650  26.547  1.00  0.00     0.021 C 
BRANCH   2   3
ATOM      3  C   UNL A   1      32.913  29.561  26.076  1.00  0.00     0.116 C 
BRANCH   3   4
ATOM      4  N   UNL A   1      32.663  30.960  26.372  1.00  0.00    -0.352 N 
ATOM      5  O   UNL A   1      32.891  32.933  27.429  1.00  0.00    -0.269 OA
ATOM      6  C   UNL A   1      33.336  31.809  27.212  1.00  0.00     0.251 C 
ATOM      7  H   UNL A   1      31.895  31.357  25.900  1.00  0.00     0.163 HD
BRANCH   6   8
ATOM      8  C   UNL A   1      34.585  31.383  27.881  1.00  0.00     0.039 A 
ATOM      9  C   UNL A   1      35.681  32.242  28.002  1.00  0.00     0.014 A 
ATOM     10  C   UNL A   1      34.619  30.114  28.473  1.00  0.00     0.014 A 
ATOM     11  C   UNL A   1      36.831  31.812  28.668  1.00  0.00     0.010 A 
ATOM     12  C   UNL A   1      35.765  29.690  29.149  1.00  0.00     0.010 A 
ATOM     13  C   UNL A   1      36.882  30.531  29.240  1.00  0.00    -0.014 A 
BRANCH  13  14
ATOM     14  C   UNL A   1      38.098  30.084  29.955  1.00  0.00     0.031 A 
ATOM     15  C   UNL A   1      38.386  30.575  31.342  1.00  0.00     0.074 A 
ATOM     16  C   UNL A   1      38.947  29.236  29.351  1.00  0.00     0.049 A 
ATOM     17  N   UNL A   1      39.385  30.271  32.132  1.00  0.00    -0.248 NA
ATOM     18  C   UNL A   1      37.429  31.532  31.916  1.00  0.00     0.031 C 
ATOM     19  C   UNL A   1      38.787  28.700  28.000  1.00  0.00     0.029 A 
ATOM     20  N   UNL A   1      40.116  28.675  29.800  1.00  0.00    -0.354 N 
ATOM     21  C   UNL A   1      39.182  31.002  33.292  1.00  0.00     0.074 A 
ATOM     22  C   UNL A   1      37.966  31.767  33.107  1.00  0.00     0.031 C 
ATOM     23  C   UNL A   1      39.816  27.879  27.732  1.00  0.00     0.029 A 
ATOM     24  C   UNL A   1      40.704  27.836  28.890  1.00  0.00     0.049 A 
ATOM     25  H   UNL A   1      40.494  28.857  30.691  1.00  0.00     0.167 HD
ATOM     26  C   UNL A   1      39.939  31.028  34.414  1.00  0.00     0.037 A 
ATOM     27  C   UNL A   1      41.834  27.112  28.983  1.00  0.00     0.037 A 
ATOM     28  C   UNL A   1      41.139  30.263  34.619  1.00  0.00     0.049 A 
ATOM     29  C   UNL A   1      42.655  27.162  30.236  1.00  0.00     0.074 A 
ATOM     30  C   UNL A   1      41.938  30.191  35.746  1.00  0.00     0.029 A 
ATOM     31  N   UNL A   1      41.713  29.438  33.666  1.00  0.00    -0.354 N 
ATOM     32  N   UNL A   1      42.433  27.828  31.340  1.00  0.00    -0.248 NA
ATOM     33  C   UNL A   1      43.887  26.358  30.252  1.00  0.00     0.031 C 
ATOM     34  C   UNL A   1      43.005  29.325  35.473  1.00  0.00     0.029 A 
ATOM     35  C   UNL A   1      42.864  28.861  34.176  1.00  0.00     0.049 A 
ATOM     36  H   UNL A   1      41.357  29.285  32.762  1.00  0.00     0.167 HD
ATOM     37  C   UNL A   1      43.491  27.525  32.184  1.00  0.00     0.074 A 
ATOM     38  C   UNL A   1      44.359  26.616  31.465  1.00  0.00     0.031 C 
ATOM     39  C   UNL A   1      43.717  27.962  33.446  1.00  0.00     0.037 A 
BRANCH  26  40
ATOM     40  C   UNL A   1      39.481  31.922  35.518  1.00  0.00     0.064 A 
ATOM     41  C   UNL A   1      39.923  33.250  35.598  1.00  0.00     0.173 A 
ATOM     42  C   UNL A   1      38.578  31.461  36.485  1.00  0.00     0.173 A 
ATOM     43  F   UNL A   1      40.799  33.724  34.700  1.00  0.00    -0.203 F 
ATOM     44  C   UNL A   1      39.474  34.089  36.614  1.00  0.00     0.198 A 
ATOM     45  C   UNL A   1      38.131  32.303  37.500  1.00  0.00     0.198 A 
ATOM     46  F   UNL A   1      38.141  30.194  36.451  1.00  0.00    -0.203 F 
ATOM     47  F   UNL A   1      39.917  35.352  36.683  1.00  0.00    -0.200 F 
ATOM     48  C   UNL A   1      38.579  33.615  37.562  1.00  0.00     0.200 A 
ATOM     49  F   UNL A   1      37.275  31.843  38.422  1.00  0.00    -0.200 F 
ATOM     50  F   UNL A   1      38.153  34.422  38.544  1.00  0.00    -0.200 F 
ENDBRANCH  26  40
BRANCH  27  51
ATOM     51  C   UNL A   1      42.247  26.264  27.844  1.00  0.00     0.064 A 
ATOM     52  C   UNL A   1      41.691  24.991  27.664  1.00  0.00     0.173 A 
ATOM     53  C   UNL A   1      43.189  26.717  26.913  1.00  0.00     0.173 A 
ATOM     54  F   UNL A   1      40.798  24.518  28.544  1.00  0.00    -0.203 F 
ATOM     55  C   UNL A   1      42.065  24.198  26.582  1.00  0.00     0.198 A 
ATOM     56  C   UNL A   1      43.560  25.923  25.831  1.00  0.00     0.198 A 
ATOM     57  F   UNL A   1      43.750  27.925  27.061  1.00  0.00    -0.203 F 
ATOM     58  F   UNL A   1      41.527  22.980  26.429  1.00  0.00    -0.200 F 
ATOM     59  C   UNL A   1      42.996  24.665  25.666  1.00  0.00     0.200 A 
ATOM     60  F   UNL A   1      44.466  26.372  24.952  1.00  0.00    -0.200 F 
ATOM     61  F   UNL A   1      43.357  23.900  24.627  1.00  0.00    -0.200 F 
ENDBRANCH  27  51
BRANCH  39  62
ATOM     62  C   UNL A   1      44.950  27.462  34.124  1.00  0.00     0.064 A 
ATOM     63  C   UNL A   1      44.933  26.265  34.852  1.00  0.00     0.173 A 
ATOM     64  C   UNL A   1      46.158  28.163  34.021  1.00  0.00     0.173 A 
ATOM     65  F   UNL A   1      43.793  25.571  34.983  1.00  0.00    -0.203 F 
ATOM     66  C   UNL A   1      46.089  25.787  35.460  1.00  0.00     0.198 A 
ATOM     67  C   UNL A   1      47.314  27.681  34.630  1.00  0.00     0.198 A 
ATOM     68  F   UNL A   1      46.213  29.317  33.340  1.00  0.00    -0.203 F 
ATOM     69  F   UNL A   1      46.054  24.646  36.162  1.00  0.00    -0.200 F 
ATOM     70  C   UNL A   1      47.278  26.494  35.347  1.00  0.00     0.200 A 
ATOM     71  F   UNL A   1      48.461  28.367  34.526  1.00  0.00    -0.200 F 
ATOM     72  F   UNL A   1      48.390  26.035  35.937  1.00  0.00    -0.200 F 
ENDBRANCH  39  62
ENDBRANCH  13  14
ENDBRANCH   6   8
ENDBRANCH   3   4
ENDBRANCH   2   3
ENDBRANCH   1   2
BRANCH   1  73
ATOM     73  C   UNL A   1      30.716  26.786  25.086  1.00  0.00     0.002 C 
BRANCH  73  74
ATOM     74  C   UNL A   1      30.279  27.850  24.070  1.00  0.00     0.021 C 
BRANCH  74  75
ATOM     75  C   UNL A   1      30.593  27.512  22.611  1.00  0.00     0.116 C 
BRANCH  75  76
ATOM     76  N   UNL A   1      31.875  28.058  22.202  1.00  0.00    -0.352 N 
ATOM     77  C   UNL A   1      33.117  27.481  22.253  1.00  0.00     0.254 C 
ATOM     78  H   UNL A   1      31.849  28.973  21.838  1.00  0.00     0.163 HD
ATOM     79  O   UNL A   1      34.111  28.199  22.191  1.00  0.00    -0.269 OA
BRANCH  77  80
ATOM     80  C   UNL A   1      33.222  26.045  22.377  1.00  0.00     0.078 A 
ATOM     81  C   UNL A   1      32.904  25.116  21.408  1.00  0.00     0.209 A 
ATOM     82  C   UNL A   1      33.779  25.292  23.449  1.00  0.00     0.066 A 
ATOM     83  O   UNL A   1      33.200  23.860  21.823  1.00  0.00    -0.462 OA
ATOM     84  C   UNL A   1      33.736  23.963  23.076  1.00  0.00     0.153 A 
BRANCH  84  85
ATOM     85  C   UNL A   1      34.218  22.817  23.894  1.00  0.00     0.117 A 
ATOM     86  C   UNL A   1      35.281  22.922  24.764  1.00  0.00     0.099 A 
ATOM     87  N   UNL A   1      33.623  21.570  23.827  1.00  0.00    -0.231 NA
ATOM     88  S   UNL A   1      35.516  21.429  25.570  1.00  0.00    -0.120 S 
ATOM     89  C   UNL A   1      34.210  20.742  24.674  1.00  0.00     0.142 A 
BRANCH  89  90
ATOM     90  C   UNL A   1      33.845  19.325  24.839  1.00  0.00     0.099 A 
ATOM     91  C   UNL A   1      34.778  18.322  24.575  1.00  0.00     0.033 A 
ATOM     92  N   UNL A   1      32.577  19.049  25.241  1.00  0.00    -0.252 NA
ATOM     93  C   UNL A   1      34.407  16.987  24.737  1.00  0.00     0.024 A 
ATOM     94  C   UNL A   1      32.240  17.742  25.377  1.00  0.00     0.132 A 
ATOM     95  C   UNL A   1      33.112  16.691  25.143  1.00  0.00     0.059 A 
ATOM     96  Cl  UNL A   1      32.609  15.064  25.348  1.00  0.00    -0.083 Cl
ENDBRANCH  89  90
ENDBRANCH  84  85
ENDBRANCH  77  80
ENDBRANCH  75  76
ENDBRANCH  74  75
ENDBRANCH  73  74
ENDBRANCH   1  73
TORSDOF 15
ENDMDL
MODEL 2
REMARK VINA RESULT:     -12.5      1.952      2.950
REMARK SMILES O=C(NCCCCCCNC(=O)c1coc(-c2csc(-c3ccc(Cl)cn3)n2)c1)c1ccc(-c2c3nc(c(-c4c(F)c(F)c(F)c(F)c4F)c4ccc([nH]4)c(-c4c(F)c(F)c(F)c(F)c4F)c4nc(c(-c5c(F)c(F)c(F)c(F)c5F)c5ccc2[nH]5)C=C4)C=C3)cc1
REMARK SMILES IDX 6 1 5 2 4 3 3 4 1 5 2 6 30 8 31 9 92 10 32 11 91 12 33 13
REMARK SMILES IDX 34 14 35 15 85 16 36 17 90 18 84 19 86 20 37 21 89 22 83 23
REMARK SMILES IDX 82 24 38 26 70 27 50 28 69 29 51 30 54 31 68 32 87 33 52 34
REMARK SMILES IDX 53 35 67 37 88 38 55 39 39 40 40 41 48 42 41 43 42 44 46 45
REMARK SMILES IDX 49 46 43 47 44 48 47 49 45 50 71 51 72 52 80 53 73 54 74 55
REMARK SMILES IDX 78 56 81 57 75 58 76 59 79 60 77 61 56 62 57 63 65 64 58 65
REMARK SMILES IDX 59 66 63 67 66 68 60 69 61 70 64 71 62 72 7 73 8 74 9 75
REMARK SMILES IDX 10 76 11 77 12 79 13 80 14 81 29 82 15 83 16 84 17 85 18 86
REMARK SMILES IDX 28 87 19 88 20 89 21 90 22 91 27 92 23 93 26 94 24 95 25 96
REMARK H PARENT 3 7 86 25 54 36 10 78
REMARK Flexibility Score: inf
ROOT
ATOM      1  C   UNL A   1      32.082  26.443  26.425  1.00  0.00     0.002 C 
ENDROOT
BRANCH   1   2
ATOM      2  C   UNL A   1      32.381  27.735  27.197  1.00  0.00     0.021 C 
BRANCH   2   3
ATOM      3  C   UNL A   1      33.646  28.481  26.769  1.00  0.00     0.116 C 
BRANCH   3   4
ATOM      4  N   UNL A   1      33.561  29.908  27.017  1.00  0.00    -0.352 N 
ATOM      5  O   UNL A   1      34.133  31.905  27.883  1.00  0.00    -0.269 OA
ATOM      6  C   UNL A   1      34.444  30.739  27.657  1.00  0.00     0.251 C 
ATOM      7  H   UNL A   1      32.746  30.345  26.676  1.00  0.00     0.163 HD
BRANCH   6   8
ATOM      8  C   UNL A   1      35.765  30.242  28.102  1.00  0.00     0.039 A 
ATOM      9  C   UNL A   1      36.889  30.307  27.272  1.00  0.00     0.014 A 
ATOM     10  C   UNL A   1      35.890  29.778  29.417  1.00  0.00     0.014 A 
ATOM     11  C   UNL A   1      38.125  29.855  27.741  1.00  0.00     0.010 A 
ATOM     12  C   UNL A   1      37.128  29.338  29.888  1.00  0.00     0.010 A 
ATOM     13  C   UNL A   1      38.251  29.363  29.049  1.00  0.00    -0.014 A 
BRANCH  13  14
ATOM     14  C   UNL A   1      39.566  28.898  29.544  1.00  0.00     0.031 A 
ATOM     15  C   UNL A   1      40.292  29.667  30.606  1.00  0.00     0.074 A 
ATOM     16  C   UNL A   1      40.107  27.778  29.033  1.00  0.00     0.049 A 
ATOM     17  N   UNL A   1      41.437  29.397  31.180  1.00  0.00    -0.248 NA
ATOM     18  C   UNL A   1      39.651  30.901  31.083  1.00  0.00     0.031 C 
ATOM     19  C   UNL A   1      39.507  26.952  27.987  1.00  0.00     0.029 A 
ATOM     20  N   UNL A   1      41.287  27.146  29.329  1.00  0.00    -0.354 N 
ATOM     21  C   UNL A   1      41.658  30.427  32.081  1.00  0.00     0.074 A 
ATOM     22  C   UNL A   1      40.530  31.331  31.979  1.00  0.00     0.031 C 
ATOM     23  C   UNL A   1      40.320  25.912  27.733  1.00  0.00     0.029 A 
ATOM     24  C   UNL A   1      41.494  26.006  28.596  1.00  0.00     0.049 A 
ATOM     25  H   UNL A   1      41.923  27.478  30.003  1.00  0.00     0.167 HD
ATOM     26  C   UNL A   1      42.704  30.601  32.922  1.00  0.00     0.037 A 
ATOM     27  C   UNL A   1      42.517  25.132  28.622  1.00  0.00     0.037 A 
ATOM     28  C   UNL A   1      43.821  29.705  33.046  1.00  0.00     0.049 A 
ATOM     29  C   UNL A   1      43.665  25.350  29.561  1.00  0.00     0.074 A 
ATOM     30  C   UNL A   1      44.899  29.779  33.911  1.00  0.00     0.029 A 
ATOM     31  N   UNL A   1      44.004  28.569  32.274  1.00  0.00    -0.354 N 
ATOM     32  N   UNL A   1      43.844  26.308  30.435  1.00  0.00    -0.248 NA
ATOM     33  C   UNL A   1      44.754  24.363  29.515  1.00  0.00     0.031 C 
ATOM     34  C   UNL A   1      45.741  28.688  33.657  1.00  0.00     0.029 A 
ATOM     35  C   UNL A   1      45.183  27.939  32.635  1.00  0.00     0.049 A 
ATOM     36  H   UNL A   1      43.387  28.257  31.573  1.00  0.00     0.167 HD
ATOM     37  C   UNL A   1      45.060  26.043  31.045  1.00  0.00     0.074 A 
ATOM     38  C   UNL A   1      45.580  24.833  30.441  1.00  0.00     0.031 C 
ATOM     39  C   UNL A   1      45.687  26.741  32.022  1.00  0.00     0.037 A 
BRANCH  26  40
ATOM     40  C   UNL A   1      42.683  31.819  33.785  1.00  0.00     0.064 A 
ATOM     41  C   UNL A   1      42.135  31.778  35.073  1.00  0.00     0.173 A 
ATOM     42  C   UNL A   1      43.236  33.025  33.334  1.00  0.00     0.173 A 
ATOM     43  F   UNL A   1      41.583  30.646  35.535  1.00  0.00    -0.203 F 
ATOM     44  C   UNL A   1      42.140  32.908  35.885  1.00  0.00     0.198 A 
ATOM     45  C   UNL A   1      43.239  34.154  34.149  1.00  0.00     0.198 A 
ATOM     46  F   UNL A   1      43.759  33.109  32.103  1.00  0.00    -0.203 F 
ATOM     47  F   UNL A   1      41.600  32.854  37.110  1.00  0.00    -0.200 F 
ATOM     48  C   UNL A   1      42.693  34.094  35.423  1.00  0.00     0.200 A 
ATOM     49  F   UNL A   1      43.763  35.302  33.699  1.00  0.00    -0.200 F 
ATOM     50  F   UNL A   1      42.691  35.183  36.203  1.00  0.00    -0.200 F 
ENDBRANCH  26  40
BRANCH  27  51
ATOM     51  C   UNL A   1      42.490  23.957  27.725  1.00  0.00     0.064 A 
ATOM     52  C   UNL A   1      42.927  24.061  26.399  1.00  0.00     0.173 A 
ATOM     53  C   UNL A   1      42.041  22.713  28.182  1.00  0.00     0.173 A 
ATOM     54  F   UNL A   1      43.350  25.240  25.923  1.00  0.00    -0.203 F 
ATOM     55  C   UNL A   1      42.920  22.951  25.558  1.00  0.00     0.198 A 
ATOM     56  C   UNL A   1      42.035  21.604  27.340  1.00  0.00     0.198 A 
ATOM     57  F   UNL A   1      41.603  22.580  29.443  1.00  0.00    -0.203 F 
ATOM     58  F   UNL A   1      43.336  23.071  24.291  1.00  0.00    -0.200 F 
ATOM     59  C   UNL A   1      42.476  21.724  26.030  1.00  0.00     0.200 A 
ATOM     60  F   UNL A   1      41.597  20.422  27.795  1.00  0.00    -0.200 F 
ATOM     61  F   UNL A   1      42.466  20.658  25.219  1.00  0.00    -0.200 F 
ENDBRANCH  27  51
BRANCH  39  62
ATOM     62  C   UNL A   1      47.001  26.212  32.495  1.00  0.00     0.064 A 
ATOM     63  C   UNL A   1      47.067  25.292  33.550  1.00  0.00     0.173 A 
ATOM     64  C   UNL A   1      48.195  26.600  31.873  1.00  0.00     0.173 A 
ATOM     65  F   UNL A   1      45.947  24.904  34.177  1.00  0.00    -0.203 F 
ATOM     66  C   UNL A   1      48.289  24.780  33.971  1.00  0.00     0.198 A 
ATOM     67  C   UNL A   1      49.417  26.084  32.296  1.00  0.00     0.198 A 
ATOM     68  F   UNL A   1      48.174  27.484  30.865  1.00  0.00    -0.203 F 
ATOM     69  F   UNL A   1      48.336  23.909  34.988  1.00  0.00    -0.200 F 
ATOM     70  C   UNL A   1      49.463  25.175  33.343  1.00  0.00     0.200 A 
ATOM     71  F   UNL A   1      50.550  26.471  31.694  1.00  0.00    -0.200 F 
ATOM     72  F   UNL A   1      50.640  24.685  33.753  1.00  0.00    -0.200 F 
ENDBRANCH  39  62
ENDBRANCH  13  14
ENDBRANCH   6   8
ENDBRANCH   3   4
ENDBRANCH   2   3
ENDBRANCH   1   2
BRANCH   1  73
ATOM     73  C   UNL A   1      30.853  26.483  25.513  1.00  0.00     0.002 C 
BRANCH  73  74
ATOM     74  C   UNL A   1      30.782  27.674  24.547  1.00  0.00     0.021 C 
BRANCH  74  75
ATOM     75  C   UNL A   1      30.805  27.300  23.063  1.00  0.00     0.116 C 
BRANCH  75  76
ATOM     76  N   UNL A   1      31.987  27.824  22.402  1.00  0.00    -0.352 N 
ATOM     77  C   UNL A   1      33.211  27.233  22.218  1.00  0.00     0.254 C 
ATOM     78  H   UNL A   1      31.898  28.733  22.034  1.00  0.00     0.163 HD
ATOM     79  O   UNL A   1      34.179  27.938  21.950  1.00  0.00    -0.269 OA
BRANCH  77  80
ATOM     80  C   UNL A   1      33.325  25.798  22.345  1.00  0.00     0.078 A 
ATOM     81  C   UNL A   1      33.060  24.868  21.361  1.00  0.00     0.209 A 
ATOM     82  C   UNL A   1      33.843  25.049  23.438  1.00  0.00     0.066 A 
ATOM     83  O   UNL A   1      33.351  23.614  21.787  1.00  0.00    -0.462 OA
ATOM     84  C   UNL A   1      33.831  23.721  23.062  1.00  0.00     0.153 A 
BRANCH  84  85
ATOM     85  C   UNL A   1      34.290  22.578  23.898  1.00  0.00     0.117 A 
ATOM     86  C   UNL A   1      35.327  22.687  24.798  1.00  0.00     0.099 A 
ATOM     87  N   UNL A   1      33.696  21.331  23.820  1.00  0.00    -0.231 NA
ATOM     88  S   UNL A   1      35.539  21.198  25.617  1.00  0.00    -0.120 S 
ATOM     89  C   UNL A   1      34.258  20.507  24.687  1.00  0.00     0.142 A 
BRANCH  89  90
ATOM     90  C   UNL A   1      33.888  19.090  24.848  1.00  0.00     0.099 A 
ATOM     91  C   UNL A   1      34.710  18.085  24.337  1.00  0.00     0.033 A 
ATOM     92  N   UNL A   1      32.725  18.819  25.495  1.00  0.00    -0.252 NA
ATOM     93  C   UNL A   1      34.336  16.752  24.501  1.00  0.00     0.024 A 
ATOM     94  C   UNL A   1      32.380  17.513  25.628  1.00  0.00     0.132 A 
ATOM     95  C   UNL A   1      33.147  16.460  25.156  1.00  0.00     0.059 A 
ATOM     96  Cl  UNL A   1      32.643  14.834  25.374  1.00  0.00    -0.083 Cl
ENDBRANCH  89  90
ENDBRANCH  84  85
ENDBRANCH  77  80
ENDBRANCH  75  76
ENDBRANCH  74  75
ENDBRANCH  73  74
ENDBRANCH   1  73
TORSDOF 15
ENDMDL
MODEL 3
REMARK VINA RESULT:     -12.2      0.810      2.135
REMARK SMILES O=C(NCCCCCCNC(=O)c1coc(-c2csc(-c3ccc(Cl)cn3)n2)c1)c1ccc(-c2c3nc(c(-c4c(F)c(F)c(F)c(F)c4F)c4ccc([nH]4)c(-c4c(F)c(F)c(F)c(F)c4F)c4nc(c(-c5c(F)c(F)c(F)c(F)c5F)c5ccc2[nH]5)C=C4)C=C3)cc1
REMARK SMILES IDX 6 1 5 2 4 3 3 4 1 5 2 6 30 8 31 9 92 10 32 11 91 12 33 13
REMARK SMILES IDX 34 14 35 15 85 16 36 17 90 18 84 19 86 20 37 21 89 22 83 23
REMARK SMILES IDX 82 24 38 26 70 27 50 28 69 29 51 30 54 31 68 32 87 33 52 34
REMARK SMILES IDX 53 35 67 37 88 38 55 39 39 40 40 41 48 42 41 43 42 44 46 45
REMARK SMILES IDX 49 46 43 47 44 48 47 49 45 50 71 51 72 52 80 53 73 54 74 55
REMARK SMILES IDX 78 56 81 57 75 58 76 59 79 60 77 61 56 62 57 63 65 64 58 65
REMARK SMILES IDX 59 66 63 67 66 68 60 69 61 70 64 71 62 72 7 73 8 74 9 75
REMARK SMILES IDX 10 76 11 77 12 79 13 80 14 81 29 82 15 83 16 84 17 85 18 86
REMARK SMILES IDX 28 87 19 88 20 89 21 90 22 91 27 92 23 93 26 94 24 95 25 96
REMARK H PARENT 3 7 86 25 54 36 10 78
REMARK Flexibility Score: inf
ROOT
ATOM      1  C   UNL A   1      33.177  26.946  26.093  1.00  0.00     0.002 C 
ENDROOT
BRANCH   1   2
ATOM      2  C   UNL A   1      32.707  28.130  25.238  1.00  0.00     0.021 C 
BRANCH   2   3
ATOM      3  C   UNL A   1      33.655  29.329  25.194  1.00  0.00     0.116 C 
BRANCH   3   4
ATOM      4  N   UNL A   1      33.080  30.515  25.801  1.00  0.00    -0.352 N 
ATOM      5  O   UNL A   1      32.777  32.120  27.349  1.00  0.00    -0.269 OA
ATOM      6  C   UNL A   1      33.475  31.207  26.916  1.00  0.00     0.251 C 
ATOM      7  H   UNL A   1      32.286  30.878  25.342  1.00  0.00     0.163 HD
BRANCH   6   8
ATOM      8  C   UNL A   1      34.725  30.852  27.625  1.00  0.00     0.039 A 
ATOM      9  C   UNL A   1      35.827  31.712  27.639  1.00  0.00     0.014 A 
ATOM     10  C   UNL A   1      34.755  29.661  28.360  1.00  0.00     0.014 A 
ATOM     11  C   UNL A   1      36.979  31.355  28.345  1.00  0.00     0.010 A 
ATOM     12  C   UNL A   1      35.902  29.310  29.075  1.00  0.00     0.010 A 
ATOM     13  C   UNL A   1      37.025  30.149  29.061  1.00  0.00    -0.014 A 
BRANCH  13  14
ATOM     14  C   UNL A   1      38.243  29.780  29.818  1.00  0.00     0.031 A 
ATOM     15  C   UNL A   1      38.474  30.324  31.195  1.00  0.00     0.074 A 
ATOM     16  C   UNL A   1      39.144  28.954  29.259  1.00  0.00     0.049 A 
ATOM     17  N   UNL A   1      39.466  30.091  32.017  1.00  0.00    -0.248 NA
ATOM     18  C   UNL A   1      37.461  31.252  31.718  1.00  0.00     0.031 C 
ATOM     19  C   UNL A   1      39.041  28.373  27.921  1.00  0.00     0.029 A 
ATOM     20  N   UNL A   1      40.326  28.462  29.752  1.00  0.00    -0.354 N 
ATOM     21  C   UNL A   1      39.203  30.845  33.149  1.00  0.00     0.074 A 
ATOM     22  C   UNL A   1      37.958  31.547  32.913  1.00  0.00     0.031 C 
ATOM     23  C   UNL A   1      40.113  27.592  27.702  1.00  0.00     0.029 A 
ATOM     24  C   UNL A   1      40.974  27.625  28.881  1.00  0.00     0.049 A 
ATOM     25  H   UNL A   1      40.673  28.688  30.645  1.00  0.00     0.167 HD
ATOM     26  C   UNL A   1      39.930  30.939  34.287  1.00  0.00     0.037 A 
ATOM     27  C   UNL A   1      42.133  26.957  29.022  1.00  0.00     0.037 A 
ATOM     28  C   UNL A   1      41.158  30.237  34.542  1.00  0.00     0.049 A 
ATOM     29  C   UNL A   1      42.921  27.082  30.291  1.00  0.00     0.074 A 
ATOM     30  C   UNL A   1      41.932  30.235  35.689  1.00  0.00     0.029 A 
ATOM     31  N   UNL A   1      41.793  29.411  33.628  1.00  0.00    -0.354 N 
ATOM     32  N   UNL A   1      42.642  27.769  31.369  1.00  0.00    -0.248 NA
ATOM     33  C   UNL A   1      44.187  26.337  30.360  1.00  0.00     0.031 C 
ATOM     34  C   UNL A   1      43.044  29.411  35.467  1.00  0.00     0.029 A 
ATOM     35  C   UNL A   1      42.956  28.903  34.182  1.00  0.00     0.049 A 
ATOM     36  H   UNL A   1      41.465  29.215  32.721  1.00  0.00     0.167 HD
ATOM     37  C   UNL A   1      43.691  27.541  32.246  1.00  0.00     0.074 A 
ATOM     38  C   UNL A   1      44.617  26.652  31.575  1.00  0.00     0.031 C 
ATOM     39  C   UNL A   1      43.866  28.025  33.499  1.00  0.00     0.037 A 
BRANCH  26  40
ATOM     40  C   UNL A   1      39.405  31.843  35.352  1.00  0.00     0.064 A 
ATOM     41  C   UNL A   1      38.541  31.359  36.344  1.00  0.00     0.173 A 
ATOM     42  C   UNL A   1      39.785  33.191  35.400  1.00  0.00     0.173 A 
ATOM     43  F   UNL A   1      38.142  30.078  36.324  1.00  0.00    -0.203 F 
ATOM     44  C   UNL A   1      38.073  32.198  37.351  1.00  0.00     0.198 A 
ATOM     45  C   UNL A   1      39.315  34.027  36.408  1.00  0.00     0.198 A 
ATOM     46  F   UNL A   1      40.600  33.696  34.462  1.00  0.00    -0.203 F 
ATOM     47  F   UNL A   1      37.238  31.721  38.284  1.00  0.00    -0.200 F 
ATOM     48  C   UNL A   1      38.462  33.529  37.383  1.00  0.00     0.200 A 
ATOM     49  F   UNL A   1      39.681  35.315  36.434  1.00  0.00    -0.200 F 
ATOM     50  F   UNL A   1      38.005  34.337  38.350  1.00  0.00    -0.200 F 
ENDBRANCH  26  40
BRANCH  27  51
ATOM     51  C   UNL A   1      42.611  26.096  27.919  1.00  0.00     0.064 A 
ATOM     52  C   UNL A   1      43.478  26.602  26.943  1.00  0.00     0.173 A 
ATOM     53  C   UNL A   1      42.223  24.754  27.833  1.00  0.00     0.173 A 
ATOM     54  F   UNL A   1      43.859  27.886  26.985  1.00  0.00    -0.203 F 
ATOM     55  C   UNL A   1      43.945  25.788  25.914  1.00  0.00     0.198 A 
ATOM     56  C   UNL A   1      42.691  23.941  26.804  1.00  0.00     0.198 A 
ATOM     57  F   UNL A   1      41.385  24.239  28.744  1.00  0.00    -0.203 F 
ATOM     58  F   UNL A   1      44.768  26.291  24.985  1.00  0.00    -0.200 F 
ATOM     59  C   UNL A   1      43.553  24.459  25.847  1.00  0.00     0.200 A 
ATOM     60  F   UNL A   1      42.305  22.660  26.736  1.00  0.00    -0.200 F 
ATOM     61  F   UNL A   1      44.000  23.677  24.855  1.00  0.00    -0.200 F 
ENDBRANCH  27  51
BRANCH  39  62
ATOM     62  C   UNL A   1      45.104  27.602  34.220  1.00  0.00     0.064 A 
ATOM     63  C   UNL A   1      46.276  28.366  34.143  1.00  0.00     0.173 A 
ATOM     64  C   UNL A   1      45.111  26.449  35.016  1.00  0.00     0.173 A 
ATOM     65  F   UNL A   1      46.312  29.471  33.383  1.00  0.00    -0.203 F 
ATOM     66  C   UNL A   1      47.419  27.986  34.838  1.00  0.00     0.198 A 
ATOM     67  C   UNL A   1      46.256  26.072  35.711  1.00  0.00     0.198 A 
ATOM     68  F   UNL A   1      44.011  25.687  35.109  1.00  0.00    -0.203 F 
ATOM     69  F   UNL A   1      48.535  28.722  34.744  1.00  0.00    -0.200 F 
ATOM     70  C   UNL A   1      47.408  26.841  35.622  1.00  0.00     0.200 A 
ATOM     71  F   UNL A   1      46.248  24.963  36.463  1.00  0.00    -0.200 F 
ATOM     72  F   UNL A   1      48.512  26.473  36.287  1.00  0.00    -0.200 F 
ENDBRANCH  39  62
ENDBRANCH  13  14
ENDBRANCH   6   8
ENDBRANCH   3   4
ENDBRANCH   2   3
ENDBRANCH   1   2
BRANCH   1  73
ATOM     73  C   UNL A   1      32.078  25.989  26.565  1.00  0.00     0.002 C 
BRANCH  73  74
ATOM     74  C   UNL A   1      30.653  26.346  26.121  1.00  0.00     0.021 C 
BRANCH  74  75
ATOM     75  C   UNL A   1      30.041  25.391  25.092  1.00  0.00     0.116 C 
BRANCH  75  76
ATOM     76  N   UNL A   1      29.942  26.012  23.784  1.00  0.00    -0.352 N 
ATOM     77  C   UNL A   1      30.903  26.150  22.816  1.00  0.00     0.254 C 
ATOM     78  H   UNL A   1      29.060  26.388  23.560  1.00  0.00     0.163 HD
ATOM     79  O   UNL A   1      30.745  26.989  21.933  1.00  0.00    -0.269 OA
BRANCH  77  80
ATOM     80  C   UNL A   1      32.074  25.306  22.861  1.00  0.00     0.078 A 
ATOM     81  C   UNL A   1      33.304  25.584  22.300  1.00  0.00     0.209 A 
ATOM     82  C   UNL A   1      32.258  24.091  23.580  1.00  0.00     0.066 A 
ATOM     83  O   UNL A   1      34.206  24.617  22.602  1.00  0.00    -0.462 OA
ATOM     84  C   UNL A   1      33.567  23.698  23.386  1.00  0.00     0.153 A 
BRANCH  84  85
ATOM     85  C   UNL A   1      34.200  22.479  23.958  1.00  0.00     0.117 A 
ATOM     86  C   UNL A   1      35.476  22.479  24.477  1.00  0.00     0.099 A 
ATOM     87  N   UNL A   1      33.539  21.264  24.002  1.00  0.00    -0.231 NA
ATOM     88  S   UNL A   1      35.850  20.925  25.091  1.00  0.00    -0.120 S 
ATOM     89  C   UNL A   1      34.299  20.356  24.589  1.00  0.00     0.142 A 
BRANCH  89  90
ATOM     90  C   UNL A   1      33.916  18.946  24.776  1.00  0.00     0.099 A 
ATOM     91  C   UNL A   1      34.707  17.925  24.250  1.00  0.00     0.033 A 
ATOM     92  N   UNL A   1      32.770  18.697  25.463  1.00  0.00    -0.252 NA
ATOM     93  C   UNL A   1      34.321  16.599  24.440  1.00  0.00     0.024 A 
ATOM     94  C   UNL A   1      32.412  17.398  25.620  1.00  0.00     0.132 A 
ATOM     95  C   UNL A   1      33.150  16.329  25.135  1.00  0.00     0.059 A 
ATOM     96  Cl  UNL A   1      32.632  14.713  25.386  1.00  0.00    -0.083 Cl
ENDBRANCH  89  90
ENDBRANCH  84  85
ENDBRANCH  77  80
ENDBRANCH  75  76
ENDBRANCH  74  75
ENDBRANCH  73  74
ENDBRANCH   1  73
TORSDOF 15
ENDMDL
