MODEL 1
REMARK VINA RESULT:     -11.2      0.000      0.000
REMARK SMILES CC[NH+](CC)[C@](C)(C(=O)NCCCCCCNC(=O)c1ccc(-c2c3nc(c(-c4c(F)c(F)c(F)c(F)c4F)c4ccc([nH]4)c(-c4c(F)c(F)c(F)c(F)c4F)c4nc(c(-c5c(F)c(F)c(F)c(F)c5F)c5ccc2[nH]5)C=C4)C=C3)cc1)c1cc(F)c(C)cc1F
REMARK SMILES IDX 13 1 12 2 11 3 10 4 8 5 9 6 6 8 7 9 3 10 2 12 1 13 4 14 5 15
REMARK SMILES IDX 83 16 84 17 90 18 85 19 89 20 91 21 86 22 87 23 88 24 14 25
REMARK SMILES IDX 15 26 16 27 17 28 18 29 19 31 20 32 21 33 82 34 22 35 81 36
REMARK SMILES IDX 23 37 24 38 25 39 75 40 26 41 80 42 74 43 76 44 27 45 79 46
REMARK SMILES IDX 73 47 72 48 28 50 60 51 40 52 59 53 41 54 44 55 58 56 77 57
REMARK SMILES IDX 42 58 43 59 57 61 78 62 45 63 29 64 30 65 38 66 31 67 32 68
REMARK SMILES IDX 36 69 39 70 33 71 34 72 37 73 35 74 61 75 62 76 70 77 63 78
REMARK SMILES IDX 64 79 68 80 71 81 65 82 66 83 69 84 67 85 46 86 47 87 55 88
REMARK SMILES IDX 48 89 49 90 53 91 56 92 50 93 51 94 54 95 52 96
REMARK H PARENT 10 7 3 11 17 30 76 49 44 60
REMARK Flexibility Score: inf
ROOT
ATOM      1  C   UNL A   1      31.952  29.829  26.979  1.00  0.00     0.002 C 
ENDROOT
BRANCH   1   2
ATOM      2  C   UNL A   1      33.447  29.507  27.044  1.00  0.00     0.021 C 
BRANCH   2   3
ATOM      3  C   UNL A   1      33.801  28.069  26.700  1.00  0.00     0.116 C 
BRANCH   3   4
ATOM      4  N   UNL A   1      32.670  27.169  26.676  1.00  0.00    -0.350 N 
ATOM      5  C   UNL A   1      32.149  26.416  25.651  1.00  0.00     0.286 C 
ATOM      6  O   UNL A   1      31.482  25.439  26.019  1.00  0.00    -0.267 OA
ATOM      7  H   UNL A   1      32.196  27.080  27.534  1.00  0.00     0.163 HD
BRANCH   5   8
ATOM      8  C   UNL A   1      32.373  26.751  24.110  1.00  0.00     0.202 C 
ATOM      9  C   UNL A   1      33.490  27.824  23.935  1.00  0.00     0.096 C 
BRANCH   8  10
ATOM     10  N   UNL A   1      32.614  25.497  23.257  1.00  0.00    -0.319 N 
ATOM     11  H   UNL A   1      31.658  25.185  23.090  1.00  0.00     0.349 HD
BRANCH  10  12
ATOM     12  C   UNL A   1      33.271  24.340  23.891  1.00  0.00     0.259 C 
ATOM     13  C   UNL A   1      34.633  23.905  23.352  1.00  0.00     0.071 C 
ENDBRANCH  10  12
BRANCH  10  14
ATOM     14  C   UNL A   1      33.328  25.822  21.991  1.00  0.00     0.259 C 
ATOM     15  C   UNL A   1      32.510  25.567  20.723  1.00  0.00     0.071 C 
ENDBRANCH  10  14
ENDBRANCH   8  10
BRANCH   8  16
ATOM     16  C   UNL A   1      31.072  27.504  23.634  1.00  0.00     0.060 A 
ATOM     17  C   UNL A   1      31.011  28.895  23.434  1.00  0.00     0.053 A 
ATOM     18  C   UNL A   1      29.862  26.793  23.495  1.00  0.00     0.133 A 
ATOM     19  C   UNL A   1      29.785  29.538  23.254  1.00  0.00     0.126 A 
ATOM     20  C   UNL A   1      28.640  27.434  23.278  1.00  0.00     0.046 A 
ATOM     21  F   UNL A   1      29.844  25.459  23.637  1.00  0.00    -0.206 F 
ATOM     22  F   UNL A   1      29.763  30.877  23.189  1.00  0.00    -0.207 F 
ATOM     23  C   UNL A   1      28.586  28.826  23.195  1.00  0.00    -0.012 A 
ATOM     24  C   UNL A   1      27.277  29.549  23.129  1.00  0.00     0.047 C 
ENDBRANCH   8  16
ENDBRANCH   5   8
ENDBRANCH   3   4
ENDBRANCH   2   3
ENDBRANCH   1   2
BRANCH   1  25
ATOM     25  C   UNL A   1      31.553  31.033  26.114  1.00  0.00     0.002 C 
BRANCH  25  26
ATOM     26  C   UNL A   1      31.389  32.367  26.845  1.00  0.00     0.021 C 
BRANCH  26  27
ATOM     27  C   UNL A   1      32.678  33.135  27.102  1.00  0.00     0.116 C 
BRANCH  27  28
ATOM     28  N   UNL A   1      32.448  34.452  27.662  1.00  0.00    -0.352 N 
ATOM     29  C   UNL A   1      33.036  35.047  28.751  1.00  0.00     0.251 C 
ATOM     30  H   UNL A   1      31.775  34.998  27.195  1.00  0.00     0.163 HD
ATOM     31  O   UNL A   1      32.627  36.127  29.159  1.00  0.00    -0.269 OA
BRANCH  29  32
ATOM     32  C   UNL A   1      34.150  34.368  29.449  1.00  0.00     0.039 A 
ATOM     33  C   UNL A   1      35.454  34.589  28.998  1.00  0.00     0.014 A 
ATOM     34  C   UNL A   1      33.916  33.509  30.525  1.00  0.00     0.014 A 
ATOM     35  C   UNL A   1      36.525  33.978  29.651  1.00  0.00     0.010 A 
ATOM     36  C   UNL A   1      34.989  32.969  31.228  1.00  0.00     0.010 A 
ATOM     37  C   UNL A   1      36.304  33.180  30.786  1.00  0.00    -0.014 A 
BRANCH  37  38
ATOM     38  C   UNL A   1      37.431  32.521  31.492  1.00  0.00     0.031 A 
ATOM     39  C   UNL A   1      38.151  31.370  30.841  1.00  0.00     0.074 A 
ATOM     40  C   UNL A   1      37.783  32.927  32.727  1.00  0.00     0.049 A 
ATOM     41  N   UNL A   1      39.120  30.625  31.309  1.00  0.00    -0.248 NA
ATOM     42  C   UNL A   1      37.702  30.988  29.492  1.00  0.00     0.031 C 
ATOM     43  C   UNL A   1      37.140  34.007  33.477  1.00  0.00     0.029 A 
ATOM     44  N   UNL A   1      38.767  32.476  33.571  1.00  0.00    -0.354 N 
ATOM     45  C   UNL A   1      39.387  29.687  30.319  1.00  0.00     0.074 A 
ATOM     46  C   UNL A   1      38.433  29.909  29.256  1.00  0.00     0.031 C 
ATOM     47  C   UNL A   1      37.764  34.154  34.657  1.00  0.00     0.029 A 
ATOM     48  C   UNL A   1      38.823  33.155  34.764  1.00  0.00     0.049 A 
ATOM     49  H   UNL A   1      39.374  31.737  33.343  1.00  0.00     0.167 HD
ATOM     50  C   UNL A   1      40.360  28.746  30.286  1.00  0.00     0.037 A 
ATOM     51  C   UNL A   1      39.634  32.983  35.825  1.00  0.00     0.037 A 
ATOM     52  C   UNL A   1      41.321  28.541  31.338  1.00  0.00     0.049 A 
ATOM     53  C   UNL A   1      40.690  31.910  35.773  1.00  0.00     0.074 A 
ATOM     54  C   UNL A   1      42.368  27.638  31.388  1.00  0.00     0.029 A 
ATOM     55  N   UNL A   1      41.351  29.255  32.528  1.00  0.00    -0.354 N 
ATOM     56  N   UNL A   1      40.970  31.066  34.809  1.00  0.00    -0.248 NA
ATOM     57  C   UNL A   1      41.553  31.773  36.954  1.00  0.00     0.031 C 
ATOM     58  C   UNL A   1      43.000  27.769  32.629  1.00  0.00     0.029 A 
ATOM     59  C   UNL A   1      42.388  28.799  33.325  1.00  0.00     0.049 A 
ATOM     60  H   UNL A   1      40.727  29.978  32.769  1.00  0.00     0.167 HD
ATOM     61  C   UNL A   1      42.063  30.332  35.248  1.00  0.00     0.074 A 
ATOM     62  C   UNL A   1      42.403  30.838  36.561  1.00  0.00     0.031 C 
ATOM     63  C   UNL A   1      42.728  29.331  34.621  1.00  0.00     0.037 A 
BRANCH  50  64
ATOM     64  C   UNL A   1      40.438  27.870  29.068  1.00  0.00     0.064 A 
ATOM     65  C   UNL A   1      41.267  28.192  27.981  1.00  0.00     0.173 A 
ATOM     66  C   UNL A   1      39.706  26.675  28.999  1.00  0.00     0.173 A 
ATOM     67  F   UNL A   1      41.980  29.328  27.989  1.00  0.00    -0.203 F 
ATOM     68  C   UNL A   1      41.333  27.368  26.860  1.00  0.00     0.198 A 
ATOM     69  C   UNL A   1      39.802  25.837  27.891  1.00  0.00     0.198 A 
ATOM     70  F   UNL A   1      38.902  26.315  30.011  1.00  0.00    -0.203 F 
ATOM     71  F   UNL A   1      42.089  27.726  25.813  1.00  0.00    -0.200 F 
ATOM     72  C   UNL A   1      40.609  26.188  26.819  1.00  0.00     0.200 A 
ATOM     73  F   UNL A   1      39.112  24.688  27.860  1.00  0.00    -0.200 F 
ATOM     74  F   UNL A   1      40.682  25.391  25.744  1.00  0.00    -0.200 F 
ENDBRANCH  50  64
BRANCH  51  75
ATOM     75  C   UNL A   1      39.505  33.862  37.020  1.00  0.00     0.064 A 
ATOM     76  C   UNL A   1      40.222  35.063  37.112  1.00  0.00     0.173 A 
ATOM     77  C   UNL A   1      38.690  33.505  38.104  1.00  0.00     0.173 A 
ATOM     78  F   UNL A   1      41.031  35.439  36.109  1.00  0.00    -0.203 F 
ATOM     79  C   UNL A   1      40.157  35.856  38.256  1.00  0.00     0.198 A 
ATOM     80  C   UNL A   1      38.599  34.317  39.234  1.00  0.00     0.198 A 
ATOM     81  F   UNL A   1      37.977  32.371  38.065  1.00  0.00    -0.203 F 
ATOM     82  F   UNL A   1      40.903  36.966  38.342  1.00  0.00    -0.200 F 
ATOM     83  C   UNL A   1      39.343  35.484  39.314  1.00  0.00     0.200 A 
ATOM     84  F   UNL A   1      37.797  33.963  40.247  1.00  0.00    -0.200 F 
ATOM     85  F   UNL A   1      39.283  36.245  40.416  1.00  0.00    -0.200 F 
ENDBRANCH  51  75
BRANCH  63  86
ATOM     86  C   UNL A   1      43.932  28.758  35.314  1.00  0.00     0.064 A 
ATOM     87  C   UNL A   1      43.839  27.657  36.179  1.00  0.00     0.173 A 
ATOM     88  C   UNL A   1      45.205  29.302  35.079  1.00  0.00     0.173 A 
ATOM     89  F   UNL A   1      42.645  27.108  36.448  1.00  0.00    -0.203 F 
ATOM     90  C   UNL A   1      44.972  27.144  36.807  1.00  0.00     0.198 A 
ATOM     91  C   UNL A   1      46.338  28.763  35.680  1.00  0.00     0.198 A 
ATOM     92  F   UNL A   1      45.351  30.349  34.254  1.00  0.00    -0.203 F 
ATOM     93  F   UNL A   1      44.851  26.129  37.673  1.00  0.00    -0.200 F 
ATOM     94  C   UNL A   1      46.220  27.691  36.551  1.00  0.00     0.200 A 
ATOM     95  F   UNL A   1      47.546  29.282  35.416  1.00  0.00    -0.200 F 
ATOM     96  F   UNL A   1      47.309  27.190  37.149  1.00  0.00    -0.200 F 
ENDBRANCH  63  86
ENDBRANCH  37  38
ENDBRANCH  29  32
ENDBRANCH  27  28
ENDBRANCH  26  27
ENDBRANCH  25  26
ENDBRANCH   1  25
TORSDOF 17
ENDMDL
MODEL 2
REMARK VINA RESULT:     -11.1      1.219      7.346
REMARK SMILES CC[NH+](CC)[C@](C)(C(=O)NCCCCCCNC(=O)c1ccc(-c2c3nc(c(-c4c(F)c(F)c(F)c(F)c4F)c4ccc([nH]4)c(-c4c(F)c(F)c(F)c(F)c4F)c4nc(c(-c5c(F)c(F)c(F)c(F)c5F)c5ccc2[nH]5)C=C4)C=C3)cc1)c1cc(F)c(C)cc1F
REMARK SMILES IDX 13 1 12 2 11 3 10 4 8 5 9 6 6 8 7 9 3 10 2 12 1 13 4 14 5 15
REMARK SMILES IDX 83 16 84 17 90 18 85 19 89 20 91 21 86 22 87 23 88 24 14 25
REMARK SMILES IDX 15 26 16 27 17 28 18 29 19 31 20 32 21 33 82 34 22 35 81 36
REMARK SMILES IDX 23 37 24 38 25 39 75 40 26 41 80 42 74 43 76 44 27 45 79 46
REMARK SMILES IDX 73 47 72 48 28 50 60 51 40 52 59 53 41 54 44 55 58 56 77 57
REMARK SMILES IDX 42 58 43 59 57 61 78 62 45 63 29 64 30 65 38 66 31 67 32 68
REMARK SMILES IDX 36 69 39 70 33 71 34 72 37 73 35 74 61 75 62 76 70 77 63 78
REMARK SMILES IDX 64 79 68 80 71 81 65 82 66 83 69 84 67 85 46 86 47 87 55 88
REMARK SMILES IDX 48 89 49 90 53 91 56 92 50 93 51 94 54 95 52 96
REMARK H PARENT 10 7 3 11 17 30 76 49 44 60
REMARK Flexibility Score: inf
ROOT
ATOM      1  C   UNL A   1      33.863  31.368  27.663  1.00  0.00     0.002 C 
ENDROOT
BRANCH   1   2
ATOM      2  C   UNL A   1      34.982  30.325  27.708  1.00  0.00     0.021 C 
BRANCH   2   3
ATOM      3  C   UNL A   1      34.570  28.934  27.253  1.00  0.00     0.116 C 
BRANCH   3   4
ATOM      4  N   UNL A   1      33.158  28.658  27.391  1.00  0.00    -0.350 N 
ATOM      5  C   UNL A   1      32.313  27.909  26.609  1.00  0.00     0.286 C 
ATOM      6  O   UNL A   1      31.299  27.500  27.191  1.00  0.00    -0.267 OA
ATOM      7  H   UNL A   1      32.731  29.075  28.175  1.00  0.00     0.163 HD
BRANCH   5   8
ATOM      8  C   UNL A   1      32.594  27.578  25.076  1.00  0.00     0.202 C 
ATOM      9  C   UNL A   1      33.638  28.570  24.479  1.00  0.00     0.096 C 
BRANCH   8  10
ATOM     10  N   UNL A   1      32.970  26.108  24.843  1.00  0.00    -0.319 N 
ATOM     11  H   UNL A   1      32.051  25.686  24.717  1.00  0.00     0.349 HD
BRANCH  10  12
ATOM     12  C   UNL A   1      33.567  25.357  25.963  1.00  0.00     0.259 C 
ATOM     13  C   UNL A   1      33.226  23.874  26.094  1.00  0.00     0.071 C 
ENDBRANCH  10  12
BRANCH  10  14
ATOM     14  C   UNL A   1      33.833  25.945  23.639  1.00  0.00     0.259 C 
ATOM     15  C   UNL A   1      33.212  25.096  22.529  1.00  0.00     0.071 C 
ENDBRANCH  10  14
ENDBRANCH   8  10
BRANCH   8  16
ATOM     16  C   UNL A   1      31.269  27.941  24.301  1.00  0.00     0.060 A 
ATOM     17  C   UNL A   1      30.949  29.245  23.882  1.00  0.00     0.053 A 
ATOM     18  C   UNL A   1      30.284  26.952  24.096  1.00  0.00     0.133 A 
ATOM     19  C   UNL A   1      29.667  29.554  23.425  1.00  0.00     0.126 A 
ATOM     20  C   UNL A   1      29.013  27.256  23.605  1.00  0.00     0.046 A 
ATOM     21  F   UNL A   1      30.527  25.678  24.439  1.00  0.00    -0.206 F 
ATOM     22  F   UNL A   1      29.371  30.832  23.151  1.00  0.00    -0.207 F 
ATOM     23  C   UNL A   1      28.678  28.576  23.300  1.00  0.00    -0.012 A 
ATOM     24  C   UNL A   1      27.278  28.956  22.930  1.00  0.00     0.047 C 
ENDBRANCH   8  16
ENDBRANCH   5   8
ENDBRANCH   3   4
ENDBRANCH   2   3
ENDBRANCH   1   2
BRANCH   1  25
ATOM     25  C   UNL A   1      34.240  32.787  28.110  1.00  0.00     0.002 C 
BRANCH  25  26
ATOM     26  C   UNL A   1      33.159  33.859  27.947  1.00  0.00     0.021 C 
BRANCH  26  27
ATOM     27  C   UNL A   1      33.535  35.248  28.443  1.00  0.00     0.116 C 
BRANCH  27  28
ATOM     28  N   UNL A   1      32.776  35.656  29.608  1.00  0.00    -0.352 N 
ATOM     29  C   UNL A   1      32.967  35.328  30.927  1.00  0.00     0.251 C 
ATOM     30  H   UNL A   1      32.015  36.254  29.428  1.00  0.00     0.163 HD
ATOM     31  O   UNL A   1      32.147  35.666  31.772  1.00  0.00    -0.269 OA
BRANCH  29  32
ATOM     32  C   UNL A   1      34.154  34.540  31.326  1.00  0.00     0.039 A 
ATOM     33  C   UNL A   1      35.415  34.981  30.920  1.00  0.00     0.014 A 
ATOM     34  C   UNL A   1      34.029  33.368  32.076  1.00  0.00     0.014 A 
ATOM     35  C   UNL A   1      36.554  34.269  31.300  1.00  0.00     0.010 A 
ATOM     36  C   UNL A   1      35.168  32.707  32.526  1.00  0.00     0.010 A 
ATOM     37  C   UNL A   1      36.442  33.138  32.125  1.00  0.00    -0.014 A 
BRANCH  37  38
ATOM     38  C   UNL A   1      37.642  32.366  32.536  1.00  0.00     0.031 A 
ATOM     39  C   UNL A   1      38.304  32.659  33.856  1.00  0.00     0.074 A 
ATOM     40  C   UNL A   1      38.158  31.434  31.712  1.00  0.00     0.049 A 
ATOM     41  N   UNL A   1      39.388  32.140  34.375  1.00  0.00    -0.248 NA
ATOM     42  C   UNL A   1      37.678  33.695  34.693  1.00  0.00     0.031 C 
ATOM     43  C   UNL A   1      37.628  31.083  30.394  1.00  0.00     0.029 A 
ATOM     44  N   UNL A   1      39.247  30.612  31.862  1.00  0.00    -0.354 N 
ATOM     45  C   UNL A   1      39.574  32.791  35.588  1.00  0.00     0.074 A 
ATOM     46  C   UNL A   1      38.535  33.791  35.697  1.00  0.00     0.031 C 
ATOM     47  C   UNL A   1      38.375  30.099  29.868  1.00  0.00     0.029 A 
ATOM     48  C   UNL A   1      39.459  29.778  30.792  1.00  0.00     0.049 A 
ATOM     49  H   UNL A   1      39.822  30.620  32.661  1.00  0.00     0.167 HD
ATOM     50  C   UNL A   1      40.509  32.555  36.539  1.00  0.00     0.037 A 
ATOM     51  C   UNL A   1      40.423  28.861  30.580  1.00  0.00     0.037 A 
ATOM     52  C   UNL A   1      41.529  31.545  36.436  1.00  0.00     0.049 A 
ATOM     53  C   UNL A   1      41.466  28.639  31.644  1.00  0.00     0.074 A 
ATOM     54  C   UNL A   1      42.502  31.202  37.357  1.00  0.00     0.029 A 
ATOM     55  N   UNL A   1      41.705  30.713  35.339  1.00  0.00    -0.354 N 
ATOM     56  N   UNL A   1      41.600  29.220  32.811  1.00  0.00    -0.248 NA
ATOM     57  C   UNL A   1      42.489  27.621  31.364  1.00  0.00     0.031 C 
ATOM     58  C   UNL A   1      43.299  30.198  36.799  1.00  0.00     0.029 A 
ATOM     59  C   UNL A   1      42.783  29.870  35.556  1.00  0.00     0.049 A 
ATOM     60  H   UNL A   1      41.147  30.721  34.528  1.00  0.00     0.167 HD
ATOM     61  C   UNL A   1      42.688  28.611  33.421  1.00  0.00     0.074 A 
ATOM     62  C   UNL A   1      43.173  27.606  32.497  1.00  0.00     0.031 C 
ATOM     63  C   UNL A   1      43.238  28.858  34.635  1.00  0.00     0.037 A 
BRANCH  50  64
ATOM     64  C   UNL A   1      40.465  33.400  37.781  1.00  0.00     0.064 A 
ATOM     65  C   UNL A   1      41.353  34.470  37.975  1.00  0.00     0.173 A 
ATOM     66  C   UNL A   1      39.502  33.163  38.773  1.00  0.00     0.173 A 
ATOM     67  F   UNL A   1      42.303  34.734  37.064  1.00  0.00    -0.203 F 
ATOM     68  C   UNL A   1      41.299  35.249  39.129  1.00  0.00     0.198 A 
ATOM     69  C   UNL A   1      39.428  33.966  39.909  1.00  0.00     0.198 A 
ATOM     70  F   UNL A   1      38.624  32.158  38.638  1.00  0.00    -0.203 F 
ATOM     71  F   UNL A   1      42.194  36.229  39.315  1.00  0.00    -0.200 F 
ATOM     72  C   UNL A   1      40.331  35.002  40.090  1.00  0.00     0.200 A 
ATOM     73  F   UNL A   1      38.482  33.736  40.830  1.00  0.00    -0.200 F 
ATOM     74  F   UNL A   1      40.274  35.759  41.194  1.00  0.00    -0.200 F 
ENDBRANCH  50  64
BRANCH  51  75
ATOM     75  C   UNL A   1      40.438  28.062  29.325  1.00  0.00     0.064 A 
ATOM     76  C   UNL A   1      41.197  28.471  28.219  1.00  0.00     0.173 A 
ATOM     77  C   UNL A   1      39.673  26.894  29.192  1.00  0.00     0.173 A 
ATOM     78  F   UNL A   1      41.931  29.593  28.289  1.00  0.00    -0.203 F 
ATOM     79  C   UNL A   1      41.163  27.764  27.019  1.00  0.00     0.198 A 
ATOM     80  C   UNL A   1      39.667  26.169  28.002  1.00  0.00     0.198 A 
ATOM     81  F   UNL A   1      38.935  26.454  30.221  1.00  0.00    -0.203 F 
ATOM     82  F   UNL A   1      41.848  28.216  25.959  1.00  0.00    -0.200 F 
ATOM     83  C   UNL A   1      40.402  26.612  26.913  1.00  0.00     0.200 A 
ATOM     84  F   UNL A   1      38.943  25.045  27.909  1.00  0.00    -0.200 F 
ATOM     85  F   UNL A   1      40.365  25.934  25.757  1.00  0.00    -0.200 F 
ENDBRANCH  51  75
BRANCH  63  86
ATOM     86  C   UNL A   1      44.382  27.987  35.068  1.00  0.00     0.064 A 
ATOM     87  C   UNL A   1      45.718  28.342  34.834  1.00  0.00     0.173 A 
ATOM     88  C   UNL A   1      44.133  26.791  35.762  1.00  0.00     0.173 A 
ATOM     89  F   UNL A   1      46.011  29.467  34.164  1.00  0.00    -0.203 F 
ATOM     90  C   UNL A   1      46.761  27.517  35.248  1.00  0.00     0.198 A 
ATOM     91  C   UNL A   1      45.180  25.989  36.207  1.00  0.00     0.198 A 
ATOM     92  F   UNL A   1      42.875  26.409  36.022  1.00  0.00    -0.203 F 
ATOM     93  F   UNL A   1      48.028  27.849  34.962  1.00  0.00    -0.200 F 
ATOM     94  C   UNL A   1      46.492  26.346  35.941  1.00  0.00     0.200 A 
ATOM     95  F   UNL A   1      44.916  24.867  36.893  1.00  0.00    -0.200 F 
ATOM     96  F   UNL A   1      47.497  25.559  36.347  1.00  0.00    -0.200 F 
ENDBRANCH  63  86
ENDBRANCH  37  38
ENDBRANCH  29  32
ENDBRANCH  27  28
ENDBRANCH  26  27
ENDBRANCH  25  26
ENDBRANCH   1  25
TORSDOF 17
ENDMDL
MODEL 3
REMARK VINA RESULT:     -11.0      1.585      7.864
REMARK SMILES CC[NH+](CC)[C@](C)(C(=O)NCCCCCCNC(=O)c1ccc(-c2c3nc(c(-c4c(F)c(F)c(F)c(F)c4F)c4ccc([nH]4)c(-c4c(F)c(F)c(F)c(F)c4F)c4nc(c(-c5c(F)c(F)c(F)c(F)c5F)c5ccc2[nH]5)C=C4)C=C3)cc1)c1cc(F)c(C)cc1F
REMARK SMILES IDX 13 1 12 2 11 3 10 4 8 5 9 6 6 8 7 9 3 10 2 12 1 13 4 14 5 15
REMARK SMILES IDX 83 16 84 17 90 18 85 19 89 20 91 21 86 22 87 23 88 24 14 25
REMARK SMILES IDX 15 26 16 27 17 28 18 29 19 31 20 32 21 33 82 34 22 35 81 36
REMARK SMILES IDX 23 37 24 38 25 39 75 40 26 41 80 42 74 43 76 44 27 45 79 46
REMARK SMILES IDX 73 47 72 48 28 50 60 51 40 52 59 53 41 54 44 55 58 56 77 57
REMARK SMILES IDX 42 58 43 59 57 61 78 62 45 63 29 64 30 65 38 66 31 67 32 68
REMARK SMILES IDX 36 69 39 70 33 71 34 72 37 73 35 74 61 75 62 76 70 77 63 78
REMARK SMILES IDX 64 79 68 80 71 81 65 82 66 83 69 84 67 85 46 86 47 87 55 88
REMARK SMILES IDX 48 89 49 90 53 91 56 92 50 93 51 94 54 95 52 96
REMARK H PARENT 10 7 3 11 17 30 76 49 44 60
REMARK Flexibility Score: inf
ROOT
ATOM      1  C   UNL A   1      34.578  31.855  27.962  1.00  0.00     0.002 C 
ENDROOT
BRANCH   1   2
ATOM      2  C   UNL A   1      33.282  31.408  27.281  1.00  0.00     0.021 C 
BRANCH   2   3
ATOM      3  C   UNL A   1      33.192  29.914  27.011  1.00  0.00     0.116 C 
BRANCH   3   4
ATOM      4  N   UNL A   1      33.930  29.475  25.849  1.00  0.00    -0.350 N 
ATOM      5  C   UNL A   1      33.633  28.515  24.911  1.00  0.00     0.286 C 
ATOM      6  O   UNL A   1      34.210  28.661  23.825  1.00  0.00    -0.267 OA
ATOM      7  H   UNL A   1      34.787  29.939  25.705  1.00  0.00     0.163 HD
BRANCH   5   8
ATOM      8  C   UNL A   1      32.629  27.306  25.176  1.00  0.00     0.202 C 
ATOM      9  C   UNL A   1      32.382  27.119  26.703  1.00  0.00     0.096 C 
BRANCH   8  10
ATOM     10  N   UNL A   1      31.327  27.428  24.373  1.00  0.00    -0.319 N 
ATOM     11  H   UNL A   1      31.616  27.056  23.469  1.00  0.00     0.349 HD
BRANCH  10  12
ATOM     12  C   UNL A   1      30.820  28.779  24.067  1.00  0.00     0.259 C 
ATOM     13  C   UNL A   1      30.568  29.136  22.604  1.00  0.00     0.071 C 
ENDBRANCH  10  12
BRANCH  10  14
ATOM     14  C   UNL A   1      30.228  26.628  24.983  1.00  0.00     0.259 C 
ATOM     15  C   UNL A   1      29.144  26.190  23.997  1.00  0.00     0.071 C 
ENDBRANCH  10  14
ENDBRANCH   8  10
BRANCH   8  16
ATOM     16  C   UNL A   1      33.409  25.996  24.773  1.00  0.00     0.060 A 
ATOM     17  C   UNL A   1      34.253  25.296  25.654  1.00  0.00     0.053 A 
ATOM     18  C   UNL A   1      33.365  25.536  23.441  1.00  0.00     0.133 A 
ATOM     19  C   UNL A   1      35.104  24.294  25.182  1.00  0.00     0.126 A 
ATOM     20  C   UNL A   1      34.192  24.510  22.978  1.00  0.00     0.046 A 
ATOM     21  F   UNL A   1      32.559  26.132  22.549  1.00  0.00    -0.206 F 
ATOM     22  F   UNL A   1      35.977  23.737  26.034  1.00  0.00    -0.207 F 
ATOM     23  C   UNL A   1      35.103  23.903  23.843  1.00  0.00    -0.012 A 
ATOM     24  C   UNL A   1      36.113  22.918  23.340  1.00  0.00     0.047 C 
ENDBRANCH   8  16
ENDBRANCH   5   8
ENDBRANCH   3   4
ENDBRANCH   2   3
ENDBRANCH   1   2
BRANCH   1  25
ATOM     25  C   UNL A   1      34.644  33.328  28.392  1.00  0.00     0.002 C 
BRANCH  25  26
ATOM     26  C   UNL A   1      33.311  34.079  28.445  1.00  0.00     0.021 C 
BRANCH  26  27
ATOM     27  C   UNL A   1      33.401  35.540  28.861  1.00  0.00     0.116 C 
BRANCH  27  28
ATOM     28  N   UNL A   1      32.626  35.836  30.050  1.00  0.00    -0.352 N 
ATOM     29  C   UNL A   1      32.824  35.417  31.342  1.00  0.00     0.251 C 
ATOM     30  H   UNL A   1      31.846  36.421  29.911  1.00  0.00     0.163 HD
ATOM     31  O   UNL A   1      31.991  35.665  32.205  1.00  0.00    -0.269 OA
BRANCH  29  32
ATOM     32  C   UNL A   1      34.035  34.640  31.687  1.00  0.00     0.039 A 
ATOM     33  C   UNL A   1      35.281  35.260  31.572  1.00  0.00     0.014 A 
ATOM     34  C   UNL A   1      33.949  33.309  32.103  1.00  0.00     0.014 A 
ATOM     35  C   UNL A   1      36.439  34.557  31.912  1.00  0.00     0.010 A 
ATOM     36  C   UNL A   1      35.094  32.638  32.522  1.00  0.00     0.010 A 
ATOM     37  C   UNL A   1      36.353  33.247  32.410  1.00  0.00    -0.014 A 
BRANCH  37  38
ATOM     38  C   UNL A   1      37.574  32.484  32.773  1.00  0.00     0.031 A 
ATOM     39  C   UNL A   1      38.281  32.776  34.070  1.00  0.00     0.074 A 
ATOM     40  C   UNL A   1      38.067  31.560  31.927  1.00  0.00     0.049 A 
ATOM     41  N   UNL A   1      39.388  32.263  34.545  1.00  0.00    -0.248 NA
ATOM     42  C   UNL A   1      37.678  33.803  34.935  1.00  0.00     0.031 C 
ATOM     43  C   UNL A   1      37.492  31.211  30.627  1.00  0.00     0.029 A 
ATOM     44  N   UNL A   1      39.167  30.746  32.032  1.00  0.00    -0.354 N 
ATOM     45  C   UNL A   1      39.614  32.910  35.754  1.00  0.00     0.074 A 
ATOM     46  C   UNL A   1      38.572  33.900  35.907  1.00  0.00     0.031 C 
ATOM     47  C   UNL A   1      38.227  30.235  30.069  1.00  0.00     0.029 A 
ATOM     48  C   UNL A   1      39.346  29.918  30.950  1.00  0.00     0.049 A 
ATOM     49  H   UNL A   1      39.771  30.755  32.809  1.00  0.00     0.167 HD
ATOM     50  C   UNL A   1      40.584  32.677  36.669  1.00  0.00     0.037 A 
ATOM     51  C   UNL A   1      40.309  29.011  30.699  1.00  0.00     0.037 A 
ATOM     52  C   UNL A   1      41.608  31.676  36.523  1.00  0.00     0.049 A 
ATOM     53  C   UNL A   1      41.393  28.792  31.723  1.00  0.00     0.074 A 
ATOM     54  C   UNL A   1      42.617  31.337  37.407  1.00  0.00     0.029 A 
ATOM     55  N   UNL A   1      41.751  30.851  35.416  1.00  0.00    -0.354 N 
ATOM     56  N   UNL A   1      41.565  29.369  32.887  1.00  0.00    -0.248 NA
ATOM     57  C   UNL A   1      42.412  27.784  31.400  1.00  0.00     0.031 C 
ATOM     58  C   UNL A   1      43.401  30.342  36.814  1.00  0.00     0.029 A 
ATOM     59  C   UNL A   1      42.843  30.016  35.589  1.00  0.00     0.049 A 
ATOM     60  H   UNL A   1      41.163  30.858  34.627  1.00  0.00     0.167 HD
ATOM     61  C   UNL A   1      42.680  28.766  33.453  1.00  0.00     0.074 A 
ATOM     62  C   UNL A   1      43.138  27.770  32.507  1.00  0.00     0.031 C 
ATOM     63  C   UNL A   1      43.271  29.012  34.647  1.00  0.00     0.037 A 
BRANCH  50  64
ATOM     64  C   UNL A   1      40.580  33.516  37.916  1.00  0.00     0.064 A 
ATOM     65  C   UNL A   1      41.462  34.596  38.080  1.00  0.00     0.173 A 
ATOM     66  C   UNL A   1      39.659  33.263  38.944  1.00  0.00     0.173 A 
ATOM     67  F   UNL A   1      42.372  34.874  37.134  1.00  0.00    -0.203 F 
ATOM     68  C   UNL A   1      41.444  35.368  39.239  1.00  0.00     0.198 A 
ATOM     69  C   UNL A   1      39.621  34.060  40.086  1.00  0.00     0.198 A 
ATOM     70  F   UNL A   1      38.789  32.248  38.839  1.00  0.00    -0.203 F 
ATOM     71  F   UNL A   1      42.334  36.358  39.395  1.00  0.00    -0.200 F 
ATOM     72  C   UNL A   1      40.518  35.106  40.236  1.00  0.00     0.200 A 
ATOM     73  F   UNL A   1      38.714  33.814  41.042  1.00  0.00    -0.200 F 
ATOM     74  F   UNL A   1      40.495  35.856  41.346  1.00  0.00    -0.200 F 
ENDBRANCH  50  64
BRANCH  51  75
ATOM     75  C   UNL A   1      40.285  28.218  29.439  1.00  0.00     0.064 A 
ATOM     76  C   UNL A   1      39.570  27.015  29.359  1.00  0.00     0.173 A 
ATOM     77  C   UNL A   1      40.999  28.628  28.304  1.00  0.00     0.173 A 
ATOM     78  F   UNL A   1      38.887  26.569  30.425  1.00  0.00    -0.203 F 
ATOM     79  C   UNL A   1      39.598  26.235  28.204  1.00  0.00     0.198 A 
ATOM     80  C   UNL A   1      40.997  27.864  27.138  1.00  0.00     0.198 A 
ATOM     81  F   UNL A   1      41.693  29.775  28.324  1.00  0.00    -0.203 F 
ATOM     82  F   UNL A   1      38.957  25.058  28.179  1.00  0.00    -0.200 F 
ATOM     83  C   UNL A   1      40.308  26.663  27.094  1.00  0.00     0.200 A 
ATOM     84  F   UNL A   1      41.671  28.290  26.061  1.00  0.00    -0.200 F 
ATOM     85  F   UNL A   1      40.338  25.910  25.985  1.00  0.00    -0.200 F 
ENDBRANCH  51  75
BRANCH  63  86
ATOM     86  C   UNL A   1      44.438  28.148  35.034  1.00  0.00     0.064 A 
ATOM     87  C   UNL A   1      45.762  28.518  34.756  1.00  0.00     0.173 A 
ATOM     88  C   UNL A   1      44.224  26.945  35.726  1.00  0.00     0.173 A 
ATOM     89  F   UNL A   1      46.021  29.651  34.086  1.00  0.00    -0.203 F 
ATOM     90  C   UNL A   1      46.826  27.699  35.128  1.00  0.00     0.198 A 
ATOM     91  C   UNL A   1      45.293  26.149  36.128  1.00  0.00     0.198 A 
ATOM     92  F   UNL A   1      42.979  26.548  36.026  1.00  0.00    -0.203 F 
ATOM     93  F   UNL A   1      48.079  28.045  34.801  1.00  0.00    -0.200 F 
ATOM     94  C   UNL A   1      46.592  26.521  35.820  1.00  0.00     0.200 A 
ATOM     95  F   UNL A   1      45.063  25.020  36.814  1.00  0.00    -0.200 F 
ATOM     96  F   UNL A   1      47.618  25.740  36.184  1.00  0.00    -0.200 F 
ENDBRANCH  63  86
ENDBRANCH  37  38
ENDBRANCH  29  32
ENDBRANCH  27  28
ENDBRANCH  26  27
ENDBRANCH  25  26
ENDBRANCH   1  25
TORSDOF 17
ENDMDL
