MODEL 1
REMARK VINA RESULT:     -11.0      0.000      0.000
REMARK SMILES O=C(Cc1ccc(S(=O)(=O)CC[NH+]2CCCC2)cc1)NCCCCCCNC(=O)c1ccc(-c2c3nc(c(-c4c(F)c(F)c(F)c(F)c4F)c4ccc([nH]4)c(-c4c(F)c(F)c(F)c(F)c4F)c4nc(c(-c5c(F)c(F)c(F)c(F)c5F)c5ccc2[nH]5)C=C4)C=C3)cc1
REMARK SMILES IDX 22 1 21 2 20 3 1 4 2 5 3 7 4 8 5 9 19 10 6 11 18 12 7 13
REMARK SMILES IDX 8 14 9 15 10 16 11 17 12 18 13 19 14 20 17 21 15 23 16 24
REMARK SMILES IDX 23 25 24 26 25 27 26 28 27 29 28 30 29 32 30 33 31 34 92 35
REMARK SMILES IDX 32 36 91 37 33 38 34 39 35 40 85 41 36 42 90 43 84 44 86 45
REMARK SMILES IDX 37 46 89 47 83 48 82 49 38 51 70 52 50 53 69 54 51 55 54 56
REMARK SMILES IDX 68 57 87 58 52 59 53 60 67 62 88 63 55 64 39 65 40 66 48 67
REMARK SMILES IDX 41 68 42 69 46 70 49 71 43 72 44 73 47 74 45 75 71 76 72 77
REMARK SMILES IDX 80 78 73 79 74 80 78 81 81 82 75 83 76 84 79 85 77 86 56 87
REMARK SMILES IDX 57 88 65 89 58 90 59 91 63 92 66 93 60 94 61 95 64 96 62 97
REMARK H PARENT 20 6 13 22 27 31 86 50 54 61
REMARK Flexibility Score: inf
ROOT
ATOM      1  C   UNL A   1      34.783  31.817  28.621  1.00  0.00     0.021 C 
ENDROOT
BRANCH   1   2
ATOM      2  C   UNL A   1      33.705  31.512  27.581  1.00  0.00     0.116 C 
BRANCH   2   3
ATOM      3  N   UNL A   1      33.209  30.156  27.694  1.00  0.00    -0.356 N 
ATOM      4  O   UNL A   1      31.832  30.260  25.858  1.00  0.00    -0.275 OA
ATOM      5  C   UNL A   1      32.302  29.626  26.798  1.00  0.00     0.224 C 
ATOM      6  H   UNL A   1      33.529  29.594  28.435  1.00  0.00     0.163 HD
BRANCH   5   7
ATOM      7  C   UNL A   1      31.861  28.204  27.104  1.00  0.00     0.135 C 
BRANCH   7   8
ATOM      8  C   UNL A   1      32.261  27.165  26.080  1.00  0.00    -0.039 A 
ATOM      9  C   UNL A   1      31.323  26.556  25.232  1.00  0.00     0.005 A 
ATOM     10  C   UNL A   1      33.598  26.750  26.014  1.00  0.00     0.005 A 
ATOM     11  C   UNL A   1      31.736  25.640  24.262  1.00  0.00     0.020 A 
ATOM     12  C   UNL A   1      34.007  25.800  25.078  1.00  0.00     0.020 A 
ATOM     13  C   UNL A   1      33.085  25.290  24.167  1.00  0.00     0.067 A 
BRANCH  13  14
ATOM     14  S   UNL A   1      33.599  24.218  22.849  1.00  0.00     0.183 S 
ATOM     15  O   UNL A   1      33.234  24.900  21.619  1.00  0.00    -0.223 OA
ATOM     16  O   UNL A   1      34.986  23.867  23.100  1.00  0.00    -0.223 OA
BRANCH  14  17
ATOM     17  C   UNL A   1      32.652  22.718  22.923  1.00  0.00     0.203 C 
BRANCH  17  18
ATOM     18  C   UNL A   1      33.192  21.674  23.896  1.00  0.00     0.279 C 
BRANCH  18  19
ATOM     19  N   UNL A   1      33.491  22.207  25.228  1.00  0.00    -0.334 N 
ATOM     20  C   UNL A   1      34.436  21.366  25.976  1.00  0.00     0.262 C 
ATOM     21  C   UNL A   1      32.322  22.383  26.095  1.00  0.00     0.262 C 
ATOM     22  H   UNL A   1      33.891  23.120  25.015  1.00  0.00     0.348 HD
ATOM     23  C   UNL A   1      34.109  21.596  27.448  1.00  0.00     0.067 C 
ATOM     24  C   UNL A   1      32.983  22.615  27.442  1.00  0.00     0.067 C 
ENDBRANCH  18  19
ENDBRANCH  17  18
ENDBRANCH  14  17
ENDBRANCH  13  14
ENDBRANCH   7   8
ENDBRANCH   5   7
ENDBRANCH   2   3
ENDBRANCH   1   2
BRANCH   1  25
ATOM     25  C   UNL A   1      34.725  33.228  29.219  1.00  0.00     0.002 C 
BRANCH  25  26
ATOM     26  C   UNL A   1      34.117  34.310  28.320  1.00  0.00     0.002 C 
BRANCH  26  27
ATOM     27  C   UNL A   1      32.903  35.047  28.893  1.00  0.00     0.021 C 
BRANCH  27  28
ATOM     28  C   UNL A   1      33.221  36.303  29.700  1.00  0.00     0.116 C 
BRANCH  28  29
ATOM     29  N   UNL A   1      32.442  36.399  30.924  1.00  0.00    -0.352 N 
ATOM     30  C   UNL A   1      32.631  35.782  32.136  1.00  0.00     0.251 C 
ATOM     31  H   UNL A   1      31.660  36.995  30.876  1.00  0.00     0.163 HD
ATOM     32  O   UNL A   1      31.776  35.876  33.013  1.00  0.00    -0.269 OA
BRANCH  30  33
ATOM     33  C   UNL A   1      33.849  34.977  32.388  1.00  0.00     0.039 A 
ATOM     34  C   UNL A   1      35.099  35.571  32.196  1.00  0.00     0.014 A 
ATOM     35  C   UNL A   1      33.766  33.642  32.793  1.00  0.00     0.014 A 
ATOM     36  C   UNL A   1      36.264  34.849  32.475  1.00  0.00     0.010 A 
ATOM     37  C   UNL A   1      34.924  32.944  33.132  1.00  0.00     0.010 A 
ATOM     38  C   UNL A   1      36.184  33.542  32.980  1.00  0.00    -0.014 A 
BRANCH  38  39
ATOM     39  C   UNL A   1      37.408  32.789  33.364  1.00  0.00     0.031 A 
ATOM     40  C   UNL A   1      38.115  33.095  34.655  1.00  0.00     0.074 A 
ATOM     41  C   UNL A   1      37.920  31.875  32.519  1.00  0.00     0.049 A 
ATOM     42  N   UNL A   1      39.235  32.605  35.123  1.00  0.00    -0.248 NA
ATOM     43  C   UNL A   1      37.494  34.108  35.523  1.00  0.00     0.031 C 
ATOM     44  C   UNL A   1      37.353  31.514  31.218  1.00  0.00     0.029 A 
ATOM     45  N   UNL A   1      39.042  31.089  32.620  1.00  0.00    -0.354 N 
ATOM     46  C   UNL A   1      39.458  33.255  36.330  1.00  0.00     0.074 A 
ATOM     47  C   UNL A   1      38.385  34.210  36.499  1.00  0.00     0.031 C 
ATOM     48  C   UNL A   1      38.118  30.568  30.651  1.00  0.00     0.029 A 
ATOM     49  C   UNL A   1      39.249  30.281  31.530  1.00  0.00     0.049 A 
ATOM     50  H   UNL A   1      39.642  31.104  33.401  1.00  0.00     0.167 HD
ATOM     51  C   UNL A   1      40.456  33.058  37.224  1.00  0.00     0.037 A 
ATOM     52  C   UNL A   1      40.243  29.412  31.262  1.00  0.00     0.037 A 
ATOM     53  C   UNL A   1      41.511  32.091  37.066  1.00  0.00     0.049 A 
ATOM     54  C   UNL A   1      41.344  29.218  32.270  1.00  0.00     0.074 A 
ATOM     55  C   UNL A   1      42.536  31.780  37.945  1.00  0.00     0.029 A 
ATOM     56  N   UNL A   1      41.677  31.278  35.955  1.00  0.00    -0.354 N 
ATOM     57  N   UNL A   1      41.511  29.796  33.434  1.00  0.00    -0.248 NA
ATOM     58  C   UNL A   1      42.392  28.246  31.926  1.00  0.00     0.031 C 
ATOM     59  C   UNL A   1      43.346  30.809  37.346  1.00  0.00     0.029 A 
ATOM     60  C   UNL A   1      42.799  30.480  36.116  1.00  0.00     0.049 A 
ATOM     61  H   UNL A   1      41.086  31.269  35.168  1.00  0.00     0.167 HD
ATOM     62  C   UNL A   1      42.663  29.240  33.973  1.00  0.00     0.074 A 
ATOM     63  C   UNL A   1      43.147  28.269  33.015  1.00  0.00     0.031 C 
ATOM     64  C   UNL A   1      43.265  29.511  35.158  1.00  0.00     0.037 A 
BRANCH  51  65
ATOM     65  C   UNL A   1      40.451  33.906  38.464  1.00  0.00     0.064 A 
ATOM     66  C   UNL A   1      39.750  33.519  39.616  1.00  0.00     0.173 A 
ATOM     67  C   UNL A   1      41.188  35.100  38.514  1.00  0.00     0.173 A 
ATOM     68  F   UNL A   1      39.023  32.392  39.616  1.00  0.00    -0.203 F 
ATOM     69  C   UNL A   1      39.761  34.310  40.762  1.00  0.00     0.198 A 
ATOM     70  C   UNL A   1      41.221  35.872  39.672  1.00  0.00     0.198 A 
ATOM     71  F   UNL A   1      41.883  35.512  37.444  1.00  0.00    -0.203 F 
ATOM     72  F   UNL A   1      39.044  33.943  41.834  1.00  0.00    -0.200 F 
ATOM     73  C   UNL A   1      40.502  35.481  40.791  1.00  0.00     0.200 A 
ATOM     74  F   UNL A   1      41.948  36.998  39.704  1.00  0.00    -0.200 F 
ATOM     75  F   UNL A   1      40.517  36.238  41.897  1.00  0.00    -0.200 F 
ENDBRANCH  51  65
BRANCH  52  76
ATOM     76  C   UNL A   1      40.229  28.637  29.995  1.00  0.00     0.064 A 
ATOM     77  C   UNL A   1      40.885  29.116  28.853  1.00  0.00     0.173 A 
ATOM     78  C   UNL A   1      39.561  27.407  29.897  1.00  0.00     0.173 A 
ATOM     79  F   UNL A   1      41.518  30.298  28.893  1.00  0.00    -0.203 F 
ATOM     80  C   UNL A   1      40.860  28.405  27.656  1.00  0.00     0.198 A 
ATOM     81  C   UNL A   1      39.559  26.683  28.706  1.00  0.00     0.198 A 
ATOM     82  F   UNL A   1      38.921  26.904  30.961  1.00  0.00    -0.203 F 
ATOM     83  F   UNL A   1      41.459  28.907  26.567  1.00  0.00    -0.200 F 
ATOM     84  C   UNL A   1      40.201  27.186  27.584  1.00  0.00     0.200 A 
ATOM     85  F   UNL A   1      38.933  25.500  28.645  1.00  0.00    -0.200 F 
ATOM     86  F   UNL A   1      40.181  26.500  26.434  1.00  0.00    -0.200 F 
ENDBRANCH  52  76
BRANCH  64  87
ATOM     87  C   UNL A   1      44.494  28.721  35.502  1.00  0.00     0.064 A 
ATOM     88  C   UNL A   1      44.418  27.505  36.196  1.00  0.00     0.173 A 
ATOM     89  C   UNL A   1      45.761  29.170  35.097  1.00  0.00     0.173 A 
ATOM     90  F   UNL A   1      43.232  27.043  36.619  1.00  0.00    -0.203 F 
ATOM     91  C   UNL A   1      45.569  26.778  36.492  1.00  0.00     0.198 A 
ATOM     92  C   UNL A   1      46.905  28.426  35.369  1.00  0.00     0.198 A 
ATOM     93  F   UNL A   1      45.886  30.325  34.425  1.00  0.00    -0.203 F 
ATOM     94  F   UNL A   1      45.477  25.640  37.195  1.00  0.00    -0.200 F 
ATOM     95  C   UNL A   1      46.809  27.234  36.072  1.00  0.00     0.200 A 
ATOM     96  F   UNL A   1      48.102  28.863  34.952  1.00  0.00    -0.200 F 
ATOM     97  F   UNL A   1      47.914  26.529  36.352  1.00  0.00    -0.200 F 
ENDBRANCH  64  87
ENDBRANCH  38  39
ENDBRANCH  30  33
ENDBRANCH  28  29
ENDBRANCH  27  28
ENDBRANCH  26  27
ENDBRANCH  25  26
ENDBRANCH   1  25
TORSDOF 18
ENDMDL
MODEL 2
REMARK VINA RESULT:     -11.0      6.318     11.021
REMARK SMILES O=C(Cc1ccc(S(=O)(=O)CC[NH+]2CCCC2)cc1)NCCCCCCNC(=O)c1ccc(-c2c3nc(c(-c4c(F)c(F)c(F)c(F)c4F)c4ccc([nH]4)c(-c4c(F)c(F)c(F)c(F)c4F)c4nc(c(-c5c(F)c(F)c(F)c(F)c5F)c5ccc2[nH]5)C=C4)C=C3)cc1
REMARK SMILES IDX 22 1 21 2 20 3 1 4 2 5 3 7 4 8 5 9 19 10 6 11 18 12 7 13
REMARK SMILES IDX 8 14 9 15 10 16 11 17 12 18 13 19 14 20 17 21 15 23 16 24
REMARK SMILES IDX 23 25 24 26 25 27 26 28 27 29 28 30 29 32 30 33 31 34 92 35
REMARK SMILES IDX 32 36 91 37 33 38 34 39 35 40 85 41 36 42 90 43 84 44 86 45
REMARK SMILES IDX 37 46 89 47 83 48 82 49 38 51 70 52 50 53 69 54 51 55 54 56
REMARK SMILES IDX 68 57 87 58 52 59 53 60 67 62 88 63 55 64 39 65 40 66 48 67
REMARK SMILES IDX 41 68 42 69 46 70 49 71 43 72 44 73 47 74 45 75 71 76 72 77
REMARK SMILES IDX 80 78 73 79 74 80 78 81 81 82 75 83 76 84 79 85 77 86 56 87
REMARK SMILES IDX 57 88 65 89 58 90 59 91 63 92 66 93 60 94 61 95 64 96 62 97
REMARK H PARENT 20 6 13 22 27 31 86 50 54 61
REMARK Flexibility Score: inf
ROOT
ATOM      1  C   UNL A   1      35.328  21.695  26.077  1.00  0.00     0.021 C 
ENDROOT
BRANCH   1   2
ATOM      2  C   UNL A   1      34.144  21.168  26.887  1.00  0.00     0.116 C 
BRANCH   2   3
ATOM      3  N   UNL A   1      32.874  21.528  26.290  1.00  0.00    -0.356 N 
ATOM      4  O   UNL A   1      32.234  22.970  27.960  1.00  0.00    -0.275 OA
ATOM      5  C   UNL A   1      32.009  22.426  26.882  1.00  0.00     0.224 C 
ATOM      6  H   UNL A   1      32.619  21.117  25.433  1.00  0.00     0.163 HD
BRANCH   5   7
ATOM      7  C   UNL A   1      30.705  22.644  26.133  1.00  0.00     0.135 C 
BRANCH   7   8
ATOM      8  C   UNL A   1      30.614  23.934  25.348  1.00  0.00    -0.039 A 
ATOM      9  C   UNL A   1      30.919  23.996  23.980  1.00  0.00     0.005 A 
ATOM     10  C   UNL A   1      30.275  25.118  26.018  1.00  0.00     0.005 A 
ATOM     11  C   UNL A   1      30.773  25.193  23.275  1.00  0.00     0.020 A 
ATOM     12  C   UNL A   1      30.173  26.326  25.326  1.00  0.00     0.020 A 
ATOM     13  C   UNL A   1      30.368  26.349  23.947  1.00  0.00     0.067 A 
BRANCH  13  14
ATOM     14  S   UNL A   1      30.073  27.825  23.007  1.00  0.00     0.183 S 
ATOM     15  O   UNL A   1      30.653  27.584  21.698  1.00  0.00    -0.223 OA
ATOM     16  O   UNL A   1      28.657  28.133  23.127  1.00  0.00    -0.223 OA
BRANCH  14  17
ATOM     17  C   UNL A   1      30.970  29.168  23.745  1.00  0.00     0.203 C 
BRANCH  17  18
ATOM     18  C   UNL A   1      32.459  29.194  23.412  1.00  0.00     0.279 C 
BRANCH  18  19
ATOM     19  N   UNL A   1      33.320  28.768  24.518  1.00  0.00    -0.334 N 
ATOM     20  C   UNL A   1      33.657  27.339  24.456  1.00  0.00     0.262 C 
ATOM     21  C   UNL A   1      32.764  29.001  25.854  1.00  0.00     0.262 C 
ATOM     22  H   UNL A   1      34.146  29.353  24.392  1.00  0.00     0.348 HD
ATOM     23  C   UNL A   1      33.895  26.913  25.902  1.00  0.00     0.067 C 
ATOM     24  C   UNL A   1      33.706  28.181  26.717  1.00  0.00     0.067 C 
ENDBRANCH  18  19
ENDBRANCH  17  18
ENDBRANCH  14  17
ENDBRANCH  13  14
ENDBRANCH   7   8
ENDBRANCH   5   7
ENDBRANCH   2   3
ENDBRANCH   1   2
BRANCH   1  25
ATOM     25  C   UNL A   1      35.858  20.736  25.004  1.00  0.00     0.002 C 
BRANCH  25  26
ATOM     26  C   UNL A   1      37.345  20.878  24.658  1.00  0.00     0.002 C 
BRANCH  26  27
ATOM     27  C   UNL A   1      38.226  19.674  25.000  1.00  0.00     0.021 C 
BRANCH  27  28
ATOM     28  C   UNL A   1      39.322  19.935  26.029  1.00  0.00     0.116 C 
BRANCH  28  29
ATOM     29  N   UNL A   1      40.400  18.962  25.965  1.00  0.00    -0.352 N 
ATOM     30  C   UNL A   1      41.759  19.151  26.033  1.00  0.00     0.251 C 
ATOM     31  H   UNL A   1      40.113  18.027  25.856  1.00  0.00     0.163 HD
ATOM     32  O   UNL A   1      42.520  18.213  25.812  1.00  0.00    -0.269 OA
BRANCH  30  33
ATOM     33  C   UNL A   1      42.318  20.487  26.344  1.00  0.00     0.039 A 
ATOM     34  C   UNL A   1      42.910  21.224  25.315  1.00  0.00     0.014 A 
ATOM     35  C   UNL A   1      42.278  21.007  27.640  1.00  0.00     0.014 A 
ATOM     36  C   UNL A   1      43.401  22.509  25.571  1.00  0.00     0.010 A 
ATOM     37  C   UNL A   1      42.708  22.311  27.881  1.00  0.00     0.010 A 
ATOM     38  C   UNL A   1      43.270  23.076  26.848  1.00  0.00    -0.014 A 
BRANCH  38  39
ATOM     39  C   UNL A   1      43.707  24.472  27.119  1.00  0.00     0.031 A 
ATOM     40  C   UNL A   1      42.724  25.490  27.627  1.00  0.00     0.074 A 
ATOM     41  C   UNL A   1      44.972  24.839  26.843  1.00  0.00     0.049 A 
ATOM     42  N   UNL A   1      42.895  26.769  27.846  1.00  0.00    -0.248 NA
ATOM     43  C   UNL A   1      41.361  25.011  27.903  1.00  0.00     0.031 C 
ATOM     44  C   UNL A   1      46.011  23.958  26.307  1.00  0.00     0.029 A 
ATOM     45  N   UNL A   1      45.599  26.056  26.963  1.00  0.00    -0.354 N 
ATOM     46  C   UNL A   1      41.663  27.249  28.271  1.00  0.00     0.074 A 
ATOM     47  C   UNL A   1      40.741  26.134  28.233  1.00  0.00     0.031 C 
ATOM     48  C   UNL A   1      47.148  24.656  26.161  1.00  0.00     0.029 A 
ATOM     49  C   UNL A   1      46.911  26.041  26.558  1.00  0.00     0.049 A 
ATOM     50  H   UNL A   1      45.150  26.861  27.306  1.00  0.00     0.167 HD
ATOM     51  C   UNL A   1      41.337  28.500  28.675  1.00  0.00     0.037 A 
ATOM     52  C   UNL A   1      47.819  27.035  26.503  1.00  0.00     0.037 A 
ATOM     53  C   UNL A   1      42.261  29.603  28.735  1.00  0.00     0.049 A 
ATOM     54  C   UNL A   1      47.428  28.417  26.950  1.00  0.00     0.074 A 
ATOM     55  C   UNL A   1      42.036  30.894  29.183  1.00  0.00     0.029 A 
ATOM     56  N   UNL A   1      43.586  29.545  28.332  1.00  0.00    -0.354 N 
ATOM     57  N   UNL A   1      46.276  28.844  27.407  1.00  0.00    -0.248 NA
ATOM     58  C   UNL A   1      48.466  29.455  26.880  1.00  0.00     0.031 C 
ATOM     59  C   UNL A   1      43.215  31.627  29.013  1.00  0.00     0.029 A 
ATOM     60  C   UNL A   1      44.187  30.783  28.503  1.00  0.00     0.049 A 
ATOM     61  H   UNL A   1      44.034  28.743  27.977  1.00  0.00     0.167 HD
ATOM     62  C   UNL A   1      46.457  30.188  27.703  1.00  0.00     0.074 A 
ATOM     63  C   UNL A   1      47.835  30.503  27.388  1.00  0.00     0.031 C 
ATOM     64  C   UNL A   1      45.562  31.080  28.193  1.00  0.00     0.037 A 
BRANCH  51  65
ATOM     65  C   UNL A   1      39.915  28.743  29.093  1.00  0.00     0.064 A 
ATOM     66  C   UNL A   1      38.933  29.128  28.168  1.00  0.00     0.173 A 
ATOM     67  C   UNL A   1      39.521  28.552  30.427  1.00  0.00     0.173 A 
ATOM     68  F   UNL A   1      39.259  29.333  26.884  1.00  0.00    -0.203 F 
ATOM     69  C   UNL A   1      37.616  29.342  28.568  1.00  0.00     0.198 A 
ATOM     70  C   UNL A   1      38.197  28.738  30.816  1.00  0.00     0.198 A 
ATOM     71  F   UNL A   1      40.418  28.176  31.351  1.00  0.00    -0.203 F 
ATOM     72  F   UNL A   1      36.706  29.756  27.675  1.00  0.00    -0.200 F 
ATOM     73  C   UNL A   1      37.248  29.139  29.889  1.00  0.00     0.200 A 
ATOM     74  F   UNL A   1      37.840  28.529  32.092  1.00  0.00    -0.200 F 
ATOM     75  F   UNL A   1      35.979  29.339  30.270  1.00  0.00    -0.200 F 
ENDBRANCH  51  65
BRANCH  52  76
ATOM     76  C   UNL A   1      49.199  26.752  26.029  1.00  0.00     0.064 A 
ATOM     77  C   UNL A   1      49.561  26.982  24.695  1.00  0.00     0.173 A 
ATOM     78  C   UNL A   1      50.179  26.247  26.895  1.00  0.00     0.173 A 
ATOM     79  F   UNL A   1      48.650  27.443  23.825  1.00  0.00    -0.203 F 
ATOM     80  C   UNL A   1      50.847  26.701  24.239  1.00  0.00     0.198 A 
ATOM     81  C   UNL A   1      51.474  25.992  26.445  1.00  0.00     0.198 A 
ATOM     82  F   UNL A   1      49.885  26.013  28.182  1.00  0.00    -0.203 F 
ATOM     83  F   UNL A   1      51.154  26.889  22.949  1.00  0.00    -0.200 F 
ATOM     84  C   UNL A   1      51.804  26.212  25.116  1.00  0.00     0.200 A 
ATOM     85  F   UNL A   1      52.399  25.532  27.298  1.00  0.00    -0.200 F 
ATOM     86  F   UNL A   1      53.042  25.946  24.678  1.00  0.00    -0.200 F 
ENDBRANCH  52  76
BRANCH  64  87
ATOM     87  C   UNL A   1      46.051  32.475  28.453  1.00  0.00     0.064 A 
ATOM     88  C   UNL A   1      45.960  33.481  27.480  1.00  0.00     0.173 A 
ATOM     89  C   UNL A   1      46.582  32.818  29.706  1.00  0.00     0.173 A 
ATOM     90  F   UNL A   1      45.476  33.198  26.261  1.00  0.00    -0.203 F 
ATOM     91  C   UNL A   1      46.405  34.774  27.744  1.00  0.00     0.198 A 
ATOM     92  C   UNL A   1      46.998  34.119  29.976  1.00  0.00     0.198 A 
ATOM     93  F   UNL A   1      46.685  31.893  30.673  1.00  0.00    -0.203 F 
ATOM     94  F   UNL A   1      46.349  35.708  26.785  1.00  0.00    -0.200 F 
ATOM     95  C   UNL A   1      46.915  35.093  28.993  1.00  0.00     0.200 A 
ATOM     96  F   UNL A   1      47.479  34.429  31.188  1.00  0.00    -0.200 F 
ATOM     97  F   UNL A   1      47.335  36.340  29.248  1.00  0.00    -0.200 F 
ENDBRANCH  64  87
ENDBRANCH  38  39
ENDBRANCH  30  33
ENDBRANCH  28  29
ENDBRANCH  27  28
ENDBRANCH  26  27
ENDBRANCH  25  26
ENDBRANCH   1  25
TORSDOF 18
ENDMDL
MODEL 3
REMARK VINA RESULT:     -11.0      6.661     12.482
REMARK SMILES O=C(Cc1ccc(S(=O)(=O)CC[NH+]2CCCC2)cc1)NCCCCCCNC(=O)c1ccc(-c2c3nc(c(-c4c(F)c(F)c(F)c(F)c4F)c4ccc([nH]4)c(-c4c(F)c(F)c(F)c(F)c4F)c4nc(c(-c5c(F)c(F)c(F)c(F)c5F)c5ccc2[nH]5)C=C4)C=C3)cc1
REMARK SMILES IDX 22 1 21 2 20 3 1 4 2 5 3 7 4 8 5 9 19 10 6 11 18 12 7 13
REMARK SMILES IDX 8 14 9 15 10 16 11 17 12 18 13 19 14 20 17 21 15 23 16 24
REMARK SMILES IDX 23 25 24 26 25 27 26 28 27 29 28 30 29 32 30 33 31 34 92 35
REMARK SMILES IDX 32 36 91 37 33 38 34 39 35 40 85 41 36 42 90 43 84 44 86 45
REMARK SMILES IDX 37 46 89 47 83 48 82 49 38 51 70 52 50 53 69 54 51 55 54 56
REMARK SMILES IDX 68 57 87 58 52 59 53 60 67 62 88 63 55 64 39 65 40 66 48 67
REMARK SMILES IDX 41 68 42 69 46 70 49 71 43 72 44 73 47 74 45 75 71 76 72 77
REMARK SMILES IDX 80 78 73 79 74 80 78 81 81 82 75 83 76 84 79 85 77 86 56 87
REMARK SMILES IDX 57 88 65 89 58 90 59 91 63 92 66 93 60 94 61 95 64 96 62 97
REMARK H PARENT 20 6 13 22 27 31 86 50 54 61
REMARK Flexibility Score: inf
ROOT
ATOM      1  C   UNL A   1      41.047  21.859  26.091  1.00  0.00     0.021 C 
ENDROOT
BRANCH   1   2
ATOM      2  C   UNL A   1      39.570  21.541  26.317  1.00  0.00     0.116 C 
BRANCH   2   3
ATOM      3  N   UNL A   1      38.714  22.234  25.376  1.00  0.00    -0.356 N 
ATOM      4  O   UNL A   1      37.240  20.497  25.081  1.00  0.00    -0.275 OA
ATOM      5  C   UNL A   1      37.589  21.647  24.832  1.00  0.00     0.224 C 
ATOM      6  H   UNL A   1      38.943  23.155  25.116  1.00  0.00     0.163 HD
BRANCH   5   7
ATOM      7  C   UNL A   1      36.842  22.510  23.829  1.00  0.00     0.135 C 
BRANCH   7   8
ATOM      8  C   UNL A   1      35.546  23.111  24.326  1.00  0.00    -0.039 A 
ATOM      9  C   UNL A   1      34.353  23.019  23.593  1.00  0.00     0.005 A 
ATOM     10  C   UNL A   1      35.546  23.835  25.527  1.00  0.00     0.005 A 
ATOM     11  C   UNL A   1      33.163  23.539  24.109  1.00  0.00     0.020 A 
ATOM     12  C   UNL A   1      34.369  24.397  26.022  1.00  0.00     0.020 A 
ATOM     13  C   UNL A   1      33.170  24.199  25.340  1.00  0.00     0.067 A 
BRANCH  13  14
ATOM     14  S   UNL A   1      31.627  24.742  26.027  1.00  0.00     0.183 S 
ATOM     15  O   UNL A   1      30.648  24.601  24.964  1.00  0.00    -0.223 OA
ATOM     16  O   UNL A   1      31.444  24.031  27.281  1.00  0.00    -0.223 OA
BRANCH  14  17
ATOM     17  C   UNL A   1      31.744  26.472  26.412  1.00  0.00     0.203 C 
BRANCH  17  18
ATOM     18  C   UNL A   1      32.143  27.358  25.235  1.00  0.00     0.279 C 
BRANCH  18  19
ATOM     19  N   UNL A   1      31.004  27.938  24.519  1.00  0.00    -0.334 N 
ATOM     20  C   UNL A   1      30.918  27.480  23.126  1.00  0.00     0.262 C 
ATOM     21  C   UNL A   1      30.991  29.403  24.471  1.00  0.00     0.262 C 
ATOM     22  H   UNL A   1      30.209  27.613  25.069  1.00  0.00     0.348 HD
ATOM     23  C   UNL A   1      30.227  28.609  22.367  1.00  0.00     0.067 C 
ATOM     24  C   UNL A   1      29.923  29.658  23.424  1.00  0.00     0.067 C 
ENDBRANCH  18  19
ENDBRANCH  17  18
ENDBRANCH  14  17
ENDBRANCH  13  14
ENDBRANCH   7   8
ENDBRANCH   5   7
ENDBRANCH   2   3
ENDBRANCH   1   2
BRANCH   1  25
ATOM     25  C   UNL A   1      42.007  21.247  27.120  1.00  0.00     0.002 C 
BRANCH  25  26
ATOM     26  C   UNL A   1      41.895  19.732  27.319  1.00  0.00     0.002 C 
BRANCH  26  27
ATOM     27  C   UNL A   1      42.363  18.870  26.143  1.00  0.00     0.021 C 
BRANCH  27  28
ATOM     28  C   UNL A   1      43.857  18.559  26.113  1.00  0.00     0.116 C 
BRANCH  28  29
ATOM     29  N   UNL A   1      44.400  18.532  24.765  1.00  0.00    -0.352 N 
ATOM     30  C   UNL A   1      44.804  19.568  23.959  1.00  0.00     0.251 C 
ATOM     31  H   UNL A   1      44.491  17.635  24.369  1.00  0.00     0.163 HD
ATOM     32  O   UNL A   1      45.101  19.354  22.787  1.00  0.00    -0.269 OA
BRANCH  30  33
ATOM     33  C   UNL A   1      44.858  20.952  24.485  1.00  0.00     0.039 A 
ATOM     34  C   UNL A   1      45.460  21.176  25.726  1.00  0.00     0.014 A 
ATOM     35  C   UNL A   1      44.305  22.021  23.774  1.00  0.00     0.014 A 
ATOM     36  C   UNL A   1      45.570  22.480  26.222  1.00  0.00     0.010 A 
ATOM     37  C   UNL A   1      44.471  23.325  24.238  1.00  0.00     0.010 A 
ATOM     38  C   UNL A   1      45.108  23.567  25.465  1.00  0.00    -0.014 A 
BRANCH  38  39
ATOM     39  C   UNL A   1      45.292  24.966  25.934  1.00  0.00     0.031 A 
ATOM     40  C   UNL A   1      46.648  25.614  25.881  1.00  0.00     0.074 A 
ATOM     41  C   UNL A   1      44.252  25.631  26.472  1.00  0.00     0.049 A 
ATOM     42  N   UNL A   1      47.023  26.790  26.316  1.00  0.00    -0.248 NA
ATOM     43  C   UNL A   1      47.734  24.822  25.282  1.00  0.00     0.031 C 
ATOM     44  C   UNL A   1      42.895  25.101  26.619  1.00  0.00     0.029 A 
ATOM     45  N   UNL A   1      44.174  26.894  27.006  1.00  0.00    -0.354 N 
ATOM     46  C   UNL A   1      48.384  26.876  26.056  1.00  0.00     0.074 A 
ATOM     47  C   UNL A   1      48.780  25.613  25.470  1.00  0.00     0.031 C 
ATOM     48  C   UNL A   1      42.117  26.035  27.188  1.00  0.00     0.029 A 
ATOM     49  C   UNL A   1      42.926  27.215  27.479  1.00  0.00     0.049 A 
ATOM     50  H   UNL A   1      44.941  27.509  27.047  1.00  0.00     0.167 HD
ATOM     51  C   UNL A   1      49.222  27.919  26.267  1.00  0.00     0.037 A 
ATOM     52  C   UNL A   1      42.483  28.334  28.087  1.00  0.00     0.037 A 
ATOM     53  C   UNL A   1      48.821  29.183  26.829  1.00  0.00     0.049 A 
ATOM     54  C   UNL A   1      43.437  29.475  28.317  1.00  0.00     0.074 A 
ATOM     55  C   UNL A   1      49.587  30.319  27.031  1.00  0.00     0.029 A 
ATOM     56  N   UNL A   1      47.543  29.477  27.280  1.00  0.00    -0.354 N 
ATOM     57  N   UNL A   1      44.708  29.564  28.012  1.00  0.00    -0.248 NA
ATOM     58  C   UNL A   1      42.892  30.671  28.972  1.00  0.00     0.031 C 
ATOM     59  C   UNL A   1      48.782  31.286  27.642  1.00  0.00     0.029 A 
ATOM     60  C   UNL A   1      47.503  30.770  27.778  1.00  0.00     0.049 A 
ATOM     61  H   UNL A   1      46.778  28.859  27.251  1.00  0.00     0.167 HD
ATOM     62  C   UNL A   1      45.107  30.833  28.411  1.00  0.00     0.074 A 
ATOM     63  C   UNL A   1      43.940  31.482  28.968  1.00  0.00     0.031 C 
ATOM     64  C   UNL A   1      46.332  31.407  28.322  1.00  0.00     0.037 A 
BRANCH  51  65
ATOM     65  C   UNL A   1      50.662  27.739  25.882  1.00  0.00     0.064 A 
ATOM     66  C   UNL A   1      51.099  27.931  24.563  1.00  0.00     0.173 A 
ATOM     67  C   UNL A   1      51.623  27.407  26.850  1.00  0.00     0.173 A 
ATOM     68  F   UNL A   1      50.219  28.240  23.599  1.00  0.00    -0.203 F 
ATOM     69  C   UNL A   1      52.440  27.770  24.221  1.00  0.00     0.198 A 
ATOM     70  C   UNL A   1      52.966  27.275  26.509  1.00  0.00     0.198 A 
ATOM     71  F   UNL A   1      51.260  27.219  28.128  1.00  0.00    -0.203 F 
ATOM     72  F   UNL A   1      52.825  27.912  22.945  1.00  0.00    -0.200 F 
ATOM     73  C   UNL A   1      53.372  27.450  25.195  1.00  0.00     0.200 A 
ATOM     74  F   UNL A   1      53.870  26.978  27.454  1.00  0.00    -0.200 F 
ATOM     75  F   UNL A   1      54.663  27.301  24.865  1.00  0.00    -0.200 F 
ENDBRANCH  51  65
BRANCH  52  76
ATOM     76  C   UNL A   1      41.060  28.439  28.498  1.00  0.00     0.064 A 
ATOM     77  C   UNL A   1      40.098  28.965  27.625  1.00  0.00     0.173 A 
ATOM     78  C   UNL A   1      40.632  28.021  29.767  1.00  0.00     0.173 A 
ATOM     79  F   UNL A   1      40.464  29.398  26.410  1.00  0.00    -0.203 F 
ATOM     80  C   UNL A   1      38.765  29.085  28.010  1.00  0.00     0.198 A 
ATOM     81  C   UNL A   1      39.293  28.116  30.141  1.00  0.00     0.198 A 
ATOM     82  F   UNL A   1      41.513  27.508  30.638  1.00  0.00    -0.203 F 
ATOM     83  F   UNL A   1      37.873  29.631  27.172  1.00  0.00    -0.200 F 
ATOM     84  C   UNL A   1      38.362  28.656  29.266  1.00  0.00     0.200 A 
ATOM     85  F   UNL A   1      38.906  27.689  31.351  1.00  0.00    -0.200 F 
ATOM     86  F   UNL A   1      37.079  28.767  29.635  1.00  0.00    -0.200 F 
ENDBRANCH  52  76
BRANCH  64  87
ATOM     87  C   UNL A   1      46.466  32.822  28.806  1.00  0.00     0.064 A 
ATOM     88  C   UNL A   1      46.834  33.116  30.127  1.00  0.00     0.173 A 
ATOM     89  C   UNL A   1      46.261  33.895  27.925  1.00  0.00     0.173 A 
ATOM     90  F   UNL A   1      47.025  32.125  31.011  1.00  0.00    -0.203 F 
ATOM     91  C   UNL A   1      46.970  34.435  30.554  1.00  0.00     0.198 A 
ATOM     92  C   UNL A   1      46.426  35.210  28.349  1.00  0.00     0.198 A 
ATOM     93  F   UNL A   1      45.913  33.666  26.650  1.00  0.00    -0.203 F 
ATOM     94  F   UNL A   1      47.279  34.693  31.833  1.00  0.00    -0.200 F 
ATOM     95  C   UNL A   1      46.774  35.479  29.664  1.00  0.00     0.200 A 
ATOM     96  F   UNL A   1      46.249  36.219  27.483  1.00  0.00    -0.200 F 
ATOM     97  F   UNL A   1      46.913  36.747  30.075  1.00  0.00    -0.200 F 
ENDBRANCH  64  87
ENDBRANCH  38  39
ENDBRANCH  30  33
ENDBRANCH  28  29
ENDBRANCH  27  28
ENDBRANCH  26  27
ENDBRANCH  25  26
ENDBRANCH   1  25
TORSDOF 18
ENDMDL
