MODEL 1
REMARK VINA RESULT:     -12.2      0.000      0.000
REMARK SMILES O=C(NCCCCCCNC(=O)c1ccc(S(=O)(=O)Cc2cnoc2)c(F)c1)c1ccc(-c2c3nc(c(-c4c(F)c(F)c(F)c(F)c4F)c4ccc([nH]4)c(-c4c(F)c(F)c(F)c(F)c4F)c4nc(c(-c5c(F)c(F)c(F)c(F)c5F)c5ccc2[nH]5)C=C4)C=C3)cc1
REMARK SMILES IDX 7 1 6 2 5 3 4 4 3 5 1 6 2 7 29 9 30 10 91 11 31 12 90 13
REMARK SMILES IDX 32 14 33 15 34 16 84 17 35 18 89 19 83 20 85 21 36 22 88 23
REMARK SMILES IDX 82 24 81 25 37 27 69 28 49 29 68 30 50 31 53 32 67 33 86 34
REMARK SMILES IDX 51 35 52 36 66 38 87 39 54 40 38 41 39 42 47 43 40 44 41 45
REMARK SMILES IDX 45 46 48 47 42 48 43 49 46 50 44 51 70 52 71 53 79 54 72 55
REMARK SMILES IDX 73 56 77 57 80 58 74 59 75 60 78 61 76 62 55 63 56 64 64 65
REMARK SMILES IDX 57 66 58 67 62 68 65 69 59 70 60 71 63 72 61 73 8 74 9 75
REMARK SMILES IDX 10 76 11 77 12 79 13 80 14 81 28 82 15 83 26 84 16 85 27 86
REMARK SMILES IDX 17 87 18 88 19 89 20 90 21 91 22 92 25 93 23 94 24 95
REMARK H PARENT 3 8 85 26 53 37 10 78
REMARK Flexibility Score: inf
ROOT
ATOM      1  C   UNL A   1      32.152  29.628  27.179  1.00  0.00     0.002 C 
ENDROOT
BRANCH   1   2
ATOM      2  C   UNL A   1      31.589  30.556  26.098  1.00  0.00     0.002 C 
BRANCH   2   3
ATOM      3  C   UNL A   1      31.406  32.017  26.508  1.00  0.00     0.021 C 
BRANCH   3   4
ATOM      4  C   UNL A   1      32.589  32.645  27.233  1.00  0.00     0.116 C 
BRANCH   4   5
ATOM      5  N   UNL A   1      32.351  34.024  27.626  1.00  0.00    -0.352 N 
ATOM      6  O   UNL A   1      32.578  35.905  28.853  1.00  0.00    -0.269 OA
ATOM      7  C   UNL A   1      33.002  34.790  28.564  1.00  0.00     0.251 C 
ATOM      8  H   UNL A   1      31.615  34.475  27.152  1.00  0.00     0.163 HD
BRANCH   7   9
ATOM      9  C   UNL A   1      34.197  34.257  29.255  1.00  0.00     0.039 A 
ATOM     10  C   UNL A   1      35.478  34.487  28.752  1.00  0.00     0.014 A 
ATOM     11  C   UNL A   1      34.028  33.505  30.422  1.00  0.00     0.014 A 
ATOM     12  C   UNL A   1      36.567  33.829  29.314  1.00  0.00     0.010 A 
ATOM     13  C   UNL A   1      35.137  32.916  31.038  1.00  0.00     0.010 A 
ATOM     14  C   UNL A   1      36.411  33.034  30.463  1.00  0.00    -0.014 A 
BRANCH  14  15
ATOM     15  C   UNL A   1      37.600  32.360  31.045  1.00  0.00     0.031 A 
ATOM     16  C   UNL A   1      38.061  32.666  32.443  1.00  0.00     0.074 A 
ATOM     17  C   UNL A   1      38.234  31.419  30.320  1.00  0.00     0.049 A 
ATOM     18  N   UNL A   1      39.041  32.126  33.126  1.00  0.00    -0.248 NA
ATOM     19  C   UNL A   1      37.332  33.715  33.173  1.00  0.00     0.031 C 
ATOM     20  C   UNL A   1      37.887  31.042  28.948  1.00  0.00     0.029 A 
ATOM     21  N   UNL A   1      39.278  30.588  30.639  1.00  0.00    -0.354 N 
ATOM     22  C   UNL A   1      39.057  32.778  34.352  1.00  0.00     0.074 A 
ATOM     23  C   UNL A   1      38.008  33.773  34.313  1.00  0.00     0.031 C 
ATOM     24  C   UNL A   1      38.660  30.015  28.567  1.00  0.00     0.029 A 
ATOM     25  C   UNL A   1      39.593  29.697  29.644  1.00  0.00     0.049 A 
ATOM     26  H   UNL A   1      39.755  30.626  31.500  1.00  0.00     0.167 HD
ATOM     27  C   UNL A   1      39.866  32.555  35.416  1.00  0.00     0.037 A 
ATOM     28  C   UNL A   1      40.528  28.729  29.598  1.00  0.00     0.037 A 
ATOM     29  C   UNL A   1      40.897  31.549  35.459  1.00  0.00     0.049 A 
ATOM     30  C   UNL A   1      41.411  28.504  30.790  1.00  0.00     0.074 A 
ATOM     31  C   UNL A   1      41.758  31.242  36.498  1.00  0.00     0.029 A 
ATOM     32  N   UNL A   1      41.204  30.686  34.417  1.00  0.00    -0.354 N 
ATOM     33  N   UNL A   1      41.407  29.121  31.946  1.00  0.00    -0.248 NA
ATOM     34  C   UNL A   1      42.429  27.452  30.671  1.00  0.00     0.031 C 
ATOM     35  C   UNL A   1      42.610  30.217  36.073  1.00  0.00     0.029 A 
ATOM     36  C   UNL A   1      42.248  29.853  34.787  1.00  0.00     0.049 A 
ATOM     37  H   UNL A   1      40.747  30.667  33.546  1.00  0.00     0.167 HD
ATOM     38  C   UNL A   1      42.410  28.525  32.698  1.00  0.00     0.074 A 
ATOM     39  C   UNL A   1      42.989  27.484  31.873  1.00  0.00     0.031 C 
ATOM     40  C   UNL A   1      42.814  28.819  33.957  1.00  0.00     0.037 A 
BRANCH  27  41
ATOM     41  C   UNL A   1      39.677  33.417  36.631  1.00  0.00     0.064 A 
ATOM     42  C   UNL A   1      38.782  33.034  37.643  1.00  0.00     0.173 A 
ATOM     43  C   UNL A   1      40.329  34.651  36.764  1.00  0.00     0.173 A 
ATOM     44  F   UNL A   1      38.128  31.866  37.560  1.00  0.00    -0.203 F 
ATOM     45  C   UNL A   1      38.541  33.861  38.737  1.00  0.00     0.198 A 
ATOM     46  C   UNL A   1      40.104  35.464  37.873  1.00  0.00     0.198 A 
ATOM     47  F   UNL A   1      41.203  35.058  35.831  1.00  0.00    -0.203 F 
ATOM     48  F   UNL A   1      37.662  33.487  39.676  1.00  0.00    -0.200 F 
ATOM     49  C   UNL A   1      39.204  35.073  38.853  1.00  0.00     0.200 A 
ATOM     50  F   UNL A   1      40.764  36.625  37.995  1.00  0.00    -0.200 F 
ATOM     51  F   UNL A   1      38.980  35.863  39.913  1.00  0.00    -0.200 F 
ENDBRANCH  27  41
BRANCH  28  52
ATOM     52  C   UNL A   1      40.642  27.890  28.379  1.00  0.00     0.064 A 
ATOM     53  C   UNL A   1      40.023  26.633  28.301  1.00  0.00     0.173 A 
ATOM     54  C   UNL A   1      41.420  28.304  27.290  1.00  0.00     0.173 A 
ATOM     55  F   UNL A   1      39.275  26.190  29.322  1.00  0.00    -0.203 F 
ATOM     56  C   UNL A   1      40.202  25.812  27.192  1.00  0.00     0.198 A 
ATOM     57  C   UNL A   1      41.576  27.492  26.169  1.00  0.00     0.198 A 
ATOM     58  F   UNL A   1      42.018  29.505  27.314  1.00  0.00    -0.203 F 
ATOM     59  F   UNL A   1      39.635  24.598  27.161  1.00  0.00    -0.200 F 
ATOM     60  C   UNL A   1      40.976  26.243  26.126  1.00  0.00     0.200 A 
ATOM     61  F   UNL A   1      42.310  27.921  25.132  1.00  0.00    -0.200 F 
ATOM     62  F   UNL A   1      41.145  25.454  25.056  1.00  0.00    -0.200 F 
ENDBRANCH  28  52
BRANCH  40  63
ATOM     63  C   UNL A   1      43.924  27.994  34.536  1.00  0.00     0.064 A 
ATOM     64  C   UNL A   1      43.640  26.802  35.219  1.00  0.00     0.173 A 
ATOM     65  C   UNL A   1      45.260  28.413  34.469  1.00  0.00     0.173 A 
ATOM     66  F   UNL A   1      42.376  26.363  35.317  1.00  0.00    -0.203 F 
ATOM     67  C   UNL A   1      44.655  26.063  35.822  1.00  0.00     0.198 A 
ATOM     68  C   UNL A   1      46.275  27.658  35.050  1.00  0.00     0.198 A 
ATOM     69  F   UNL A   1      45.583  29.539  33.815  1.00  0.00    -0.203 F 
ATOM     70  F   UNL A   1      44.357  24.941  36.491  1.00  0.00    -0.200 F 
ATOM     71  C   UNL A   1      45.971  26.489  35.733  1.00  0.00     0.200 A 
ATOM     72  F   UNL A   1      47.550  28.059  34.944  1.00  0.00    -0.200 F 
ATOM     73  F   UNL A   1      46.949  25.771  36.302  1.00  0.00    -0.200 F 
ENDBRANCH  40  63
ENDBRANCH  14  15
ENDBRANCH   7   9
ENDBRANCH   4   5
ENDBRANCH   3   4
ENDBRANCH   2   3
ENDBRANCH   1   2
BRANCH   1  74
ATOM     74  C   UNL A   1      31.779  28.147  27.053  1.00  0.00     0.021 C 
BRANCH  74  75
ATOM     75  C   UNL A   1      32.872  27.244  26.478  1.00  0.00     0.116 C 
BRANCH  75  76
ATOM     76  N   UNL A   1      33.138  27.536  25.081  1.00  0.00    -0.352 N 
ATOM     77  C   UNL A   1      33.577  26.694  24.094  1.00  0.00     0.251 C 
ATOM     78  H   UNL A   1      32.979  28.467  24.804  1.00  0.00     0.163 HD
ATOM     79  O   UNL A   1      33.904  27.121  22.992  1.00  0.00    -0.269 OA
BRANCH  77  80
ATOM     80  C   UNL A   1      33.677  25.252  24.372  1.00  0.00     0.042 A 
ATOM     81  C   UNL A   1      32.729  24.367  23.847  1.00  0.00     0.015 A 
ATOM     82  C   UNL A   1      34.727  24.790  25.166  1.00  0.00     0.054 A 
ATOM     83  C   UNL A   1      32.816  23.009  24.155  1.00  0.00     0.024 A 
ATOM     84  C   UNL A   1      34.793  23.438  25.486  1.00  0.00     0.142 A 
ATOM     85  C   UNL A   1      33.848  22.550  24.986  1.00  0.00     0.103 A 
ATOM     86  F   UNL A   1      35.762  23.033  26.314  1.00  0.00    -0.206 F 
BRANCH  85  87
ATOM     87  S   UNL A   1      33.872  20.837  25.413  1.00  0.00     0.185 S 
ATOM     88  O   UNL A   1      35.161  20.347  24.958  1.00  0.00    -0.223 OA
ATOM     89  O   UNL A   1      33.531  20.768  26.826  1.00  0.00    -0.223 OA
BRANCH  87  90
ATOM     90  C   UNL A   1      32.606  19.963  24.515  1.00  0.00     0.183 C 
BRANCH  90  91
ATOM     91  C   UNL A   1      32.860  18.522  24.273  1.00  0.00     0.027 A 
ATOM     92  C   UNL A   1      33.051  17.878  23.030  1.00  0.00     0.162 A 
ATOM     93  C   UNL A   1      33.011  17.500  25.181  1.00  0.00     0.235 A 
ATOM     94  N   UNL A   1      33.279  16.571  23.166  1.00  0.00    -0.088 NA
ATOM     95  O   UNL A   1      33.253  16.336  24.530  1.00  0.00    -0.364 OA
ENDBRANCH  90  91
ENDBRANCH  87  90
ENDBRANCH  85  87
ENDBRANCH  77  80
ENDBRANCH  75  76
ENDBRANCH  74  75
ENDBRANCH   1  74
TORSDOF 16
ENDMDL
MODEL 2
REMARK VINA RESULT:     -12.1      5.296     11.122
REMARK SMILES O=C(NCCCCCCNC(=O)c1ccc(S(=O)(=O)Cc2cnoc2)c(F)c1)c1ccc(-c2c3nc(c(-c4c(F)c(F)c(F)c(F)c4F)c4ccc([nH]4)c(-c4c(F)c(F)c(F)c(F)c4F)c4nc(c(-c5c(F)c(F)c(F)c(F)c5F)c5ccc2[nH]5)C=C4)C=C3)cc1
REMARK SMILES IDX 7 1 6 2 5 3 4 4 3 5 1 6 2 7 29 9 30 10 91 11 31 12 90 13
REMARK SMILES IDX 32 14 33 15 34 16 84 17 35 18 89 19 83 20 85 21 36 22 88 23
REMARK SMILES IDX 82 24 81 25 37 27 69 28 49 29 68 30 50 31 53 32 67 33 86 34
REMARK SMILES IDX 51 35 52 36 66 38 87 39 54 40 38 41 39 42 47 43 40 44 41 45
REMARK SMILES IDX 45 46 48 47 42 48 43 49 46 50 44 51 70 52 71 53 79 54 72 55
REMARK SMILES IDX 73 56 77 57 80 58 74 59 75 60 78 61 76 62 55 63 56 64 64 65
REMARK SMILES IDX 57 66 58 67 62 68 65 69 59 70 60 71 63 72 61 73 8 74 9 75
REMARK SMILES IDX 10 76 11 77 12 79 13 80 14 81 28 82 15 83 26 84 16 85 27 86
REMARK SMILES IDX 17 87 18 88 19 89 20 90 21 91 22 92 25 93 23 94 24 95
REMARK H PARENT 3 8 85 26 53 37 10 78
REMARK Flexibility Score: inf
ROOT
ATOM      1  C   UNL A   1      35.617  21.112  25.382  1.00  0.00     0.002 C 
ENDROOT
BRANCH   1   2
ATOM      2  C   UNL A   1      36.914  21.008  24.574  1.00  0.00     0.002 C 
BRANCH   2   3
ATOM      3  C   UNL A   1      37.843  19.856  24.954  1.00  0.00     0.021 C 
BRANCH   3   4
ATOM      4  C   UNL A   1      39.049  20.242  25.800  1.00  0.00     0.116 C 
BRANCH   4   5
ATOM      5  N   UNL A   1      40.082  19.219  25.823  1.00  0.00    -0.352 N 
ATOM      6  O   UNL A   1      42.177  18.380  25.887  1.00  0.00    -0.269 OA
ATOM      7  C   UNL A   1      41.436  19.347  26.030  1.00  0.00     0.251 C 
ATOM      8  H   UNL A   1      39.766  18.300  25.665  1.00  0.00     0.163 HD
BRANCH   7   9
ATOM      9  C   UNL A   1      42.007  20.664  26.392  1.00  0.00     0.039 A 
ATOM     10  C   UNL A   1      42.269  20.990  27.724  1.00  0.00     0.014 A 
ATOM     11  C   UNL A   1      42.275  21.590  25.380  1.00  0.00     0.014 A 
ATOM     12  C   UNL A   1      42.635  22.290  28.056  1.00  0.00     0.010 A 
ATOM     13  C   UNL A   1      42.729  22.871  25.710  1.00  0.00     0.010 A 
ATOM     14  C   UNL A   1      42.868  23.247  27.053  1.00  0.00    -0.014 A 
BRANCH  14  15
ATOM     15  C   UNL A   1      43.273  24.622  27.445  1.00  0.00     0.031 A 
ATOM     16  C   UNL A   1      44.664  25.129  27.176  1.00  0.00     0.074 A 
ATOM     17  C   UNL A   1      42.356  25.439  27.998  1.00  0.00     0.049 A 
ATOM     18  N   UNL A   1      45.165  26.320  27.398  1.00  0.00    -0.248 NA
ATOM     19  C   UNL A   1      45.619  24.181  26.585  1.00  0.00     0.031 C 
ATOM     20  C   UNL A   1      40.979  25.058  28.317  1.00  0.00     0.029 A 
ATOM     21  N   UNL A   1      42.429  26.760  28.360  1.00  0.00    -0.354 N 
ATOM     22  C   UNL A   1      46.491  26.258  26.992  1.00  0.00     0.074 A 
ATOM     23  C   UNL A   1      46.728  24.906  26.534  1.00  0.00     0.031 C 
ATOM     24  C   UNL A   1      40.320  26.135  28.768  1.00  0.00     0.029 A 
ATOM     25  C   UNL A   1      41.240  27.267  28.822  1.00  0.00     0.049 A 
ATOM     26  H   UNL A   1      43.253  27.294  28.294  1.00  0.00     0.167 HD
ATOM     27  C   UNL A   1      47.421  27.244  26.988  1.00  0.00     0.037 A 
ATOM     28  C   UNL A   1      40.920  28.505  29.245  1.00  0.00     0.037 A 
ATOM     29  C   UNL A   1      47.176  28.595  27.426  1.00  0.00     0.049 A 
ATOM     30  C   UNL A   1      41.969  29.578  29.231  1.00  0.00     0.074 A 
ATOM     31  C   UNL A   1      48.053  29.666  27.448  1.00  0.00     0.029 A 
ATOM     32  N   UNL A   1      45.965  29.061  27.916  1.00  0.00    -0.354 N 
ATOM     33  N   UNL A   1      43.216  29.508  28.833  1.00  0.00    -0.248 NA
ATOM     34  C   UNL A   1      41.569  30.901  29.728  1.00  0.00     0.031 C 
ATOM     35  C   UNL A   1      47.383  30.771  27.984  1.00  0.00     0.029 A 
ATOM     36  C   UNL A   1      46.075  30.401  28.251  1.00  0.00     0.049 A 
ATOM     37  H   UNL A   1      45.147  28.520  28.010  1.00  0.00     0.167 HD
ATOM     38  C   UNL A   1      43.746  30.777  29.018  1.00  0.00     0.074 A 
ATOM     39  C   UNL A   1      42.679  31.603  29.545  1.00  0.00     0.031 C 
ATOM     40  C   UNL A   1      45.005  31.213  28.774  1.00  0.00     0.037 A 
BRANCH  27  41
ATOM     41  C   UNL A   1      48.799  26.905  26.499  1.00  0.00     0.064 A 
ATOM     42  C   UNL A   1      49.128  27.047  25.142  1.00  0.00     0.173 A 
ATOM     43  C   UNL A   1      49.774  26.378  27.358  1.00  0.00     0.173 A 
ATOM     44  F   UNL A   1      48.229  27.540  24.277  1.00  0.00    -0.203 F 
ATOM     45  C   UNL A   1      50.378  26.663  24.663  1.00  0.00     0.198 A 
ATOM     46  C   UNL A   1      51.032  26.019  26.880  1.00  0.00     0.198 A 
ATOM     47  F   UNL A   1      49.514  26.233  28.667  1.00  0.00    -0.203 F 
ATOM     48  F   UNL A   1      50.658  26.782  23.358  1.00  0.00    -0.200 F 
ATOM     49  C   UNL A   1      51.330  26.154  25.532  1.00  0.00     0.200 A 
ATOM     50  F   UNL A   1      51.959  25.548  27.726  1.00  0.00    -0.200 F 
ATOM     51  F   UNL A   1      52.537  25.796  25.072  1.00  0.00    -0.200 F 
ENDBRANCH  27  41
BRANCH  28  52
ATOM     52  C   UNL A   1      39.531  28.784  29.685  1.00  0.00     0.064 A 
ATOM     53  C   UNL A   1      38.581  29.316  28.800  1.00  0.00     0.173 A 
ATOM     54  C   UNL A   1      39.143  28.578  31.015  1.00  0.00     0.173 A 
ATOM     55  F   UNL A   1      38.908  29.538  27.519  1.00  0.00    -0.203 F 
ATOM     56  C   UNL A   1      37.304  29.656  29.236  1.00  0.00     0.198 A 
ATOM     57  C   UNL A   1      37.856  28.894  31.444  1.00  0.00     0.198 A 
ATOM     58  F   UNL A   1      40.013  28.057  31.892  1.00  0.00    -0.203 F 
ATOM     59  F   UNL A   1      36.429  30.203  28.381  1.00  0.00    -0.200 F 
ATOM     60  C   UNL A   1      36.941  29.442  30.558  1.00  0.00     0.200 A 
ATOM     61  F   UNL A   1      37.503  28.668  32.718  1.00  0.00    -0.200 F 
ATOM     62  F   UNL A   1      35.711  29.766  30.978  1.00  0.00    -0.200 F 
ENDBRANCH  28  52
BRANCH  40  63
ATOM     63  C   UNL A   1      45.301  32.656  29.053  1.00  0.00     0.064 A 
ATOM     64  C   UNL A   1      45.760  33.055  30.317  1.00  0.00     0.173 A 
ATOM     65  C   UNL A   1      45.071  33.650  28.092  1.00  0.00     0.173 A 
ATOM     66  F   UNL A   1      45.988  32.141  31.273  1.00  0.00    -0.203 F 
ATOM     67  C   UNL A   1      45.971  34.399  30.611  1.00  0.00     0.198 A 
ATOM     68  C   UNL A   1      45.308  34.991  28.381  1.00  0.00     0.198 A 
ATOM     69  F   UNL A   1      44.644  33.317  26.864  1.00  0.00    -0.203 F 
ATOM     70  F   UNL A   1      46.386  34.759  31.833  1.00  0.00    -0.200 F 
ATOM     71  C   UNL A   1      45.750  35.365  29.641  1.00  0.00     0.200 A 
ATOM     72  F   UNL A   1      45.115  35.922  27.435  1.00  0.00    -0.200 F 
ATOM     73  F   UNL A   1      45.965  36.658  29.921  1.00  0.00    -0.200 F 
ENDBRANCH  40  63
ENDBRANCH  14  15
ENDBRANCH   7   9
ENDBRANCH   4   5
ENDBRANCH   3   4
ENDBRANCH   2   3
ENDBRANCH   1   2
BRANCH   1  74
ATOM     74  C   UNL A   1      34.384  20.447  24.760  1.00  0.00     0.021 C 
BRANCH  74  75
ATOM     75  C   UNL A   1      33.054  21.148  25.037  1.00  0.00     0.116 C 
BRANCH  75  76
ATOM     76  N   UNL A   1      32.845  21.375  26.456  1.00  0.00    -0.352 N 
ATOM     77  C   UNL A   1      32.636  22.557  27.118  1.00  0.00     0.251 C 
ATOM     78  H   UNL A   1      32.854  20.569  27.021  1.00  0.00     0.163 HD
ATOM     79  O   UNL A   1      32.628  22.608  28.342  1.00  0.00    -0.269 OA
BRANCH  77  80
ATOM     80  C   UNL A   1      32.435  23.790  26.339  1.00  0.00     0.042 A 
ATOM     81  C   UNL A   1      33.538  24.516  25.876  1.00  0.00     0.015 A 
ATOM     82  C   UNL A   1      31.134  24.218  26.077  1.00  0.00     0.054 A 
ATOM     83  C   UNL A   1      33.329  25.705  25.175  1.00  0.00     0.024 A 
ATOM     84  C   UNL A   1      30.936  25.415  25.396  1.00  0.00     0.142 A 
ATOM     85  C   UNL A   1      32.022  26.155  24.945  1.00  0.00     0.103 A 
ATOM     86  F   UNL A   1      29.680  25.843  25.228  1.00  0.00    -0.206 F 
BRANCH  85  87
ATOM     87  S   UNL A   1      31.807  27.703  24.125  1.00  0.00     0.185 S 
ATOM     88  O   UNL A   1      31.184  28.573  25.106  1.00  0.00    -0.223 OA
ATOM     89  O   UNL A   1      33.107  28.052  23.572  1.00  0.00    -0.223 OA
BRANCH  87  90
ATOM     90  C   UNL A   1      30.678  27.522  22.758  1.00  0.00     0.183 C 
BRANCH  90  91
ATOM     91  C   UNL A   1      29.728  28.641  22.550  1.00  0.00     0.027 A 
ATOM     92  C   UNL A   1      28.368  28.699  22.931  1.00  0.00     0.162 A 
ATOM     93  C   UNL A   1      29.948  29.877  21.989  1.00  0.00     0.235 A 
ATOM     94  N   UNL A   1      27.802  29.863  22.611  1.00  0.00    -0.088 NA
ATOM     95  O   UNL A   1      28.805  30.607  22.015  1.00  0.00    -0.364 OA
ENDBRANCH  90  91
ENDBRANCH  87  90
ENDBRANCH  85  87
ENDBRANCH  77  80
ENDBRANCH  75  76
ENDBRANCH  74  75
ENDBRANCH   1  74
TORSDOF 16
ENDMDL
MODEL 3
REMARK VINA RESULT:     -12.1      1.130      2.057
REMARK SMILES O=C(NCCCCCCNC(=O)c1ccc(S(=O)(=O)Cc2cnoc2)c(F)c1)c1ccc(-c2c3nc(c(-c4c(F)c(F)c(F)c(F)c4F)c4ccc([nH]4)c(-c4c(F)c(F)c(F)c(F)c4F)c4nc(c(-c5c(F)c(F)c(F)c(F)c5F)c5ccc2[nH]5)C=C4)C=C3)cc1
REMARK SMILES IDX 7 1 6 2 5 3 4 4 3 5 1 6 2 7 29 9 30 10 91 11 31 12 90 13
REMARK SMILES IDX 32 14 33 15 34 16 84 17 35 18 89 19 83 20 85 21 36 22 88 23
REMARK SMILES IDX 82 24 81 25 37 27 69 28 49 29 68 30 50 31 53 32 67 33 86 34
REMARK SMILES IDX 51 35 52 36 66 38 87 39 54 40 38 41 39 42 47 43 40 44 41 45
REMARK SMILES IDX 45 46 48 47 42 48 43 49 46 50 44 51 70 52 71 53 79 54 72 55
REMARK SMILES IDX 73 56 77 57 80 58 74 59 75 60 78 61 76 62 55 63 56 64 64 65
REMARK SMILES IDX 57 66 58 67 62 68 65 69 59 70 60 71 63 72 61 73 8 74 9 75
REMARK SMILES IDX 10 76 11 77 12 79 13 80 14 81 28 82 15 83 26 84 16 85 27 86
REMARK SMILES IDX 17 87 18 88 19 89 20 90 21 91 22 92 25 93 23 94 24 95
REMARK H PARENT 3 8 85 26 53 37 10 78
REMARK Flexibility Score: inf
ROOT
ATOM      1  C   UNL A   1      32.791  29.949  26.815  1.00  0.00     0.002 C 
ENDROOT
BRANCH   1   2
ATOM      2  C   UNL A   1      31.633  30.669  26.117  1.00  0.00     0.002 C 
BRANCH   2   3
ATOM      3  C   UNL A   1      31.418  32.127  26.523  1.00  0.00     0.021 C 
BRANCH   3   4
ATOM      4  C   UNL A   1      32.555  32.759  27.314  1.00  0.00     0.116 C 
BRANCH   4   5
ATOM      5  N   UNL A   1      32.306  34.149  27.661  1.00  0.00    -0.352 N 
ATOM      6  O   UNL A   1      32.519  36.072  28.824  1.00  0.00    -0.269 OA
ATOM      7  C   UNL A   1      32.952  34.952  28.571  1.00  0.00     0.251 C 
ATOM      8  H   UNL A   1      31.567  34.577  27.173  1.00  0.00     0.163 HD
BRANCH   7   9
ATOM      9  C   UNL A   1      34.152  34.452  29.279  1.00  0.00     0.039 A 
ATOM     10  C   UNL A   1      35.415  34.531  28.691  1.00  0.00     0.014 A 
ATOM     11  C   UNL A   1      34.006  33.886  30.549  1.00  0.00     0.014 A 
ATOM     12  C   UNL A   1      36.496  33.896  29.293  1.00  0.00     0.010 A 
ATOM     13  C   UNL A   1      35.114  33.326  31.194  1.00  0.00     0.010 A 
ATOM     14  C   UNL A   1      36.359  33.284  30.551  1.00  0.00    -0.014 A 
BRANCH  14  15
ATOM     15  C   UNL A   1      37.540  32.629  31.171  1.00  0.00     0.031 A 
ATOM     16  C   UNL A   1      37.979  32.979  32.567  1.00  0.00     0.074 A 
ATOM     17  C   UNL A   1      38.186  31.668  30.485  1.00  0.00     0.049 A 
ATOM     18  N   UNL A   1      38.950  32.462  33.280  1.00  0.00    -0.248 NA
ATOM     19  C   UNL A   1      37.239  34.048  33.253  1.00  0.00     0.031 C 
ATOM     20  C   UNL A   1      37.860  31.248  29.120  1.00  0.00     0.029 A 
ATOM     21  N   UNL A   1      39.226  30.848  30.845  1.00  0.00    -0.354 N 
ATOM     22  C   UNL A   1      38.947  33.151  34.485  1.00  0.00     0.074 A 
ATOM     23  C   UNL A   1      37.897  34.143  34.401  1.00  0.00     0.031 C 
ATOM     24  C   UNL A   1      38.640  30.212  28.782  1.00  0.00     0.029 A 
ATOM     25  C   UNL A   1      39.557  29.928  29.882  1.00  0.00     0.049 A 
ATOM     26  H   UNL A   1      39.690  30.913  31.711  1.00  0.00     0.167 HD
ATOM     27  C   UNL A   1      39.740  32.962  35.568  1.00  0.00     0.037 A 
ATOM     28  C   UNL A   1      40.494  28.961  29.880  1.00  0.00     0.037 A 
ATOM     29  C   UNL A   1      40.771  31.960  35.657  1.00  0.00     0.049 A 
ATOM     30  C   UNL A   1      41.359  28.774  31.091  1.00  0.00     0.074 A 
ATOM     31  C   UNL A   1      41.617  31.685  36.717  1.00  0.00     0.029 A 
ATOM     32  N   UNL A   1      41.095  31.065  34.647  1.00  0.00    -0.354 N 
ATOM     33  N   UNL A   1      41.337  29.425  32.228  1.00  0.00    -0.248 NA
ATOM     34  C   UNL A   1      42.380  27.720  31.020  1.00  0.00     0.031 C 
ATOM     35  C   UNL A   1      42.477  30.649  36.337  1.00  0.00     0.029 A 
ATOM     36  C   UNL A   1      42.135  30.246  35.057  1.00  0.00     0.049 A 
ATOM     37  H   UNL A   1      40.651  31.019  33.770  1.00  0.00     0.167 HD
ATOM     38  C   UNL A   1      42.329  28.855  33.012  1.00  0.00     0.074 A 
ATOM     39  C   UNL A   1      42.921  27.790  32.228  1.00  0.00     0.031 C 
ATOM     40  C   UNL A   1      42.714  29.188  34.268  1.00  0.00     0.037 A 
BRANCH  27  41
ATOM     41  C   UNL A   1      39.532  33.860  36.753  1.00  0.00     0.064 A 
ATOM     42  C   UNL A   1      40.167  35.109  36.820  1.00  0.00     0.173 A 
ATOM     43  C   UNL A   1      38.759  33.458  37.852  1.00  0.00     0.173 A 
ATOM     44  F   UNL A   1      40.924  35.538  35.799  1.00  0.00    -0.203 F 
ATOM     45  C   UNL A   1      40.044  35.917  37.948  1.00  0.00     0.198 A 
ATOM     46  C   UNL A   1      38.616  34.279  38.967  1.00  0.00     0.198 A 
ATOM     47  F   UNL A   1      38.120  32.277  37.833  1.00  0.00    -0.203 F 
ATOM     48  F   UNL A   1      40.683  37.094  38.000  1.00  0.00    -0.200 F 
ATOM     49  C   UNL A   1      39.266  35.504  39.018  1.00  0.00     0.200 A 
ATOM     50  F   UNL A   1      37.845  33.888  39.992  1.00  0.00    -0.200 F 
ATOM     51  F   UNL A   1      39.139  36.287  40.098  1.00  0.00    -0.200 F 
ENDBRANCH  27  41
BRANCH  28  52
ATOM     52  C   UNL A   1      40.627  28.085  28.689  1.00  0.00     0.064 A 
ATOM     53  C   UNL A   1      41.405  28.469  27.586  1.00  0.00     0.173 A 
ATOM     54  C   UNL A   1      39.933  26.870  28.609  1.00  0.00     0.173 A 
ATOM     55  F   UNL A   1      42.081  29.627  27.614  1.00  0.00    -0.203 F 
ATOM     56  C   UNL A   1      41.459  27.685  26.438  1.00  0.00     0.198 A 
ATOM     57  C   UNL A   1      40.010  26.074  27.469  1.00  0.00     0.198 A 
ATOM     58  F   UNL A   1      39.190  26.455  29.645  1.00  0.00    -0.203 F 
ATOM     59  F   UNL A   1      42.174  28.096  25.382  1.00  0.00    -0.200 F 
ATOM     60  C   UNL A   1      40.764  26.487  26.381  1.00  0.00     0.200 A 
ATOM     61  F   UNL A   1      39.351  24.907  27.424  1.00  0.00    -0.200 F 
ATOM     62  F   UNL A   1      40.820  25.730  25.276  1.00  0.00    -0.200 F 
ENDBRANCH  28  52
BRANCH  40  63
ATOM     63  C   UNL A   1      43.816  28.382  34.888  1.00  0.00     0.064 A 
ATOM     64  C   UNL A   1      43.520  27.235  35.639  1.00  0.00     0.173 A 
ATOM     65  C   UNL A   1      45.157  28.779  34.792  1.00  0.00     0.173 A 
ATOM     66  F   UNL A   1      42.251  26.819  35.767  1.00  0.00    -0.203 F 
ATOM     67  C   UNL A   1      44.528  26.519  36.279  1.00  0.00     0.198 A 
ATOM     68  C   UNL A   1      46.165  28.046  35.411  1.00  0.00     0.198 A 
ATOM     69  F   UNL A   1      45.491  29.862  34.074  1.00  0.00    -0.203 F 
ATOM     70  F   UNL A   1      44.220  25.441  37.012  1.00  0.00    -0.200 F 
ATOM     71  C   UNL A   1      45.849  26.922  36.161  1.00  0.00     0.200 A 
ATOM     72  F   UNL A   1      47.444  28.424  35.278  1.00  0.00    -0.200 F 
ATOM     73  F   UNL A   1      46.820  26.224  36.766  1.00  0.00    -0.200 F 
ENDBRANCH  40  63
ENDBRANCH  14  15
ENDBRANCH   7   9
ENDBRANCH   4   5
ENDBRANCH   3   4
ENDBRANCH   2   3
ENDBRANCH   1   2
BRANCH   1  74
ATOM     74  C   UNL A   1      33.518  28.886  25.984  1.00  0.00     0.021 C 
BRANCH  74  75
ATOM     75  C   UNL A   1      32.633  28.081  25.032  1.00  0.00     0.116 C 
BRANCH  75  76
ATOM     76  N   UNL A   1      33.084  28.183  23.655  1.00  0.00    -0.352 N 
ATOM     77  C   UNL A   1      33.389  27.181  22.773  1.00  0.00     0.251 C 
ATOM     78  H   UNL A   1      33.182  29.098  23.307  1.00  0.00     0.163 HD
ATOM     79  O   UNL A   1      33.905  27.423  21.689  1.00  0.00    -0.269 OA
BRANCH  77  80
ATOM     80  C   UNL A   1      33.109  25.784  23.147  1.00  0.00     0.042 A 
ATOM     81  C   UNL A   1      34.138  24.963  23.622  1.00  0.00     0.015 A 
ATOM     82  C   UNL A   1      31.807  25.300  23.017  1.00  0.00     0.054 A 
ATOM     83  C   UNL A   1      33.862  23.631  23.933  1.00  0.00     0.024 A 
ATOM     84  C   UNL A   1      31.547  23.965  23.308  1.00  0.00     0.142 A 
ATOM     85  C   UNL A   1      32.562  23.133  23.764  1.00  0.00     0.103 A 
ATOM     86  F   UNL A   1      30.309  23.505  23.098  1.00  0.00    -0.206 F 
BRANCH  85  87
ATOM     87  S   UNL A   1      32.278  21.422  24.093  1.00  0.00     0.185 S 
ATOM     88  O   UNL A   1      31.296  21.397  25.163  1.00  0.00    -0.223 OA
ATOM     89  O   UNL A   1      31.965  20.810  22.811  1.00  0.00    -0.223 OA
BRANCH  87  90
ATOM     90  C   UNL A   1      33.769  20.659  24.700  1.00  0.00     0.183 C 
BRANCH  90  91
ATOM     91  C   UNL A   1      33.711  19.190  24.895  1.00  0.00     0.027 A 
ATOM     92  C   UNL A   1      34.607  18.218  24.392  1.00  0.00     0.162 A 
ATOM     93  C   UNL A   1      32.821  18.442  25.630  1.00  0.00     0.235 A 
ATOM     94  N   UNL A   1      34.278  16.983  24.771  1.00  0.00    -0.088 NA
ATOM     95  O   UNL A   1      33.148  17.129  25.555  1.00  0.00    -0.364 OA
ENDBRANCH  90  91
ENDBRANCH  87  90
ENDBRANCH  85  87
ENDBRANCH  77  80
ENDBRANCH  75  76
ENDBRANCH  74  75
ENDBRANCH   1  74
TORSDOF 16
ENDMDL
