MODEL 1
REMARK VINA RESULT:     -12.5      0.000      0.000
REMARK SMILES O=C(CS(=O)(=O)NCc1ccc(N2CCOCC2)nc1)NCCCCCCNC(=O)c1ccc(-c2c3nc(c(-c4c(F)c(F)c(F)c(F)c4F)c4ccc([nH]4)c(-c4c(F)c(F)c(F)c(F)c4F)c4nc(c(-c5c(F)c(F)c(F)c(F)c5F)c5ccc2[nH]5)C=C4)C=C3)cc1
REMARK SMILES IDX 23 1 22 2 21 3 1 4 2 5 3 7 4 8 5 9 6 10 7 11 8 13 9 14 10 15
REMARK SMILES IDX 20 16 11 17 19 18 12 19 13 20 14 21 18 22 15 23 17 24 16 25
REMARK SMILES IDX 24 26 25 27 26 28 27 29 28 30 29 31 30 33 31 34 32 35 93 36
REMARK SMILES IDX 33 37 92 38 34 39 35 40 36 41 86 42 37 43 91 44 85 45 87 46
REMARK SMILES IDX 38 47 90 48 84 49 83 50 39 52 71 53 51 54 70 55 52 56 55 57
REMARK SMILES IDX 69 58 88 59 53 60 54 61 68 63 89 64 56 65 40 66 41 67 49 68
REMARK SMILES IDX 42 69 43 70 47 71 50 72 44 73 45 74 48 75 46 76 72 77 73 78
REMARK SMILES IDX 81 79 74 80 75 81 79 82 82 83 76 84 77 85 80 86 78 87 57 88
REMARK SMILES IDX 58 89 66 90 59 91 60 92 64 93 67 94 61 95 62 96 65 97 63 98
REMARK H PARENT 21 6 7 12 28 32 87 51 55 62
REMARK Flexibility Score: inf
ROOT
ATOM      1  C   UNL A   1      31.947  28.156  27.212  1.00  0.00     0.021 C 
ENDROOT
BRANCH   1   2
ATOM      2  C   UNL A   1      31.290  27.638  25.930  1.00  0.00     0.116 C 
BRANCH   2   3
ATOM      3  N   UNL A   1      32.230  27.187  24.913  1.00  0.00    -0.355 N 
ATOM      4  O   UNL A   1      31.377  28.592  23.328  1.00  0.00    -0.274 OA
ATOM      5  C   UNL A   1      32.225  27.762  23.655  1.00  0.00     0.236 C 
ATOM      6  H   UNL A   1      32.872  26.471  25.122  1.00  0.00     0.163 HD
BRANCH   5   7
ATOM      7  C   UNL A   1      33.251  27.282  22.681  1.00  0.00     0.253 C 
BRANCH   7   8
ATOM      8  S   UNL A   1      32.943  25.655  22.031  1.00  0.00     0.220 S 
ATOM      9  O   UNL A   1      31.605  25.261  22.422  1.00  0.00    -0.212 OA
ATOM     10  O   UNL A   1      33.245  25.717  20.617  1.00  0.00    -0.212 OA
BRANCH   8  11
ATOM     11  N   UNL A   1      34.057  24.580  22.625  1.00  0.00    -0.210 NA
ATOM     12  H   UNL A   1      34.950  25.066  22.536  1.00  0.00     0.141 HD
BRANCH  11  13
ATOM     13  C   UNL A   1      34.118  23.943  23.948  1.00  0.00     0.135 C 
BRANCH  13  14
ATOM     14  C   UNL A   1      33.761  22.491  24.048  1.00  0.00    -0.015 A 
ATOM     15  C   UNL A   1      34.628  21.591  24.636  1.00  0.00     0.010 A 
ATOM     16  C   UNL A   1      32.615  21.932  23.503  1.00  0.00     0.118 A 
ATOM     17  C   UNL A   1      34.282  20.263  24.797  1.00  0.00     0.047 A 
ATOM     18  N   UNL A   1      32.319  20.600  23.525  1.00  0.00    -0.239 NA
ATOM     19  C   UNL A   1      33.140  19.766  24.203  1.00  0.00     0.128 A 
BRANCH  19  20
ATOM     20  N   UNL A   1      32.899  18.417  24.234  1.00  0.00    -0.352 N 
ATOM     21  C   UNL A   1      32.540  17.685  25.451  1.00  0.00     0.146 C 
ATOM     22  C   UNL A   1      33.050  17.611  23.029  1.00  0.00     0.146 C 
ATOM     23  C   UNL A   1      33.501  16.503  25.650  1.00  0.00     0.181 C 
ATOM     24  C   UNL A   1      33.997  16.433  23.341  1.00  0.00     0.181 C 
ATOM     25  O   UNL A   1      33.554  15.672  24.479  1.00  0.00    -0.378 OA
ENDBRANCH  19  20
ENDBRANCH  13  14
ENDBRANCH  11  13
ENDBRANCH   8  11
ENDBRANCH   7   8
ENDBRANCH   5   7
ENDBRANCH   2   3
ENDBRANCH   1   2
BRANCH   1  26
ATOM     26  C   UNL A   1      32.660  29.507  27.086  1.00  0.00     0.002 C 
BRANCH  26  27
ATOM     27  C   UNL A   1      31.958  30.534  26.199  1.00  0.00     0.002 C 
BRANCH  27  28
ATOM     28  C   UNL A   1      31.580  31.866  26.828  1.00  0.00     0.021 C 
BRANCH  28  29
ATOM     29  C   UNL A   1      32.740  32.678  27.372  1.00  0.00     0.116 C 
BRANCH  29  30
ATOM     30  N   UNL A   1      32.404  34.069  27.647  1.00  0.00    -0.352 N 
ATOM     31  C   UNL A   1      32.969  34.946  28.546  1.00  0.00     0.251 C 
ATOM     32  H   UNL A   1      31.665  34.436  27.111  1.00  0.00     0.163 HD
ATOM     33  O   UNL A   1      32.492  36.065  28.703  1.00  0.00    -0.269 OA
BRANCH  31  34
ATOM     34  C   UNL A   1      34.139  34.519  29.345  1.00  0.00     0.039 A 
ATOM     35  C   UNL A   1      33.939  33.977  30.617  1.00  0.00     0.014 A 
ATOM     36  C   UNL A   1      35.429  34.611  28.818  1.00  0.00     0.014 A 
ATOM     37  C   UNL A   1      35.025  33.441  31.317  1.00  0.00     0.010 A 
ATOM     38  C   UNL A   1      36.484  33.978  29.464  1.00  0.00     0.010 A 
ATOM     39  C   UNL A   1      36.297  33.389  30.723  1.00  0.00    -0.014 A 
BRANCH  39  40
ATOM     40  C   UNL A   1      37.452  32.734  31.392  1.00  0.00     0.031 A 
ATOM     41  C   UNL A   1      38.157  31.588  30.720  1.00  0.00     0.074 A 
ATOM     42  C   UNL A   1      37.815  33.113  32.634  1.00  0.00     0.049 A 
ATOM     43  N   UNL A   1      39.116  30.820  31.176  1.00  0.00    -0.248 NA
ATOM     44  C   UNL A   1      37.701  31.232  29.367  1.00  0.00     0.031 C 
ATOM     45  C   UNL A   1      37.180  34.176  33.416  1.00  0.00     0.029 A 
ATOM     46  N   UNL A   1      38.803  32.639  33.462  1.00  0.00    -0.354 N 
ATOM     47  C   UNL A   1      39.363  29.889  30.175  1.00  0.00     0.074 A 
ATOM     48  C   UNL A   1      38.408  30.141  29.119  1.00  0.00     0.031 C 
ATOM     49  C   UNL A   1      37.815  34.296  34.593  1.00  0.00     0.029 A 
ATOM     50  C   UNL A   1      38.869  33.290  34.671  1.00  0.00     0.049 A 
ATOM     51  H   UNL A   1      39.405  31.902  33.214  1.00  0.00     0.167 HD
ATOM     52  C   UNL A   1      40.319  28.933  30.124  1.00  0.00     0.037 A 
ATOM     53  C   UNL A   1      39.684  33.092  35.724  1.00  0.00     0.037 A 
ATOM     54  C   UNL A   1      41.285  28.701  31.166  1.00  0.00     0.049 A 
ATOM     55  C   UNL A   1      40.726  32.008  35.654  1.00  0.00     0.074 A 
ATOM     56  C   UNL A   1      42.326  27.790  31.191  1.00  0.00     0.029 A 
ATOM     57  N   UNL A   1      41.326  29.390  32.370  1.00  0.00    -0.354 N 
ATOM     58  N   UNL A   1      40.989  31.175  34.676  1.00  0.00    -0.248 NA
ATOM     59  C   UNL A   1      41.588  31.840  36.831  1.00  0.00     0.031 C 
ATOM     60  C   UNL A   1      42.966  27.891  32.430  1.00  0.00     0.029 A 
ATOM     61  C   UNL A   1      42.363  28.907  33.154  1.00  0.00     0.049 A 
ATOM     62  H   UNL A   1      40.711  30.113  32.629  1.00  0.00     0.167 HD
ATOM     63  C   UNL A   1      42.065  30.409  35.105  1.00  0.00     0.074 A 
ATOM     64  C   UNL A   1      42.415  30.886  36.428  1.00  0.00     0.031 C 
ATOM     65  C   UNL A   1      42.706  29.401  34.463  1.00  0.00     0.037 A 
BRANCH  52  66
ATOM     66  C   UNL A   1      40.375  28.071  28.895  1.00  0.00     0.064 A 
ATOM     67  C   UNL A   1      41.141  28.435  27.776  1.00  0.00     0.173 A 
ATOM     68  C   UNL A   1      39.684  26.851  28.845  1.00  0.00     0.173 A 
ATOM     69  F   UNL A   1      41.812  29.597  27.765  1.00  0.00    -0.203 F 
ATOM     70  C   UNL A   1      41.185  27.627  26.643  1.00  0.00     0.198 A 
ATOM     71  C   UNL A   1      39.760  26.029  27.723  1.00  0.00     0.198 A 
ATOM     72  F   UNL A   1      38.942  26.451  29.888  1.00  0.00    -0.203 F 
ATOM     73  F   UNL A   1      41.876  28.025  25.566  1.00  0.00    -0.200 F 
ATOM     74  C   UNL A   1      40.501  26.422  26.620  1.00  0.00     0.200 A 
ATOM     75  F   UNL A   1      39.109  24.857  27.709  1.00  0.00    -0.200 F 
ATOM     76  F   UNL A   1      40.552  25.641  25.533  1.00  0.00    -0.200 F 
ENDBRANCH  52  66
BRANCH  53  77
ATOM     77  C   UNL A   1      39.572  33.960  36.928  1.00  0.00     0.064 A 
ATOM     78  C   UNL A   1      38.799  33.563  38.029  1.00  0.00     0.173 A 
ATOM     79  C   UNL A   1      40.219  35.202  37.002  1.00  0.00     0.173 A 
ATOM     80  F   UNL A   1      38.141  32.394  37.998  1.00  0.00    -0.203 F 
ATOM     81  C   UNL A   1      38.660  34.383  39.146  1.00  0.00     0.198 A 
ATOM     82  C   UNL A   1      40.106  36.007  38.134  1.00  0.00     0.198 A 
ATOM     83  F   UNL A   1      40.975  35.628  35.978  1.00  0.00    -0.203 F 
ATOM     84  F   UNL A   1      37.875  34.000  40.162  1.00  0.00    -0.200 F 
ATOM     85  C   UNL A   1      39.319  35.601  39.200  1.00  0.00     0.200 A 
ATOM     86  F   UNL A   1      40.756  37.177  38.188  1.00  0.00    -0.200 F 
ATOM     87  F   UNL A   1      39.189  36.388  40.277  1.00  0.00    -0.200 F 
ENDBRANCH  53  77
BRANCH  65  88
ATOM     88  C   UNL A   1      43.880  28.774  35.159  1.00  0.00     0.064 A 
ATOM     89  C   UNL A   1      45.181  29.274  35.014  1.00  0.00     0.173 A 
ATOM     90  C   UNL A   1      43.689  27.683  36.021  1.00  0.00     0.173 A 
ATOM     91  F   UNL A   1      45.420  30.308  34.191  1.00  0.00    -0.203 F 
ATOM     92  C   UNL A   1      46.252  28.689  35.684  1.00  0.00     0.198 A 
ATOM     93  C   UNL A   1      44.756  27.122  36.717  1.00  0.00     0.198 A 
ATOM     94  F   UNL A   1      42.462  27.170  36.203  1.00  0.00    -0.203 F 
ATOM     95  F   UNL A   1      47.494  29.152  35.490  1.00  0.00    -0.200 F 
ATOM     96  C   UNL A   1      46.038  27.620  36.540  1.00  0.00     0.200 A 
ATOM     97  F   UNL A   1      44.544  26.100  37.557  1.00  0.00    -0.200 F 
ATOM     98  F   UNL A   1      47.069  27.065  37.193  1.00  0.00    -0.200 F 
ENDBRANCH  65  88
ENDBRANCH  39  40
ENDBRANCH  31  34
ENDBRANCH  29  30
ENDBRANCH  28  29
ENDBRANCH  27  28
ENDBRANCH  26  27
ENDBRANCH   1  26
TORSDOF 18
ENDMDL
MODEL 2
REMARK VINA RESULT:     -12.2      3.184      8.802
REMARK SMILES O=C(CS(=O)(=O)NCc1ccc(N2CCOCC2)nc1)NCCCCCCNC(=O)c1ccc(-c2c3nc(c(-c4c(F)c(F)c(F)c(F)c4F)c4ccc([nH]4)c(-c4c(F)c(F)c(F)c(F)c4F)c4nc(c(-c5c(F)c(F)c(F)c(F)c5F)c5ccc2[nH]5)C=C4)C=C3)cc1
REMARK SMILES IDX 23 1 22 2 21 3 1 4 2 5 3 7 4 8 5 9 6 10 7 11 8 13 9 14 10 15
REMARK SMILES IDX 20 16 11 17 19 18 12 19 13 20 14 21 18 22 15 23 17 24 16 25
REMARK SMILES IDX 24 26 25 27 26 28 27 29 28 30 29 31 30 33 31 34 32 35 93 36
REMARK SMILES IDX 33 37 92 38 34 39 35 40 36 41 86 42 37 43 91 44 85 45 87 46
REMARK SMILES IDX 38 47 90 48 84 49 83 50 39 52 71 53 51 54 70 55 52 56 55 57
REMARK SMILES IDX 69 58 88 59 53 60 54 61 68 63 89 64 56 65 40 66 41 67 49 68
REMARK SMILES IDX 42 69 43 70 47 71 50 72 44 73 45 74 48 75 46 76 72 77 73 78
REMARK SMILES IDX 81 79 74 80 75 81 79 82 82 83 76 84 77 85 80 86 78 87 57 88
REMARK SMILES IDX 58 89 66 90 59 91 60 92 64 93 67 94 61 95 62 96 65 97 63 98
REMARK H PARENT 21 6 7 12 28 32 87 51 55 62
REMARK Flexibility Score: inf
ROOT
ATOM      1  C   UNL A   1      34.025  31.405  27.709  1.00  0.00     0.021 C 
ENDROOT
BRANCH   1   2
ATOM      2  C   UNL A   1      34.469  29.943  27.616  1.00  0.00     0.116 C 
BRANCH   2   3
ATOM      3  N   UNL A   1      33.374  28.984  27.580  1.00  0.00    -0.355 N 
ATOM      4  O   UNL A   1      32.941  29.373  25.372  1.00  0.00    -0.274 OA
ATOM      5  C   UNL A   1      32.702  28.734  26.397  1.00  0.00     0.236 C 
ATOM      6  H   UNL A   1      33.109  28.511  28.402  1.00  0.00     0.163 HD
BRANCH   5   7
ATOM      7  C   UNL A   1      31.623  27.702  26.429  1.00  0.00     0.253 C 
BRANCH   7   8
ATOM      8  S   UNL A   1      32.177  26.048  26.079  1.00  0.00     0.220 S 
ATOM      9  O   UNL A   1      33.622  26.071  25.979  1.00  0.00    -0.212 OA
ATOM     10  O   UNL A   1      31.581  25.198  27.088  1.00  0.00    -0.212 OA
BRANCH   8  11
ATOM     11  N   UNL A   1      31.508  25.506  24.663  1.00  0.00    -0.210 NA
ATOM     12  H   UNL A   1      30.509  25.445  24.862  1.00  0.00     0.141 HD
BRANCH  11  13
ATOM     13  C   UNL A   1      31.577  26.097  23.319  1.00  0.00     0.135 C 
BRANCH  13  14
ATOM     14  C   UNL A   1      30.712  27.286  23.028  1.00  0.00    -0.015 A 
ATOM     15  C   UNL A   1      31.264  28.458  22.547  1.00  0.00     0.010 A 
ATOM     16  C   UNL A   1      29.351  27.343  23.289  1.00  0.00     0.118 A 
ATOM     17  C   UNL A   1      30.471  29.538  22.208  1.00  0.00     0.047 A 
ATOM     18  N   UNL A   1      28.572  28.447  23.096  1.00  0.00    -0.239 NA
ATOM     19  C   UNL A   1      29.128  29.538  22.523  1.00  0.00     0.128 A 
BRANCH  19  20
ATOM     20  N   UNL A   1      28.393  30.679  22.330  1.00  0.00    -0.352 N 
ATOM     21  C   UNL A   1      27.724  31.011  21.070  1.00  0.00     0.146 C 
ATOM     22  C   UNL A   1      28.287  31.678  23.387  1.00  0.00     0.146 C 
ATOM     23  C   UNL A   1      28.156  32.409  20.604  1.00  0.00     0.181 C 
ATOM     24  C   UNL A   1      28.702  33.048  22.812  1.00  0.00     0.181 C 
ATOM     25  O   UNL A   1      27.948  33.389  21.634  1.00  0.00    -0.378 OA
ENDBRANCH  19  20
ENDBRANCH  13  14
ENDBRANCH  11  13
ENDBRANCH   8  11
ENDBRANCH   7   8
ENDBRANCH   5   7
ENDBRANCH   2   3
ENDBRANCH   1   2
BRANCH   1  26
ATOM     26  C   UNL A   1      35.108  32.394  28.154  1.00  0.00     0.002 C 
BRANCH  26  27
ATOM     27  C   UNL A   1      34.677  33.395  29.224  1.00  0.00     0.002 C 
BRANCH  27  28
ATOM     28  C   UNL A   1      33.467  34.267  28.927  1.00  0.00     0.021 C 
BRANCH  28  29
ATOM     29  C   UNL A   1      33.572  35.704  29.403  1.00  0.00     0.116 C 
BRANCH  29  30
ATOM     30  N   UNL A   1      32.598  36.053  30.430  1.00  0.00    -0.352 N 
ATOM     31  C   UNL A   1      32.611  35.778  31.778  1.00  0.00     0.251 C 
ATOM     32  H   UNL A   1      31.818  36.561  30.112  1.00  0.00     0.163 HD
ATOM     33  O   UNL A   1      31.651  36.078  32.481  1.00  0.00    -0.269 OA
BRANCH  31  34
ATOM     34  C   UNL A   1      33.777  35.088  32.372  1.00  0.00     0.039 A 
ATOM     35  C   UNL A   1      33.629  33.789  32.865  1.00  0.00     0.014 A 
ATOM     36  C   UNL A   1      35.029  35.707  32.398  1.00  0.00     0.014 A 
ATOM     37  C   UNL A   1      34.755  33.081  33.295  1.00  0.00     0.010 A 
ATOM     38  C   UNL A   1      36.158  34.964  32.718  1.00  0.00     0.010 A 
ATOM     39  C   UNL A   1      36.036  33.644  33.175  1.00  0.00    -0.014 A 
BRANCH  39  40
ATOM     40  C   UNL A   1      37.265  32.883  33.523  1.00  0.00     0.031 A 
ATOM     41  C   UNL A   1      37.993  33.178  34.806  1.00  0.00     0.074 A 
ATOM     42  C   UNL A   1      37.772  31.987  32.652  1.00  0.00     0.049 A 
ATOM     43  N   UNL A   1      39.131  32.700  35.244  1.00  0.00    -0.248 NA
ATOM     44  C   UNL A   1      37.378  34.170  35.702  1.00  0.00     0.031 C 
ATOM     45  C   UNL A   1      37.192  31.646  31.352  1.00  0.00     0.029 A 
ATOM     46  N   UNL A   1      38.899  31.205  32.726  1.00  0.00    -0.354 N 
ATOM     47  C   UNL A   1      39.370  33.342  36.453  1.00  0.00     0.074 A 
ATOM     48  C   UNL A   1      38.299  34.295  36.645  1.00  0.00     0.031 C 
ATOM     49  C   UNL A   1      37.945  30.701  30.767  1.00  0.00     0.029 A 
ATOM     50  C   UNL A   1      39.086  30.402  31.626  1.00  0.00     0.049 A 
ATOM     51  H   UNL A   1      39.514  31.218  33.494  1.00  0.00     0.167 HD
ATOM     52  C   UNL A   1      40.371  33.135  37.339  1.00  0.00     0.037 A 
ATOM     53  C   UNL A   1      40.072  29.530  31.341  1.00  0.00     0.037 A 
ATOM     54  C   UNL A   1      41.423  32.168  37.158  1.00  0.00     0.049 A 
ATOM     55  C   UNL A   1      41.188  29.333  32.332  1.00  0.00     0.074 A 
ATOM     56  C   UNL A   1      42.457  31.847  38.019  1.00  0.00     0.029 A 
ATOM     57  N   UNL A   1      41.571  31.367  36.035  1.00  0.00    -0.354 N 
ATOM     58  N   UNL A   1      41.369  29.902  33.499  1.00  0.00    -0.248 NA
ATOM     59  C   UNL A   1      42.234  28.367  31.968  1.00  0.00     0.031 C 
ATOM     60  C   UNL A   1      43.262  30.887  37.395  1.00  0.00     0.029 A 
ATOM     61  C   UNL A   1      42.695  30.566  36.172  1.00  0.00     0.049 A 
ATOM     62  H   UNL A   1      40.969  31.366  35.256  1.00  0.00     0.167 HD
ATOM     63  C   UNL A   1      42.527  29.341  34.023  1.00  0.00     0.074 A 
ATOM     64  C   UNL A   1      42.998  28.376  33.051  1.00  0.00     0.031 C 
ATOM     65  C   UNL A   1      43.144  29.601  35.202  1.00  0.00     0.037 A 
BRANCH  52  66
ATOM     66  C   UNL A   1      40.373  33.964  38.593  1.00  0.00     0.064 A 
ATOM     67  C   UNL A   1      39.672  33.560  39.741  1.00  0.00     0.173 A 
ATOM     68  C   UNL A   1      41.107  35.157  38.660  1.00  0.00     0.173 A 
ATOM     69  F   UNL A   1      38.944  32.434  39.727  1.00  0.00    -0.203 F 
ATOM     70  C   UNL A   1      39.682  34.336  40.897  1.00  0.00     0.198 A 
ATOM     71  C   UNL A   1      41.143  35.912  39.830  1.00  0.00     0.198 A 
ATOM     72  F   UNL A   1      41.799  35.587  37.595  1.00  0.00    -0.203 F 
ATOM     73  F   UNL A   1      38.959  33.959  41.960  1.00  0.00    -0.200 F 
ATOM     74  C   UNL A   1      40.423  35.507  40.943  1.00  0.00     0.200 A 
ATOM     75  F   UNL A   1      41.872  37.036  39.877  1.00  0.00    -0.200 F 
ATOM     76  F   UNL A   1      40.438  36.249  42.059  1.00  0.00    -0.200 F 
ENDBRANCH  52  66
BRANCH  53  77
ATOM     77  C   UNL A   1      40.035  28.751  30.074  1.00  0.00     0.064 A 
ATOM     78  C   UNL A   1      39.425  27.489  30.024  1.00  0.00     0.173 A 
ATOM     79  C   UNL A   1      40.614  29.240  28.894  1.00  0.00     0.173 A 
ATOM     80  F   UNL A   1      38.876  26.968  31.132  1.00  0.00    -0.203 F 
ATOM     81  C   UNL A   1      39.414  26.738  28.851  1.00  0.00     0.198 A 
ATOM     82  C   UNL A   1      40.575  28.501  27.712  1.00  0.00     0.198 A 
ATOM     83  F   UNL A   1      41.207  30.443  28.884  1.00  0.00    -0.203 F 
ATOM     84  F   UNL A   1      38.868  25.515  28.847  1.00  0.00    -0.200 F 
ATOM     85  C   UNL A   1      39.984  27.248  27.695  1.00  0.00     0.200 A 
ATOM     86  F   UNL A   1      41.114  29.004  26.593  1.00  0.00    -0.200 F 
ATOM     87  F   UNL A   1      39.970  26.527  26.565  1.00  0.00    -0.200 F 
ENDBRANCH  53  77
BRANCH  65  88
ATOM     88  C   UNL A   1      44.372  28.802  35.530  1.00  0.00     0.064 A 
ATOM     89  C   UNL A   1      45.658  29.254  35.206  1.00  0.00     0.173 A 
ATOM     90  C   UNL A   1      44.259  27.585  36.222  1.00  0.00     0.173 A 
ATOM     91  F   UNL A   1      45.821  30.404  34.533  1.00  0.00    -0.203 F 
ATOM     92  C   UNL A   1      46.785  28.505  35.537  1.00  0.00     0.198 A 
ATOM     93  C   UNL A   1      45.389  26.857  36.582  1.00  0.00     0.198 A 
ATOM     94  F   UNL A   1      43.051  27.111  36.565  1.00  0.00    -0.203 F 
ATOM     95  F   UNL A   1      48.001  28.932  35.171  1.00  0.00    -0.200 F 
ATOM     96  C   UNL A   1      46.650  27.313  36.232  1.00  0.00     0.200 A 
ATOM     97  F   UNL A   1      45.257  25.714  37.269  1.00  0.00    -0.200 F 
ATOM     98  F   UNL A   1      47.736  26.599  36.559  1.00  0.00    -0.200 F 
ENDBRANCH  65  88
ENDBRANCH  39  40
ENDBRANCH  31  34
ENDBRANCH  29  30
ENDBRANCH  28  29
ENDBRANCH  27  28
ENDBRANCH  26  27
ENDBRANCH   1  26
TORSDOF 18
ENDMDL
MODEL 3
REMARK VINA RESULT:     -12.1      0.999      7.259
REMARK SMILES O=C(CS(=O)(=O)NCc1ccc(N2CCOCC2)nc1)NCCCCCCNC(=O)c1ccc(-c2c3nc(c(-c4c(F)c(F)c(F)c(F)c4F)c4ccc([nH]4)c(-c4c(F)c(F)c(F)c(F)c4F)c4nc(c(-c5c(F)c(F)c(F)c(F)c5F)c5ccc2[nH]5)C=C4)C=C3)cc1
REMARK SMILES IDX 23 1 22 2 21 3 1 4 2 5 3 7 4 8 5 9 6 10 7 11 8 13 9 14 10 15
REMARK SMILES IDX 20 16 11 17 19 18 12 19 13 20 14 21 18 22 15 23 17 24 16 25
REMARK SMILES IDX 24 26 25 27 26 28 27 29 28 30 29 31 30 33 31 34 32 35 93 36
REMARK SMILES IDX 33 37 92 38 34 39 35 40 36 41 86 42 37 43 91 44 85 45 87 46
REMARK SMILES IDX 38 47 90 48 84 49 83 50 39 52 71 53 51 54 70 55 52 56 55 57
REMARK SMILES IDX 69 58 88 59 53 60 54 61 68 63 89 64 56 65 40 66 41 67 49 68
REMARK SMILES IDX 42 69 43 70 47 71 50 72 44 73 45 74 48 75 46 76 72 77 73 78
REMARK SMILES IDX 81 79 74 80 75 81 79 82 82 83 76 84 77 85 80 86 78 87 57 88
REMARK SMILES IDX 58 89 66 90 59 91 60 92 64 93 67 94 61 95 62 96 65 97 63 98
REMARK H PARENT 21 6 7 12 28 32 87 51 55 62
REMARK Flexibility Score: inf
ROOT
ATOM      1  C   UNL A   1      32.313  29.071  24.745  1.00  0.00     0.021 C 
ENDROOT
BRANCH   1   2
ATOM      2  C   UNL A   1      31.670  27.682  24.768  1.00  0.00     0.116 C 
BRANCH   2   3
ATOM      3  N   UNL A   1      32.469  26.640  24.138  1.00  0.00    -0.355 N 
ATOM      4  O   UNL A   1      33.610  26.181  26.063  1.00  0.00    -0.274 OA
ATOM      5  C   UNL A   1      33.380  25.912  24.884  1.00  0.00     0.236 C 
ATOM      6  H   UNL A   1      32.362  26.452  23.178  1.00  0.00     0.163 HD
BRANCH   5   7
ATOM      7  C   UNL A   1      34.128  24.828  24.179  1.00  0.00     0.253 C 
BRANCH   7   8
ATOM      8  S   UNL A   1      33.640  24.578  22.487  1.00  0.00     0.220 S 
ATOM      9  O   UNL A   1      33.835  25.825  21.776  1.00  0.00    -0.212 OA
ATOM     10  O   UNL A   1      34.362  23.412  22.023  1.00  0.00    -0.212 OA
BRANCH   8  11
ATOM     11  N   UNL A   1      32.051  24.113  22.411  1.00  0.00    -0.210 NA
ATOM     12  H   UNL A   1      31.980  23.596  21.534  1.00  0.00     0.141 HD
BRANCH  11  13
ATOM     13  C   UNL A   1      31.270  23.316  23.368  1.00  0.00     0.135 C 
BRANCH  13  14
ATOM     14  C   UNL A   1      31.784  21.957  23.737  1.00  0.00    -0.015 A 
ATOM     15  C   UNL A   1      32.175  21.680  25.033  1.00  0.00     0.010 A 
ATOM     16  C   UNL A   1      31.988  20.928  22.830  1.00  0.00     0.118 A 
ATOM     17  C   UNL A   1      32.585  20.413  25.403  1.00  0.00     0.047 A 
ATOM     18  N   UNL A   1      32.525  19.714  23.146  1.00  0.00    -0.239 NA
ATOM     19  C   UNL A   1      32.795  19.444  24.443  1.00  0.00     0.128 A 
BRANCH  19  20
ATOM     20  N   UNL A   1      33.357  18.248  24.808  1.00  0.00    -0.352 N 
ATOM     21  C   UNL A   1      34.613  17.738  24.253  1.00  0.00     0.146 C 
ATOM     22  C   UNL A   1      32.677  17.371  25.753  1.00  0.00     0.146 C 
ATOM     23  C   UNL A   1      34.398  16.324  23.695  1.00  0.00     0.181 C 
ATOM     24  C   UNL A   1      32.546  15.971  25.118  1.00  0.00     0.181 C 
ATOM     25  O   UNL A   1      33.818  15.456  24.682  1.00  0.00    -0.378 OA
ENDBRANCH  19  20
ENDBRANCH  13  14
ENDBRANCH  11  13
ENDBRANCH   8  11
ENDBRANCH   7   8
ENDBRANCH   5   7
ENDBRANCH   2   3
ENDBRANCH   1   2
BRANCH   1  26
ATOM     26  C   UNL A   1      31.392  30.228  25.148  1.00  0.00     0.002 C 
BRANCH  26  27
ATOM     27  C   UNL A   1      31.633  30.797  26.545  1.00  0.00     0.002 C 
BRANCH  27  28
ATOM     28  C   UNL A   1      31.453  32.295  26.736  1.00  0.00     0.021 C 
BRANCH  28  29
ATOM     29  C   UNL A   1      32.664  33.027  27.285  1.00  0.00     0.116 C 
BRANCH  29  30
ATOM     30  N   UNL A   1      32.375  34.384  27.731  1.00  0.00    -0.352 N 
ATOM     31  C   UNL A   1      32.975  35.126  28.723  1.00  0.00     0.251 C 
ATOM     32  H   UNL A   1      31.644  34.836  27.252  1.00  0.00     0.163 HD
ATOM     33  O   UNL A   1      32.535  36.232  29.021  1.00  0.00    -0.269 OA
BRANCH  31  34
ATOM     34  C   UNL A   1      34.136  34.569  29.451  1.00  0.00     0.039 A 
ATOM     35  C   UNL A   1      33.944  33.988  30.707  1.00  0.00     0.014 A 
ATOM     36  C   UNL A   1      35.406  34.578  28.871  1.00  0.00     0.014 A 
ATOM     37  C   UNL A   1      35.008  33.334  31.334  1.00  0.00     0.010 A 
ATOM     38  C   UNL A   1      36.430  33.832  29.442  1.00  0.00     0.010 A 
ATOM     39  C   UNL A   1      36.245  33.205  30.683  1.00  0.00    -0.014 A 
BRANCH  39  40
ATOM     40  C   UNL A   1      37.368  32.426  31.272  1.00  0.00     0.031 A 
ATOM     41  C   UNL A   1      37.884  32.773  32.642  1.00  0.00     0.074 A 
ATOM     42  C   UNL A   1      37.974  31.464  30.549  1.00  0.00     0.049 A 
ATOM     43  N   UNL A   1      38.912  32.286  33.290  1.00  0.00    -0.248 NA
ATOM     44  C   UNL A   1      37.170  33.837  33.368  1.00  0.00     0.031 C 
ATOM     45  C   UNL A   1      37.603  31.066  29.189  1.00  0.00     0.029 A 
ATOM     46  N   UNL A   1      39.039  30.652  30.852  1.00  0.00    -0.354 N 
ATOM     47  C   UNL A   1      38.974  32.991  34.486  1.00  0.00     0.074 A 
ATOM     48  C   UNL A   1      37.927  33.987  34.444  1.00  0.00     0.031 C 
ATOM     49  C   UNL A   1      38.403  30.064  28.790  1.00  0.00     0.029 A 
ATOM     50  C   UNL A   1      39.373  29.780  29.844  1.00  0.00     0.049 A 
ATOM     51  H   UNL A   1      39.518  30.692  31.711  1.00  0.00     0.167 HD
ATOM     52  C   UNL A   1      39.805  32.805  35.538  1.00  0.00     0.037 A 
ATOM     53  C   UNL A   1      40.355  28.861  29.775  1.00  0.00     0.037 A 
ATOM     54  C   UNL A   1      40.831  31.796  35.587  1.00  0.00     0.049 A 
ATOM     55  C   UNL A   1      41.282  28.687  30.949  1.00  0.00     0.074 A 
ATOM     56  C   UNL A   1      41.693  31.493  36.625  1.00  0.00     0.029 A 
ATOM     57  N   UNL A   1      41.130  30.925  34.549  1.00  0.00    -0.354 N 
ATOM     58  N   UNL A   1      41.290  29.319  32.098  1.00  0.00    -0.248 NA
ATOM     59  C   UNL A   1      42.332  27.668  30.818  1.00  0.00     0.031 C 
ATOM     60  C   UNL A   1      42.550  30.473  36.198  1.00  0.00     0.029 A 
ATOM     61  C   UNL A   1      42.181  30.098  34.916  1.00  0.00     0.049 A 
ATOM     62  H   UNL A   1      40.666  30.897  33.682  1.00  0.00     0.167 HD
ATOM     63  C   UNL A   1      42.321  28.753  32.837  1.00  0.00     0.074 A 
ATOM     64  C   UNL A   1      42.906  27.717  32.011  1.00  0.00     0.031 C 
ATOM     65  C   UNL A   1      42.744  29.063  34.088  1.00  0.00     0.037 A 
BRANCH  52  66
ATOM     66  C   UNL A   1      39.633  33.706  36.728  1.00  0.00     0.064 A 
ATOM     67  C   UNL A   1      40.274  34.953  36.803  1.00  0.00     0.173 A 
ATOM     68  C   UNL A   1      38.794  33.336  37.789  1.00  0.00     0.173 A 
ATOM     69  F   UNL A   1      41.098  35.350  35.822  1.00  0.00    -0.203 F 
ATOM     70  C   UNL A   1      40.107  35.779  37.912  1.00  0.00     0.198 A 
ATOM     71  C   UNL A   1      38.601  34.182  38.879  1.00  0.00     0.198 A 
ATOM     72  F   UNL A   1      38.152  32.159  37.766  1.00  0.00    -0.203 F 
ATOM     73  F   UNL A   1      40.775  36.938  37.987  1.00  0.00    -0.200 F 
ATOM     74  C   UNL A   1      39.265  35.397  38.944  1.00  0.00     0.200 A 
ATOM     75  F   UNL A   1      37.775  33.817  39.870  1.00  0.00    -0.200 F 
ATOM     76  F   UNL A   1      39.098  36.197  40.006  1.00  0.00    -0.200 F 
ENDBRANCH  52  66
BRANCH  53  77
ATOM     77  C   UNL A   1      40.496  28.010  28.563  1.00  0.00     0.064 A 
ATOM     78  C   UNL A   1      39.868  26.758  28.488  1.00  0.00     0.173 A 
ATOM     79  C   UNL A   1      41.266  28.418  27.464  1.00  0.00     0.173 A 
ATOM     80  F   UNL A   1      39.140  26.312  29.522  1.00  0.00    -0.203 F 
ATOM     81  C   UNL A   1      40.021  25.939  27.371  1.00  0.00     0.198 A 
ATOM     82  C   UNL A   1      41.392  27.612  26.334  1.00  0.00     0.198 A 
ATOM     83  F   UNL A   1      41.884  29.609  27.482  1.00  0.00    -0.203 F 
ATOM     84  F   UNL A   1      39.451  24.727  27.349  1.00  0.00    -0.200 F 
ATOM     85  C   UNL A   1      40.778  26.370  26.293  1.00  0.00     0.200 A 
ATOM     86  F   UNL A   1      42.112  28.038  25.287  1.00  0.00    -0.200 F 
ATOM     87  F   UNL A   1      40.923  25.584  25.217  1.00  0.00    -0.200 F 
ENDBRANCH  53  77
BRANCH  65  88
ATOM     88  C   UNL A   1      43.866  28.245  34.660  1.00  0.00     0.064 A 
ATOM     89  C   UNL A   1      43.633  27.045  35.346  1.00  0.00     0.173 A 
ATOM     90  C   UNL A   1      45.198  28.648  34.477  1.00  0.00     0.173 A 
ATOM     91  F   UNL A   1      42.377  26.622  35.559  1.00  0.00    -0.203 F 
ATOM     92  C   UNL A   1      44.690  26.293  35.852  1.00  0.00     0.198 A 
ATOM     93  C   UNL A   1      46.254  27.875  34.953  1.00  0.00     0.198 A 
ATOM     94  F   UNL A   1      45.478  29.784  33.820  1.00  0.00    -0.203 F 
ATOM     95  F   UNL A   1      44.440  25.175  36.548  1.00  0.00    -0.200 F 
ATOM     96  C   UNL A   1      45.998  26.704  35.648  1.00  0.00     0.200 A 
ATOM     97  F   UNL A   1      47.518  28.266  34.740  1.00  0.00    -0.200 F 
ATOM     98  F   UNL A   1      47.015  25.972  36.126  1.00  0.00    -0.200 F 
ENDBRANCH  65  88
ENDBRANCH  39  40
ENDBRANCH  31  34
ENDBRANCH  29  30
ENDBRANCH  28  29
ENDBRANCH  27  28
ENDBRANCH  26  27
ENDBRANCH   1  26
TORSDOF 18
ENDMDL
