MODEL 1
REMARK VINA RESULT:     -11.7      0.000      0.000
REMARK SMILES CCc1nc(=O)n([C@@H](CC)C(C)C)c(CC)c1CC(=O)NCCCCCCNC(=O)c1ccc(-c2c3nc(c(-c4c(F)c(F)c(F)c(F)c4F)c4ccc([nH]4)c(-c4c(F)c(F)c(F)c(F)c4F)c4nc(c(-c5c(F)c(F)c(F)c(F)c5F)c5ccc2[nH]5)C=C4)C=C3)cc1
REMARK SMILES IDX 24 1 23 2 22 3 21 4 19 5 20 6 18 8 17 9 3 10 4 11 5 12 14 13
REMARK SMILES IDX 6 14 7 15 2 16 1 17 15 18 16 19 8 20 9 21 10 22 11 23 12 24
REMARK SMILES IDX 13 25 25 26 26 27 27 28 28 29 29 30 30 32 31 33 32 34 93 35
REMARK SMILES IDX 33 36 92 37 34 38 35 39 36 40 86 41 37 42 91 43 85 44 87 45
REMARK SMILES IDX 38 46 90 47 84 48 83 49 39 51 71 52 51 53 70 54 52 55 55 56
REMARK SMILES IDX 69 57 88 58 53 59 54 60 68 62 89 63 56 64 40 65 41 66 49 67
REMARK SMILES IDX 42 68 43 69 47 70 50 71 44 72 45 73 48 74 46 75 72 76 73 77
REMARK SMILES IDX 81 78 74 79 75 80 79 81 82 82 76 83 77 84 80 85 78 86 57 87
REMARK SMILES IDX 58 88 66 89 59 90 60 91 64 92 67 93 61 94 62 95 65 96 63 97
REMARK H PARENT 21 7 28 31 87 50 55 61
REMARK Flexibility Score: inf
ROOT
ATOM      1  C   UNL A   1      32.343  29.661  27.280  1.00  0.00     0.002 C 
ENDROOT
BRANCH   1   2
ATOM      2  C   UNL A   1      31.501  28.385  27.340  1.00  0.00     0.021 C 
BRANCH   2   3
ATOM      3  C   UNL A   1      31.198  27.799  25.967  1.00  0.00     0.116 C 
BRANCH   3   4
ATOM      4  N   UNL A   1      30.774  26.421  26.032  1.00  0.00    -0.356 N 
ATOM      5  C   UNL A   1      31.547  25.309  26.190  1.00  0.00     0.224 C 
ATOM      6  O   UNL A   1      30.992  24.209  26.233  1.00  0.00    -0.275 OA
ATOM      7  H   UNL A   1      29.805  26.265  25.953  1.00  0.00     0.163 HD
BRANCH   5   8
ATOM      8  C   UNL A   1      33.061  25.444  26.358  1.00  0.00     0.139 C 
BRANCH   8   9
ATOM      9  C   UNL A   1      33.904  24.573  25.450  1.00  0.00     0.003 A 
ATOM     10  C   UNL A   1      34.133  24.991  24.029  1.00  0.00     0.051 A 
ATOM     11  N   UNL A   1      34.807  24.301  23.177  1.00  0.00    -0.198 NA
ATOM     12  C   UNL A   1      35.418  23.144  23.544  1.00  0.00     0.348 A 
ATOM     13  C   UNL A   1      34.504  23.408  25.807  1.00  0.00     0.028 A 
ATOM     14  O   UNL A   1      36.117  22.563  22.717  1.00  0.00    -0.246 OA
ATOM     15  N   UNL A   1      35.248  22.670  24.857  1.00  0.00    -0.293 N 
BRANCH  10  16
ATOM     16  C   UNL A   1      33.615  26.320  23.459  1.00  0.00     0.053 C 
ATOM     17  C   UNL A   1      32.349  26.164  22.621  1.00  0.00     0.011 C 
ENDBRANCH  10  16
BRANCH  13  18
ATOM     18  C   UNL A   1      34.459  22.922  27.259  1.00  0.00     0.051 C 
ATOM     19  C   UNL A   1      33.243  22.070  27.616  1.00  0.00     0.010 C 
ENDBRANCH  13  18
BRANCH  15  20
ATOM     20  C   UNL A   1      35.907  21.371  25.200  1.00  0.00     0.094 C 
BRANCH  20  21
ATOM     21  C   UNL A   1      35.039  20.143  24.807  1.00  0.00     0.022 C 
ATOM     22  C   UNL A   1      33.577  20.374  24.457  1.00  0.00     0.006 C 
ENDBRANCH  20  21
BRANCH  20  23
ATOM     23  C   UNL A   1      37.419  21.299  24.812  1.00  0.00     0.006 C 
ATOM     24  C   UNL A   1      38.273  22.148  25.767  1.00  0.00     0.009 C 
ATOM     25  C   UNL A   1      37.947  19.858  24.841  1.00  0.00     0.009 C 
ENDBRANCH  20  23
ENDBRANCH  15  20
ENDBRANCH   8   9
ENDBRANCH   5   8
ENDBRANCH   3   4
ENDBRANCH   2   3
ENDBRANCH   1   2
BRANCH   1  26
ATOM     26  C   UNL A   1      31.909  30.663  26.203  1.00  0.00     0.002 C 
BRANCH  26  27
ATOM     27  C   UNL A   1      31.569  32.060  26.724  1.00  0.00     0.021 C 
BRANCH  27  28
ATOM     28  C   UNL A   1      32.724  32.762  27.426  1.00  0.00     0.116 C 
BRANCH  28  29
ATOM     29  N   UNL A   1      32.434  34.161  27.707  1.00  0.00    -0.352 N 
ATOM     30  C   UNL A   1      33.000  35.000  28.636  1.00  0.00     0.251 C 
ATOM     31  H   UNL A   1      31.727  34.564  27.151  1.00  0.00     0.163 HD
ATOM     32  O   UNL A   1      32.512  36.100  28.865  1.00  0.00    -0.269 OA
BRANCH  30  33
ATOM     33  C   UNL A   1      34.187  34.543  29.386  1.00  0.00     0.039 A 
ATOM     34  C   UNL A   1      35.456  34.629  28.811  1.00  0.00     0.014 A 
ATOM     35  C   UNL A   1      34.022  33.973  30.650  1.00  0.00     0.014 A 
ATOM     36  C   UNL A   1      36.523  33.969  29.406  1.00  0.00     0.010 A 
ATOM     37  C   UNL A   1      35.121  33.399  31.296  1.00  0.00     0.010 A 
ATOM     38  C   UNL A   1      36.367  33.339  30.652  1.00  0.00    -0.014 A 
BRANCH  38  39
ATOM     39  C   UNL A   1      37.516  32.611  31.252  1.00  0.00     0.031 A 
ATOM     40  C   UNL A   1      38.001  32.946  32.638  1.00  0.00     0.074 A 
ATOM     41  C   UNL A   1      38.087  31.605  30.562  1.00  0.00     0.049 A 
ATOM     42  N   UNL A   1      38.992  32.421  33.314  1.00  0.00    -0.248 NA
ATOM     43  C   UNL A   1      37.284  34.010  33.361  1.00  0.00     0.031 C 
ATOM     44  C   UNL A   1      37.694  31.175  29.219  1.00  0.00     0.029 A 
ATOM     45  N   UNL A   1      39.107  30.750  30.898  1.00  0.00    -0.354 N 
ATOM     46  C   UNL A   1      39.030  33.100  34.526  1.00  0.00     0.074 A 
ATOM     47  C   UNL A   1      37.983  34.096  34.485  1.00  0.00     0.031 C 
ATOM     48  C   UNL A   1      38.428  30.112  28.864  1.00  0.00     0.029 A 
ATOM     49  C   UNL A   1      39.395  29.830  29.919  1.00  0.00     0.049 A 
ATOM     50  H   UNL A   1      39.584  30.791  31.758  1.00  0.00     0.167 HD
ATOM     51  C   UNL A   1      39.853  32.894  35.581  1.00  0.00     0.037 A 
ATOM     52  C   UNL A   1      40.349  28.881  29.863  1.00  0.00     0.037 A 
ATOM     53  C   UNL A   1      40.873  31.878  35.628  1.00  0.00     0.049 A 
ATOM     54  C   UNL A   1      41.283  28.715  31.029  1.00  0.00     0.074 A 
ATOM     55  C   UNL A   1      41.736  31.575  36.667  1.00  0.00     0.029 A 
ATOM     56  N   UNL A   1      41.167  31.000  34.595  1.00  0.00    -0.354 N 
ATOM     57  N   UNL A   1      41.296  29.352  32.174  1.00  0.00    -0.248 NA
ATOM     58  C   UNL A   1      42.339  27.704  30.892  1.00  0.00     0.031 C 
ATOM     59  C   UNL A   1      42.591  30.555  36.243  1.00  0.00     0.029 A 
ATOM     60  C   UNL A   1      42.219  30.176  34.963  1.00  0.00     0.049 A 
ATOM     61  H   UNL A   1      40.698  30.967  33.731  1.00  0.00     0.167 HD
ATOM     62  C   UNL A   1      42.346  28.808  32.901  1.00  0.00     0.074 A 
ATOM     63  C   UNL A   1      42.932  27.771  32.077  1.00  0.00     0.031 C 
ATOM     64  C   UNL A   1      42.790  29.144  34.137  1.00  0.00     0.037 A 
BRANCH  51  65
ATOM     65  C   UNL A   1      39.703  33.778  36.786  1.00  0.00     0.064 A 
ATOM     66  C   UNL A   1      40.279  35.056  36.838  1.00  0.00     0.173 A 
ATOM     67  C   UNL A   1      38.881  33.386  37.855  1.00  0.00     0.173 A 
ATOM     68  F   UNL A   1      41.081  35.477  35.849  1.00  0.00    -0.203 F 
ATOM     69  C   UNL A   1      40.038  35.906  37.915  1.00  0.00     0.198 A 
ATOM     70  C   UNL A   1      38.621  34.250  38.915  1.00  0.00     0.198 A 
ATOM     71  F   UNL A   1      38.300  32.177  37.852  1.00  0.00    -0.203 F 
ATOM     72  F   UNL A   1      40.617  37.114  37.954  1.00  0.00    -0.200 F 
ATOM     73  C   UNL A   1      39.199  35.509  38.945  1.00  0.00     0.200 A 
ATOM     74  F   UNL A   1      37.794  33.869  39.900  1.00  0.00    -0.200 F 
ATOM     75  F   UNL A   1      38.947  36.340  39.966  1.00  0.00    -0.200 F 
ENDBRANCH  51  65
BRANCH  52  76
ATOM     76  C   UNL A   1      40.471  28.030  28.650  1.00  0.00     0.064 A 
ATOM     77  C   UNL A   1      41.235  28.443  27.550  1.00  0.00     0.173 A 
ATOM     78  C   UNL A   1      39.838  26.781  28.571  1.00  0.00     0.173 A 
ATOM     79  F   UNL A   1      41.842  29.639  27.568  1.00  0.00    -0.203 F 
ATOM     80  C   UNL A   1      41.349  27.646  26.413  1.00  0.00     0.198 A 
ATOM     81  C   UNL A   1      39.982  25.969  27.450  1.00  0.00     0.198 A 
ATOM     82  F   UNL A   1      39.096  26.336  29.597  1.00  0.00    -0.203 F 
ATOM     83  F   UNL A   1      42.048  28.085  25.359  1.00  0.00    -0.200 F 
ATOM     84  C   UNL A   1      40.730  26.405  26.367  1.00  0.00     0.200 A 
ATOM     85  F   UNL A   1      39.399  24.762  27.419  1.00  0.00    -0.200 F 
ATOM     86  F   UNL A   1      40.851  25.634  25.279  1.00  0.00    -0.200 F 
ENDBRANCH  52  76
BRANCH  64  87
ATOM     87  C   UNL A   1      43.956  28.376  34.689  1.00  0.00     0.064 A 
ATOM     88  C   UNL A   1      45.271  28.838  34.544  1.00  0.00     0.173 A 
ATOM     89  C   UNL A   1      43.747  27.205  35.435  1.00  0.00     0.173 A 
ATOM     90  F   UNL A   1      45.525  29.944  33.830  1.00  0.00    -0.203 F 
ATOM     91  C   UNL A   1      46.338  28.145  35.111  1.00  0.00     0.198 A 
ATOM     92  C   UNL A   1      44.813  26.535  36.029  1.00  0.00     0.198 A 
ATOM     93  F   UNL A   1      42.507  26.727  35.612  1.00  0.00    -0.203 F 
ATOM     94  F   UNL A   1      47.592  28.582  34.925  1.00  0.00    -0.200 F 
ATOM     95  C   UNL A   1      46.107  27.002  35.861  1.00  0.00     0.200 A 
ATOM     96  F   UNL A   1      44.586  25.442  36.770  1.00  0.00    -0.200 F 
ATOM     97  F   UNL A   1      47.134  26.348  36.422  1.00  0.00    -0.200 F 
ENDBRANCH  64  87
ENDBRANCH  38  39
ENDBRANCH  30  33
ENDBRANCH  28  29
ENDBRANCH  27  28
ENDBRANCH  26  27
ENDBRANCH   1  26
TORSDOF 19
ENDMDL
MODEL 2
REMARK VINA RESULT:     -11.6      0.305      7.073
REMARK SMILES CCc1nc(=O)n([C@@H](CC)C(C)C)c(CC)c1CC(=O)NCCCCCCNC(=O)c1ccc(-c2c3nc(c(-c4c(F)c(F)c(F)c(F)c4F)c4ccc([nH]4)c(-c4c(F)c(F)c(F)c(F)c4F)c4nc(c(-c5c(F)c(F)c(F)c(F)c5F)c5ccc2[nH]5)C=C4)C=C3)cc1
REMARK SMILES IDX 24 1 23 2 22 3 21 4 19 5 20 6 18 8 17 9 3 10 4 11 5 12 14 13
REMARK SMILES IDX 6 14 7 15 2 16 1 17 15 18 16 19 8 20 9 21 10 22 11 23 12 24
REMARK SMILES IDX 13 25 25 26 26 27 27 28 28 29 29 30 30 32 31 33 32 34 93 35
REMARK SMILES IDX 33 36 92 37 34 38 35 39 36 40 86 41 37 42 91 43 85 44 87 45
REMARK SMILES IDX 38 46 90 47 84 48 83 49 39 51 71 52 51 53 70 54 52 55 55 56
REMARK SMILES IDX 69 57 88 58 53 59 54 60 68 62 89 63 56 64 40 65 41 66 49 67
REMARK SMILES IDX 42 68 43 69 47 70 50 71 44 72 45 73 48 74 46 75 72 76 73 77
REMARK SMILES IDX 81 78 74 79 75 80 79 81 82 82 76 83 77 84 80 85 78 86 57 87
REMARK SMILES IDX 58 88 66 89 59 90 60 91 64 92 67 93 61 94 62 95 65 96 63 97
REMARK H PARENT 21 7 28 31 87 50 55 61
REMARK Flexibility Score: inf
ROOT
ATOM      1  C   UNL A   1      32.641  29.840  27.009  1.00  0.00     0.002 C 
ENDROOT
BRANCH   1   2
ATOM      2  C   UNL A   1      31.939  28.517  27.319  1.00  0.00     0.021 C 
BRANCH   2   3
ATOM      3  C   UNL A   1      31.246  27.903  26.109  1.00  0.00     0.116 C 
BRANCH   3   4
ATOM      4  N   UNL A   1      30.822  26.544  26.342  1.00  0.00    -0.356 N 
ATOM      5  C   UNL A   1      31.599  25.440  26.536  1.00  0.00     0.224 C 
ATOM      6  O   UNL A   1      31.044  24.358  26.732  1.00  0.00    -0.275 OA
ATOM      7  H   UNL A   1      29.849  26.395  26.363  1.00  0.00     0.163 HD
BRANCH   5   8
ATOM      8  C   UNL A   1      33.123  25.569  26.558  1.00  0.00     0.139 C 
BRANCH   8   9
ATOM      9  C   UNL A   1      33.871  24.690  25.577  1.00  0.00     0.003 A 
ATOM     10  C   UNL A   1      34.017  25.130  24.152  1.00  0.00     0.051 A 
ATOM     11  N   UNL A   1      34.607  24.437  23.243  1.00  0.00    -0.198 NA
ATOM     12  C   UNL A   1      35.201  23.252  23.544  1.00  0.00     0.348 A 
ATOM     13  C   UNL A   1      34.454  23.498  25.869  1.00  0.00     0.028 A 
ATOM     14  O   UNL A   1      35.821  22.667  22.660  1.00  0.00    -0.246 OA
ATOM     15  N   UNL A   1      35.104  22.756  24.857  1.00  0.00    -0.293 N 
BRANCH  10  16
ATOM     16  C   UNL A   1      33.508  26.489  23.645  1.00  0.00     0.053 C 
ATOM     17  C   UNL A   1      32.354  26.367  22.654  1.00  0.00     0.011 C 
ENDBRANCH  10  16
BRANCH  13  18
ATOM     18  C   UNL A   1      34.491  22.983  27.311  1.00  0.00     0.051 C 
ATOM     19  C   UNL A   1      33.266  22.178  27.740  1.00  0.00     0.010 C 
ENDBRANCH  13  18
BRANCH  15  20
ATOM     20  C   UNL A   1      35.740  21.429  25.129  1.00  0.00     0.094 C 
BRANCH  20  21
ATOM     21  C   UNL A   1      34.866  20.241  24.635  1.00  0.00     0.022 C 
ATOM     22  C   UNL A   1      33.357  20.345  24.783  1.00  0.00     0.006 C 
ENDBRANCH  20  21
BRANCH  20  23
ATOM     23  C   UNL A   1      37.260  21.363  24.770  1.00  0.00     0.006 C 
ATOM     24  C   UNL A   1      38.088  22.234  25.727  1.00  0.00     0.009 C 
ATOM     25  C   UNL A   1      37.798  19.927  24.835  1.00  0.00     0.009 C 
ENDBRANCH  20  23
ENDBRANCH  15  20
ENDBRANCH   8   9
ENDBRANCH   5   8
ENDBRANCH   3   4
ENDBRANCH   2   3
ENDBRANCH   1   2
BRANCH   1  26
ATOM     26  C   UNL A   1      31.825  30.807  26.142  1.00  0.00     0.002 C 
BRANCH  26  27
ATOM     27  C   UNL A   1      31.473  32.134  26.815  1.00  0.00     0.021 C 
BRANCH  27  28
ATOM     28  C   UNL A   1      32.661  32.843  27.453  1.00  0.00     0.116 C 
BRANCH  28  29
ATOM     29  N   UNL A   1      32.398  34.255  27.695  1.00  0.00    -0.352 N 
ATOM     30  C   UNL A   1      32.966  35.102  28.616  1.00  0.00     0.251 C 
ATOM     31  H   UNL A   1      31.713  34.661  27.115  1.00  0.00     0.163 HD
ATOM     32  O   UNL A   1      32.499  36.219  28.808  1.00  0.00    -0.269 OA
BRANCH  30  33
ATOM     33  C   UNL A   1      34.126  34.636  29.401  1.00  0.00     0.039 A 
ATOM     34  C   UNL A   1      35.404  34.653  28.841  1.00  0.00     0.014 A 
ATOM     35  C   UNL A   1      33.924  34.126  30.686  1.00  0.00     0.014 A 
ATOM     36  C   UNL A   1      36.439  33.981  29.479  1.00  0.00     0.010 A 
ATOM     37  C   UNL A   1      34.993  33.542  31.370  1.00  0.00     0.010 A 
ATOM     38  C   UNL A   1      36.245  33.411  30.748  1.00  0.00    -0.014 A 
BRANCH  38  39
ATOM     39  C   UNL A   1      37.359  32.668  31.393  1.00  0.00     0.031 A 
ATOM     40  C   UNL A   1      38.056  31.545  30.671  1.00  0.00     0.074 A 
ATOM     41  C   UNL A   1      37.780  33.049  32.615  1.00  0.00     0.049 A 
ATOM     42  N   UNL A   1      39.039  30.784  31.083  1.00  0.00    -0.248 NA
ATOM     43  C   UNL A   1      37.589  31.229  29.311  1.00  0.00     0.031 C 
ATOM     44  C   UNL A   1      37.197  34.134  33.406  1.00  0.00     0.029 A 
ATOM     45  N   UNL A   1      38.805  32.580  33.399  1.00  0.00    -0.354 N 
ATOM     46  C   UNL A   1      39.293  29.893  30.048  1.00  0.00     0.074 A 
ATOM     47  C   UNL A   1      38.343  30.184  28.998  1.00  0.00     0.031 C 
ATOM     48  C   UNL A   1      37.899  34.280  34.539  1.00  0.00     0.029 A 
ATOM     49  C   UNL A   1      38.932  33.252  34.591  1.00  0.00     0.049 A 
ATOM     50  H   UNL A   1      39.391  31.836  33.133  1.00  0.00     0.167 HD
ATOM     51  C   UNL A   1      40.245  28.933  29.978  1.00  0.00     0.037 A 
ATOM     52  C   UNL A   1      39.770  33.047  35.625  1.00  0.00     0.037 A 
ATOM     53  C   UNL A   1      41.210  28.669  31.014  1.00  0.00     0.049 A 
ATOM     54  C   UNL A   1      40.780  31.936  35.539  1.00  0.00     0.074 A 
ATOM     55  C   UNL A   1      42.232  27.737  31.019  1.00  0.00     0.029 A 
ATOM     56  N   UNL A   1      41.273  29.338  32.228  1.00  0.00    -0.354 N 
ATOM     57  N   UNL A   1      41.020  31.114  34.547  1.00  0.00    -0.248 NA
ATOM     58  C   UNL A   1      41.631  31.722  36.716  1.00  0.00     0.031 C 
ATOM     59  C   UNL A   1      42.877  27.799  32.257  1.00  0.00     0.029 A 
ATOM     60  C   UNL A   1      42.298  28.815  33.000  1.00  0.00     0.049 A 
ATOM     61  H   UNL A   1      40.679  30.074  32.500  1.00  0.00     0.167 HD
ATOM     62  C   UNL A   1      42.059  30.297  34.972  1.00  0.00     0.074 A 
ATOM     63  C   UNL A   1      42.420  30.740  36.302  1.00  0.00     0.031 C 
ATOM     64  C   UNL A   1      42.652  29.268  34.321  1.00  0.00     0.037 A 
BRANCH  51  65
ATOM     65  C   UNL A   1      40.308  28.081  28.743  1.00  0.00     0.064 A 
ATOM     66  C   UNL A   1      41.062  28.461  27.623  1.00  0.00     0.173 A 
ATOM     67  C   UNL A   1      39.697  26.816  28.722  1.00  0.00     0.173 A 
ATOM     68  F   UNL A   1      41.658  29.663  27.585  1.00  0.00    -0.203 F 
ATOM     69  C   UNL A   1      41.199  27.609  26.529  1.00  0.00     0.198 A 
ATOM     70  C   UNL A   1      39.861  25.957  27.639  1.00  0.00     0.198 A 
ATOM     71  F   UNL A   1      38.970  26.400  29.770  1.00  0.00    -0.203 F 
ATOM     72  F   UNL A   1      41.906  28.003  25.461  1.00  0.00    -0.200 F 
ATOM     73  C   UNL A   1      40.611  26.354  26.544  1.00  0.00     0.200 A 
ATOM     74  F   UNL A   1      39.306  24.736  27.665  1.00  0.00    -0.200 F 
ATOM     75  F   UNL A   1      40.769  25.525  25.502  1.00  0.00    -0.200 F 
ENDBRANCH  51  65
BRANCH  52  76
ATOM     76  C   UNL A   1      39.672  33.906  36.835  1.00  0.00     0.064 A 
ATOM     77  C   UNL A   1      40.349  35.131  36.909  1.00  0.00     0.173 A 
ATOM     78  C   UNL A   1      38.888  33.526  37.935  1.00  0.00     0.173 A 
ATOM     79  F   UNL A   1      41.128  35.528  35.893  1.00  0.00    -0.203 F 
ATOM     80  C   UNL A   1      40.257  35.935  38.044  1.00  0.00     0.198 A 
ATOM     81  C   UNL A   1      38.768  34.348  39.052  1.00  0.00     0.198 A 
ATOM     82  F   UNL A   1      38.217  32.365  37.915  1.00  0.00    -0.203 F 
ATOM     83  F   UNL A   1      40.952  37.079  38.107  1.00  0.00    -0.200 F 
ATOM     84  C   UNL A   1      39.459  35.548  39.110  1.00  0.00     0.200 A 
ATOM     85  F   UNL A   1      37.980  33.979  40.071  1.00  0.00    -0.200 F 
ATOM     86  F   UNL A   1      39.363  36.328  40.195  1.00  0.00    -0.200 F 
ENDBRANCH  52  76
BRANCH  64  87
ATOM     87  C   UNL A   1      43.770  28.553  35.024  1.00  0.00     0.064 A 
ATOM     88  C   UNL A   1      45.101  28.976  34.903  1.00  0.00     0.173 A 
ATOM     89  C   UNL A   1      43.497  27.478  35.886  1.00  0.00     0.173 A 
ATOM     90  F   UNL A   1      45.416  29.989  34.083  1.00  0.00    -0.203 F 
ATOM     91  C   UNL A   1      46.120  28.338  35.606  1.00  0.00     0.198 A 
ATOM     92  C   UNL A   1      44.514  26.866  36.613  1.00  0.00     0.198 A 
ATOM     93  F   UNL A   1      42.238  27.041  36.044  1.00  0.00    -0.203 F 
ATOM     94  F   UNL A   1      47.391  28.733  35.444  1.00  0.00    -0.200 F 
ATOM     95  C   UNL A   1      45.824  27.293  36.467  1.00  0.00     0.200 A 
ATOM     96  F   UNL A   1      44.223  25.870  37.460  1.00  0.00    -0.200 F 
ATOM     97  F   UNL A   1      46.805  26.694  37.158  1.00  0.00    -0.200 F 
ENDBRANCH  64  87
ENDBRANCH  38  39
ENDBRANCH  30  33
ENDBRANCH  28  29
ENDBRANCH  27  28
ENDBRANCH  26  27
ENDBRANCH   1  26
TORSDOF 19
ENDMDL
MODEL 3
REMARK VINA RESULT:     -11.5      5.193     10.984
REMARK SMILES CCc1nc(=O)n([C@@H](CC)C(C)C)c(CC)c1CC(=O)NCCCCCCNC(=O)c1ccc(-c2c3nc(c(-c4c(F)c(F)c(F)c(F)c4F)c4ccc([nH]4)c(-c4c(F)c(F)c(F)c(F)c4F)c4nc(c(-c5c(F)c(F)c(F)c(F)c5F)c5ccc2[nH]5)C=C4)C=C3)cc1
REMARK SMILES IDX 24 1 23 2 22 3 21 4 19 5 20 6 18 8 17 9 3 10 4 11 5 12 14 13
REMARK SMILES IDX 6 14 7 15 2 16 1 17 15 18 16 19 8 20 9 21 10 22 11 23 12 24
REMARK SMILES IDX 13 25 25 26 26 27 27 28 28 29 29 30 30 32 31 33 32 34 93 35
REMARK SMILES IDX 33 36 92 37 34 38 35 39 36 40 86 41 37 42 91 43 85 44 87 45
REMARK SMILES IDX 38 46 90 47 84 48 83 49 39 51 71 52 51 53 70 54 52 55 55 56
REMARK SMILES IDX 69 57 88 58 53 59 54 60 68 62 89 63 56 64 40 65 41 66 49 67
REMARK SMILES IDX 42 68 43 69 47 70 50 71 44 72 45 73 48 74 46 75 72 76 73 77
REMARK SMILES IDX 81 78 74 79 75 80 79 81 82 82 76 83 77 84 80 85 78 86 57 87
REMARK SMILES IDX 58 88 66 89 59 90 60 91 64 92 67 93 61 94 62 95 65 96 63 97
REMARK H PARENT 21 7 28 31 87 50 55 61
REMARK Flexibility Score: inf
ROOT
ATOM      1  C   UNL A   1      36.304  21.728  25.754  1.00  0.00     0.002 C 
ENDROOT
BRANCH   1   2
ATOM      2  C   UNL A   1      34.895  21.153  25.914  1.00  0.00     0.021 C 
BRANCH   2   3
ATOM      3  C   UNL A   1      34.169  21.672  27.149  1.00  0.00     0.116 C 
BRANCH   3   4
ATOM      4  N   UNL A   1      32.755  21.849  26.928  1.00  0.00    -0.356 N 
ATOM      5  C   UNL A   1      32.103  22.967  26.498  1.00  0.00     0.224 C 
ATOM      6  O   UNL A   1      30.879  22.917  26.359  1.00  0.00    -0.275 OA
ATOM      7  H   UNL A   1      32.189  21.065  27.111  1.00  0.00     0.163 HD
BRANCH   5   8
ATOM      8  C   UNL A   1      32.893  24.230  26.151  1.00  0.00     0.139 C 
BRANCH   8   9
ATOM      9  C   UNL A   1      32.364  25.035  24.981  1.00  0.00     0.003 A 
ATOM     10  C   UNL A   1      32.791  24.683  23.588  1.00  0.00     0.051 A 
ATOM     11  N   UNL A   1      32.420  25.328  22.539  1.00  0.00    -0.198 NA
ATOM     12  C   UNL A   1      31.546  26.364  22.630  1.00  0.00     0.348 A 
ATOM     13  C   UNL A   1      31.502  26.081  25.068  1.00  0.00     0.028 A 
ATOM     14  O   UNL A   1      31.159  26.896  21.593  1.00  0.00    -0.246 OA
ATOM     15  N   UNL A   1      31.100  26.771  23.901  1.00  0.00    -0.293 N 
BRANCH  10  16
ATOM     16  C   UNL A   1      33.689  23.477  23.273  1.00  0.00     0.053 C 
ATOM     17  C   UNL A   1      32.904  22.209  22.951  1.00  0.00     0.011 C 
ENDBRANCH  10  16
BRANCH  13  18
ATOM     18  C   UNL A   1      30.887  26.473  26.414  1.00  0.00     0.051 C 
ATOM     19  C   UNL A   1      31.701  27.478  27.227  1.00  0.00     0.010 C 
ENDBRANCH  13  18
BRANCH  15  20
ATOM     20  C   UNL A   1      30.170  27.942  23.951  1.00  0.00     0.094 C 
BRANCH  20  21
ATOM     21  C   UNL A   1      30.905  29.293  23.720  1.00  0.00     0.022 C 
ATOM     22  C   UNL A   1      31.459  30.030  24.929  1.00  0.00     0.006 C 
ENDBRANCH  20  21
BRANCH  20  23
ATOM     23  C   UNL A   1      28.839  27.737  23.157  1.00  0.00     0.006 C 
ATOM     24  C   UNL A   1      27.921  26.736  23.875  1.00  0.00     0.009 C 
ATOM     25  C   UNL A   1      28.074  29.054  22.978  1.00  0.00     0.009 C 
ENDBRANCH  20  23
ENDBRANCH  15  20
ENDBRANCH   8   9
ENDBRANCH   5   8
ENDBRANCH   3   4
ENDBRANCH   2   3
ENDBRANCH   1   2
BRANCH   1  26
ATOM     26  C   UNL A   1      37.109  21.131  24.593  1.00  0.00     0.002 C 
BRANCH  26  27
ATOM     27  C   UNL A   1      38.000  19.947  24.969  1.00  0.00     0.021 C 
BRANCH  27  28
ATOM     28  C   UNL A   1      39.258  20.334  25.738  1.00  0.00     0.116 C 
BRANCH  28  29
ATOM     29  N   UNL A   1      40.195  19.226  25.858  1.00  0.00    -0.352 N 
ATOM     30  C   UNL A   1      41.553  19.252  26.071  1.00  0.00     0.251 C 
ATOM     31  H   UNL A   1      39.799  18.328  25.773  1.00  0.00     0.163 HD
ATOM     32  O   UNL A   1      42.221  18.231  25.965  1.00  0.00    -0.269 OA
BRANCH  30  33
ATOM     33  C   UNL A   1      42.204  20.537  26.394  1.00  0.00     0.039 A 
ATOM     34  C   UNL A   1      42.302  20.960  27.720  1.00  0.00     0.014 A 
ATOM     35  C   UNL A   1      42.669  21.349  25.357  1.00  0.00     0.014 A 
ATOM     36  C   UNL A   1      42.677  22.269  27.994  1.00  0.00     0.010 A 
ATOM     37  C   UNL A   1      43.143  22.631  25.647  1.00  0.00     0.010 A 
ATOM     38  C   UNL A   1      43.095  23.123  26.961  1.00  0.00    -0.014 A 
BRANCH  38  39
ATOM     39  C   UNL A   1      43.459  24.529  27.277  1.00  0.00     0.031 A 
ATOM     40  C   UNL A   1      44.849  25.043  27.011  1.00  0.00     0.074 A 
ATOM     41  C   UNL A   1      42.511  25.361  27.754  1.00  0.00     0.049 A 
ATOM     42  N   UNL A   1      45.344  26.235  27.233  1.00  0.00    -0.248 NA
ATOM     43  C   UNL A   1      45.813  24.099  26.424  1.00  0.00     0.031 C 
ATOM     44  C   UNL A   1      41.125  24.984  28.035  1.00  0.00     0.029 A 
ATOM     45  N   UNL A   1      42.564  26.695  28.070  1.00  0.00    -0.354 N 
ATOM     46  C   UNL A   1      46.673  26.178  26.832  1.00  0.00     0.074 A 
ATOM     47  C   UNL A   1      46.921  24.827  26.382  1.00  0.00     0.031 C 
ATOM     48  C   UNL A   1      40.447  26.069  28.436  1.00  0.00     0.029 A 
ATOM     49  C   UNL A   1      41.365  27.199  28.515  1.00  0.00     0.049 A 
ATOM     50  H   UNL A   1      43.380  27.239  27.986  1.00  0.00     0.167 HD
ATOM     51  C   UNL A   1      47.595  27.171  26.826  1.00  0.00     0.037 A 
ATOM     52  C   UNL A   1      41.045  28.428  28.962  1.00  0.00     0.037 A 
ATOM     53  C   UNL A   1      47.333  28.523  27.246  1.00  0.00     0.049 A 
ATOM     54  C   UNL A   1      42.106  29.493  28.995  1.00  0.00     0.074 A 
ATOM     55  C   UNL A   1      48.197  29.605  27.246  1.00  0.00     0.029 A 
ATOM     56  N   UNL A   1      46.119  28.981  27.738  1.00  0.00    -0.354 N 
ATOM     57  N   UNL A   1      43.352  29.430  28.597  1.00  0.00    -0.248 NA
ATOM     58  C   UNL A   1      41.716  30.799  29.544  1.00  0.00     0.031 C 
ATOM     59  C   UNL A   1      47.526  30.701  27.793  1.00  0.00     0.029 A 
ATOM     60  C   UNL A   1      46.223  30.321  28.073  1.00  0.00     0.049 A 
ATOM     61  H   UNL A   1      45.306  28.435  27.833  1.00  0.00     0.167 HD
ATOM     62  C   UNL A   1      43.892  30.687  28.830  1.00  0.00     0.074 A 
ATOM     63  C   UNL A   1      42.829  31.502  29.381  1.00  0.00     0.031 C 
ATOM     64  C   UNL A   1      45.157  31.123  28.615  1.00  0.00     0.037 A 
BRANCH  51  65
ATOM     65  C   UNL A   1      48.984  26.851  26.354  1.00  0.00     0.064 A 
ATOM     66  C   UNL A   1      49.921  26.227  27.190  1.00  0.00     0.173 A 
ATOM     67  C   UNL A   1      49.345  27.070  25.014  1.00  0.00     0.173 A 
ATOM     68  F   UNL A   1      49.632  26.004  28.481  1.00  0.00    -0.203 F 
ATOM     69  C   UNL A   1      51.168  25.837  26.704  1.00  0.00     0.198 A 
ATOM     70  C   UNL A   1      50.581  26.654  24.526  1.00  0.00     0.198 A 
ATOM     71  F   UNL A   1      48.484  27.657  24.170  1.00  0.00    -0.203 F 
ATOM     72  F   UNL A   1      52.055  25.263  27.528  1.00  0.00    -0.200 F 
ATOM     73  C   UNL A   1      51.491  26.038  25.371  1.00  0.00     0.200 A 
ATOM     74  F   UNL A   1      50.883  26.832  23.232  1.00  0.00    -0.200 F 
ATOM     75  F   UNL A   1      52.679  25.636  24.900  1.00  0.00    -0.200 F 
ENDBRANCH  51  65
BRANCH  52  76
ATOM     76  C   UNL A   1      39.661  28.705  29.429  1.00  0.00     0.064 A 
ATOM     77  C   UNL A   1      39.283  28.464  30.757  1.00  0.00     0.173 A 
ATOM     78  C   UNL A   1      38.691  29.228  28.560  1.00  0.00     0.173 A 
ATOM     79  F   UNL A   1      40.167  27.944  31.621  1.00  0.00    -0.203 F 
ATOM     80  C   UNL A   1      37.985  28.722  31.193  1.00  0.00     0.198 A 
ATOM     81  C   UNL A   1      37.405  29.520  29.006  1.00  0.00     0.198 A 
ATOM     82  F   UNL A   1      39.000  29.479  27.279  1.00  0.00    -0.203 F 
ATOM     83  F   UNL A   1      37.638  28.440  32.456  1.00  0.00    -0.200 F 
ATOM     84  C   UNL A   1      37.050  29.259  30.321  1.00  0.00     0.200 A 
ATOM     85  F   UNL A   1      36.512  30.057  28.165  1.00  0.00    -0.200 F 
ATOM     86  F   UNL A   1      35.806  29.519  30.745  1.00  0.00    -0.200 F 
ENDBRANCH  52  76
BRANCH  64  87
ATOM     87  C   UNL A   1      45.466  32.552  28.956  1.00  0.00     0.064 A 
ATOM     88  C   UNL A   1      45.238  33.590  28.042  1.00  0.00     0.173 A 
ATOM     89  C   UNL A   1      45.927  32.894  30.238  1.00  0.00     0.173 A 
ATOM     90  F   UNL A   1      44.810  33.316  26.801  1.00  0.00    -0.203 F 
ATOM     91  C   UNL A   1      45.476  34.917  28.393  1.00  0.00     0.198 A 
ATOM     92  C   UNL A   1      46.131  34.224  30.596  1.00  0.00     0.198 A 
ATOM     93  F   UNL A   1      46.152  31.939  31.153  1.00  0.00    -0.203 F 
ATOM     94  F   UNL A   1      45.290  35.890  27.489  1.00  0.00    -0.200 F 
ATOM     95  C   UNL A   1      45.912  35.233  29.671  1.00  0.00     0.200 A 
ATOM     96  F   UNL A   1      46.532  34.528  31.837  1.00  0.00    -0.200 F 
ATOM     97  F   UNL A   1      46.120  36.512  30.012  1.00  0.00    -0.200 F 
ENDBRANCH  64  87
ENDBRANCH  38  39
ENDBRANCH  30  33
ENDBRANCH  28  29
ENDBRANCH  27  28
ENDBRANCH  26  27
ENDBRANCH   1  26
TORSDOF 19
ENDMDL
