MODEL 1
REMARK VINA RESULT:     -11.6      0.000      0.000
REMARK SMILES C[C@@H]1C[C@@H]1C(=O)NCCC(=O)N[C@@](C)(C(=O)NCCCCCCNC(=O)c1ccc(-c2c3nc(c(-c4c(F)c(F)c(F)c(F)c4F)c4ccc([nH]4)c(-c4c(F)c(F)c(F)c(F)c4F)c4nc(c(-c5c(F)c(F)c(F)c(F)c5F)c5ccc2[nH]5)C=C4)C=C3)cc1)C(F)(F)F
REMARK SMILES IDX 19 1 18 2 17 3 15 4 16 5 13 7 14 8 12 9 10 10 11 11 9 13
REMARK SMILES IDX 8 14 7 15 5 16 6 17 4 19 1 20 2 21 3 22 90 23 91 24 92 25
REMARK SMILES IDX 93 26 20 27 21 28 22 29 23 30 24 31 25 32 26 34 27 35 28 36
REMARK SMILES IDX 89 37 29 38 88 39 30 40 31 41 32 42 82 43 33 44 87 45 81 46
REMARK SMILES IDX 83 47 34 48 86 49 80 50 79 51 35 53 67 54 47 55 66 56 48 57
REMARK SMILES IDX 51 58 65 59 84 60 49 61 50 62 64 64 85 65 52 66 36 67 37 68
REMARK SMILES IDX 45 69 38 70 39 71 43 72 46 73 40 74 41 75 44 76 42 77 68 78
REMARK SMILES IDX 69 79 77 80 70 81 71 82 75 83 78 84 72 85 73 86 76 87 74 88
REMARK SMILES IDX 53 89 54 90 62 91 55 92 56 93 60 94 63 95 57 96 58 97 61 98
REMARK SMILES IDX 59 99
REMARK H PARENT 17 6 12 12 7 18 24 33 83 52 51 63
REMARK Flexibility Score: inf
ROOT
ATOM      1  C   UNL A   1      36.585  23.726  25.528  1.00  0.00     0.021 C 
ENDROOT
BRANCH   1   2
ATOM      2  C   UNL A   1      35.327  23.159  26.185  1.00  0.00     0.116 C 
BRANCH   2   3
ATOM      3  N   UNL A   1      34.260  24.138  26.096  1.00  0.00    -0.354 N 
ATOM      4  C   UNL A   1      33.192  24.314  25.277  1.00  0.00     0.254 C 
ATOM      5  O   UNL A   1      32.558  25.350  25.493  1.00  0.00    -0.272 OA
ATOM      6  H   UNL A   1      34.324  24.834  26.790  1.00  0.00     0.163 HD
BRANCH   4   7
ATOM      7  C   UNL A   1      32.742  23.239  24.265  1.00  0.00     0.212 C 
ATOM      8  C   UNL A   1      31.284  23.573  23.893  1.00  0.00     0.056 C 
BRANCH   7   9
ATOM      9  N   UNL A   1      32.798  21.885  24.933  1.00  0.00    -0.335 N 
ATOM     10  C   UNL A   1      32.451  20.626  24.549  1.00  0.00     0.222 C 
ATOM     11  O   UNL A   1      32.155  19.834  25.449  1.00  0.00    -0.275 OA
ATOM     12  H   UNL A   1      33.167  21.920  25.846  1.00  0.00     0.164 HD
BRANCH  10  13
ATOM     13  C   UNL A   1      32.521  20.148  23.116  1.00  0.00     0.121 C 
BRANCH  13  14
ATOM     14  C   UNL A   1      31.949  18.760  22.831  1.00  0.00     0.125 C 
BRANCH  14  15
ATOM     15  N   UNL A   1      32.923  17.744  22.497  1.00  0.00    -0.355 N 
ATOM     16  C   UNL A   1      33.491  16.761  23.261  1.00  0.00     0.223 C 
ATOM     17  O   UNL A   1      34.400  16.088  22.784  1.00  0.00    -0.275 OA
ATOM     18  H   UNL A   1      33.230  17.763  21.562  1.00  0.00     0.163 HD
BRANCH  16  19
ATOM     19  C   UNL A   1      33.050  16.547  24.660  1.00  0.00     0.081 C 
ATOM     20  C   UNL A   1      35.482  15.844  25.375  1.00  0.00     0.008 C 
ATOM     21  C   UNL A   1      34.056  16.117  25.716  1.00  0.00    -0.001 C 
ATOM     22  C   UNL A   1      32.971  15.174  25.280  1.00  0.00     0.018 C 
ENDBRANCH  16  19
ENDBRANCH  14  15
ENDBRANCH  13  14
ENDBRANCH  10  13
ENDBRANCH   7   9
BRANCH   7  23
ATOM     23  C   UNL A   1      33.680  23.452  23.062  1.00  0.00     0.420 C 
ATOM     24  F   UNL A   1      34.708  22.571  23.056  1.00  0.00    -0.168 F 
ATOM     25  F   UNL A   1      33.022  23.272  21.898  1.00  0.00    -0.168 F 
ATOM     26  F   UNL A   1      34.185  24.703  22.984  1.00  0.00    -0.168 F 
ENDBRANCH   7  23
ENDBRANCH   4   7
ENDBRANCH   2   3
ENDBRANCH   1   2
BRANCH   1  27
ATOM     27  C   UNL A   1      37.690  22.677  25.309  1.00  0.00     0.002 C 
BRANCH  27  28
ATOM     28  C   UNL A   1      37.225  21.387  24.624  1.00  0.00     0.002 C 
BRANCH  28  29
ATOM     29  C   UNL A   1      38.000  20.138  25.039  1.00  0.00     0.021 C 
BRANCH  29  30
ATOM     30  C   UNL A   1      39.173  20.416  25.967  1.00  0.00     0.116 C 
BRANCH  30  31
ATOM     31  N   UNL A   1      40.113  19.310  26.008  1.00  0.00    -0.352 N 
ATOM     32  C   UNL A   1      41.483  19.347  26.121  1.00  0.00     0.251 C 
ATOM     33  H   UNL A   1      39.717  18.410  25.947  1.00  0.00     0.163 HD
ATOM     34  O   UNL A   1      42.154  18.343  25.966  1.00  0.00    -0.269 OA
BRANCH  32  35
ATOM     35  C   UNL A   1      42.131  20.644  26.406  1.00  0.00     0.039 A 
ATOM     36  C   UNL A   1      42.498  21.461  25.335  1.00  0.00     0.014 A 
ATOM     37  C   UNL A   1      42.334  21.059  27.725  1.00  0.00     0.014 A 
ATOM     38  C   UNL A   1      43.013  22.732  25.590  1.00  0.00     0.010 A 
ATOM     39  C   UNL A   1      42.780  22.351  27.976  1.00  0.00     0.010 A 
ATOM     40  C   UNL A   1      43.123  23.199  26.911  1.00  0.00    -0.014 A 
BRANCH  40  41
ATOM     41  C   UNL A   1      43.584  24.577  27.202  1.00  0.00     0.031 A 
ATOM     42  C   UNL A   1      42.610  25.605  27.702  1.00  0.00     0.074 A 
ATOM     43  C   UNL A   1      44.862  24.918  26.945  1.00  0.00     0.049 A 
ATOM     44  N   UNL A   1      42.797  26.880  27.930  1.00  0.00    -0.248 NA
ATOM     45  C   UNL A   1      41.235  25.144  27.953  1.00  0.00     0.031 C 
ATOM     46  C   UNL A   1      45.886  24.017  26.414  1.00  0.00     0.029 A 
ATOM     47  N   UNL A   1      45.512  26.118  27.080  1.00  0.00    -0.354 N 
ATOM     48  C   UNL A   1      41.565  27.374  28.335  1.00  0.00     0.074 A 
ATOM     49  C   UNL A   1      40.626  26.275  28.276  1.00  0.00     0.031 C 
ATOM     50  C   UNL A   1      47.039  24.693  26.282  1.00  0.00     0.029 A 
ATOM     51  C   UNL A   1      46.825  26.081  26.679  1.00  0.00     0.049 A 
ATOM     52  H   UNL A   1      45.078  26.930  27.430  1.00  0.00     0.167 HD
ATOM     53  C   UNL A   1      41.252  28.628  28.741  1.00  0.00     0.037 A 
ATOM     54  C   UNL A   1      47.747  27.060  26.627  1.00  0.00     0.037 A 
ATOM     55  C   UNL A   1      42.197  29.710  28.821  1.00  0.00     0.049 A 
ATOM     56  C   UNL A   1      47.370  28.446  27.076  1.00  0.00     0.074 A 
ATOM     57  C   UNL A   1      41.996  30.998  29.285  1.00  0.00     0.029 A 
ATOM     58  N   UNL A   1      43.525  29.630  28.425  1.00  0.00    -0.354 N 
ATOM     59  N   UNL A   1      46.220  28.885  27.526  1.00  0.00    -0.248 NA
ATOM     60  C   UNL A   1      48.421  29.471  27.012  1.00  0.00     0.031 C 
ATOM     61  C   UNL A   1      43.187  31.712  29.123  1.00  0.00     0.029 A 
ATOM     62  C   UNL A   1      44.146  30.855  28.608  1.00  0.00     0.049 A 
ATOM     63  H   UNL A   1      43.960  28.823  28.068  1.00  0.00     0.167 HD
ATOM     64  C   UNL A   1      46.415  30.228  27.822  1.00  0.00     0.074 A 
ATOM     65  C   UNL A   1      47.798  30.526  27.518  1.00  0.00     0.031 C 
ATOM     66  C   UNL A   1      45.526  31.132  28.302  1.00  0.00     0.037 A 
BRANCH  53  67
ATOM     67  C   UNL A   1      39.828  28.898  29.132  1.00  0.00     0.064 A 
ATOM     68  C   UNL A   1      38.867  29.285  28.187  1.00  0.00     0.173 A 
ATOM     69  C   UNL A   1      39.412  28.726  30.461  1.00  0.00     0.173 A 
ATOM     70  F   UNL A   1      39.217  29.476  26.907  1.00  0.00    -0.203 F 
ATOM     71  C   UNL A   1      37.545  29.512  28.561  1.00  0.00     0.198 A 
ATOM     72  C   UNL A   1      38.083  28.925  30.826  1.00  0.00     0.198 A 
ATOM     73  F   UNL A   1      40.291  28.353  31.403  1.00  0.00    -0.203 F 
ATOM     74  F   UNL A   1      36.654  29.923  27.649  1.00  0.00    -0.200 F 
ATOM     75  C   UNL A   1      37.152  29.324  29.878  1.00  0.00     0.200 A 
ATOM     76  F   UNL A   1      37.703  28.730  32.097  1.00  0.00    -0.200 F 
ATOM     77  F   UNL A   1      35.878  29.532  30.235  1.00  0.00    -0.200 F 
ENDBRANCH  53  67
BRANCH  54  78
ATOM     78  C   UNL A   1      49.120  26.765  26.140  1.00  0.00     0.064 A 
ATOM     79  C   UNL A   1      50.110  26.298  27.015  1.00  0.00     0.173 A 
ATOM     80  C   UNL A   1      49.473  26.951  24.795  1.00  0.00     0.173 A 
ATOM     81  F   UNL A   1      49.826  26.123  28.314  1.00  0.00    -0.203 F 
ATOM     82  C   UNL A   1      51.407  26.052  26.569  1.00  0.00     0.198 A 
ATOM     83  C   UNL A   1      50.762  26.677  24.345  1.00  0.00     0.198 A 
ATOM     84  F   UNL A   1      48.561  27.391  23.916  1.00  0.00    -0.203 F 
ATOM     85  F   UNL A   1      52.347  25.654  27.438  1.00  0.00    -0.200 F 
ATOM     86  C   UNL A   1      51.731  26.237  25.234  1.00  0.00     0.200 A 
ATOM     87  F   UNL A   1      51.067  26.843  23.050  1.00  0.00    -0.200 F 
ATOM     88  F   UNL A   1      52.978  25.999  24.806  1.00  0.00    -0.200 F 
ENDBRANCH  54  78
BRANCH  66  89
ATOM     89  C   UNL A   1      46.032  32.524  28.551  1.00  0.00     0.064 A 
ATOM     90  C   UNL A   1      46.615  32.886  29.774  1.00  0.00     0.173 A 
ATOM     91  C   UNL A   1      45.968  33.495  27.540  1.00  0.00     0.173 A 
ATOM     92  F   UNL A   1      46.685  31.998  30.778  1.00  0.00    -0.203 F 
ATOM     93  C   UNL A   1      47.091  34.177  29.985  1.00  0.00     0.198 A 
ATOM     94  C   UNL A   1      46.472  34.775  27.743  1.00  0.00     0.198 A 
ATOM     95  F   UNL A   1      45.425  33.197  26.349  1.00  0.00    -0.203 F 
ATOM     96  F   UNL A   1      47.599  34.515  31.178  1.00  0.00    -0.200 F 
ATOM     97  C   UNL A   1      47.026  35.118  28.968  1.00  0.00     0.200 A 
ATOM     98  F   UNL A   1      46.422  35.679  26.755  1.00  0.00    -0.200 F 
ATOM     99  F   UNL A   1      47.492  36.358  29.170  1.00  0.00    -0.200 F 
ENDBRANCH  66  89
ENDBRANCH  40  41
ENDBRANCH  32  35
ENDBRANCH  30  31
ENDBRANCH  29  30
ENDBRANCH  28  29
ENDBRANCH  27  28
ENDBRANCH   1  27
TORSDOF 19
ENDMDL
MODEL 2
REMARK VINA RESULT:     -11.5      0.525      7.254
REMARK SMILES C[C@@H]1C[C@@H]1C(=O)NCCC(=O)N[C@@](C)(C(=O)NCCCCCCNC(=O)c1ccc(-c2c3nc(c(-c4c(F)c(F)c(F)c(F)c4F)c4ccc([nH]4)c(-c4c(F)c(F)c(F)c(F)c4F)c4nc(c(-c5c(F)c(F)c(F)c(F)c5F)c5ccc2[nH]5)C=C4)C=C3)cc1)C(F)(F)F
REMARK SMILES IDX 19 1 18 2 17 3 15 4 16 5 13 7 14 8 12 9 10 10 11 11 9 13
REMARK SMILES IDX 8 14 7 15 5 16 6 17 4 19 1 20 2 21 3 22 90 23 91 24 92 25
REMARK SMILES IDX 93 26 20 27 21 28 22 29 23 30 24 31 25 32 26 34 27 35 28 36
REMARK SMILES IDX 89 37 29 38 88 39 30 40 31 41 32 42 82 43 33 44 87 45 81 46
REMARK SMILES IDX 83 47 34 48 86 49 80 50 79 51 35 53 67 54 47 55 66 56 48 57
REMARK SMILES IDX 51 58 65 59 84 60 49 61 50 62 64 64 85 65 52 66 36 67 37 68
REMARK SMILES IDX 45 69 38 70 39 71 43 72 46 73 40 74 41 75 44 76 42 77 68 78
REMARK SMILES IDX 69 79 77 80 70 81 71 82 75 83 78 84 72 85 73 86 76 87 74 88
REMARK SMILES IDX 53 89 54 90 62 91 55 92 56 93 60 94 63 95 57 96 58 97 61 98
REMARK SMILES IDX 59 99
REMARK H PARENT 17 6 12 12 7 18 24 33 83 52 51 63
REMARK Flexibility Score: inf
ROOT
ATOM      1  C   UNL A   1      36.680  23.551  25.484  1.00  0.00     0.021 C 
ENDROOT
BRANCH   1   2
ATOM      2  C   UNL A   1      35.416  23.073  26.198  1.00  0.00     0.116 C 
BRANCH   2   3
ATOM      3  N   UNL A   1      34.399  24.104  26.109  1.00  0.00    -0.354 N 
ATOM      4  C   UNL A   1      33.346  24.336  25.285  1.00  0.00     0.254 C 
ATOM      5  O   UNL A   1      32.762  25.401  25.503  1.00  0.00    -0.272 OA
ATOM      6  H   UNL A   1      34.494  24.793  26.806  1.00  0.00     0.163 HD
BRANCH   4   7
ATOM      7  C   UNL A   1      32.848  23.289  24.266  1.00  0.00     0.212 C 
ATOM      8  C   UNL A   1      31.399  23.677  23.913  1.00  0.00     0.056 C 
BRANCH   7   9
ATOM      9  N   UNL A   1      32.865  21.926  24.918  1.00  0.00    -0.335 N 
ATOM     10  C   UNL A   1      32.451  20.688  24.531  1.00  0.00     0.222 C 
ATOM     11  O   UNL A   1      32.148  19.899  25.432  1.00  0.00    -0.275 OA
ATOM     12  H   UNL A   1      33.263  21.934  25.819  1.00  0.00     0.164 HD
BRANCH  10  13
ATOM     13  C   UNL A   1      32.457  20.224  23.092  1.00  0.00     0.121 C 
BRANCH  13  14
ATOM     14  C   UNL A   1      31.896  18.829  22.822  1.00  0.00     0.125 C 
BRANCH  14  15
ATOM     15  N   UNL A   1      32.876  17.820  22.484  1.00  0.00    -0.355 N 
ATOM     16  C   UNL A   1      33.449  16.837  23.244  1.00  0.00     0.223 C 
ATOM     17  O   UNL A   1      34.362  16.171  22.765  1.00  0.00    -0.275 OA
ATOM     18  H   UNL A   1      33.185  17.845  21.550  1.00  0.00     0.163 HD
BRANCH  16  19
ATOM     19  C   UNL A   1      33.008  16.614  24.642  1.00  0.00     0.081 C 
ATOM     20  C   UNL A   1      35.427  15.848  25.339  1.00  0.00     0.008 C 
ATOM     21  C   UNL A   1      34.007  16.148  25.688  1.00  0.00    -0.001 C 
ATOM     22  C   UNL A   1      32.901  15.235  25.243  1.00  0.00     0.018 C 
ENDBRANCH  16  19
ENDBRANCH  14  15
ENDBRANCH  13  14
ENDBRANCH  10  13
ENDBRANCH   7   9
BRANCH   7  23
ATOM     23  C   UNL A   1      33.781  23.484  23.055  1.00  0.00     0.420 C 
ATOM     24  F   UNL A   1      34.791  22.582  23.040  1.00  0.00    -0.168 F 
ATOM     25  F   UNL A   1      33.110  23.319  21.897  1.00  0.00    -0.168 F 
ATOM     26  F   UNL A   1      34.311  24.724  22.975  1.00  0.00    -0.168 F 
ENDBRANCH   7  23
ENDBRANCH   4   7
ENDBRANCH   2   3
ENDBRANCH   1   2
BRANCH   1  27
ATOM     27  C   UNL A   1      37.776  22.475  25.387  1.00  0.00     0.002 C 
BRANCH  27  28
ATOM     28  C   UNL A   1      37.379  21.222  24.599  1.00  0.00     0.002 C 
BRANCH  28  29
ATOM     29  C   UNL A   1      38.182  19.972  24.954  1.00  0.00     0.021 C 
BRANCH  29  30
ATOM     30  C   UNL A   1      39.228  20.195  26.036  1.00  0.00     0.116 C 
BRANCH  30  31
ATOM     31  N   UNL A   1      40.267  19.179  26.012  1.00  0.00    -0.352 N 
ATOM     32  C   UNL A   1      41.631  19.340  26.073  1.00  0.00     0.251 C 
ATOM     33  H   UNL A   1      39.951  18.248  25.943  1.00  0.00     0.163 HD
ATOM     34  O   UNL A   1      42.384  18.406  25.867  1.00  0.00    -0.269 OA
BRANCH  32  35
ATOM     35  C   UNL A   1      42.168  20.684  26.367  1.00  0.00     0.039 A 
ATOM     36  C   UNL A   1      42.539  21.507  25.303  1.00  0.00     0.014 A 
ATOM     37  C   UNL A   1      42.264  21.136  27.687  1.00  0.00     0.014 A 
ATOM     38  C   UNL A   1      42.948  22.816  25.560  1.00  0.00     0.010 A 
ATOM     39  C   UNL A   1      42.603  22.460  27.936  1.00  0.00     0.010 A 
ATOM     40  C   UNL A   1      42.947  23.312  26.874  1.00  0.00    -0.014 A 
BRANCH  40  41
ATOM     41  C   UNL A   1      43.293  24.724  27.162  1.00  0.00     0.031 A 
ATOM     42  C   UNL A   1      44.696  25.213  26.945  1.00  0.00     0.074 A 
ATOM     43  C   UNL A   1      42.361  25.542  27.689  1.00  0.00     0.049 A 
ATOM     44  N   UNL A   1      45.216  26.382  27.219  1.00  0.00    -0.248 NA
ATOM     45  C   UNL A   1      45.649  24.251  26.369  1.00  0.00     0.031 C 
ATOM     46  C   UNL A   1      40.978  25.166  27.987  1.00  0.00     0.029 A 
ATOM     47  N   UNL A   1      42.440  26.854  28.081  1.00  0.00    -0.354 N 
ATOM     48  C   UNL A   1      46.555  26.291  26.863  1.00  0.00     0.074 A 
ATOM     49  C   UNL A   1      46.780  24.939  26.400  1.00  0.00     0.031 C 
ATOM     50  C   UNL A   1      40.336  26.226  28.502  1.00  0.00     0.029 A 
ATOM     51  C   UNL A   1      41.270  27.343  28.609  1.00  0.00     0.049 A 
ATOM     52  H   UNL A   1      43.259  27.393  27.995  1.00  0.00     0.167 HD
ATOM     53  C   UNL A   1      47.504  27.256  26.900  1.00  0.00     0.037 A 
ATOM     54  C   UNL A   1      40.988  28.551  29.130  1.00  0.00     0.037 A 
ATOM     55  C   UNL A   1      47.267  28.605  27.338  1.00  0.00     0.049 A 
ATOM     56  C   UNL A   1      42.065  29.602  29.166  1.00  0.00     0.074 A 
ATOM     57  C   UNL A   1      48.145  29.675  27.349  1.00  0.00     0.029 A 
ATOM     58  N   UNL A   1      46.063  29.070  27.848  1.00  0.00    -0.354 N 
ATOM     59  N   UNL A   1      43.309  29.526  28.759  1.00  0.00    -0.248 NA
ATOM     60  C   UNL A   1      41.695  30.908  29.731  1.00  0.00     0.031 C 
ATOM     61  C   UNL A   1      47.488  30.774  27.911  1.00  0.00     0.029 A 
ATOM     62  C   UNL A   1      46.184  30.404  28.202  1.00  0.00     0.049 A 
ATOM     63  H   UNL A   1      45.245  28.532  27.944  1.00  0.00     0.167 HD
ATOM     64  C   UNL A   1      43.863  30.777  28.995  1.00  0.00     0.074 A 
ATOM     65  C   UNL A   1      42.815  31.598  29.563  1.00  0.00     0.031 C 
ATOM     66  C   UNL A   1      45.128  31.206  28.763  1.00  0.00     0.037 A 
BRANCH  53  67
ATOM     67  C   UNL A   1      48.889  26.888  26.451  1.00  0.00     0.064 A 
ATOM     68  C   UNL A   1      49.828  26.343  27.339  1.00  0.00     0.173 A 
ATOM     69  C   UNL A   1      49.265  27.042  25.108  1.00  0.00     0.173 A 
ATOM     70  F   UNL A   1      49.523  26.187  28.635  1.00  0.00    -0.203 F 
ATOM     71  C   UNL A   1      51.102  25.987  26.903  1.00  0.00     0.198 A 
ATOM     72  C   UNL A   1      50.530  26.657  24.670  1.00  0.00     0.198 A 
ATOM     73  F   UNL A   1      48.402  27.555  24.218  1.00  0.00    -0.203 F 
ATOM     74  F   UNL A   1      51.998  25.508  27.777  1.00  0.00    -0.200 F 
ATOM     75  C   UNL A   1      51.449  26.136  25.569  1.00  0.00     0.200 A 
ATOM     76  F   UNL A   1      50.858  26.791  23.377  1.00  0.00    -0.200 F 
ATOM     77  F   UNL A   1      52.671  25.783  25.149  1.00  0.00    -0.200 F 
ENDBRANCH  53  67
BRANCH  54  78
ATOM     78  C   UNL A   1      39.627  28.838  29.651  1.00  0.00     0.064 A 
ATOM     79  C   UNL A   1      38.643  29.401  28.827  1.00  0.00     0.173 A 
ATOM     80  C   UNL A   1      39.282  28.565  30.984  1.00  0.00     0.173 A 
ATOM     81  F   UNL A   1      38.930  29.699  27.551  1.00  0.00    -0.203 F 
ATOM     82  C   UNL A   1      37.375  29.702  29.321  1.00  0.00     0.198 A 
ATOM     83  C   UNL A   1      38.006  28.839  31.468  1.00  0.00     0.198 A 
ATOM     84  F   UNL A   1      40.186  28.020  31.812  1.00  0.00    -0.203 F 
ATOM     85  F   UNL A   1      36.470  30.287  28.524  1.00  0.00    -0.200 F 
ATOM     86  C   UNL A   1      37.056  29.417  30.639  1.00  0.00     0.200 A 
ATOM     87  F   UNL A   1      37.697  28.548  32.739  1.00  0.00    -0.200 F 
ATOM     88  F   UNL A   1      35.837  29.705  31.113  1.00  0.00    -0.200 F 
ENDBRANCH  54  78
BRANCH  66  89
ATOM     89  C   UNL A   1      45.439  32.636  29.101  1.00  0.00     0.064 A 
ATOM     90  C   UNL A   1      46.020  32.993  30.326  1.00  0.00     0.173 A 
ATOM     91  C   UNL A   1      45.190  33.656  28.169  1.00  0.00     0.173 A 
ATOM     92  F   UNL A   1      46.263  32.056  31.256  1.00  0.00    -0.203 F 
ATOM     93  C   UNL A   1      46.314  34.322  30.618  1.00  0.00     0.198 A 
ATOM     94  C   UNL A   1      45.513  34.979  28.452  1.00  0.00     0.198 A 
ATOM     95  F   UNL A   1      44.642  33.366  26.979  1.00  0.00    -0.203 F 
ATOM     96  F   UNL A   1      46.823  34.646  31.815  1.00  0.00    -0.200 F 
ATOM     97  C   UNL A   1      46.068  35.312  29.679  1.00  0.00     0.200 A 
ATOM     98  F   UNL A   1      45.289  35.932  27.538  1.00  0.00    -0.200 F 
ATOM     99  F   UNL A   1      46.359  36.590  29.959  1.00  0.00    -0.200 F 
ENDBRANCH  66  89
ENDBRANCH  40  41
ENDBRANCH  32  35
ENDBRANCH  30  31
ENDBRANCH  29  30
ENDBRANCH  28  29
ENDBRANCH  27  28
ENDBRANCH   1  27
TORSDOF 19
ENDMDL
MODEL 3
REMARK VINA RESULT:     -11.4      2.641      5.151
REMARK SMILES C[C@@H]1C[C@@H]1C(=O)NCCC(=O)N[C@@](C)(C(=O)NCCCCCCNC(=O)c1ccc(-c2c3nc(c(-c4c(F)c(F)c(F)c(F)c4F)c4ccc([nH]4)c(-c4c(F)c(F)c(F)c(F)c4F)c4nc(c(-c5c(F)c(F)c(F)c(F)c5F)c5ccc2[nH]5)C=C4)C=C3)cc1)C(F)(F)F
REMARK SMILES IDX 19 1 18 2 17 3 15 4 16 5 13 7 14 8 12 9 10 10 11 11 9 13
REMARK SMILES IDX 8 14 7 15 5 16 6 17 4 19 1 20 2 21 3 22 90 23 91 24 92 25
REMARK SMILES IDX 93 26 20 27 21 28 22 29 23 30 24 31 25 32 26 34 27 35 28 36
REMARK SMILES IDX 89 37 29 38 88 39 30 40 31 41 32 42 82 43 33 44 87 45 81 46
REMARK SMILES IDX 83 47 34 48 86 49 80 50 79 51 35 53 67 54 47 55 66 56 48 57
REMARK SMILES IDX 51 58 65 59 84 60 49 61 50 62 64 64 85 65 52 66 36 67 37 68
REMARK SMILES IDX 45 69 38 70 39 71 43 72 46 73 40 74 41 75 44 76 42 77 68 78
REMARK SMILES IDX 69 79 77 80 70 81 71 82 75 83 78 84 72 85 73 86 76 87 74 88
REMARK SMILES IDX 53 89 54 90 62 91 55 92 56 93 60 94 63 95 57 96 58 97 61 98
REMARK SMILES IDX 59 99
REMARK H PARENT 17 6 12 12 7 18 24 33 83 52 51 63
REMARK Flexibility Score: inf
ROOT
ATOM      1  C   UNL A   1      36.559  22.806  23.403  1.00  0.00     0.021 C 
ENDROOT
BRANCH   1   2
ATOM      2  C   UNL A   1      35.290  23.655  23.480  1.00  0.00     0.116 C 
BRANCH   2   3
ATOM      3  N   UNL A   1      34.168  22.805  23.829  1.00  0.00    -0.354 N 
ATOM      4  C   UNL A   1      32.953  23.014  24.397  1.00  0.00     0.254 C 
ATOM      5  O   UNL A   1      32.310  21.982  24.602  1.00  0.00    -0.272 OA
ATOM      6  H   UNL A   1      34.321  21.860  23.600  1.00  0.00     0.163 HD
BRANCH   4   7
ATOM      7  C   UNL A   1      32.383  24.429  24.630  1.00  0.00     0.212 C 
ATOM      8  C   UNL A   1      30.852  24.276  24.715  1.00  0.00     0.056 C 
BRANCH   7   9
ATOM      9  N   UNL A   1      32.742  25.302  23.450  1.00  0.00    -0.335 N 
ATOM     10  C   UNL A   1      32.189  26.415  22.895  1.00  0.00     0.222 C 
ATOM     11  O   UNL A   1      32.405  26.600  21.693  1.00  0.00    -0.275 OA
ATOM     12  H   UNL A   1      33.553  25.000  22.979  1.00  0.00     0.164 HD
BRANCH  10  13
ATOM     13  C   UNL A   1      31.441  27.457  23.696  1.00  0.00     0.121 C 
BRANCH  13  14
ATOM     14  C   UNL A   1      31.662  28.914  23.296  1.00  0.00     0.125 C 
BRANCH  14  15
ATOM     15  N   UNL A   1      30.892  29.369  22.159  1.00  0.00    -0.355 N 
ATOM     16  C   UNL A   1      29.680  29.999  22.091  1.00  0.00     0.223 C 
ATOM     17  O   UNL A   1      29.162  30.176  20.992  1.00  0.00    -0.275 OA
ATOM     18  H   UNL A   1      31.311  29.196  21.285  1.00  0.00     0.163 HD
BRANCH  16  19
ATOM     19  C   UNL A   1      28.979  30.415  23.330  1.00  0.00     0.081 C 
ATOM     20  C   UNL A   1      28.483  32.791  22.315  1.00  0.00     0.008 C 
ATOM     21  C   UNL A   1      28.359  31.800  23.423  1.00  0.00    -0.001 C 
ATOM     22  C   UNL A   1      29.548  31.448  24.270  1.00  0.00     0.018 C 
ENDBRANCH  16  19
ENDBRANCH  14  15
ENDBRANCH  13  14
ENDBRANCH  10  13
ENDBRANCH   7   9
BRANCH   7  23
ATOM     23  C   UNL A   1      32.971  24.841  25.994  1.00  0.00     0.420 C 
ATOM     24  F   UNL A   1      33.855  25.861  25.880  1.00  0.00    -0.168 F 
ATOM     25  F   UNL A   1      32.003  25.273  26.827  1.00  0.00    -0.168 F 
ATOM     26  F   UNL A   1      33.570  23.825  26.654  1.00  0.00    -0.168 F 
ENDBRANCH   7  23
ENDBRANCH   4   7
ENDBRANCH   2   3
ENDBRANCH   1   2
BRANCH   1  27
ATOM     27  C   UNL A   1      37.127  22.423  24.781  1.00  0.00     0.002 C 
BRANCH  27  28
ATOM     28  C   UNL A   1      36.906  20.960  25.183  1.00  0.00     0.002 C 
BRANCH  28  29
ATOM     29  C   UNL A   1      38.112  20.052  24.951  1.00  0.00     0.021 C 
BRANCH  29  30
ATOM     30  C   UNL A   1      39.300  20.358  25.852  1.00  0.00     0.116 C 
BRANCH  30  31
ATOM     31  N   UNL A   1      40.244  19.255  25.908  1.00  0.00    -0.352 N 
ATOM     32  C   UNL A   1      41.599  19.292  26.137  1.00  0.00     0.251 C 
ATOM     33  H   UNL A   1      39.862  18.359  25.760  1.00  0.00     0.163 HD
ATOM     34  O   UNL A   1      42.290  18.302  25.982  1.00  0.00    -0.269 OA
BRANCH  32  35
ATOM     35  C   UNL A   1      42.207  20.572  26.552  1.00  0.00     0.039 A 
ATOM     36  C   UNL A   1      42.748  21.407  25.573  1.00  0.00     0.014 A 
ATOM     37  C   UNL A   1      42.204  20.956  27.896  1.00  0.00     0.014 A 
ATOM     38  C   UNL A   1      43.231  22.664  25.937  1.00  0.00     0.010 A 
ATOM     39  C   UNL A   1      42.620  22.235  28.246  1.00  0.00     0.010 A 
ATOM     40  C   UNL A   1      43.136  23.101  27.269  1.00  0.00    -0.014 A 
BRANCH  40  41
ATOM     41  C   UNL A   1      43.560  24.465  27.662  1.00  0.00     0.031 A 
ATOM     42  C   UNL A   1      42.531  25.503  28.002  1.00  0.00     0.074 A 
ATOM     43  C   UNL A   1      44.869  24.785  27.639  1.00  0.00     0.049 A 
ATOM     44  N   UNL A   1      42.695  26.771  28.283  1.00  0.00    -0.248 NA
ATOM     45  C   UNL A   1      41.126  25.065  27.999  1.00  0.00     0.031 C 
ATOM     46  C   UNL A   1      45.957  23.874  27.279  1.00  0.00     0.029 A 
ATOM     47  N   UNL A   1      45.505  25.971  27.908  1.00  0.00    -0.354 N 
ATOM     48  C   UNL A   1      41.419  27.282  28.475  1.00  0.00     0.074 A 
ATOM     49  C   UNL A   1      40.488  26.203  28.231  1.00  0.00     0.031 C 
ATOM     50  C   UNL A   1      47.125  24.529  27.364  1.00  0.00     0.029 A 
ATOM     51  C   UNL A   1      46.867  25.915  27.744  1.00  0.00     0.049 A 
ATOM     52  H   UNL A   1      45.029  26.785  28.192  1.00  0.00     0.167 HD
ATOM     53  C   UNL A   1      41.060  28.535  28.843  1.00  0.00     0.037 A 
ATOM     54  C   UNL A   1      47.799  26.877  27.872  1.00  0.00     0.037 A 
ATOM     55  C   UNL A   1      41.994  29.597  29.108  1.00  0.00     0.049 A 
ATOM     56  C   UNL A   1      47.371  28.263  28.274  1.00  0.00     0.074 A 
ATOM     57  C   UNL A   1      41.734  30.882  29.553  1.00  0.00     0.029 A 
ATOM     58  N   UNL A   1      43.368  29.498  28.950  1.00  0.00    -0.354 N 
ATOM     59  N   UNL A   1      46.167  28.717  28.523  1.00  0.00    -0.248 NA
ATOM     60  C   UNL A   1      48.434  29.268  28.415  1.00  0.00     0.031 C 
ATOM     61  C   UNL A   1      42.946  31.576  29.616  1.00  0.00     0.029 A 
ATOM     62  C   UNL A   1      43.968  30.708  29.261  1.00  0.00     0.049 A 
ATOM     63  H   UNL A   1      43.847  28.689  28.659  1.00  0.00     0.167 HD
ATOM     64  C   UNL A   1      46.329  30.050  28.874  1.00  0.00     0.074 A 
ATOM     65  C   UNL A   1      47.748  30.327  28.823  1.00  0.00     0.031 C 
ATOM     66  C   UNL A   1      45.384  30.964  29.207  1.00  0.00     0.037 A 
BRANCH  53  67
ATOM     67  C   UNL A   1      39.594  28.826  28.984  1.00  0.00     0.064 A 
ATOM     68  C   UNL A   1      38.938  28.715  30.218  1.00  0.00     0.173 A 
ATOM     69  C   UNL A   1      38.848  29.265  27.879  1.00  0.00     0.173 A 
ATOM     70  F   UNL A   1      39.602  28.288  31.301  1.00  0.00    -0.203 F 
ATOM     71  C   UNL A   1      37.581  29.009  30.337  1.00  0.00     0.198 A 
ATOM     72  C   UNL A   1      37.499  29.587  28.008  1.00  0.00     0.198 A 
ATOM     73  F   UNL A   1      39.430  29.392  26.677  1.00  0.00    -0.203 F 
ATOM     74  F   UNL A   1      36.965  28.854  31.516  1.00  0.00    -0.200 F 
ATOM     75  C   UNL A   1      36.866  29.452  29.235  1.00  0.00     0.200 A 
ATOM     76  F   UNL A   1      36.813  30.027  26.944  1.00  0.00    -0.200 F 
ATOM     77  F   UNL A   1      35.564  29.745  29.352  1.00  0.00    -0.200 F 
ENDBRANCH  53  67
BRANCH  54  78
ATOM     78  C   UNL A   1      49.231  26.563  27.628  1.00  0.00     0.064 A 
ATOM     79  C   UNL A   1      49.742  26.488  26.325  1.00  0.00     0.173 A 
ATOM     80  C   UNL A   1      50.117  26.324  28.691  1.00  0.00     0.173 A 
ATOM     81  F   UNL A   1      48.930  26.688  25.277  1.00  0.00    -0.203 F 
ATOM     82  C   UNL A   1      51.076  26.161  26.093  1.00  0.00     0.198 A 
ATOM     83  C   UNL A   1      51.457  26.027  28.457  1.00  0.00     0.198 A 
ATOM     84  F   UNL A   1      49.680  26.390  29.957  1.00  0.00    -0.203 F 
ATOM     85  F   UNL A   1      51.525  26.046  24.835  1.00  0.00    -0.200 F 
ATOM     86  C   UNL A   1      51.934  25.936  27.158  1.00  0.00     0.200 A 
ATOM     87  F   UNL A   1      52.286  25.825  29.490  1.00  0.00    -0.200 F 
ATOM     88  F   UNL A   1      53.217  25.624  26.933  1.00  0.00    -0.200 F 
ENDBRANCH  54  78
BRANCH  66  89
ATOM     89  C   UNL A   1      45.860  32.342  29.567  1.00  0.00     0.064 A 
ATOM     90  C   UNL A   1      45.916  33.372  28.618  1.00  0.00     0.173 A 
ATOM     91  C   UNL A   1      46.227  32.644  30.888  1.00  0.00     0.173 A 
ATOM     92  F   UNL A   1      45.591  33.130  27.338  1.00  0.00    -0.203 F 
ATOM     93  C   UNL A   1      46.348  34.648  28.971  1.00  0.00     0.198 A 
ATOM     94  C   UNL A   1      46.629  33.927  31.244  1.00  0.00     0.198 A 
ATOM     95  F   UNL A   1      46.185  31.695  31.835  1.00  0.00    -0.203 F 
ATOM     96  F   UNL A   1      46.441  35.604  28.037  1.00  0.00    -0.200 F 
ATOM     97  C   UNL A   1      46.697  34.926  30.284  1.00  0.00     0.200 A 
ATOM     98  F   UNL A   1      46.951  34.198  32.516  1.00  0.00    -0.200 F 
ATOM     99  F   UNL A   1      47.105  36.156  30.624  1.00  0.00    -0.200 F 
ENDBRANCH  66  89
ENDBRANCH  40  41
ENDBRANCH  32  35
ENDBRANCH  30  31
ENDBRANCH  29  30
ENDBRANCH  28  29
ENDBRANCH  27  28
ENDBRANCH   1  27
TORSDOF 19
ENDMDL
