MODEL 1
REMARK VINA RESULT:     -12.6      0.000      0.000
REMARK SMILES Cn1c(C(=O)N2CCC[C@@H](C(=O)NCCCCCCNC(=O)c3ccc(-c4c5nc(c(-c6c(F)c(F)c(F)c(F)c6F)c6ccc([nH]6)c(-c6c(F)c(F)c(F)c(F)c6F)c6nc(c(-c7c(F)c(F)c(F)c(F)c7F)c7ccc4[nH]7)C=C6)C=C5)cc3)C2)cc2sccc21
REMARK SMILES IDX 16 1 15 2 14 3 13 4 11 5 12 6 10 8 6 9 7 10 86 11 8 12 9 13
REMARK SMILES IDX 4 14 5 15 3 16 1 17 2 18 92 19 87 20 88 21 91 22 89 23 90 24
REMARK SMILES IDX 17 25 18 26 19 27 20 28 21 29 22 31 23 32 24 33 85 34 25 35
REMARK SMILES IDX 84 36 26 37 27 38 28 39 78 40 29 41 83 42 77 43 79 44 30 45
REMARK SMILES IDX 82 46 76 47 75 48 31 50 63 51 43 52 62 53 44 54 47 55 61 56
REMARK SMILES IDX 80 57 45 58 46 59 60 61 81 62 48 63 32 64 33 65 41 66 34 67
REMARK SMILES IDX 35 68 39 69 42 70 36 71 37 72 40 73 38 74 64 75 65 76 73 77
REMARK SMILES IDX 66 78 67 79 71 80 74 81 68 82 69 83 72 84 70 85 49 86 50 87
REMARK SMILES IDX 58 88 51 89 52 90 56 91 59 92 53 93 54 94 57 95 55 96
REMARK H PARENT 13 7 20 30 79 49 47 60
REMARK Flexibility Score: inf
ROOT
ATOM      1  C   UNL A   1      39.531  21.459  26.112  1.00  0.00     0.002 C 
ENDROOT
BRANCH   1   2
ATOM      2  C   UNL A   1      39.232  22.949  26.308  1.00  0.00     0.021 C 
BRANCH   2   3
ATOM      3  C   UNL A   1      37.811  23.415  26.007  1.00  0.00     0.116 C 
BRANCH   3   4
ATOM      4  N   UNL A   1      37.405  23.207  24.634  1.00  0.00    -0.356 N 
ATOM      5  C   UNL A   1      36.159  23.043  24.108  1.00  0.00     0.224 C 
ATOM      6  O   UNL A   1      36.085  22.975  22.879  1.00  0.00    -0.275 OA
ATOM      7  H   UNL A   1      38.140  23.181  23.981  1.00  0.00     0.163 HD
BRANCH   5   8
ATOM      8  C   UNL A   1      34.927  22.887  25.005  1.00  0.00     0.098 C 
ATOM      9  N   UNL A   1      32.524  23.428  25.301  1.00  0.00    -0.337 N 
ATOM     10  C   UNL A   1      32.123  22.039  25.412  1.00  0.00     0.120 C 
ATOM     11  C   UNL A   1      33.728  23.721  24.524  1.00  0.00     0.133 C 
ATOM     12  C   UNL A   1      33.265  21.162  25.890  1.00  0.00     0.022 C 
ATOM     13  C   UNL A   1      34.521  21.395  25.054  1.00  0.00     0.017 C 
BRANCH   9  14
ATOM     14  C   UNL A   1      31.790  24.386  25.986  1.00  0.00     0.270 C 
ATOM     15  O   UNL A   1      31.356  24.151  27.112  1.00  0.00    -0.267 OA
BRANCH  14  16
ATOM     16  C   UNL A   1      31.428  25.584  25.229  1.00  0.00     0.108 A 
ATOM     17  C   UNL A   1      33.171  27.138  26.228  1.00  0.00     0.150 C 
ATOM     18  N   UNL A   1      32.030  26.824  25.400  1.00  0.00    -0.339 N 
ATOM     19  C   UNL A   1      31.302  27.775  24.716  1.00  0.00     0.059 A 
ATOM     20  C   UNL A   1      30.377  25.757  24.334  1.00  0.00     0.053 A 
ATOM     21  C   UNL A   1      30.310  27.142  24.036  1.00  0.00     0.053 A 
ATOM     22  C   UNL A   1      31.284  29.189  24.549  1.00  0.00     0.038 A 
ATOM     23  S   UNL A   1      29.327  28.231  23.117  1.00  0.00    -0.142 S 
ATOM     24  C   UNL A   1      30.243  29.553  23.721  1.00  0.00     0.068 A 
ENDBRANCH  14  16
ENDBRANCH   9  14
ENDBRANCH   5   8
ENDBRANCH   3   4
ENDBRANCH   2   3
ENDBRANCH   1   2
BRANCH   1  25
ATOM     25  C   UNL A   1      40.842  20.909  26.686  1.00  0.00     0.002 C 
BRANCH  25  26
ATOM     26  C   UNL A   1      41.404  19.614  26.086  1.00  0.00     0.021 C 
BRANCH  26  27
ATOM     27  C   UNL A   1      42.820  19.255  26.509  1.00  0.00     0.116 C 
BRANCH  27  28
ATOM     28  N   UNL A   1      43.747  19.094  25.391  1.00  0.00    -0.352 N 
ATOM     29  C   UNL A   1      44.271  20.078  24.567  1.00  0.00     0.251 C 
ATOM     30  H   UNL A   1      44.037  18.171  25.199  1.00  0.00     0.163 HD
ATOM     31  O   UNL A   1      44.727  19.812  23.469  1.00  0.00    -0.269 OA
BRANCH  29  32
ATOM     32  C   UNL A   1      44.262  21.472  25.050  1.00  0.00     0.039 A 
ATOM     33  C   UNL A   1      43.355  22.415  24.559  1.00  0.00     0.014 A 
ATOM     34  C   UNL A   1      45.166  21.811  26.051  1.00  0.00     0.014 A 
ATOM     35  C   UNL A   1      43.304  23.675  25.156  1.00  0.00     0.010 A 
ATOM     36  C   UNL A   1      44.997  22.978  26.749  1.00  0.00     0.010 A 
ATOM     37  C   UNL A   1      44.113  23.941  26.272  1.00  0.00    -0.014 A 
BRANCH  37  38
ATOM     38  C   UNL A   1      43.997  25.191  27.019  1.00  0.00     0.031 A 
ATOM     39  C   UNL A   1      45.040  26.208  26.719  1.00  0.00     0.074 A 
ATOM     40  C   UNL A   1      42.899  25.496  27.749  1.00  0.00     0.049 A 
ATOM     41  N   UNL A   1      45.931  26.685  27.522  1.00  0.00    -0.248 NA
ATOM     42  C   UNL A   1      45.178  26.685  25.333  1.00  0.00     0.031 C 
ATOM     43  C   UNL A   1      41.661  24.712  27.879  1.00  0.00     0.029 A 
ATOM     44  N   UNL A   1      42.608  26.631  28.448  1.00  0.00    -0.354 N 
ATOM     45  C   UNL A   1      46.624  27.660  26.804  1.00  0.00     0.074 A 
ATOM     46  C   UNL A   1      46.233  27.499  25.429  1.00  0.00     0.031 C 
ATOM     47  C   UNL A   1      40.685  25.481  28.403  1.00  0.00     0.029 A 
ATOM     48  C   UNL A   1      41.276  26.735  28.830  1.00  0.00     0.049 A 
ATOM     49  H   UNL A   1      43.282  27.315  28.664  1.00  0.00     0.167 HD
ATOM     50  C   UNL A   1      47.259  28.677  27.453  1.00  0.00     0.037 A 
ATOM     51  C   UNL A   1      40.686  27.765  29.476  1.00  0.00     0.037 A 
ATOM     52  C   UNL A   1      47.342  28.400  28.863  1.00  0.00     0.049 A 
ATOM     53  C   UNL A   1      41.751  28.523  30.164  1.00  0.00     0.074 A 
ATOM     54  C   UNL A   1      48.104  27.603  29.687  1.00  0.00     0.029 A 
ATOM     55  N   UNL A   1      46.232  28.780  29.570  1.00  0.00    -0.354 N 
ATOM     56  N   UNL A   1      42.436  28.046  31.166  1.00  0.00    -0.248 NA
ATOM     57  C   UNL A   1      42.310  29.711  29.530  1.00  0.00     0.031 C 
ATOM     58  C   UNL A   1      47.301  27.351  30.842  1.00  0.00     0.029 A 
ATOM     59  C   UNL A   1      46.091  28.025  30.700  1.00  0.00     0.049 A 
ATOM     60  H   UNL A   1      45.618  29.501  29.298  1.00  0.00     0.167 HD
ATOM     61  C   UNL A   1      43.692  28.593  31.006  1.00  0.00     0.074 A 
ATOM     62  C   UNL A   1      43.507  29.737  30.122  1.00  0.00     0.031 C 
ATOM     63  C   UNL A   1      44.804  27.877  31.338  1.00  0.00     0.037 A 
BRANCH  50  64
ATOM     64  C   UNL A   1      47.385  30.107  26.959  1.00  0.00     0.064 A 
ATOM     65  C   UNL A   1      48.618  30.779  27.135  1.00  0.00     0.173 A 
ATOM     66  C   UNL A   1      46.289  30.937  26.646  1.00  0.00     0.173 A 
ATOM     67  F   UNL A   1      49.732  30.096  27.436  1.00  0.00    -0.203 F 
ATOM     68  C   UNL A   1      48.717  32.174  27.099  1.00  0.00     0.198 A 
ATOM     69  C   UNL A   1      46.403  32.326  26.561  1.00  0.00     0.198 A 
ATOM     70  F   UNL A   1      45.046  30.461  26.521  1.00  0.00    -0.203 F 
ATOM     71  F   UNL A   1      49.879  32.768  27.404  1.00  0.00    -0.200 F 
ATOM     72  C   UNL A   1      47.606  32.947  26.823  1.00  0.00     0.200 A 
ATOM     73  F   UNL A   1      45.311  33.060  26.308  1.00  0.00    -0.200 F 
ATOM     74  F   UNL A   1      47.680  34.284  26.855  1.00  0.00    -0.200 F 
ENDBRANCH  50  64
BRANCH  51  75
ATOM     75  C   UNL A   1      39.286  28.230  29.441  1.00  0.00     0.064 A 
ATOM     76  C   UNL A   1      38.520  28.329  30.611  1.00  0.00     0.173 A 
ATOM     77  C   UNL A   1      38.773  28.859  28.292  1.00  0.00     0.173 A 
ATOM     78  F   UNL A   1      38.959  27.776  31.752  1.00  0.00    -0.203 F 
ATOM     79  C   UNL A   1      37.329  29.058  30.645  1.00  0.00     0.198 A 
ATOM     80  C   UNL A   1      37.583  29.586  28.325  1.00  0.00     0.198 A 
ATOM     81  F   UNL A   1      39.470  28.859  27.146  1.00  0.00    -0.203 F 
ATOM     82  F   UNL A   1      36.659  29.190  31.798  1.00  0.00    -0.200 F 
ATOM     83  C   UNL A   1      36.871  29.701  29.506  1.00  0.00     0.200 A 
ATOM     84  F   UNL A   1      37.167  30.232  27.227  1.00  0.00    -0.200 F 
ATOM     85  F   UNL A   1      35.769  30.462  29.556  1.00  0.00    -0.200 F 
ENDBRANCH  51  75
BRANCH  63  86
ATOM     86  C   UNL A   1      44.619  26.748  32.300  1.00  0.00     0.064 A 
ATOM     87  C   UNL A   1      44.453  25.405  31.925  1.00  0.00     0.173 A 
ATOM     88  C   UNL A   1      44.680  27.036  33.668  1.00  0.00     0.173 A 
ATOM     89  F   UNL A   1      44.460  25.044  30.637  1.00  0.00    -0.203 F 
ATOM     90  C   UNL A   1      44.313  24.402  32.882  1.00  0.00     0.198 A 
ATOM     91  C   UNL A   1      44.575  26.031  34.622  1.00  0.00     0.198 A 
ATOM     92  F   UNL A   1      44.879  28.299  34.079  1.00  0.00    -0.203 F 
ATOM     93  F   UNL A   1      44.133  23.129  32.501  1.00  0.00    -0.200 F 
ATOM     94  C   UNL A   1      44.379  24.716  34.229  1.00  0.00     0.200 A 
ATOM     95  F   UNL A   1      44.682  26.334  35.923  1.00  0.00    -0.200 F 
ATOM     96  F   UNL A   1      44.276  23.749  35.152  1.00  0.00    -0.200 F 
ENDBRANCH  63  86
ENDBRANCH  37  38
ENDBRANCH  29  32
ENDBRANCH  27  28
ENDBRANCH  26  27
ENDBRANCH  25  26
ENDBRANCH   1  25
TORSDOF 15
ENDMDL
MODEL 2
REMARK VINA RESULT:     -12.3      4.156      9.980
REMARK SMILES Cn1c(C(=O)N2CCC[C@@H](C(=O)NCCCCCCNC(=O)c3ccc(-c4c5nc(c(-c6c(F)c(F)c(F)c(F)c6F)c6ccc([nH]6)c(-c6c(F)c(F)c(F)c(F)c6F)c6nc(c(-c7c(F)c(F)c(F)c(F)c7F)c7ccc4[nH]7)C=C6)C=C5)cc3)C2)cc2sccc21
REMARK SMILES IDX 16 1 15 2 14 3 13 4 11 5 12 6 10 8 6 9 7 10 86 11 8 12 9 13
REMARK SMILES IDX 4 14 5 15 3 16 1 17 2 18 92 19 87 20 88 21 91 22 89 23 90 24
REMARK SMILES IDX 17 25 18 26 19 27 20 28 21 29 22 31 23 32 24 33 85 34 25 35
REMARK SMILES IDX 84 36 26 37 27 38 28 39 78 40 29 41 83 42 77 43 79 44 30 45
REMARK SMILES IDX 82 46 76 47 75 48 31 50 63 51 43 52 62 53 44 54 47 55 61 56
REMARK SMILES IDX 80 57 45 58 46 59 60 61 81 62 48 63 32 64 33 65 41 66 34 67
REMARK SMILES IDX 35 68 39 69 42 70 36 71 37 72 40 73 38 74 64 75 65 76 73 77
REMARK SMILES IDX 66 78 67 79 71 80 74 81 68 82 69 83 72 84 70 85 49 86 50 87
REMARK SMILES IDX 58 88 51 89 52 90 56 91 59 92 53 93 54 94 57 95 55 96
REMARK H PARENT 13 7 20 30 79 49 47 60
REMARK Flexibility Score: inf
ROOT
ATOM      1  C   UNL A   1      34.155  31.761  28.196  1.00  0.00     0.002 C 
ENDROOT
BRANCH   1   2
ATOM      2  C   UNL A   1      34.917  30.833  27.244  1.00  0.00     0.021 C 
BRANCH   2   3
ATOM      3  C   UNL A   1      34.738  29.332  27.452  1.00  0.00     0.116 C 
BRANCH   3   4
ATOM      4  N   UNL A   1      33.415  28.956  27.899  1.00  0.00    -0.356 N 
ATOM      5  C   UNL A   1      32.423  28.299  27.235  1.00  0.00     0.224 C 
ATOM      6  O   UNL A   1      31.415  28.020  27.887  1.00  0.00    -0.275 OA
ATOM      7  H   UNL A   1      33.199  29.212  28.824  1.00  0.00     0.163 HD
BRANCH   5   8
ATOM      8  C   UNL A   1      32.535  27.983  25.740  1.00  0.00     0.098 C 
ATOM      9  N   UNL A   1      32.339  26.234  23.993  1.00  0.00    -0.337 N 
ATOM     10  C   UNL A   1      31.359  26.973  23.221  1.00  0.00     0.120 C 
ATOM     11  C   UNL A   1      32.391  26.484  25.432  1.00  0.00     0.133 C 
ATOM     12  C   UNL A   1      31.454  28.465  23.477  1.00  0.00     0.022 C 
ATOM     13  C   UNL A   1      31.442  28.765  24.974  1.00  0.00     0.017 C 
BRANCH   9  14
ATOM     14  C   UNL A   1      33.211  25.388  23.320  1.00  0.00     0.270 C 
ATOM     15  O   UNL A   1      33.813  25.780  22.323  1.00  0.00    -0.267 OA
BRANCH  14  16
ATOM     16  C   UNL A   1      33.223  23.993  23.758  1.00  0.00     0.108 A 
ATOM     17  C   UNL A   1      35.400  24.082  25.063  1.00  0.00     0.150 C 
ATOM     18  N   UNL A   1      34.250  23.417  24.495  1.00  0.00    -0.339 N 
ATOM     19  C   UNL A   1      34.066  22.051  24.532  1.00  0.00     0.059 A 
ATOM     20  C   UNL A   1      32.331  22.976  23.432  1.00  0.00     0.053 A 
ATOM     21  C   UNL A   1      32.887  21.765  23.918  1.00  0.00     0.053 A 
ATOM     22  C   UNL A   1      34.753  20.894  24.996  1.00  0.00     0.038 A 
ATOM     23  S   UNL A   1      32.528  20.072  23.912  1.00  0.00    -0.142 S 
ATOM     24  C   UNL A   1      34.025  19.762  24.696  1.00  0.00     0.068 A 
ENDBRANCH  14  16
ENDBRANCH   9  14
ENDBRANCH   5   8
ENDBRANCH   3   4
ENDBRANCH   2   3
ENDBRANCH   1   2
BRANCH   1  25
ATOM     25  C   UNL A   1      34.317  33.274  28.005  1.00  0.00     0.002 C 
BRANCH  25  26
ATOM     26  C   UNL A   1      33.202  34.190  28.526  1.00  0.00     0.021 C 
BRANCH  26  27
ATOM     27  C   UNL A   1      33.663  35.508  29.129  1.00  0.00     0.116 C 
BRANCH  27  28
ATOM     28  N   UNL A   1      33.042  35.818  30.415  1.00  0.00    -0.352 N 
ATOM     29  C   UNL A   1      33.219  35.170  31.628  1.00  0.00     0.251 C 
ATOM     30  H   UNL A   1      32.420  36.583  30.421  1.00  0.00     0.163 HD
ATOM     31  O   UNL A   1      32.402  35.267  32.526  1.00  0.00    -0.269 OA
BRANCH  29  32
ATOM     32  C   UNL A   1      34.430  34.346  31.809  1.00  0.00     0.039 A 
ATOM     33  C   UNL A   1      34.389  32.951  31.730  1.00  0.00     0.014 A 
ATOM     34  C   UNL A   1      35.632  35.010  32.022  1.00  0.00     0.014 A 
ATOM     35  C   UNL A   1      35.589  32.240  31.770  1.00  0.00     0.010 A 
ATOM     36  C   UNL A   1      36.814  34.330  31.885  1.00  0.00     0.010 A 
ATOM     37  C   UNL A   1      36.803  32.940  31.822  1.00  0.00    -0.014 A 
BRANCH  37  38
ATOM     38  C   UNL A   1      38.087  32.251  31.724  1.00  0.00     0.031 A 
ATOM     39  C   UNL A   1      38.817  32.083  33.009  1.00  0.00     0.074 A 
ATOM     40  C   UNL A   1      38.477  31.607  30.599  1.00  0.00     0.049 A 
ATOM     41  N   UNL A   1      39.961  32.583  33.339  1.00  0.00    -0.248 NA
ATOM     42  C   UNL A   1      38.154  31.354  34.103  1.00  0.00     0.031 C 
ATOM     43  C   UNL A   1      37.712  31.431  29.355  1.00  0.00     0.029 A 
ATOM     44  N   UNL A   1      39.602  30.873  30.364  1.00  0.00    -0.354 N 
ATOM     45  C   UNL A   1      40.257  32.082  34.606  1.00  0.00     0.074 A 
ATOM     46  C   UNL A   1      39.046  31.474  35.090  1.00  0.00     0.031 C 
ATOM     47  C   UNL A   1      38.278  30.465  28.602  1.00  0.00     0.029 A 
ATOM     48  C   UNL A   1      39.545  30.103  29.208  1.00  0.00     0.049 A 
ATOM     49  H   UNL A   1      40.386  30.887  30.959  1.00  0.00     0.167 HD
ATOM     50  C   UNL A   1      41.550  31.989  35.029  1.00  0.00     0.037 A 
ATOM     51  C   UNL A   1      40.478  29.237  28.752  1.00  0.00     0.037 A 
ATOM     52  C   UNL A   1      42.421  32.725  34.151  1.00  0.00     0.049 A 
ATOM     53  C   UNL A   1      41.765  29.609  29.373  1.00  0.00     0.074 A 
ATOM     54  C   UNL A   1      42.747  34.044  33.932  1.00  0.00     0.029 A 
ATOM     55  N   UNL A   1      42.836  32.013  33.057  1.00  0.00    -0.354 N 
ATOM     56  N   UNL A   1      42.397  30.717  29.105  1.00  0.00    -0.248 NA
ATOM     57  C   UNL A   1      42.215  28.904  30.568  1.00  0.00     0.031 C 
ATOM     58  C   UNL A   1      43.184  34.123  32.575  1.00  0.00     0.029 A 
ATOM     59  C   UNL A   1      43.140  32.847  32.018  1.00  0.00     0.049 A 
ATOM     60  H   UNL A   1      42.906  31.030  33.025  1.00  0.00     0.167 HD
ATOM     61  C   UNL A   1      42.998  31.061  30.297  1.00  0.00     0.074 A 
ATOM     62  C   UNL A   1      43.017  29.837  31.088  1.00  0.00     0.031 C 
ATOM     63  C   UNL A   1      43.124  32.370  30.655  1.00  0.00     0.037 A 
BRANCH  50  64
ATOM     64  C   UNL A   1      42.122  30.894  35.911  1.00  0.00     0.064 A 
ATOM     65  C   UNL A   1      42.999  31.257  36.960  1.00  0.00     0.173 A 
ATOM     66  C   UNL A   1      42.127  29.525  35.572  1.00  0.00     0.173 A 
ATOM     67  F   UNL A   1      43.083  32.531  37.372  1.00  0.00    -0.203 F 
ATOM     68  C   UNL A   1      43.877  30.340  37.548  1.00  0.00     0.198 A 
ATOM     69  C   UNL A   1      42.969  28.604  36.196  1.00  0.00     0.198 A 
ATOM     70  F   UNL A   1      41.409  29.040  34.555  1.00  0.00    -0.203 F 
ATOM     71  F   UNL A   1      44.779  30.761  38.444  1.00  0.00    -0.200 F 
ATOM     72  C   UNL A   1      43.869  29.016  37.157  1.00  0.00     0.200 A 
ATOM     73  F   UNL A   1      42.959  27.326  35.792  1.00  0.00    -0.200 F 
ATOM     74  F   UNL A   1      44.753  28.148  37.666  1.00  0.00    -0.200 F 
ENDBRANCH  50  64
BRANCH  51  75
ATOM     75  C   UNL A   1      40.323  28.028  27.922  1.00  0.00     0.064 A 
ATOM     76  C   UNL A   1      41.059  27.854  26.741  1.00  0.00     0.173 A 
ATOM     77  C   UNL A   1      39.663  26.894  28.431  1.00  0.00     0.173 A 
ATOM     78  F   UNL A   1      41.736  28.883  26.212  1.00  0.00    -0.203 F 
ATOM     79  C   UNL A   1      41.170  26.603  26.127  1.00  0.00     0.198 A 
ATOM     80  C   UNL A   1      39.772  25.646  27.817  1.00  0.00     0.198 A 
ATOM     81  F   UNL A   1      38.984  26.962  29.585  1.00  0.00    -0.203 F 
ATOM     82  F   UNL A   1      41.938  26.460  25.039  1.00  0.00    -0.200 F 
ATOM     83  C   UNL A   1      40.541  25.498  26.675  1.00  0.00     0.200 A 
ATOM     84  F   UNL A   1      39.188  24.577  28.374  1.00  0.00    -0.200 F 
ATOM     85  F   UNL A   1      40.708  24.285  26.130  1.00  0.00    -0.200 F 
ENDBRANCH  51  75
BRANCH  63  86
ATOM     86  C   UNL A   1      43.060  33.381  29.554  1.00  0.00     0.064 A 
ATOM     87  C   UNL A   1      41.934  34.170  29.267  1.00  0.00     0.173 A 
ATOM     88  C   UNL A   1      44.217  33.603  28.801  1.00  0.00     0.173 A 
ATOM     89  F   UNL A   1      40.816  34.067  29.995  1.00  0.00    -0.203 F 
ATOM     90  C   UNL A   1      41.959  35.112  28.241  1.00  0.00     0.198 A 
ATOM     91  C   UNL A   1      44.252  34.567  27.801  1.00  0.00     0.198 A 
ATOM     92  F   UNL A   1      45.333  32.904  29.064  1.00  0.00    -0.203 F 
ATOM     93  F   UNL A   1      40.866  35.840  27.970  1.00  0.00    -0.200 F 
ATOM     94  C   UNL A   1      43.120  35.313  27.513  1.00  0.00     0.200 A 
ATOM     95  F   UNL A   1      45.390  34.786  27.127  1.00  0.00    -0.200 F 
ATOM     96  F   UNL A   1      43.156  36.241  26.545  1.00  0.00    -0.200 F 
ENDBRANCH  63  86
ENDBRANCH  37  38
ENDBRANCH  29  32
ENDBRANCH  27  28
ENDBRANCH  26  27
ENDBRANCH  25  26
ENDBRANCH   1  25
TORSDOF 15
ENDMDL
MODEL 3
REMARK VINA RESULT:     -12.1      5.245     10.109
REMARK SMILES Cn1c(C(=O)N2CCC[C@@H](C(=O)NCCCCCCNC(=O)c3ccc(-c4c5nc(c(-c6c(F)c(F)c(F)c(F)c6F)c6ccc([nH]6)c(-c6c(F)c(F)c(F)c(F)c6F)c6nc(c(-c7c(F)c(F)c(F)c(F)c7F)c7ccc4[nH]7)C=C6)C=C5)cc3)C2)cc2sccc21
REMARK SMILES IDX 16 1 15 2 14 3 13 4 11 5 12 6 10 8 6 9 7 10 86 11 8 12 9 13
REMARK SMILES IDX 4 14 5 15 3 16 1 17 2 18 92 19 87 20 88 21 91 22 89 23 90 24
REMARK SMILES IDX 17 25 18 26 19 27 20 28 21 29 22 31 23 32 24 33 85 34 25 35
REMARK SMILES IDX 84 36 26 37 27 38 28 39 78 40 29 41 83 42 77 43 79 44 30 45
REMARK SMILES IDX 82 46 76 47 75 48 31 50 63 51 43 52 62 53 44 54 47 55 61 56
REMARK SMILES IDX 80 57 45 58 46 59 60 61 81 62 48 63 32 64 33 65 41 66 34 67
REMARK SMILES IDX 35 68 39 69 42 70 36 71 37 72 40 73 38 74 64 75 65 76 73 77
REMARK SMILES IDX 66 78 67 79 71 80 74 81 68 82 69 83 72 84 70 85 49 86 50 87
REMARK SMILES IDX 58 88 51 89 52 90 56 91 59 92 53 93 54 94 57 95 55 96
REMARK H PARENT 13 7 20 30 79 49 47 60
REMARK Flexibility Score: inf
ROOT
ATOM      1  C   UNL A   1      45.331  31.551  26.784  1.00  0.00     0.002 C 
ENDROOT
BRANCH   1   2
ATOM      2  C   UNL A   1      45.165  30.337  27.705  1.00  0.00     0.021 C 
BRANCH   2   3
ATOM      3  C   UNL A   1      44.886  28.995  27.036  1.00  0.00     0.116 C 
BRANCH   3   4
ATOM      4  N   UNL A   1      43.881  29.055  25.998  1.00  0.00    -0.356 N 
ATOM      5  C   UNL A   1      42.990  28.109  25.590  1.00  0.00     0.224 C 
ATOM      6  O   UNL A   1      42.171  28.455  24.735  1.00  0.00    -0.275 OA
ATOM      7  H   UNL A   1      43.833  29.910  25.513  1.00  0.00     0.163 HD
BRANCH   5   8
ATOM      8  C   UNL A   1      43.047  26.674  26.122  1.00  0.00     0.098 C 
ATOM      9  N   UNL A   1      41.863  24.501  26.296  1.00  0.00    -0.337 N 
ATOM     10  C   UNL A   1      42.941  23.751  25.681  1.00  0.00     0.120 C 
ATOM     11  C   UNL A   1      41.728  25.910  25.929  1.00  0.00     0.133 C 
ATOM     12  C   UNL A   1      44.276  24.453  25.845  1.00  0.00     0.022 C 
ATOM     13  C   UNL A   1      44.185  25.912  25.404  1.00  0.00     0.017 C 
BRANCH   9  14
ATOM     14  C   UNL A   1      41.069  23.866  27.241  1.00  0.00     0.270 C 
ATOM     15  O   UNL A   1      41.527  23.574  28.344  1.00  0.00    -0.267 OA
BRANCH  14  16
ATOM     16  C   UNL A   1      39.753  23.422  26.784  1.00  0.00     0.108 A 
ATOM     17  C   UNL A   1      40.363  20.994  26.351  1.00  0.00     0.150 C 
ATOM     18  N   UNL A   1      39.478  22.136  26.336  1.00  0.00    -0.339 N 
ATOM     19  C   UNL A   1      38.224  22.119  25.761  1.00  0.00     0.059 A 
ATOM     20  C   UNL A   1      38.605  24.181  26.584  1.00  0.00     0.053 A 
ATOM     21  C   UNL A   1      37.663  23.346  25.930  1.00  0.00     0.053 A 
ATOM     22  C   UNL A   1      37.391  21.215  25.044  1.00  0.00     0.038 A 
ATOM     23  S   UNL A   1      36.070  23.452  25.263  1.00  0.00    -0.142 S 
ATOM     24  C   UNL A   1      36.207  21.833  24.703  1.00  0.00     0.068 A 
ENDBRANCH  14  16
ENDBRANCH   9  14
ENDBRANCH   5   8
ENDBRANCH   3   4
ENDBRANCH   2   3
ENDBRANCH   1   2
BRANCH   1  25
ATOM     25  C   UNL A   1      44.079  32.368  26.442  1.00  0.00     0.002 C 
BRANCH  25  26
ATOM     26  C   UNL A   1      44.113  33.245  25.183  1.00  0.00     0.021 C 
BRANCH  26  27
ATOM     27  C   UNL A   1      43.841  34.725  25.408  1.00  0.00     0.116 C 
BRANCH  27  28
ATOM     28  N   UNL A   1      44.999  35.469  25.899  1.00  0.00    -0.352 N 
ATOM     29  C   UNL A   1      45.133  36.141  27.105  1.00  0.00     0.251 C 
ATOM     30  H   UNL A   1      45.781  35.497  25.301  1.00  0.00     0.163 HD
ATOM     31  O   UNL A   1      45.971  37.012  27.257  1.00  0.00    -0.269 OA
BRANCH  29  32
ATOM     32  C   UNL A   1      44.227  35.778  28.212  1.00  0.00     0.039 A 
ATOM     33  C   UNL A   1      43.046  36.482  28.456  1.00  0.00     0.014 A 
ATOM     34  C   UNL A   1      44.570  34.675  28.986  1.00  0.00     0.014 A 
ATOM     35  C   UNL A   1      42.165  36.003  29.427  1.00  0.00     0.010 A 
ATOM     36  C   UNL A   1      43.632  34.109  29.809  1.00  0.00     0.010 A 
ATOM     37  C   UNL A   1      42.454  34.797  30.084  1.00  0.00    -0.014 A 
BRANCH  37  38
ATOM     38  C   UNL A   1      41.501  34.180  31.003  1.00  0.00     0.031 A 
ATOM     39  C   UNL A   1      41.967  34.056  32.410  1.00  0.00     0.074 A 
ATOM     40  C   UNL A   1      40.211  33.955  30.661  1.00  0.00     0.049 A 
ATOM     41  N   UNL A   1      42.170  32.972  33.081  1.00  0.00    -0.248 NA
ATOM     42  C   UNL A   1      42.351  35.279  33.133  1.00  0.00     0.031 C 
ATOM     43  C   UNL A   1      39.539  34.317  29.404  1.00  0.00     0.029 A 
ATOM     44  N   UNL A   1      39.189  33.450  31.411  1.00  0.00    -0.354 N 
ATOM     45  C   UNL A   1      42.525  33.369  34.370  1.00  0.00     0.074 A 
ATOM     46  C   UNL A   1      42.781  34.783  34.297  1.00  0.00     0.031 C 
ATOM     47  C   UNL A   1      38.201  34.240  29.561  1.00  0.00     0.029 A 
ATOM     48  C   UNL A   1      37.931  33.634  30.851  1.00  0.00     0.049 A 
ATOM     49  H   UNL A   1      39.330  32.995  32.272  1.00  0.00     0.167 HD
ATOM     50  C   UNL A   1      42.321  32.538  35.431  1.00  0.00     0.037 A 
ATOM     51  C   UNL A   1      36.737  33.296  31.387  1.00  0.00     0.037 A 
ATOM     52  C   UNL A   1      42.012  31.207  34.977  1.00  0.00     0.049 A 
ATOM     53  C   UNL A   1      36.988  32.253  32.401  1.00  0.00     0.074 A 
ATOM     54  C   UNL A   1      42.705  30.134  34.465  1.00  0.00     0.029 A 
ATOM     55  N   UNL A   1      40.685  31.010  34.701  1.00  0.00    -0.354 N 
ATOM     56  N   UNL A   1      37.404  31.052  32.107  1.00  0.00    -0.248 NA
ATOM     57  C   UNL A   1      37.105  32.631  33.805  1.00  0.00     0.031 C 
ATOM     58  C   UNL A   1      41.763  29.392  33.688  1.00  0.00     0.029 A 
ATOM     59  C   UNL A   1      40.522  30.018  33.776  1.00  0.00     0.049 A 
ATOM     60  H   UNL A   1      39.948  31.517  35.114  1.00  0.00     0.167 HD
ATOM     61  C   UNL A   1      38.214  30.706  33.168  1.00  0.00     0.074 A 
ATOM     62  C   UNL A   1      37.842  31.609  34.249  1.00  0.00     0.031 C 
ATOM     63  C   UNL A   1      39.327  29.946  32.968  1.00  0.00     0.037 A 
BRANCH  50  64
ATOM     64  C   UNL A   1      41.925  32.965  36.833  1.00  0.00     0.064 A 
ATOM     65  C   UNL A   1      42.668  32.466  37.929  1.00  0.00     0.173 A 
ATOM     66  C   UNL A   1      40.681  33.541  37.165  1.00  0.00     0.173 A 
ATOM     67  F   UNL A   1      43.866  31.895  37.740  1.00  0.00    -0.203 F 
ATOM     68  C   UNL A   1      42.159  32.458  39.232  1.00  0.00     0.198 A 
ATOM     69  C   UNL A   1      40.198  33.576  38.474  1.00  0.00     0.198 A 
ATOM     70  F   UNL A   1      39.832  33.990  36.234  1.00  0.00    -0.203 F 
ATOM     71  F   UNL A   1      42.844  31.856  40.213  1.00  0.00    -0.200 F 
ATOM     72  C   UNL A   1      40.918  33.004  39.501  1.00  0.00     0.200 A 
ATOM     73  F   UNL A   1      38.986  34.095  38.713  1.00  0.00    -0.200 F 
ATOM     74  F   UNL A   1      40.396  32.937  40.733  1.00  0.00    -0.200 F 
ENDBRANCH  50  64
BRANCH  51  75
ATOM     75  C   UNL A   1      35.404  33.896  31.187  1.00  0.00     0.064 A 
ATOM     76  C   UNL A   1      34.947  34.945  31.997  1.00  0.00     0.173 A 
ATOM     77  C   UNL A   1      34.677  33.641  30.009  1.00  0.00     0.173 A 
ATOM     78  F   UNL A   1      35.604  35.262  33.122  1.00  0.00    -0.203 F 
ATOM     79  C   UNL A   1      33.850  35.729  31.628  1.00  0.00     0.198 A 
ATOM     80  C   UNL A   1      33.582  34.424  29.641  1.00  0.00     0.198 A 
ATOM     81  F   UNL A   1      35.081  32.693  29.150  1.00  0.00    -0.203 F 
ATOM     82  F   UNL A   1      33.484  36.766  32.393  1.00  0.00    -0.200 F 
ATOM     83  C   UNL A   1      33.181  35.478  30.441  1.00  0.00     0.200 A 
ATOM     84  F   UNL A   1      32.963  34.195  28.475  1.00  0.00    -0.200 F 
ATOM     85  F   UNL A   1      32.178  36.276  30.050  1.00  0.00    -0.200 F 
ENDBRANCH  51  75
BRANCH  63  86
ATOM     86  C   UNL A   1      39.365  29.118  31.723  1.00  0.00     0.064 A 
ATOM     87  C   UNL A   1      38.805  27.835  31.606  1.00  0.00     0.173 A 
ATOM     88  C   UNL A   1      39.940  29.681  30.579  1.00  0.00     0.173 A 
ATOM     89  F   UNL A   1      38.172  27.263  32.636  1.00  0.00    -0.203 F 
ATOM     90  C   UNL A   1      38.857  27.135  30.402  1.00  0.00     0.198 A 
ATOM     91  C   UNL A   1      39.961  28.996  29.370  1.00  0.00     0.198 A 
ATOM     92  F   UNL A   1      40.453  30.922  30.628  1.00  0.00    -0.203 F 
ATOM     93  F   UNL A   1      38.335  25.903  30.318  1.00  0.00    -0.200 F 
ATOM     94  C   UNL A   1      39.430  27.719  29.285  1.00  0.00     0.200 A 
ATOM     95  F   UNL A   1      40.479  29.582  28.282  1.00  0.00    -0.200 F 
ATOM     96  F   UNL A   1      39.454  27.059  28.118  1.00  0.00    -0.200 F 
ENDBRANCH  63  86
ENDBRANCH  37  38
ENDBRANCH  29  32
ENDBRANCH  27  28
ENDBRANCH  26  27
ENDBRANCH  25  26
ENDBRANCH   1  25
TORSDOF 15
ENDMDL
