MODEL 1
REMARK VINA RESULT:     -11.4      0.000      0.000
REMARK SMILES Cc1nc(NCc2ccc(Cl)cc2Cl)sc1C(=O)NCCCCCCNC(=O)c1ccc(-c2c3nc(c(-c4c(F)c(F)c(F)c(F)c4F)c4ccc([nH]4)c(-c4c(F)c(F)c(F)c(F)c4F)c4nc(c(-c5c(F)c(F)c(F)c(F)c5F)c5ccc2[nH]5)C=C4)C=C3)cc1
REMARK SMILES IDX 22 1 21 2 20 3 19 4 17 5 18 6 16 8 1 9 2 10 3 11 4 12 15 13
REMARK SMILES IDX 5 14 6 16 7 17 8 18 13 19 9 20 12 21 14 22 10 23 11 24 23 25
REMARK SMILES IDX 24 26 25 27 26 28 27 29 28 31 29 32 30 33 91 34 31 35 90 36
REMARK SMILES IDX 32 37 33 38 34 39 84 40 35 41 89 42 83 43 85 44 36 45 88 46
REMARK SMILES IDX 82 47 81 48 37 50 69 51 49 52 68 53 50 54 53 55 67 56 86 57
REMARK SMILES IDX 51 58 52 59 66 61 87 62 54 63 38 64 39 65 47 66 40 67 41 68
REMARK SMILES IDX 45 69 48 70 42 71 43 72 46 73 44 74 70 75 71 76 79 77 72 78
REMARK SMILES IDX 73 79 77 80 80 81 74 82 75 83 78 84 76 85 55 86 56 87 64 88
REMARK SMILES IDX 57 89 58 90 62 91 65 92 59 93 60 94 63 95 61 96
REMARK H PARENT 19 7 5 15 26 30 85 49 53 60
REMARK Flexibility Score: inf
ROOT
ATOM      1  C   UNL A   1      34.786  24.278  23.599  1.00  0.00     0.002 C 
ENDROOT
BRANCH   1   2
ATOM      2  C   UNL A   1      34.053  22.989  23.213  1.00  0.00     0.021 C 
BRANCH   2   3
ATOM      3  C   UNL A   1      34.621  21.736  23.882  1.00  0.00     0.116 C 
BRANCH   3   4
ATOM      4  N   UNL A   1      33.554  20.837  24.240  1.00  0.00    -0.351 N 
ATOM      5  C   UNL A   1      32.475  20.923  25.080  1.00  0.00     0.263 C 
ATOM      6  O   UNL A   1      31.813  19.877  25.101  1.00  0.00    -0.268 OA
ATOM      7  H   UNL A   1      33.612  19.970  23.778  1.00  0.00     0.163 HD
BRANCH   5   8
ATOM      8  C   UNL A   1      32.096  22.104  25.847  1.00  0.00     0.117 A 
ATOM      9  C   UNL A   1      33.351  22.347  28.149  1.00  0.00     0.068 C 
ATOM     10  C   UNL A   1      32.421  22.716  27.055  1.00  0.00     0.063 A 
ATOM     11  N   UNL A   1      31.734  23.893  27.321  1.00  0.00    -0.225 NA
ATOM     12  C   UNL A   1      30.885  24.187  26.376  1.00  0.00     0.183 A 
ATOM     13  S   UNL A   1      30.821  23.053  25.110  1.00  0.00    -0.092 S 
BRANCH  12  14
ATOM     14  N   UNL A   1      30.129  25.300  26.356  1.00  0.00    -0.357 N 
ATOM     15  H   UNL A   1      29.407  25.415  27.015  1.00  0.00     0.163 HD
BRANCH  14  16
ATOM     16  C   UNL A   1      30.370  26.325  25.374  1.00  0.00     0.152 C 
BRANCH  16  17
ATOM     17  C   UNL A   1      31.474  27.314  25.703  1.00  0.00    -0.010 A 
ATOM     18  C   UNL A   1      31.460  27.801  27.032  1.00  0.00     0.008 A 
ATOM     19  C   UNL A   1      32.543  27.716  24.880  1.00  0.00     0.047 A 
ATOM     20  C   UNL A   1      32.447  28.664  27.511  1.00  0.00     0.021 A 
ATOM     21  C   UNL A   1      33.526  28.592  25.361  1.00  0.00     0.041 A 
ATOM     22  Cl  UNL A   1      32.775  27.196  23.249  1.00  0.00    -0.084 Cl
ATOM     23  C   UNL A   1      33.476  29.060  26.669  1.00  0.00     0.042 A 
ATOM     24  Cl  UNL A   1      34.699  30.119  27.249  1.00  0.00    -0.084 Cl
ENDBRANCH  16  17
ENDBRANCH  14  16
ENDBRANCH  12  14
ENDBRANCH   5   8
ENDBRANCH   3   4
ENDBRANCH   2   3
ENDBRANCH   1   2
BRANCH   1  25
ATOM     25  C   UNL A   1      34.794  24.579  25.103  1.00  0.00     0.002 C 
BRANCH  25  26
ATOM     26  C   UNL A   1      36.024  24.073  25.863  1.00  0.00     0.021 C 
BRANCH  26  27
ATOM     27  C   UNL A   1      37.225  23.747  24.981  1.00  0.00     0.116 C 
BRANCH  27  28
ATOM     28  N   UNL A   1      38.061  22.715  25.575  1.00  0.00    -0.352 N 
ATOM     29  C   UNL A   1      39.199  22.839  26.330  1.00  0.00     0.251 C 
ATOM     30  H   UNL A   1      37.766  21.790  25.411  1.00  0.00     0.163 HD
ATOM     31  O   UNL A   1      39.913  21.864  26.536  1.00  0.00    -0.269 OA
BRANCH  29  32
ATOM     32  C   UNL A   1      39.572  24.153  26.896  1.00  0.00     0.039 A 
ATOM     33  C   UNL A   1      39.204  24.453  28.211  1.00  0.00     0.014 A 
ATOM     34  C   UNL A   1      40.245  25.102  26.121  1.00  0.00     0.014 A 
ATOM     35  C   UNL A   1      39.556  25.686  28.764  1.00  0.00     0.010 A 
ATOM     36  C   UNL A   1      40.651  26.304  26.695  1.00  0.00     0.010 A 
ATOM     37  C   UNL A   1      40.305  26.610  28.019  1.00  0.00    -0.014 A 
BRANCH  37  38
ATOM     38  C   UNL A   1      40.728  27.908  28.603  1.00  0.00     0.031 A 
ATOM     39  C   UNL A   1      42.158  28.121  29.013  1.00  0.00     0.074 A 
ATOM     40  C   UNL A   1      39.809  28.868  28.824  1.00  0.00     0.049 A 
ATOM     41  N   UNL A   1      42.703  29.149  29.613  1.00  0.00    -0.248 NA
ATOM     42  C   UNL A   1      43.097  27.023  28.734  1.00  0.00     0.031 C 
ATOM     43  C   UNL A   1      38.383  28.761  28.511  1.00  0.00     0.029 A 
ATOM     44  N   UNL A   1      39.935  30.117  29.379  1.00  0.00    -0.354 N 
ATOM     45  C   UNL A   1      44.039  28.814  29.798  1.00  0.00     0.074 A 
ATOM     46  C   UNL A   1      44.213  27.470  29.290  1.00  0.00     0.031 C 
ATOM     47  C   UNL A   1      37.770  29.903  28.862  1.00  0.00     0.029 A 
ATOM     48  C   UNL A   1      38.750  30.806  29.459  1.00  0.00     0.049 A 
ATOM     49  H   UNL A   1      40.793  30.484  29.691  1.00  0.00     0.167 HD
ATOM     50  C   UNL A   1      45.033  29.568  30.325  1.00  0.00     0.037 A 
ATOM     51  C   UNL A   1      38.483  32.025  29.965  1.00  0.00     0.037 A 
ATOM     52  C   UNL A   1      44.862  30.916  30.800  1.00  0.00     0.049 A 
ATOM     53  C   UNL A   1      39.608  32.842  30.541  1.00  0.00     0.074 A 
ATOM     54  C   UNL A   1      45.819  31.785  31.293  1.00  0.00     0.029 A 
ATOM     55  N   UNL A   1      43.651  31.590  30.839  1.00  0.00    -0.354 N 
ATOM     56  N   UNL A   1      40.878  32.540  30.651  1.00  0.00    -0.248 NA
ATOM     57  C   UNL A   1      39.262  34.173  31.057  1.00  0.00     0.031 C 
ATOM     58  C   UNL A   1      45.180  32.970  31.670  1.00  0.00     0.029 A 
ATOM     59  C   UNL A   1      43.833  32.859  31.366  1.00  0.00     0.049 A 
ATOM     60  H   UNL A   1      42.788  31.223  30.536  1.00  0.00     0.167 HD
ATOM     61  C   UNL A   1      41.488  33.650  31.218  1.00  0.00     0.074 A 
ATOM     62  C   UNL A   1      40.449  34.640  31.417  1.00  0.00     0.031 C 
ATOM     63  C   UNL A   1      42.790  33.835  31.544  1.00  0.00     0.037 A 
BRANCH  50  64
ATOM     64  C   UNL A   1      46.402  28.957  30.410  1.00  0.00     0.064 A 
ATOM     65  C   UNL A   1      46.806  28.212  31.529  1.00  0.00     0.173 A 
ATOM     66  C   UNL A   1      47.303  29.075  29.342  1.00  0.00     0.173 A 
ATOM     67  F   UNL A   1      45.986  28.079  32.583  1.00  0.00    -0.203 F 
ATOM     68  C   UNL A   1      48.069  27.629  31.584  1.00  0.00     0.198 A 
ATOM     69  C   UNL A   1      48.554  28.466  29.387  1.00  0.00     0.198 A 
ATOM     70  F   UNL A   1      46.965  29.771  28.246  1.00  0.00    -0.203 F 
ATOM     71  F   UNL A   1      48.448  26.959  32.681  1.00  0.00    -0.200 F 
ATOM     72  C   UNL A   1      48.938  27.749  30.511  1.00  0.00     0.200 A 
ATOM     73  F   UNL A   1      49.388  28.572  28.344  1.00  0.00    -0.200 F 
ATOM     74  F   UNL A   1      50.150  27.179  30.561  1.00  0.00    -0.200 F 
ENDBRANCH  50  64
BRANCH  51  75
ATOM     75  C   UNL A   1      37.096  32.558  29.931  1.00  0.00     0.064 A 
ATOM     76  C   UNL A   1      36.624  33.262  28.815  1.00  0.00     0.173 A 
ATOM     77  C   UNL A   1      36.221  32.386  31.013  1.00  0.00     0.173 A 
ATOM     78  F   UNL A   1      37.431  33.470  27.764  1.00  0.00    -0.203 F 
ATOM     79  C   UNL A   1      35.337  33.796  28.791  1.00  0.00     0.198 A 
ATOM     80  C   UNL A   1      34.924  32.895  30.977  1.00  0.00     0.198 A 
ATOM     81  F   UNL A   1      36.621  31.715  32.102  1.00  0.00    -0.203 F 
ATOM     82  F   UNL A   1      34.928  34.507  27.732  1.00  0.00    -0.200 F 
ATOM     83  C   UNL A   1      34.486  33.608  29.870  1.00  0.00     0.200 A 
ATOM     84  F   UNL A   1      34.100  32.698  32.015  1.00  0.00    -0.200 F 
ATOM     85  F   UNL A   1      33.248  34.120  29.848  1.00  0.00    -0.200 F 
ENDBRANCH  51  75
BRANCH  63  86
ATOM     86  C   UNL A   1      43.174  35.170  32.113  1.00  0.00     0.064 A 
ATOM     87  C   UNL A   1      43.142  35.419  33.492  1.00  0.00     0.173 A 
ATOM     88  C   UNL A   1      43.620  36.198  31.268  1.00  0.00     0.173 A 
ATOM     89  F   UNL A   1      42.709  34.473  34.339  1.00  0.00    -0.203 F 
ATOM     90  C   UNL A   1      43.518  36.658  34.003  1.00  0.00     0.198 A 
ATOM     91  C   UNL A   1      44.024  37.425  31.785  1.00  0.00     0.198 A 
ATOM     92  F   UNL A   1      43.675  36.007  29.941  1.00  0.00    -0.203 F 
ATOM     93  F   UNL A   1      43.436  36.890  35.321  1.00  0.00    -0.200 F 
ATOM     94  C   UNL A   1      43.965  37.657  33.151  1.00  0.00     0.200 A 
ATOM     95  F   UNL A   1      44.468  38.384  30.961  1.00  0.00    -0.200 F 
ATOM     96  F   UNL A   1      44.335  38.847  33.646  1.00  0.00    -0.200 F 
ENDBRANCH  63  86
ENDBRANCH  37  38
ENDBRANCH  29  32
ENDBRANCH  27  28
ENDBRANCH  26  27
ENDBRANCH  25  26
ENDBRANCH   1  25
TORSDOF 16
ENDMDL
MODEL 2
REMARK VINA RESULT:     -11.4      4.425      8.064
REMARK SMILES Cc1nc(NCc2ccc(Cl)cc2Cl)sc1C(=O)NCCCCCCNC(=O)c1ccc(-c2c3nc(c(-c4c(F)c(F)c(F)c(F)c4F)c4ccc([nH]4)c(-c4c(F)c(F)c(F)c(F)c4F)c4nc(c(-c5c(F)c(F)c(F)c(F)c5F)c5ccc2[nH]5)C=C4)C=C3)cc1
REMARK SMILES IDX 22 1 21 2 20 3 19 4 17 5 18 6 16 8 1 9 2 10 3 11 4 12 15 13
REMARK SMILES IDX 5 14 6 16 7 17 8 18 13 19 9 20 12 21 14 22 10 23 11 24 23 25
REMARK SMILES IDX 24 26 25 27 26 28 27 29 28 31 29 32 30 33 91 34 31 35 90 36
REMARK SMILES IDX 32 37 33 38 34 39 84 40 35 41 89 42 83 43 85 44 36 45 88 46
REMARK SMILES IDX 82 47 81 48 37 50 69 51 49 52 68 53 50 54 53 55 67 56 86 57
REMARK SMILES IDX 51 58 52 59 66 61 87 62 54 63 38 64 39 65 47 66 40 67 41 68
REMARK SMILES IDX 45 69 48 70 42 71 43 72 46 73 44 74 70 75 71 76 79 77 72 78
REMARK SMILES IDX 73 79 77 80 80 81 74 82 75 83 78 84 76 85 55 86 56 87 64 88
REMARK SMILES IDX 57 89 58 90 62 91 65 92 59 93 60 94 63 95 61 96
REMARK H PARENT 19 7 5 15 26 30 85 49 53 60
REMARK Flexibility Score: inf
ROOT
ATOM      1  C   UNL A   1      32.718  30.204  26.179  1.00  0.00     0.002 C 
ENDROOT
BRANCH   1   2
ATOM      2  C   UNL A   1      32.879  28.895  25.399  1.00  0.00     0.021 C 
BRANCH   2   3
ATOM      3  C   UNL A   1      33.229  29.098  23.923  1.00  0.00     0.116 C 
BRANCH   3   4
ATOM      4  N   UNL A   1      32.025  29.238  23.143  1.00  0.00    -0.351 N 
ATOM      5  C   UNL A   1      31.141  28.352  22.586  1.00  0.00     0.263 C 
ATOM      6  O   UNL A   1      30.237  28.922  21.962  1.00  0.00    -0.268 OA
ATOM      7  H   UNL A   1      31.786  30.177  22.973  1.00  0.00     0.163 HD
BRANCH   5   8
ATOM      8  C   UNL A   1      31.201  26.901  22.725  1.00  0.00     0.117 A 
ATOM      9  C   UNL A   1      32.525  25.686  20.800  1.00  0.00     0.068 C 
ATOM     10  C   UNL A   1      31.744  25.808  22.054  1.00  0.00     0.063 A 
ATOM     11  N   UNL A   1      31.500  24.576  22.646  1.00  0.00    -0.225 NA
ATOM     12  C   UNL A   1      30.774  24.686  23.723  1.00  0.00     0.183 A 
ATOM     13  S   UNL A   1      30.300  26.278  24.091  1.00  0.00    -0.092 S 
BRANCH  12  14
ATOM     14  N   UNL A   1      30.436  23.655  24.518  1.00  0.00    -0.357 N 
ATOM     15  H   UNL A   1      29.606  23.154  24.346  1.00  0.00     0.163 HD
BRANCH  14  16
ATOM     16  C   UNL A   1      31.281  23.279  25.621  1.00  0.00     0.152 C 
BRANCH  16  17
ATOM     17  C   UNL A   1      32.775  23.302  25.352  1.00  0.00    -0.010 A 
ATOM     18  C   UNL A   1      33.462  24.410  25.902  1.00  0.00     0.008 A 
ATOM     19  C   UNL A   1      33.550  22.315  24.714  1.00  0.00     0.047 A 
ATOM     20  C   UNL A   1      34.848  24.542  25.802  1.00  0.00     0.021 A 
ATOM     21  C   UNL A   1      34.941  22.457  24.606  1.00  0.00     0.041 A 
ATOM     22  Cl  UNL A   1      32.917  20.863  24.025  1.00  0.00    -0.084 Cl
ATOM     23  C   UNL A   1      35.582  23.564  25.149  1.00  0.00     0.042 A 
ATOM     24  Cl  UNL A   1      37.290  23.714  25.023  1.00  0.00    -0.084 Cl
ENDBRANCH  16  17
ENDBRANCH  14  16
ENDBRANCH  12  14
ENDBRANCH   5   8
ENDBRANCH   3   4
ENDBRANCH   2   3
ENDBRANCH   1   2
BRANCH   1  25
ATOM     25  C   UNL A   1      31.367  30.901  25.979  1.00  0.00     0.002 C 
BRANCH  25  26
ATOM     26  C   UNL A   1      31.241  32.280  26.635  1.00  0.00     0.021 C 
BRANCH  26  27
ATOM     27  C   UNL A   1      32.548  32.845  27.181  1.00  0.00     0.116 C 
BRANCH  27  28
ATOM     28  N   UNL A   1      32.408  34.241  27.566  1.00  0.00    -0.352 N 
ATOM     29  C   UNL A   1      33.017  34.932  28.582  1.00  0.00     0.251 C 
ATOM     30  H   UNL A   1      31.783  34.767  27.017  1.00  0.00     0.163 HD
ATOM     31  O   UNL A   1      32.595  36.033  28.920  1.00  0.00    -0.269 OA
BRANCH  29  32
ATOM     32  C   UNL A   1      34.185  34.349  29.278  1.00  0.00     0.039 A 
ATOM     33  C   UNL A   1      33.979  33.629  30.457  1.00  0.00     0.014 A 
ATOM     34  C   UNL A   1      35.480  34.547  28.791  1.00  0.00     0.014 A 
ATOM     35  C   UNL A   1      35.069  33.064  31.123  1.00  0.00     0.010 A 
ATOM     36  C   UNL A   1      36.558  33.928  29.419  1.00  0.00     0.010 A 
ATOM     37  C   UNL A   1      36.364  33.188  30.594  1.00  0.00    -0.014 A 
BRANCH  37  38
ATOM     38  C   UNL A   1      37.531  32.558  31.261  1.00  0.00     0.031 A 
ATOM     39  C   UNL A   1      38.257  31.421  30.597  1.00  0.00     0.074 A 
ATOM     40  C   UNL A   1      37.894  32.966  32.493  1.00  0.00     0.049 A 
ATOM     41  N   UNL A   1      39.243  30.689  31.053  1.00  0.00    -0.248 NA
ATOM     42  C   UNL A   1      37.799  31.039  29.253  1.00  0.00     0.031 C 
ATOM     43  C   UNL A   1      37.239  34.028  33.257  1.00  0.00     0.029 A 
ATOM     44  N   UNL A   1      38.893  32.526  33.325  1.00  0.00    -0.354 N 
ATOM     45  C   UNL A   1      39.508  29.753  30.061  1.00  0.00     0.074 A 
ATOM     46  C   UNL A   1      38.550  29.977  28.999  1.00  0.00     0.031 C 
ATOM     47  C   UNL A   1      37.863  34.169  34.438  1.00  0.00     0.029 A 
ATOM     48  C   UNL A   1      38.937  33.183  34.529  1.00  0.00     0.049 A 
ATOM     49  H   UNL A   1      39.519  31.806  33.081  1.00  0.00     0.167 HD
ATOM     50  C   UNL A   1      40.476  28.807  30.031  1.00  0.00     0.037 A 
ATOM     51  C   UNL A   1      39.746  33.005  35.590  1.00  0.00     0.037 A 
ATOM     52  C   UNL A   1      41.447  28.608  31.075  1.00  0.00     0.049 A 
ATOM     53  C   UNL A   1      40.814  31.948  35.527  1.00  0.00     0.074 A 
ATOM     54  C   UNL A   1      42.505  27.717  31.111  1.00  0.00     0.029 A 
ATOM     55  N   UNL A   1      41.476  29.313  32.269  1.00  0.00    -0.354 N 
ATOM     56  N   UNL A   1      41.097  31.112  34.558  1.00  0.00    -0.248 NA
ATOM     57  C   UNL A   1      41.683  31.814  36.705  1.00  0.00     0.031 C 
ATOM     58  C   UNL A   1      43.150  27.854  32.344  1.00  0.00     0.029 A 
ATOM     59  C   UNL A   1      42.523  28.864  33.057  1.00  0.00     0.049 A 
ATOM     60  H   UNL A   1      40.845  30.028  32.520  1.00  0.00     0.167 HD
ATOM     61  C   UNL A   1      42.191  30.377  34.993  1.00  0.00     0.074 A 
ATOM     62  C   UNL A   1      42.530  30.875  36.310  1.00  0.00     0.031 C 
ATOM     63  C   UNL A   1      42.855  29.380  34.360  1.00  0.00     0.037 A 
BRANCH  50  64
ATOM     64  C   UNL A   1      40.542  27.914  28.825  1.00  0.00     0.064 A 
ATOM     65  C   UNL A   1      39.799  26.726  28.748  1.00  0.00     0.173 A 
ATOM     66  C   UNL A   1      41.320  28.273  27.714  1.00  0.00     0.173 A 
ATOM     67  F   UNL A   1      39.048  26.332  29.788  1.00  0.00    -0.203 F 
ATOM     68  C   UNL A   1      39.849  25.922  27.613  1.00  0.00     0.198 A 
ATOM     69  C   UNL A   1      41.345  27.481  26.570  1.00  0.00     0.198 A 
ATOM     70  F   UNL A   1      42.046  29.401  27.733  1.00  0.00    -0.203 F 
ATOM     71  F   UNL A   1      39.163  24.771  27.580  1.00  0.00    -0.200 F 
ATOM     72  C   UNL A   1      40.615  26.303  26.523  1.00  0.00     0.200 A 
ATOM     73  F   UNL A   1      42.076  27.858  25.511  1.00  0.00    -0.200 F 
ATOM     74  F   UNL A   1      40.655  25.532  25.427  1.00  0.00    -0.200 F 
ENDBRANCH  50  64
BRANCH  51  75
ATOM     75  C   UNL A   1      39.592  33.860  36.796  1.00  0.00     0.064 A 
ATOM     76  C   UNL A   1      38.794  33.449  37.872  1.00  0.00     0.173 A 
ATOM     77  C   UNL A   1      40.226  35.107  36.893  1.00  0.00     0.173 A 
ATOM     78  F   UNL A   1      38.151  32.273  37.816  1.00  0.00    -0.203 F 
ATOM     79  C   UNL A   1      38.616  34.261  38.990  1.00  0.00     0.198 A 
ATOM     80  C   UNL A   1      40.072  35.907  38.024  1.00  0.00     0.198 A 
ATOM     81  F   UNL A   1      41.006  35.545  35.894  1.00  0.00    -0.203 F 
ATOM     82  F   UNL A   1      37.808  33.865  39.982  1.00  0.00    -0.200 F 
ATOM     83  C   UNL A   1      39.259  35.488  39.067  1.00  0.00     0.200 A 
ATOM     84  F   UNL A   1      40.706  37.084  38.101  1.00  0.00    -0.200 F 
ATOM     85  F   UNL A   1      39.089  36.269  40.142  1.00  0.00    -0.200 F 
ENDBRANCH  51  75
BRANCH  63  86
ATOM     86  C   UNL A   1      44.040  28.787  35.065  1.00  0.00     0.064 A 
ATOM     87  C   UNL A   1      45.326  29.325  34.920  1.00  0.00     0.173 A 
ATOM     88  C   UNL A   1      43.875  27.692  35.927  1.00  0.00     0.173 A 
ATOM     89  F   UNL A   1      45.537  30.361  34.096  1.00  0.00    -0.203 F 
ATOM     90  C   UNL A   1      46.412  28.771  35.595  1.00  0.00     0.198 A 
ATOM     91  C   UNL A   1      44.958  27.161  36.623  1.00  0.00     0.198 A 
ATOM     92  F   UNL A   1      42.663  27.146  36.104  1.00  0.00    -0.203 F 
ATOM     93  F   UNL A   1      47.640  29.271  35.407  1.00  0.00    -0.200 F 
ATOM     94  C   UNL A   1      46.225  27.696  36.451  1.00  0.00     0.200 A 
ATOM     95  F   UNL A   1      44.773  26.130  37.459  1.00  0.00    -0.200 F 
ATOM     96  F   UNL A   1      47.269  27.169  37.106  1.00  0.00    -0.200 F 
ENDBRANCH  63  86
ENDBRANCH  37  38
ENDBRANCH  29  32
ENDBRANCH  27  28
ENDBRANCH  26  27
ENDBRANCH  25  26
ENDBRANCH   1  25
TORSDOF 16
ENDMDL
MODEL 3
REMARK VINA RESULT:     -11.3      4.481      8.402
REMARK SMILES Cc1nc(NCc2ccc(Cl)cc2Cl)sc1C(=O)NCCCCCCNC(=O)c1ccc(-c2c3nc(c(-c4c(F)c(F)c(F)c(F)c4F)c4ccc([nH]4)c(-c4c(F)c(F)c(F)c(F)c4F)c4nc(c(-c5c(F)c(F)c(F)c(F)c5F)c5ccc2[nH]5)C=C4)C=C3)cc1
REMARK SMILES IDX 22 1 21 2 20 3 19 4 17 5 18 6 16 8 1 9 2 10 3 11 4 12 15 13
REMARK SMILES IDX 5 14 6 16 7 17 8 18 13 19 9 20 12 21 14 22 10 23 11 24 23 25
REMARK SMILES IDX 24 26 25 27 26 28 27 29 28 31 29 32 30 33 91 34 31 35 90 36
REMARK SMILES IDX 32 37 33 38 34 39 84 40 35 41 89 42 83 43 85 44 36 45 88 46
REMARK SMILES IDX 82 47 81 48 37 50 69 51 49 52 68 53 50 54 53 55 67 56 86 57
REMARK SMILES IDX 51 58 52 59 66 61 87 62 54 63 38 64 39 65 47 66 40 67 41 68
REMARK SMILES IDX 45 69 48 70 42 71 43 72 46 73 44 74 70 75 71 76 79 77 72 78
REMARK SMILES IDX 73 79 77 80 80 81 74 82 75 83 78 84 76 85 55 86 56 87 64 88
REMARK SMILES IDX 57 89 58 90 62 91 65 92 59 93 60 94 63 95 61 96
REMARK H PARENT 19 7 5 15 26 30 85 49 53 60
REMARK Flexibility Score: inf
ROOT
ATOM      1  C   UNL A   1      32.316  30.218  26.937  1.00  0.00     0.002 C 
ENDROOT
BRANCH   1   2
ATOM      2  C   UNL A   1      31.878  28.767  27.156  1.00  0.00     0.021 C 
BRANCH   2   3
ATOM      3  C   UNL A   1      32.947  27.739  26.777  1.00  0.00     0.116 C 
BRANCH   3   4
ATOM      4  N   UNL A   1      33.505  28.056  25.487  1.00  0.00    -0.351 N 
ATOM      5  C   UNL A   1      33.320  27.566  24.221  1.00  0.00     0.263 C 
ATOM      6  O   UNL A   1      34.044  28.130  23.390  1.00  0.00    -0.268 OA
ATOM      7  H   UNL A   1      34.164  28.786  25.524  1.00  0.00     0.163 HD
BRANCH   5   8
ATOM      8  C   UNL A   1      32.363  26.531  23.849  1.00  0.00     0.117 A 
ATOM      9  C   UNL A   1      29.883  27.387  23.612  1.00  0.00     0.068 C 
ATOM     10  C   UNL A   1      31.000  26.412  23.584  1.00  0.00     0.063 A 
ATOM     11  N   UNL A   1      30.576  25.134  23.250  1.00  0.00    -0.225 NA
ATOM     12  C   UNL A   1      31.555  24.272  23.272  1.00  0.00     0.183 A 
ATOM     13  S   UNL A   1      33.056  24.927  23.731  1.00  0.00    -0.092 S 
BRANCH  12  14
ATOM     14  N   UNL A   1      31.432  22.975  22.938  1.00  0.00    -0.357 N 
ATOM     15  H   UNL A   1      30.539  22.593  22.774  1.00  0.00     0.163 HD
BRANCH  14  16
ATOM     16  C   UNL A   1      32.599  22.142  22.815  1.00  0.00     0.152 C 
BRANCH  16  17
ATOM     17  C   UNL A   1      32.587  20.857  23.622  1.00  0.00    -0.010 A 
ATOM     18  C   UNL A   1      32.251  19.695  22.886  1.00  0.00     0.008 A 
ATOM     19  C   UNL A   1      32.959  20.681  24.968  1.00  0.00     0.047 A 
ATOM     20  C   UNL A   1      32.262  18.426  23.466  1.00  0.00     0.021 A 
ATOM     21  C   UNL A   1      32.959  19.405  25.551  1.00  0.00     0.041 A 
ATOM     22  Cl  UNL A   1      33.454  21.956  26.024  1.00  0.00    -0.084 Cl
ATOM     23  C   UNL A   1      32.613  18.288  24.801  1.00  0.00     0.042 A 
ATOM     24  Cl  UNL A   1      32.634  16.729  25.525  1.00  0.00    -0.084 Cl
ENDBRANCH  16  17
ENDBRANCH  14  16
ENDBRANCH  12  14
ENDBRANCH   5   8
ENDBRANCH   3   4
ENDBRANCH   2   3
ENDBRANCH   1   2
BRANCH   1  25
ATOM     25  C   UNL A   1      31.320  31.069  26.139  1.00  0.00     0.002 C 
BRANCH  25  26
ATOM     26  C   UNL A   1      31.358  32.571  26.439  1.00  0.00     0.021 C 
BRANCH  26  27
ATOM     27  C   UNL A   1      32.514  33.011  27.334  1.00  0.00     0.116 C 
BRANCH  27  28
ATOM     28  N   UNL A   1      32.381  34.403  27.734  1.00  0.00    -0.352 N 
ATOM     29  C   UNL A   1      33.001  35.083  28.751  1.00  0.00     0.251 C 
ATOM     30  H   UNL A   1      31.753  34.936  27.194  1.00  0.00     0.163 HD
ATOM     31  O   UNL A   1      32.585  36.181  29.102  1.00  0.00    -0.269 OA
BRANCH  29  32
ATOM     32  C   UNL A   1      34.172  34.490  29.431  1.00  0.00     0.039 A 
ATOM     33  C   UNL A   1      33.987  33.835  30.651  1.00  0.00     0.014 A 
ATOM     34  C   UNL A   1      35.454  34.615  28.888  1.00  0.00     0.014 A 
ATOM     35  C   UNL A   1      35.080  33.262  31.303  1.00  0.00     0.010 A 
ATOM     36  C   UNL A   1      36.532  33.987  29.506  1.00  0.00     0.010 A 
ATOM     37  C   UNL A   1      36.357  33.311  30.722  1.00  0.00    -0.014 A 
BRANCH  37  38
ATOM     38  C   UNL A   1      37.526  32.670  31.376  1.00  0.00     0.031 A 
ATOM     39  C   UNL A   1      38.239  31.532  30.699  1.00  0.00     0.074 A 
ATOM     40  C   UNL A   1      37.901  33.069  32.606  1.00  0.00     0.049 A 
ATOM     41  N   UNL A   1      39.224  30.791  31.143  1.00  0.00    -0.248 NA
ATOM     42  C   UNL A   1      37.767  31.161  29.356  1.00  0.00     0.031 C 
ATOM     43  C   UNL A   1      37.259  34.131  33.382  1.00  0.00     0.029 A 
ATOM     44  N   UNL A   1      38.904  32.617  33.428  1.00  0.00    -0.354 N 
ATOM     45  C   UNL A   1      39.475  29.860  30.143  1.00  0.00     0.074 A 
ATOM     46  C   UNL A   1      38.510  30.096  29.091  1.00  0.00     0.031 C 
ATOM     47  C   UNL A   1      37.894  34.260  34.559  1.00  0.00     0.029 A 
ATOM     48  C   UNL A   1      38.962  33.268  34.636  1.00  0.00     0.049 A 
ATOM     49  H   UNL A   1      39.524  31.895  33.174  1.00  0.00     0.167 HD
ATOM     50  C   UNL A   1      40.437  28.907  30.100  1.00  0.00     0.037 A 
ATOM     51  C   UNL A   1      39.778  33.078  35.689  1.00  0.00     0.037 A 
ATOM     52  C   UNL A   1      41.415  28.696  31.135  1.00  0.00     0.049 A 
ATOM     53  C   UNL A   1      40.840  32.015  35.611  1.00  0.00     0.074 A 
ATOM     54  C   UNL A   1      42.468  27.799  31.157  1.00  0.00     0.029 A 
ATOM     55  N   UNL A   1      41.458  29.394  32.333  1.00  0.00    -0.354 N 
ATOM     56  N   UNL A   1      41.109  31.183  34.635  1.00  0.00    -0.248 NA
ATOM     57  C   UNL A   1      41.717  31.868  36.781  1.00  0.00     0.031 C 
ATOM     58  C   UNL A   1      43.123  27.925  32.386  1.00  0.00     0.029 A 
ATOM     59  C   UNL A   1      42.509  28.934  33.110  1.00  0.00     0.049 A 
ATOM     60  H   UNL A   1      40.834  30.111  32.593  1.00  0.00     0.167 HD
ATOM     61  C   UNL A   1      42.201  30.438  35.057  1.00  0.00     0.074 A 
ATOM     62  C   UNL A   1      42.555  30.926  36.374  1.00  0.00     0.031 C 
ATOM     63  C   UNL A   1      42.854  29.441  34.413  1.00  0.00     0.037 A 
BRANCH  50  64
ATOM     64  C   UNL A   1      40.487  28.021  28.888  1.00  0.00     0.064 A 
ATOM     65  C   UNL A   1      41.270  28.348  27.770  1.00  0.00     0.173 A 
ATOM     66  C   UNL A   1      39.783  26.808  28.863  1.00  0.00     0.173 A 
ATOM     67  F   UNL A   1      41.954  29.502  27.739  1.00  0.00    -0.203 F 
ATOM     68  C   UNL A   1      41.328  27.505  26.665  1.00  0.00     0.198 A 
ATOM     69  C   UNL A   1      39.866  25.953  27.768  1.00  0.00     0.198 A 
ATOM     70  F   UNL A   1      39.024  26.446  29.908  1.00  0.00    -0.203 F 
ATOM     71  F   UNL A   1      42.049  27.858  25.592  1.00  0.00    -0.200 F 
ATOM     72  C   UNL A   1      40.633  26.305  26.667  1.00  0.00     0.200 A 
ATOM     73  F   UNL A   1      39.204  24.788  27.777  1.00  0.00    -0.200 F 
ATOM     74  F   UNL A   1      40.697  25.489  25.606  1.00  0.00    -0.200 F 
ENDBRANCH  50  64
BRANCH  51  75
ATOM     75  C   UNL A   1      39.640  33.927  36.901  1.00  0.00     0.064 A 
ATOM     76  C   UNL A   1      38.880  33.497  37.997  1.00  0.00     0.173 A 
ATOM     77  C   UNL A   1      40.251  35.187  36.984  1.00  0.00     0.173 A 
ATOM     78  F   UNL A   1      38.260  32.308  37.956  1.00  0.00    -0.203 F 
ATOM     79  C   UNL A   1      38.716  34.303  39.122  1.00  0.00     0.198 A 
ATOM     80  C   UNL A   1      40.110  35.980  38.121  1.00  0.00     0.198 A 
ATOM     81  F   UNL A   1      40.993  35.643  35.966  1.00  0.00    -0.203 F 
ATOM     82  F   UNL A   1      37.944  33.888  40.134  1.00  0.00    -0.200 F 
ATOM     83  C   UNL A   1      39.335  35.542  39.185  1.00  0.00     0.200 A 
ATOM     84  F   UNL A   1      40.722  37.171  38.184  1.00  0.00    -0.200 F 
ATOM     85  F   UNL A   1      39.178  36.318  40.266  1.00  0.00    -0.200 F 
ENDBRANCH  51  75
BRANCH  63  86
ATOM     86  C   UNL A   1      44.041  28.836  35.104  1.00  0.00     0.064 A 
ATOM     87  C   UNL A   1      43.914  27.722  35.946  1.00  0.00     0.173 A 
ATOM     88  C   UNL A   1      45.327  29.354  34.886  1.00  0.00     0.173 A 
ATOM     89  F   UNL A   1      42.704  27.200  36.197  1.00  0.00    -0.203 F 
ATOM     90  C   UNL A   1      45.029  27.164  36.565  1.00  0.00     0.198 A 
ATOM     91  C   UNL A   1      46.442  28.774  35.483  1.00  0.00     0.198 A 
ATOM     92  F   UNL A   1      45.502  30.414  34.083  1.00  0.00    -0.203 F 
ATOM     93  F   UNL A   1      44.879  26.128  37.403  1.00  0.00    -0.200 F 
ATOM     94  C   UNL A   1      46.292  27.685  36.328  1.00  0.00     0.200 A 
ATOM     95  F   UNL A   1      47.663  29.272  35.242  1.00  0.00    -0.200 F 
ATOM     96  F   UNL A   1      47.366  27.142  36.918  1.00  0.00    -0.200 F 
ENDBRANCH  63  86
ENDBRANCH  37  38
ENDBRANCH  29  32
ENDBRANCH  27  28
ENDBRANCH  26  27
ENDBRANCH  25  26
ENDBRANCH   1  25
TORSDOF 16
ENDMDL
