MODEL 1
REMARK VINA RESULT:     -10.4      0.000      0.000
REMARK SMILES O=C(CCCC[C@@H]1CCSS1)NCCCCCCNC(=O)c1ccc(-c2c3nc(c(-c4c(F)c(F)c(F)c(F)c4F)c4ccc([nH]4)c(-c4c(F)c(F)c(F)c(F)c4F)c4nc(c(-c5c(F)c(F)c(F)c(F)c5F)c5ccc2[nH]5)C=C4)C=C3)cc1
REMARK SMILES IDX 14 1 13 2 12 3 1 4 2 5 3 7 4 8 5 9 6 10 7 11 8 12 11 13 9 14
REMARK SMILES IDX 10 15 15 16 16 17 17 18 18 19 19 20 20 21 21 23 22 24 23 25
REMARK SMILES IDX 84 26 24 27 83 28 25 29 26 30 27 31 77 32 28 33 82 34 76 35
REMARK SMILES IDX 78 36 29 37 81 38 75 39 74 40 30 42 62 43 42 44 61 45 43 46
REMARK SMILES IDX 46 47 60 48 79 49 44 50 45 51 59 53 80 54 47 55 31 56 32 57
REMARK SMILES IDX 40 58 33 59 34 60 38 61 41 62 35 63 36 64 39 65 37 66 63 67
REMARK SMILES IDX 64 68 72 69 65 70 66 71 70 72 73 73 67 74 68 75 71 76 69 77
REMARK SMILES IDX 48 78 49 79 57 80 50 81 51 82 55 83 58 84 52 85 53 86 56 87
REMARK SMILES IDX 54 88
REMARK H PARENT 12 6 19 22 78 41 46 52
REMARK Flexibility Score: inf
ROOT
ATOM      1  C   UNL A   1      33.370  28.646  26.944  1.00  0.00     0.021 C 
ENDROOT
BRANCH   1   2
ATOM      2  C   UNL A   1      33.992  28.827  25.562  1.00  0.00     0.116 C 
BRANCH   2   3
ATOM      3  N   UNL A   1      33.626  27.746  24.676  1.00  0.00    -0.356 N 
ATOM      4  O   UNL A   1      33.701  28.946  22.722  1.00  0.00    -0.275 OA
ATOM      5  C   UNL A   1      33.563  27.881  23.311  1.00  0.00     0.219 C 
ATOM      6  H   UNL A   1      33.410  26.870  25.071  1.00  0.00     0.163 HD
BRANCH   5   7
ATOM      7  C   UNL A   1      33.339  26.566  22.591  1.00  0.00     0.100 C 
BRANCH   7   8
ATOM      8  C   UNL A   1      31.864  26.357  22.235  1.00  0.00     0.010 C 
BRANCH   8   9
ATOM      9  C   UNL A   1      30.894  26.161  23.409  1.00  0.00     0.002 C 
BRANCH   9  10
ATOM     10  C   UNL A   1      30.042  27.365  23.850  1.00  0.00     0.015 C 
BRANCH  10  11
ATOM     11  C   UNL A   1      29.420  28.267  22.770  1.00  0.00     0.059 C 
ATOM     12  C   UNL A   1      30.194  29.568  22.517  1.00  0.00     0.027 C 
ATOM     13  S   UNL A   1      27.677  28.691  23.083  1.00  0.00    -0.091 SA
ATOM     14  C   UNL A   1      29.372  30.519  21.655  1.00  0.00     0.083 C 
ATOM     15  S   UNL A   1      27.764  30.641  22.465  1.00  0.00    -0.094 SA
ENDBRANCH  10  11
ENDBRANCH   9  10
ENDBRANCH   8   9
ENDBRANCH   7   8
ENDBRANCH   5   7
ENDBRANCH   2   3
ENDBRANCH   1   2
BRANCH   1  16
ATOM     16  C   UNL A   1      32.150  29.537  27.225  1.00  0.00     0.002 C 
BRANCH  16  17
ATOM     17  C   UNL A   1      31.756  30.492  26.095  1.00  0.00     0.002 C 
BRANCH  17  18
ATOM     18  C   UNL A   1      31.499  31.937  26.525  1.00  0.00     0.021 C 
BRANCH  18  19
ATOM     19  C   UNL A   1      32.652  32.604  27.267  1.00  0.00     0.116 C 
BRANCH  19  20
ATOM     20  N   UNL A   1      32.380  33.994  27.595  1.00  0.00    -0.352 N 
ATOM     21  C   UNL A   1      32.976  34.795  28.537  1.00  0.00     0.251 C 
ATOM     22  H   UNL A   1      31.667  34.423  27.067  1.00  0.00     0.163 HD
ATOM     23  O   UNL A   1      32.516  35.906  28.788  1.00  0.00    -0.269 OA
BRANCH  21  24
ATOM     24  C   UNL A   1      34.161  34.307  29.277  1.00  0.00     0.039 A 
ATOM     25  C   UNL A   1      33.974  33.640  30.489  1.00  0.00     0.014 A 
ATOM     26  C   UNL A   1      35.452  34.500  28.775  1.00  0.00     0.014 A 
ATOM     27  C   UNL A   1      35.074  33.107  31.164  1.00  0.00     0.010 A 
ATOM     28  C   UNL A   1      36.538  33.904  29.410  1.00  0.00     0.010 A 
ATOM     29  C   UNL A   1      36.362  33.201  30.612  1.00  0.00    -0.014 A 
BRANCH  29  30
ATOM     30  C   UNL A   1      37.534  32.572  31.276  1.00  0.00     0.031 A 
ATOM     31  C   UNL A   1      38.267  31.442  30.607  1.00  0.00     0.074 A 
ATOM     32  C   UNL A   1      37.906  32.982  32.505  1.00  0.00     0.049 A 
ATOM     33  N   UNL A   1      39.261  30.717  31.056  1.00  0.00    -0.248 NA
ATOM     34  C   UNL A   1      37.806  31.057  29.263  1.00  0.00     0.031 C 
ATOM     35  C   UNL A   1      37.253  34.040  33.279  1.00  0.00     0.029 A 
ATOM     36  N   UNL A   1      38.918  32.549  33.327  1.00  0.00    -0.354 N 
ATOM     37  C   UNL A   1      39.539  29.794  30.057  1.00  0.00     0.074 A 
ATOM     38  C   UNL A   1      38.572  30.007  29.003  1.00  0.00     0.031 C 
ATOM     39  C   UNL A   1      37.889  34.185  34.452  1.00  0.00     0.029 A 
ATOM     40  C   UNL A   1      38.967  33.204  34.534  1.00  0.00     0.049 A 
ATOM     41  H   UNL A   1      39.548  31.835  33.076  1.00  0.00     0.167 HD
ATOM     42  C   UNL A   1      40.528  28.869  30.010  1.00  0.00     0.037 A 
ATOM     43  C   UNL A   1      39.780  33.024  35.594  1.00  0.00     0.037 A 
ATOM     44  C   UNL A   1      41.500  28.668  31.052  1.00  0.00     0.049 A 
ATOM     45  C   UNL A   1      40.853  31.969  35.525  1.00  0.00     0.074 A 
ATOM     46  C   UNL A   1      42.563  27.782  31.081  1.00  0.00     0.029 A 
ATOM     47  N   UNL A   1      41.527  29.363  32.252  1.00  0.00    -0.354 N 
ATOM     48  N   UNL A   1      41.143  31.144  34.547  1.00  0.00    -0.248 NA
ATOM     49  C   UNL A   1      41.717  31.823  36.704  1.00  0.00     0.031 C 
ATOM     50  C   UNL A   1      43.204  27.906  32.317  1.00  0.00     0.029 A 
ATOM     51  C   UNL A   1      42.577  28.912  33.035  1.00  0.00     0.049 A 
ATOM     52  H   UNL A   1      40.893  30.072  32.509  1.00  0.00     0.167 HD
ATOM     53  C   UNL A   1      42.242  30.412  34.978  1.00  0.00     0.074 A 
ATOM     54  C   UNL A   1      42.577  30.901  36.299  1.00  0.00     0.031 C 
ATOM     55  C   UNL A   1      42.911  29.422  34.340  1.00  0.00     0.037 A 
BRANCH  42  56
ATOM     56  C   UNL A   1      40.622  28.007  28.783  1.00  0.00     0.064 A 
ATOM     57  C   UNL A   1      39.915  26.799  28.680  1.00  0.00     0.173 A 
ATOM     58  C   UNL A   1      41.376  28.422  27.675  1.00  0.00     0.173 A 
ATOM     59  F   UNL A   1      39.189  26.351  29.714  1.00  0.00    -0.203 F 
ATOM     60  C   UNL A   1      39.976  26.031  27.520  1.00  0.00     0.198 A 
ATOM     61  C   UNL A   1      41.408  27.667  26.506  1.00  0.00     0.198 A 
ATOM     62  F   UNL A   1      42.067  29.572  27.718  1.00  0.00    -0.203 F 
ATOM     63  F   UNL A   1      39.324  24.861  27.460  1.00  0.00    -0.200 F 
ATOM     64  C   UNL A   1      40.713  26.470  26.431  1.00  0.00     0.200 A 
ATOM     65  F   UNL A   1      42.108  28.100  25.449  1.00  0.00    -0.200 F 
ATOM     66  F   UNL A   1      40.757  25.736  25.311  1.00  0.00    -0.200 F 
ENDBRANCH  42  56
BRANCH  43  67
ATOM     67  C   UNL A   1      39.620  33.859  36.816  1.00  0.00     0.064 A 
ATOM     68  C   UNL A   1      38.854  33.410  37.902  1.00  0.00     0.173 A 
ATOM     69  C   UNL A   1      40.193  35.136  36.907  1.00  0.00     0.173 A 
ATOM     70  F   UNL A   1      38.270  32.205  37.857  1.00  0.00    -0.203 F 
ATOM     71  C   UNL A   1      38.637  34.221  39.014  1.00  0.00     0.198 A 
ATOM     72  C   UNL A   1      40.004  35.932  38.036  1.00  0.00     0.198 A 
ATOM     73  F   UNL A   1      40.939  35.612  35.899  1.00  0.00    -0.203 F 
ATOM     74  F   UNL A   1      37.845  33.794  40.007  1.00  0.00    -0.200 F 
ATOM     75  C   UNL A   1      39.214  35.480  39.081  1.00  0.00     0.200 A 
ATOM     76  F   UNL A   1      40.578  37.141  38.103  1.00  0.00    -0.200 F 
ATOM     77  F   UNL A   1      39.001  36.262  40.149  1.00  0.00    -0.200 F 
ENDBRANCH  43  67
BRANCH  55  78
ATOM     78  C   UNL A   1      44.106  28.835  35.035  1.00  0.00     0.064 A 
ATOM     79  C   UNL A   1      43.988  27.762  35.932  1.00  0.00     0.173 A 
ATOM     80  C   UNL A   1      45.394  29.328  34.769  1.00  0.00     0.173 A 
ATOM     81  F   UNL A   1      42.779  27.263  36.232  1.00  0.00    -0.203 F 
ATOM     82  C   UNL A   1      45.110  27.227  36.559  1.00  0.00     0.198 A 
ATOM     83  C   UNL A   1      46.516  28.767  35.370  1.00  0.00     0.198 A 
ATOM     84  F   UNL A   1      45.563  30.347  33.912  1.00  0.00    -0.203 F 
ATOM     85  F   UNL A   1      44.968  26.239  37.452  1.00  0.00    -0.200 F 
ATOM     86  C   UNL A   1      46.373  27.723  36.271  1.00  0.00     0.200 A 
ATOM     87  F   UNL A   1      47.736  29.237  35.078  1.00  0.00    -0.200 F 
ATOM     88  F   UNL A   1      47.452  27.200  36.869  1.00  0.00    -0.200 F 
ENDBRANCH  55  78
ENDBRANCH  29  30
ENDBRANCH  21  24
ENDBRANCH  19  20
ENDBRANCH  18  19
ENDBRANCH  17  18
ENDBRANCH  16  17
ENDBRANCH   1  16
TORSDOF 17
ENDMDL
MODEL 2
REMARK VINA RESULT:     -10.4      6.913     11.570
REMARK SMILES O=C(CCCC[C@@H]1CCSS1)NCCCCCCNC(=O)c1ccc(-c2c3nc(c(-c4c(F)c(F)c(F)c(F)c4F)c4ccc([nH]4)c(-c4c(F)c(F)c(F)c(F)c4F)c4nc(c(-c5c(F)c(F)c(F)c(F)c5F)c5ccc2[nH]5)C=C4)C=C3)cc1
REMARK SMILES IDX 14 1 13 2 12 3 1 4 2 5 3 7 4 8 5 9 6 10 7 11 8 12 11 13 9 14
REMARK SMILES IDX 10 15 15 16 16 17 17 18 18 19 19 20 20 21 21 23 22 24 23 25
REMARK SMILES IDX 84 26 24 27 83 28 25 29 26 30 27 31 77 32 28 33 82 34 76 35
REMARK SMILES IDX 78 36 29 37 81 38 75 39 74 40 30 42 62 43 42 44 61 45 43 46
REMARK SMILES IDX 46 47 60 48 79 49 44 50 45 51 59 53 80 54 47 55 31 56 32 57
REMARK SMILES IDX 40 58 33 59 34 60 38 61 41 62 35 63 36 64 39 65 37 66 63 67
REMARK SMILES IDX 64 68 72 69 65 70 66 71 70 72 73 73 67 74 68 75 71 76 69 77
REMARK SMILES IDX 48 78 49 79 57 80 50 81 51 82 55 83 58 84 52 85 53 86 56 87
REMARK SMILES IDX 54 88
REMARK H PARENT 12 6 19 22 78 41 46 52
REMARK Flexibility Score: inf
ROOT
ATOM      1  C   UNL A   1      41.277  21.823  26.656  1.00  0.00     0.021 C 
ENDROOT
BRANCH   1   2
ATOM      2  C   UNL A   1      40.303  22.673  27.466  1.00  0.00     0.116 C 
BRANCH   2   3
ATOM      3  N   UNL A   1      39.030  22.798  26.793  1.00  0.00    -0.356 N 
ATOM      4  O   UNL A   1      38.816  25.071  27.015  1.00  0.00    -0.275 OA
ATOM      5  C   UNL A   1      38.412  24.003  26.572  1.00  0.00     0.219 C 
ATOM      6  H   UNL A   1      38.586  21.977  26.477  1.00  0.00     0.163 HD
BRANCH   5   7
ATOM      7  C   UNL A   1      37.185  23.891  25.687  1.00  0.00     0.100 C 
BRANCH   7   8
ATOM      8  C   UNL A   1      37.213  22.619  24.834  1.00  0.00     0.010 C 
BRANCH   8   9
ATOM      9  C   UNL A   1      36.621  22.726  23.421  1.00  0.00     0.002 C 
BRANCH   9  10
ATOM     10  C   UNL A   1      35.109  22.981  23.289  1.00  0.00     0.015 C 
BRANCH  10  11
ATOM     11  C   UNL A   1      34.174  22.480  24.405  1.00  0.00     0.059 C 
ATOM     12  C   UNL A   1      33.240  21.341  23.975  1.00  0.00     0.027 C 
ATOM     13  S   UNL A   1      33.164  23.793  25.159  1.00  0.00    -0.091 SA
ATOM     14  C   UNL A   1      32.170  21.100  25.033  1.00  0.00     0.083 C 
ATOM     15  S   UNL A   1      31.432  22.717  25.352  1.00  0.00    -0.094 SA
ENDBRANCH  10  11
ENDBRANCH   9  10
ENDBRANCH   8   9
ENDBRANCH   7   8
ENDBRANCH   5   7
ENDBRANCH   2   3
ENDBRANCH   1   2
BRANCH   1  16
ATOM     16  C   UNL A   1      42.243  20.972  27.496  1.00  0.00     0.002 C 
BRANCH  16  17
ATOM     17  C   UNL A   1      41.937  19.472  27.535  1.00  0.00     0.002 C 
BRANCH  17  18
ATOM     18  C   UNL A   1      42.846  18.599  26.668  1.00  0.00     0.021 C 
BRANCH  18  19
ATOM     19  C   UNL A   1      42.868  18.964  25.188  1.00  0.00     0.116 C 
BRANCH  19  20
ATOM     20  N   UNL A   1      44.139  18.656  24.553  1.00  0.00    -0.352 N 
ATOM     21  C   UNL A   1      45.183  19.496  24.250  1.00  0.00     0.251 C 
ATOM     22  H   UNL A   1      44.271  17.713  24.304  1.00  0.00     0.163 HD
ATOM     23  O   UNL A   1      46.124  19.094  23.570  1.00  0.00    -0.269 OA
BRANCH  21  24
ATOM     24  C   UNL A   1      45.161  20.899  24.719  1.00  0.00     0.039 A 
ATOM     25  C   UNL A   1      45.527  21.176  26.038  1.00  0.00     0.014 A 
ATOM     26  C   UNL A   1      44.790  21.938  23.862  1.00  0.00     0.014 A 
ATOM     27  C   UNL A   1      45.585  22.500  26.478  1.00  0.00     0.010 A 
ATOM     28  C   UNL A   1      44.920  23.260  24.279  1.00  0.00     0.010 A 
ATOM     29  C   UNL A   1      45.319  23.557  25.592  1.00  0.00    -0.014 A 
BRANCH  29  30
ATOM     30  C   UNL A   1      45.452  24.974  26.018  1.00  0.00     0.031 A 
ATOM     31  C   UNL A   1      46.789  25.660  25.962  1.00  0.00     0.074 A 
ATOM     32  C   UNL A   1      44.380  25.629  26.507  1.00  0.00     0.049 A 
ATOM     33  N   UNL A   1      47.122  26.862  26.360  1.00  0.00    -0.248 NA
ATOM     34  C   UNL A   1      47.910  24.882  25.410  1.00  0.00     0.031 C 
ATOM     35  C   UNL A   1      43.036  25.064  26.651  1.00  0.00     0.029 A 
ATOM     36  N   UNL A   1      44.252  26.910  26.986  1.00  0.00    -0.354 N 
ATOM     37  C   UNL A   1      48.483  26.982  26.110  1.00  0.00     0.074 A 
ATOM     38  C   UNL A   1      48.929  25.711  25.583  1.00  0.00     0.031 C 
ATOM     39  C   UNL A   1      42.218  25.997  27.165  1.00  0.00     0.029 A 
ATOM     40  C   UNL A   1      42.986  27.211  27.427  1.00  0.00     0.049 A 
ATOM     41  H   UNL A   1      44.998  27.552  27.012  1.00  0.00     0.167 HD
ATOM     42  C   UNL A   1      49.283  28.062  26.278  1.00  0.00     0.037 A 
ATOM     43  C   UNL A   1      42.501  28.334  27.993  1.00  0.00     0.037 A 
ATOM     44  C   UNL A   1      48.834  29.332  26.786  1.00  0.00     0.049 A 
ATOM     45  C   UNL A   1      43.421  29.510  28.194  1.00  0.00     0.074 A 
ATOM     46  C   UNL A   1      49.561  30.497  26.959  1.00  0.00     0.029 A 
ATOM     47  N   UNL A   1      47.541  29.602  27.207  1.00  0.00    -0.354 N 
ATOM     48  N   UNL A   1      44.692  29.629  27.895  1.00  0.00    -0.248 NA
ATOM     49  C   UNL A   1      42.837  30.712  28.806  1.00  0.00     0.031 C 
ATOM     50  C   UNL A   1      48.720  31.458  27.528  1.00  0.00     0.029 A 
ATOM     51  C   UNL A   1      47.454  30.910  27.655  1.00  0.00     0.049 A 
ATOM     52  H   UNL A   1      46.794  28.959  27.190  1.00  0.00     0.167 HD
ATOM     53  C   UNL A   1      45.048  30.925  28.246  1.00  0.00     0.074 A 
ATOM     54  C   UNL A   1      43.854  31.559  28.765  1.00  0.00     0.031 C 
ATOM     55  C   UNL A   1      46.254  31.534  28.151  1.00  0.00     0.037 A 
BRANCH  42  56
ATOM     56  C   UNL A   1      50.729  27.928  25.896  1.00  0.00     0.064 A 
ATOM     57  C   UNL A   1      51.159  28.127  24.575  1.00  0.00     0.173 A 
ATOM     58  C   UNL A   1      51.704  27.660  26.869  1.00  0.00     0.173 A 
ATOM     59  F   UNL A   1      50.267  28.374  23.604  1.00  0.00    -0.203 F 
ATOM     60  C   UNL A   1      52.508  28.043  24.240  1.00  0.00     0.198 A 
ATOM     61  C   UNL A   1      53.055  27.610  26.536  1.00  0.00     0.198 A 
ATOM     62  F   UNL A   1      51.348  27.468  28.148  1.00  0.00    -0.203 F 
ATOM     63  F   UNL A   1      52.891  28.197  22.965  1.00  0.00    -0.200 F 
ATOM     64  C   UNL A   1      53.455  27.796  25.222  1.00  0.00     0.200 A 
ATOM     65  F   UNL A   1      53.970  27.386  27.488  1.00  0.00    -0.200 F 
ATOM     66  F   UNL A   1      54.754  27.732  24.900  1.00  0.00    -0.200 F 
ENDBRANCH  42  56
BRANCH  43  67
ATOM     67  C   UNL A   1      41.075  28.411  28.411  1.00  0.00     0.064 A 
ATOM     68  C   UNL A   1      40.094  28.916  27.544  1.00  0.00     0.173 A 
ATOM     69  C   UNL A   1      40.670  28.024  29.697  1.00  0.00     0.173 A 
ATOM     70  F   UNL A   1      40.433  29.318  26.311  1.00  0.00    -0.203 F 
ATOM     71  C   UNL A   1      38.772  29.064  27.960  1.00  0.00     0.198 A 
ATOM     72  C   UNL A   1      39.340  28.139  30.099  1.00  0.00     0.198 A 
ATOM     73  F   UNL A   1      41.565  27.530  30.564  1.00  0.00    -0.203 F 
ATOM     74  F   UNL A   1      37.870  29.612  27.134  1.00  0.00    -0.200 F 
ATOM     75  C   UNL A   1      38.396  28.673  29.236  1.00  0.00     0.200 A 
ATOM     76  F   UNL A   1      38.978  27.744  31.327  1.00  0.00    -0.200 F 
ATOM     77  F   UNL A   1      37.125  28.821  29.637  1.00  0.00    -0.200 F 
ENDBRANCH  43  67
BRANCH  55  78
ATOM     78  C   UNL A   1      46.336  32.976  28.566  1.00  0.00     0.064 A 
ATOM     79  C   UNL A   1      46.102  34.021  27.660  1.00  0.00     0.173 A 
ATOM     80  C   UNL A   1      46.617  33.314  29.899  1.00  0.00     0.173 A 
ATOM     81  F   UNL A   1      45.844  33.753  26.371  1.00  0.00    -0.203 F 
ATOM     82  C   UNL A   1      46.175  35.350  28.068  1.00  0.00     0.198 A 
ATOM     83  C   UNL A   1      46.654  34.642  30.311  1.00  0.00     0.198 A 
ATOM     84  F   UNL A   1      46.841  32.351  30.808  1.00  0.00    -0.203 F 
ATOM     85  F   UNL A   1      46.001  36.334  27.174  1.00  0.00    -0.200 F 
ATOM     86  C   UNL A   1      46.442  35.660  29.393  1.00  0.00     0.200 A 
ATOM     87  F   UNL A   1      46.896  34.938  31.596  1.00  0.00    -0.200 F 
ATOM     88  F   UNL A   1      46.503  36.940  29.786  1.00  0.00    -0.200 F 
ENDBRANCH  55  78
ENDBRANCH  29  30
ENDBRANCH  21  24
ENDBRANCH  19  20
ENDBRANCH  18  19
ENDBRANCH  17  18
ENDBRANCH  16  17
ENDBRANCH   1  16
TORSDOF 17
ENDMDL
MODEL 3
REMARK VINA RESULT:     -10.2      2.486      8.283
REMARK SMILES O=C(CCCC[C@@H]1CCSS1)NCCCCCCNC(=O)c1ccc(-c2c3nc(c(-c4c(F)c(F)c(F)c(F)c4F)c4ccc([nH]4)c(-c4c(F)c(F)c(F)c(F)c4F)c4nc(c(-c5c(F)c(F)c(F)c(F)c5F)c5ccc2[nH]5)C=C4)C=C3)cc1
REMARK SMILES IDX 14 1 13 2 12 3 1 4 2 5 3 7 4 8 5 9 6 10 7 11 8 12 11 13 9 14
REMARK SMILES IDX 10 15 15 16 16 17 17 18 18 19 19 20 20 21 21 23 22 24 23 25
REMARK SMILES IDX 84 26 24 27 83 28 25 29 26 30 27 31 77 32 28 33 82 34 76 35
REMARK SMILES IDX 78 36 29 37 81 38 75 39 74 40 30 42 62 43 42 44 61 45 43 46
REMARK SMILES IDX 46 47 60 48 79 49 44 50 45 51 59 53 80 54 47 55 31 56 32 57
REMARK SMILES IDX 40 58 33 59 34 60 38 61 41 62 35 63 36 64 39 65 37 66 63 67
REMARK SMILES IDX 64 68 72 69 65 70 66 71 70 72 73 73 67 74 68 75 71 76 69 77
REMARK SMILES IDX 48 78 49 79 57 80 50 81 51 82 55 83 58 84 52 85 53 86 56 87
REMARK SMILES IDX 54 88
REMARK H PARENT 12 6 19 22 78 41 46 52
REMARK Flexibility Score: inf
ROOT
ATOM      1  C   UNL A   1      34.779  31.861  28.768  1.00  0.00     0.021 C 
ENDROOT
BRANCH   1   2
ATOM      2  C   UNL A   1      33.769  31.756  27.628  1.00  0.00     0.116 C 
BRANCH   2   3
ATOM      3  N   UNL A   1      33.223  30.422  27.532  1.00  0.00    -0.356 N 
ATOM      4  O   UNL A   1      31.495  30.927  26.110  1.00  0.00    -0.275 OA
ATOM      5  C   UNL A   1      32.155  30.103  26.731  1.00  0.00     0.219 C 
ATOM      6  H   UNL A   1      33.638  29.707  28.069  1.00  0.00     0.163 HD
BRANCH   5   7
ATOM      7  C   UNL A   1      31.886  28.612  26.660  1.00  0.00     0.100 C 
BRANCH   7   8
ATOM      8  C   UNL A   1      33.161  27.793  26.887  1.00  0.00     0.010 C 
BRANCH   8   9
ATOM      9  C   UNL A   1      33.794  27.147  25.646  1.00  0.00     0.002 C 
BRANCH   9  10
ATOM     10  C   UNL A   1      33.458  25.674  25.349  1.00  0.00     0.015 C 
BRANCH  10  11
ATOM     11  C   UNL A   1      34.613  24.691  25.086  1.00  0.00     0.059 C 
ATOM     12  C   UNL A   1      34.651  24.139  23.654  1.00  0.00     0.027 C 
ATOM     13  S   UNL A   1      34.657  23.285  26.241  1.00  0.00    -0.091 SA
ATOM     14  C   UNL A   1      35.632  22.976  23.556  1.00  0.00     0.083 C 
ATOM     15  S   UNL A   1      35.172  21.842  24.883  1.00  0.00    -0.094 SA
ENDBRANCH  10  11
ENDBRANCH   9  10
ENDBRANCH   8   9
ENDBRANCH   7   8
ENDBRANCH   5   7
ENDBRANCH   2   3
ENDBRANCH   1   2
BRANCH   1  16
ATOM     16  C   UNL A   1      34.770  33.203  29.518  1.00  0.00     0.002 C 
BRANCH  16  17
ATOM     17  C   UNL A   1      34.642  34.449  28.637  1.00  0.00     0.002 C 
BRANCH  17  18
ATOM     18  C   UNL A   1      33.367  35.266  28.847  1.00  0.00     0.021 C 
BRANCH  18  19
ATOM     19  C   UNL A   1      33.485  36.396  29.863  1.00  0.00     0.116 C 
BRANCH  19  20
ATOM     20  N   UNL A   1      32.447  36.348  30.880  1.00  0.00    -0.352 N 
ATOM     21  C   UNL A   1      32.439  35.680  32.080  1.00  0.00     0.251 C 
ATOM     22  H   UNL A   1      31.635  36.868  30.681  1.00  0.00     0.163 HD
ATOM     23  O   UNL A   1      31.412  35.624  32.751  1.00  0.00    -0.269 OA
BRANCH  21  24
ATOM     24  C   UNL A   1      33.664  34.998  32.553  1.00  0.00     0.039 A 
ATOM     25  C   UNL A   1      33.564  33.699  33.052  1.00  0.00     0.014 A 
ATOM     26  C   UNL A   1      34.908  35.634  32.498  1.00  0.00     0.014 A 
ATOM     27  C   UNL A   1      34.719  33.012  33.434  1.00  0.00     0.010 A 
ATOM     28  C   UNL A   1      36.064  34.923  32.807  1.00  0.00     0.010 A 
ATOM     29  C   UNL A   1      35.983  33.603  33.280  1.00  0.00    -0.014 A 
BRANCH  29  30
ATOM     30  C   UNL A   1      37.228  32.860  33.606  1.00  0.00     0.031 A 
ATOM     31  C   UNL A   1      37.983  33.165  34.871  1.00  0.00     0.074 A 
ATOM     32  C   UNL A   1      37.710  31.948  32.738  1.00  0.00     0.049 A 
ATOM     33  N   UNL A   1      39.124  32.681  35.293  1.00  0.00    -0.248 NA
ATOM     34  C   UNL A   1      37.390  34.168  35.770  1.00  0.00     0.031 C 
ATOM     35  C   UNL A   1      37.094  31.590  31.459  1.00  0.00     0.029 A 
ATOM     36  N   UNL A   1      38.836  31.163  32.793  1.00  0.00    -0.354 N 
ATOM     37  C   UNL A   1      39.385  33.320  36.498  1.00  0.00     0.074 A 
ATOM     38  C   UNL A   1      38.316  34.270  36.713  1.00  0.00     0.031 C 
ATOM     39  C   UNL A   1      37.839  30.646  30.859  1.00  0.00     0.029 A 
ATOM     40  C   UNL A   1      39.006  30.363  31.690  1.00  0.00     0.049 A 
ATOM     41  H   UNL A   1      39.463  31.174  33.552  1.00  0.00     0.167 HD
ATOM     42  C   UNL A   1      40.408  33.114  37.361  1.00  0.00     0.037 A 
ATOM     43  C   UNL A   1      39.999  29.508  31.375  1.00  0.00     0.037 A 
ATOM     44  C   UNL A   1      41.462  32.155  37.155  1.00  0.00     0.049 A 
ATOM     45  C   UNL A   1      41.139  29.319  32.342  1.00  0.00     0.074 A 
ATOM     46  C   UNL A   1      42.522  31.846  37.989  1.00  0.00     0.029 A 
ATOM     47  N   UNL A   1      41.590  31.351  36.032  1.00  0.00    -0.354 N 
ATOM     48  N   UNL A   1      41.340  29.885  33.507  1.00  0.00    -0.248 NA
ATOM     49  C   UNL A   1      42.188  28.367  31.952  1.00  0.00     0.031 C 
ATOM     50  C   UNL A   1      43.319  30.891  37.351  1.00  0.00     0.029 A 
ATOM     51  C   UNL A   1      42.722  30.561  36.145  1.00  0.00     0.049 A 
ATOM     52  H   UNL A   1      40.969  31.344  35.268  1.00  0.00     0.167 HD
ATOM     53  C   UNL A   1      42.512  29.332  34.004  1.00  0.00     0.074 A 
ATOM     54  C   UNL A   1      42.970  28.373  33.021  1.00  0.00     0.031 C 
ATOM     55  C   UNL A   1      43.155  29.595  35.167  1.00  0.00     0.037 A 
BRANCH  42  56
ATOM     56  C   UNL A   1      40.435  33.929  38.623  1.00  0.00     0.064 A 
ATOM     57  C   UNL A   1      41.143  35.138  38.698  1.00  0.00     0.173 A 
ATOM     58  C   UNL A   1      39.694  33.532  39.746  1.00  0.00     0.173 A 
ATOM     59  F   UNL A   1      41.876  35.558  37.657  1.00  0.00    -0.203 F 
ATOM     60  C   UNL A   1      41.125  35.907  39.859  1.00  0.00     0.198 A 
ATOM     61  C   UNL A   1      39.652  34.320  40.892  1.00  0.00     0.198 A 
ATOM     62  F   UNL A   1      38.994  32.388  39.725  1.00  0.00    -0.203 F 
ATOM     63  F   UNL A   1      41.842  37.038  39.921  1.00  0.00    -0.200 F 
ATOM     64  C   UNL A   1      40.371  35.504  40.950  1.00  0.00     0.200 A 
ATOM     65  F   UNL A   1      38.912  33.937  41.941  1.00  0.00    -0.200 F 
ATOM     66  F   UNL A   1      40.343  36.255  42.060  1.00  0.00    -0.200 F 
ENDBRANCH  42  56
BRANCH  43  67
ATOM     67  C   UNL A   1      39.967  28.758  30.089  1.00  0.00     0.064 A 
ATOM     68  C   UNL A   1      39.396  27.479  30.013  1.00  0.00     0.173 A 
ATOM     69  C   UNL A   1      40.543  29.284  28.924  1.00  0.00     0.173 A 
ATOM     70  F   UNL A   1      38.851  26.923  31.104  1.00  0.00    -0.203 F 
ATOM     71  C   UNL A   1      39.437  26.741  28.831  1.00  0.00     0.198 A 
ATOM     72  C   UNL A   1      40.550  28.560  27.733  1.00  0.00     0.198 A 
ATOM     73  F   UNL A   1      41.098  30.505  28.939  1.00  0.00    -0.203 F 
ATOM     74  F   UNL A   1      38.944  25.495  28.805  1.00  0.00    -0.200 F 
ATOM     75  C   UNL A   1      40.010  27.284  27.692  1.00  0.00     0.200 A 
ATOM     76  F   UNL A   1      41.091  29.094  26.630  1.00  0.00    -0.200 F 
ATOM     77  F   UNL A   1      40.054  26.572  26.556  1.00  0.00    -0.200 F 
ENDBRANCH  43  67
BRANCH  55  78
ATOM     78  C   UNL A   1      44.394  28.801  35.470  1.00  0.00     0.064 A 
ATOM     79  C   UNL A   1      45.669  29.247  35.092  1.00  0.00     0.173 A 
ATOM     80  C   UNL A   1      44.305  27.595  36.182  1.00  0.00     0.173 A 
ATOM     81  F   UNL A   1      45.809  30.386  34.397  1.00  0.00    -0.203 F 
ATOM     82  C   UNL A   1      46.805  28.499  35.390  1.00  0.00     0.198 A 
ATOM     83  C   UNL A   1      45.446  26.868  36.509  1.00  0.00     0.198 A 
ATOM     84  F   UNL A   1      43.109  27.128  36.575  1.00  0.00    -0.203 F 
ATOM     85  F   UNL A   1      48.008  28.917  34.972  1.00  0.00    -0.200 F 
ATOM     86  C   UNL A   1      46.694  27.316  36.105  1.00  0.00     0.200 A 
ATOM     87  F   UNL A   1      45.337  25.734  37.215  1.00  0.00    -0.200 F 
ATOM     88  F   UNL A   1      47.790  26.603  36.399  1.00  0.00    -0.200 F 
ENDBRANCH  55  78
ENDBRANCH  29  30
ENDBRANCH  21  24
ENDBRANCH  19  20
ENDBRANCH  18  19
ENDBRANCH  17  18
ENDBRANCH  16  17
ENDBRANCH   1  16
TORSDOF 17
ENDMDL
