MODEL 1
REMARK VINA RESULT:     -12.1      0.000      0.000
REMARK SMILES CCOc1ccc(C2=C[C@@H](C(=O)NCCCCCCNC(=O)c3ccc(-c4c5nc(c(-c6c(F)c(F)c(F)c(F)c6F)c6ccc([nH]6)c(-c6c(F)c(F)c(F)c(F)c6F)c6nc(c(-c7c(F)c(F)c(F)c(F)c7F)c7ccc4[nH]7)C=C6)C=C5)cc3)N=N2)cc1
REMARK SMILES IDX 16 1 15 2 14 3 13 4 11 5 12 6 10 8 8 9 9 10 87 11 86 12 7 13
REMARK SMILES IDX 4 14 5 15 89 16 6 17 88 18 3 19 2 20 1 21 17 22 18 23 19 24
REMARK SMILES IDX 20 25 21 26 22 28 23 29 24 30 85 31 25 32 84 33 26 34 27 35
REMARK SMILES IDX 28 36 78 37 29 38 83 39 77 40 79 41 30 42 82 43 76 44 75 45
REMARK SMILES IDX 31 47 63 48 43 49 62 50 44 51 47 52 61 53 80 54 45 55 46 56
REMARK SMILES IDX 60 58 81 59 48 60 32 61 33 62 41 63 34 64 35 65 39 66 42 67
REMARK SMILES IDX 36 68 37 69 40 70 38 71 64 72 65 73 73 74 66 75 67 76 71 77
REMARK SMILES IDX 74 78 68 79 69 80 72 81 70 82 49 83 50 84 58 85 51 86 52 87
REMARK SMILES IDX 56 88 59 89 53 90 54 91 57 92 55 93
REMARK H PARENT 13 7 20 27 79 46 47 57
REMARK Flexibility Score: inf
ROOT
ATOM      1  C   UNL A   1      33.883  28.678  26.176  1.00  0.00     0.002 C 
ENDROOT
BRANCH   1   2
ATOM      2  C   UNL A   1      32.380  28.826  25.913  1.00  0.00     0.021 C 
BRANCH   2   3
ATOM      3  C   UNL A   1      32.021  29.320  24.512  1.00  0.00     0.116 C 
BRANCH   3   4
ATOM      4  N   UNL A   1      33.170  29.286  23.627  1.00  0.00    -0.354 N 
ATOM      5  C   UNL A   1      33.586  28.334  22.740  1.00  0.00     0.250 C 
ATOM      6  O   UNL A   1      34.658  28.538  22.163  1.00  0.00    -0.272 OA
ATOM      7  H   UNL A   1      33.746  30.083  23.674  1.00  0.00     0.163 HD
BRANCH   5   8
ATOM      8  C   UNL A   1      32.741  27.077  22.510  1.00  0.00     0.242 C 
ATOM      9  C   UNL A   1      33.483  24.995  22.845  1.00  0.00     0.091 C 
ATOM     10  C   UNL A   1      32.999  26.035  23.528  1.00  0.00     0.042 C 
ATOM     11  N   UNL A   1      33.604  25.253  21.503  1.00  0.00    -0.155 NA
ATOM     12  N   UNL A   1      33.206  26.427  21.252  1.00  0.00    -0.171 NA
BRANCH   9  13
ATOM     13  C   UNL A   1      33.828  23.709  23.445  1.00  0.00     0.002 A 
ATOM     14  C   UNL A   1      34.548  21.244  24.563  1.00  0.00     0.119 A 
ATOM     15  C   UNL A   1      33.229  21.473  24.177  1.00  0.00     0.047 A 
ATOM     16  C   UNL A   1      35.513  22.227  24.369  1.00  0.00     0.047 A 
ATOM     17  C   UNL A   1      32.865  22.709  23.630  1.00  0.00     0.014 A 
ATOM     18  C   UNL A   1      35.151  23.459  23.833  1.00  0.00     0.014 A 
BRANCH  14  19
ATOM     19  O   UNL A   1      34.892  20.000  25.012  1.00  0.00    -0.494 OA
BRANCH  19  20
ATOM     20  C   UNL A   1      33.999  18.970  24.572  1.00  0.00     0.226 C 
ATOM     21  C   UNL A   1      34.721  17.663  24.278  1.00  0.00     0.049 C 
ENDBRANCH  19  20
ENDBRANCH  14  19
ENDBRANCH   9  13
ENDBRANCH   5   8
ENDBRANCH   3   4
ENDBRANCH   2   3
ENDBRANCH   1   2
BRANCH   1  22
ATOM     22  C   UNL A   1      34.464  29.576  27.277  1.00  0.00     0.002 C 
BRANCH  22  23
ATOM     23  C   UNL A   1      33.654  30.830  27.633  1.00  0.00     0.021 C 
BRANCH  23  24
ATOM     24  C   UNL A   1      34.499  32.065  27.907  1.00  0.00     0.116 C 
BRANCH  24  25
ATOM     25  N   UNL A   1      34.464  32.468  29.309  1.00  0.00    -0.352 N 
ATOM     26  C   UNL A   1      35.222  31.979  30.350  1.00  0.00     0.251 C 
ATOM     27  H   UNL A   1      33.820  33.175  29.540  1.00  0.00     0.163 HD
ATOM     28  O   UNL A   1      34.850  32.103  31.517  1.00  0.00    -0.269 OA
BRANCH  26  29
ATOM     29  C   UNL A   1      36.489  31.296  30.050  1.00  0.00     0.039 A 
ATOM     30  C   UNL A   1      37.634  32.025  29.719  1.00  0.00     0.014 A 
ATOM     31  C   UNL A   1      36.528  29.906  30.135  1.00  0.00     0.014 A 
ATOM     32  C   UNL A   1      38.839  31.347  29.565  1.00  0.00     0.010 A 
ATOM     33  C   UNL A   1      37.738  29.253  30.111  1.00  0.00     0.010 A 
ATOM     34  C   UNL A   1      38.892  29.961  29.794  1.00  0.00    -0.014 A 
BRANCH  34  35
ATOM     35  C   UNL A   1      40.187  29.285  29.868  1.00  0.00     0.031 A 
ATOM     36  C   UNL A   1      40.695  29.128  31.259  1.00  0.00     0.074 A 
ATOM     37  C   UNL A   1      40.772  28.661  28.822  1.00  0.00     0.049 A 
ATOM     38  N   UNL A   1      41.738  29.681  31.780  1.00  0.00    -0.248 NA
ATOM     39  C   UNL A   1      39.876  28.380  32.229  1.00  0.00     0.031 C 
ATOM     40  C   UNL A   1      40.202  28.456  27.485  1.00  0.00     0.029 A 
ATOM     41  N   UNL A   1      41.953  27.971  28.752  1.00  0.00    -0.354 N 
ATOM     42  C   UNL A   1      41.842  29.157  33.067  1.00  0.00     0.074 A 
ATOM     43  C   UNL A   1      40.578  28.540  33.355  1.00  0.00     0.031 C 
ATOM     44  C   UNL A   1      40.900  27.501  26.833  1.00  0.00     0.029 A 
ATOM     45  C   UNL A   1      42.070  27.166  27.621  1.00  0.00     0.049 A 
ATOM     46  H   UNL A   1      42.654  28.038  29.438  1.00  0.00     0.167 HD
ATOM     47  C   UNL A   1      43.073  28.991  33.627  1.00  0.00     0.037 A 
ATOM     48  C   UNL A   1      43.054  26.279  27.339  1.00  0.00     0.037 A 
ATOM     49  C   UNL A   1      44.063  29.734  32.888  1.00  0.00     0.049 A 
ATOM     50  C   UNL A   1      44.242  26.654  28.135  1.00  0.00     0.074 A 
ATOM     51  C   UNL A   1      44.463  31.045  32.764  1.00  0.00     0.029 A 
ATOM     52  N   UNL A   1      44.544  29.056  31.804  1.00  0.00    -0.354 N 
ATOM     53  N   UNL A   1      44.923  27.748  27.936  1.00  0.00    -0.248 NA
ATOM     54  C   UNL A   1      44.506  25.971  29.398  1.00  0.00     0.031 C 
ATOM     55  C   UNL A   1      45.114  31.148  31.496  1.00  0.00     0.029 A 
ATOM     56  C   UNL A   1      45.131  29.892  30.898  1.00  0.00     0.049 A 
ATOM     57  H   UNL A   1      44.476  28.080  31.689  1.00  0.00     0.167 HD
ATOM     58  C   UNL A   1      45.342  28.113  29.197  1.00  0.00     0.074 A 
ATOM     59  C   UNL A   1      45.232  26.909  30.010  1.00  0.00     0.031 C 
ATOM     60  C   UNL A   1      45.390  29.427  29.555  1.00  0.00     0.037 A 
BRANCH  47  61
ATOM     61  C   UNL A   1      43.503  27.783  34.447  1.00  0.00     0.064 A 
ATOM     62  C   UNL A   1      43.523  26.516  33.818  1.00  0.00     0.173 A 
ATOM     63  C   UNL A   1      43.550  27.749  35.858  1.00  0.00     0.173 A 
ATOM     64  F   UNL A   1      43.475  26.416  32.481  1.00  0.00    -0.203 F 
ATOM     65  C   UNL A   1      43.492  25.322  34.546  1.00  0.00     0.198 A 
ATOM     66  C   UNL A   1      43.568  26.555  36.579  1.00  0.00     0.198 A 
ATOM     67  F   UNL A   1      43.467  28.853  36.606  1.00  0.00    -0.203 F 
ATOM     68  F   UNL A   1      43.379  24.152  33.903  1.00  0.00    -0.200 F 
ATOM     69  C   UNL A   1      43.504  25.342  35.927  1.00  0.00     0.200 A 
ATOM     70  F   UNL A   1      43.556  26.597  37.920  1.00  0.00    -0.200 F 
ATOM     71  F   UNL A   1      43.407  24.207  36.630  1.00  0.00    -0.200 F 
ENDBRANCH  47  61
BRANCH  48  72
ATOM     72  C   UNL A   1      42.997  25.020  26.562  1.00  0.00     0.064 A 
ATOM     73  C   UNL A   1      43.794  24.834  25.420  1.00  0.00     0.173 A 
ATOM     74  C   UNL A   1      42.382  23.870  27.091  1.00  0.00     0.173 A 
ATOM     75  F   UNL A   1      44.440  25.873  24.871  1.00  0.00    -0.203 F 
ATOM     76  C   UNL A   1      44.003  23.565  24.870  1.00  0.00     0.198 A 
ATOM     77  C   UNL A   1      42.587  22.605  26.538  1.00  0.00     0.198 A 
ATOM     78  F   UNL A   1      41.653  23.939  28.215  1.00  0.00    -0.203 F 
ATOM     79  F   UNL A   1      44.831  23.418  23.826  1.00  0.00    -0.200 F 
ATOM     80  C   UNL A   1      43.412  22.450  25.440  1.00  0.00     0.200 A 
ATOM     81  F   UNL A   1      42.037  21.529  27.119  1.00  0.00    -0.200 F 
ATOM     82  F   UNL A   1      43.672  21.226  24.961  1.00  0.00    -0.200 F 
ENDBRANCH  48  72
BRANCH  60  83
ATOM     83  C   UNL A   1      45.565  30.435  28.466  1.00  0.00     0.064 A 
ATOM     84  C   UNL A   1      44.515  31.065  27.781  1.00  0.00     0.173 A 
ATOM     85  C   UNL A   1      46.874  30.818  28.147  1.00  0.00     0.173 A 
ATOM     86  F   UNL A   1      43.236  30.802  28.084  1.00  0.00    -0.203 F 
ATOM     87  C   UNL A   1      44.773  32.011  26.790  1.00  0.00     0.198 A 
ATOM     88  C   UNL A   1      47.127  31.788  27.184  1.00  0.00     0.198 A 
ATOM     89  F   UNL A   1      47.913  30.269  28.796  1.00  0.00    -0.203 F 
ATOM     90  F   UNL A   1      43.757  32.586  26.130  1.00  0.00    -0.200 F 
ATOM     91  C   UNL A   1      46.078  32.375  26.498  1.00  0.00     0.200 A 
ATOM     92  F   UNL A   1      48.390  32.162  26.935  1.00  0.00    -0.200 F 
ATOM     93  F   UNL A   1      46.325  33.307  25.566  1.00  0.00    -0.200 F 
ENDBRANCH  60  83
ENDBRANCH  34  35
ENDBRANCH  26  29
ENDBRANCH  24  25
ENDBRANCH  23  24
ENDBRANCH  22  23
ENDBRANCH   1  22
TORSDOF 16
ENDMDL
MODEL 2
REMARK VINA RESULT:     -11.7      1.860      6.961
REMARK SMILES CCOc1ccc(C2=C[C@@H](C(=O)NCCCCCCNC(=O)c3ccc(-c4c5nc(c(-c6c(F)c(F)c(F)c(F)c6F)c6ccc([nH]6)c(-c6c(F)c(F)c(F)c(F)c6F)c6nc(c(-c7c(F)c(F)c(F)c(F)c7F)c7ccc4[nH]7)C=C6)C=C5)cc3)N=N2)cc1
REMARK SMILES IDX 16 1 15 2 14 3 13 4 11 5 12 6 10 8 8 9 9 10 87 11 86 12 7 13
REMARK SMILES IDX 4 14 5 15 89 16 6 17 88 18 3 19 2 20 1 21 17 22 18 23 19 24
REMARK SMILES IDX 20 25 21 26 22 28 23 29 24 30 85 31 25 32 84 33 26 34 27 35
REMARK SMILES IDX 28 36 78 37 29 38 83 39 77 40 79 41 30 42 82 43 76 44 75 45
REMARK SMILES IDX 31 47 63 48 43 49 62 50 44 51 47 52 61 53 80 54 45 55 46 56
REMARK SMILES IDX 60 58 81 59 48 60 32 61 33 62 41 63 34 64 35 65 39 66 42 67
REMARK SMILES IDX 36 68 37 69 40 70 38 71 64 72 65 73 73 74 66 75 67 76 71 77
REMARK SMILES IDX 74 78 68 79 69 80 72 81 70 82 49 83 50 84 58 85 51 86 52 87
REMARK SMILES IDX 56 88 59 89 53 90 54 91 57 92 55 93
REMARK H PARENT 13 7 20 27 79 46 47 57
REMARK Flexibility Score: inf
ROOT
ATOM      1  C   UNL A   1      31.317  29.192  26.079  1.00  0.00     0.002 C 
ENDROOT
BRANCH   1   2
ATOM      2  C   UNL A   1      31.557  28.122  25.007  1.00  0.00     0.021 C 
BRANCH   2   3
ATOM      3  C   UNL A   1      31.540  28.641  23.570  1.00  0.00     0.116 C 
BRANCH   3   4
ATOM      4  N   UNL A   1      32.827  28.460  22.926  1.00  0.00    -0.354 N 
ATOM      5  C   UNL A   1      33.314  27.425  22.180  1.00  0.00     0.250 C 
ATOM      6  O   UNL A   1      34.489  27.505  21.810  1.00  0.00    -0.272 OA
ATOM      7  H   UNL A   1      33.455  29.209  23.046  1.00  0.00     0.163 HD
BRANCH   5   8
ATOM      8  C   UNL A   1      32.416  26.228  21.848  1.00  0.00     0.242 C 
ATOM      9  C   UNL A   1      32.941  24.106  22.315  1.00  0.00     0.091 C 
ATOM     10  C   UNL A   1      32.447  25.195  22.907  1.00  0.00     0.042 C 
ATOM     11  N   UNL A   1      33.271  24.321  21.002  1.00  0.00    -0.155 NA
ATOM     12  N   UNL A   1      33.004  25.514  20.679  1.00  0.00    -0.171 NA
BRANCH   9  13
ATOM     13  C   UNL A   1      33.098  22.813  22.977  1.00  0.00     0.002 A 
ATOM     14  C   UNL A   1      33.333  20.329  24.249  1.00  0.00     0.119 A 
ATOM     15  C   UNL A   1      34.234  21.349  24.546  1.00  0.00     0.047 A 
ATOM     16  C   UNL A   1      32.301  20.550  23.342  1.00  0.00     0.047 A 
ATOM     17  C   UNL A   1      34.126  22.587  23.902  1.00  0.00     0.014 A 
ATOM     18  C   UNL A   1      32.197  21.778  22.695  1.00  0.00     0.014 A 
BRANCH  14  19
ATOM     19  O   UNL A   1      33.408  19.162  24.956  1.00  0.00    -0.494 OA
BRANCH  19  20
ATOM     20  C   UNL A   1      34.391  18.251  24.447  1.00  0.00     0.226 C 
ATOM     21  C   UNL A   1      33.836  16.849  24.253  1.00  0.00     0.049 C 
ENDBRANCH  19  20
ENDBRANCH  14  19
ENDBRANCH   9  13
ENDBRANCH   5   8
ENDBRANCH   3   4
ENDBRANCH   2   3
ENDBRANCH   1   2
BRANCH   1  22
ATOM     22  C   UNL A   1      32.294  29.189  27.263  1.00  0.00     0.002 C 
BRANCH  22  23
ATOM     23  C   UNL A   1      33.532  28.293  27.124  1.00  0.00     0.021 C 
BRANCH  23  24
ATOM     24  C   UNL A   1      34.845  29.054  27.008  1.00  0.00     0.116 C 
BRANCH  24  25
ATOM     25  N   UNL A   1      34.986  30.084  28.033  1.00  0.00    -0.352 N 
ATOM     26  C   UNL A   1      35.976  30.205  28.981  1.00  0.00     0.251 C 
ATOM     27  H   UNL A   1      34.288  30.778  28.048  1.00  0.00     0.163 HD
ATOM     28  O   UNL A   1      35.794  30.858  30.008  1.00  0.00    -0.269 OA
BRANCH  26  29
ATOM     29  C   UNL A   1      37.266  29.534  28.756  1.00  0.00     0.039 A 
ATOM     30  C   UNL A   1      38.035  29.823  27.627  1.00  0.00     0.014 A 
ATOM     31  C   UNL A   1      37.714  28.625  29.713  1.00  0.00     0.014 A 
ATOM     32  C   UNL A   1      39.302  29.259  27.516  1.00  0.00     0.010 A 
ATOM     33  C   UNL A   1      39.012  28.172  29.669  1.00  0.00     0.010 A 
ATOM     34  C   UNL A   1      39.799  28.456  28.558  1.00  0.00    -0.014 A 
BRANCH  34  35
ATOM     35  C   UNL A   1      41.207  28.058  28.561  1.00  0.00     0.031 A 
ATOM     36  C   UNL A   1      41.476  26.823  27.775  1.00  0.00     0.074 A 
ATOM     37  C   UNL A   1      42.209  28.835  29.030  1.00  0.00     0.049 A 
ATOM     38  N   UNL A   1      41.873  25.680  28.223  1.00  0.00    -0.248 NA
ATOM     39  C   UNL A   1      41.133  26.808  26.343  1.00  0.00     0.031 C 
ATOM     40  C   UNL A   1      42.101  30.216  29.515  1.00  0.00     0.029 A 
ATOM     41  N   UNL A   1      43.558  28.609  29.071  1.00  0.00    -0.354 N 
ATOM     42  C   UNL A   1      42.064  24.877  27.100  1.00  0.00     0.074 A 
ATOM     43  C   UNL A   1      41.403  25.542  26.012  1.00  0.00     0.031 C 
ATOM     44  C   UNL A   1      43.327  30.782  29.557  1.00  0.00     0.029 A 
ATOM     45  C   UNL A   1      44.317  29.756  29.290  1.00  0.00     0.049 A 
ATOM     46  H   UNL A   1      43.956  27.717  28.956  1.00  0.00     0.167 HD
ATOM     47  C   UNL A   1      43.036  23.922  27.114  1.00  0.00     0.037 A 
ATOM     48  C   UNL A   1      45.666  29.872  29.255  1.00  0.00     0.037 A 
ATOM     49  C   UNL A   1      43.479  23.680  28.464  1.00  0.00     0.049 A 
ATOM     50  C   UNL A   1      46.240  28.526  29.466  1.00  0.00     0.074 A 
ATOM     51  C   UNL A   1      43.021  23.013  29.578  1.00  0.00     0.029 A 
ATOM     52  N   UNL A   1      44.439  24.560  28.881  1.00  0.00    -0.354 N 
ATOM     53  N   UNL A   1      46.144  27.873  30.591  1.00  0.00    -0.248 NA
ATOM     54  C   UNL A   1      46.656  27.733  28.314  1.00  0.00     0.031 C 
ATOM     55  C   UNL A   1      43.670  23.614  30.700  1.00  0.00     0.029 A 
ATOM     56  C   UNL A   1      44.537  24.600  30.242  1.00  0.00     0.049 A 
ATOM     57  H   UNL A   1      44.993  25.100  28.272  1.00  0.00     0.167 HD
ATOM     58  C   UNL A   1      46.048  26.555  30.203  1.00  0.00     0.074 A 
ATOM     59  C   UNL A   1      46.558  26.510  28.840  1.00  0.00     0.031 C 
ATOM     60  C   UNL A   1      45.236  25.693  30.878  1.00  0.00     0.037 A 
BRANCH  47  61
ATOM     61  C   UNL A   1      43.970  23.611  25.953  1.00  0.00     0.064 A 
ATOM     62  C   UNL A   1      44.044  22.277  25.488  1.00  0.00     0.173 A 
ATOM     63  C   UNL A   1      45.021  24.451  25.524  1.00  0.00     0.173 A 
ATOM     64  F   UNL A   1      43.107  21.380  25.834  1.00  0.00    -0.203 F 
ATOM     65  C   UNL A   1      45.131  21.807  24.743  1.00  0.00     0.198 A 
ATOM     66  C   UNL A   1      46.078  23.989  24.740  1.00  0.00     0.198 A 
ATOM     67  F   UNL A   1      45.138  25.718  25.931  1.00  0.00    -0.203 F 
ATOM     68  F   UNL A   1      45.217  20.504  24.440  1.00  0.00    -0.200 F 
ATOM     69  C   UNL A   1      46.152  22.661  24.378  1.00  0.00     0.200 A 
ATOM     70  F   UNL A   1      47.072  24.829  24.415  1.00  0.00    -0.200 F 
ATOM     71  F   UNL A   1      47.226  22.203  23.722  1.00  0.00    -0.200 F 
ENDBRANCH  47  61
BRANCH  48  72
ATOM     72  C   UNL A   1      46.506  31.032  28.879  1.00  0.00     0.064 A 
ATOM     73  C   UNL A   1      46.523  31.519  27.561  1.00  0.00     0.173 A 
ATOM     74  C   UNL A   1      47.074  31.863  29.863  1.00  0.00     0.173 A 
ATOM     75  F   UNL A   1      45.975  30.803  26.570  1.00  0.00    -0.203 F 
ATOM     76  C   UNL A   1      47.036  32.784  27.253  1.00  0.00     0.198 A 
ATOM     77  C   UNL A   1      47.590  33.122  29.554  1.00  0.00     0.198 A 
ATOM     78  F   UNL A   1      47.047  31.510  31.157  1.00  0.00    -0.203 F 
ATOM     79  F   UNL A   1      46.966  33.245  25.997  1.00  0.00    -0.200 F 
ATOM     80  C   UNL A   1      47.553  33.591  28.253  1.00  0.00     0.200 A 
ATOM     81  F   UNL A   1      48.057  33.908  30.534  1.00  0.00    -0.200 F 
ATOM     82  F   UNL A   1      47.974  34.831  27.972  1.00  0.00    -0.200 F 
ENDBRANCH  48  72
BRANCH  60  83
ATOM     83  C   UNL A   1      44.938  26.000  32.309  1.00  0.00     0.064 A 
ATOM     84  C   UNL A   1      43.839  26.748  32.757  1.00  0.00     0.173 A 
ATOM     85  C   UNL A   1      45.790  25.452  33.277  1.00  0.00     0.173 A 
ATOM     86  F   UNL A   1      42.941  27.243  31.894  1.00  0.00    -0.203 F 
ATOM     87  C   UNL A   1      43.629  26.968  34.118  1.00  0.00     0.198 A 
ATOM     88  C   UNL A   1      45.559  25.641  34.634  1.00  0.00     0.198 A 
ATOM     89  F   UNL A   1      46.838  24.700  32.902  1.00  0.00    -0.203 F 
ATOM     90  F   UNL A   1      42.586  27.705  34.526  1.00  0.00    -0.200 F 
ATOM     91  C   UNL A   1      44.486  26.409  35.054  1.00  0.00     0.200 A 
ATOM     92  F   UNL A   1      46.369  25.065  35.532  1.00  0.00    -0.200 F 
ATOM     93  F   UNL A   1      44.267  26.595  36.363  1.00  0.00    -0.200 F 
ENDBRANCH  60  83
ENDBRANCH  34  35
ENDBRANCH  26  29
ENDBRANCH  24  25
ENDBRANCH  23  24
ENDBRANCH  22  23
ENDBRANCH   1  22
TORSDOF 16
ENDMDL
MODEL 3
REMARK VINA RESULT:     -11.6      6.264     12.614
REMARK SMILES CCOc1ccc(C2=C[C@@H](C(=O)NCCCCCCNC(=O)c3ccc(-c4c5nc(c(-c6c(F)c(F)c(F)c(F)c6F)c6ccc([nH]6)c(-c6c(F)c(F)c(F)c(F)c6F)c6nc(c(-c7c(F)c(F)c(F)c(F)c7F)c7ccc4[nH]7)C=C6)C=C5)cc3)N=N2)cc1
REMARK SMILES IDX 16 1 15 2 14 3 13 4 11 5 12 6 10 8 8 9 9 10 87 11 86 12 7 13
REMARK SMILES IDX 4 14 5 15 89 16 6 17 88 18 3 19 2 20 1 21 17 22 18 23 19 24
REMARK SMILES IDX 20 25 21 26 22 28 23 29 24 30 85 31 25 32 84 33 26 34 27 35
REMARK SMILES IDX 28 36 78 37 29 38 83 39 77 40 79 41 30 42 82 43 76 44 75 45
REMARK SMILES IDX 31 47 63 48 43 49 62 50 44 51 47 52 61 53 80 54 45 55 46 56
REMARK SMILES IDX 60 58 81 59 48 60 32 61 33 62 41 63 34 64 35 65 39 66 42 67
REMARK SMILES IDX 36 68 37 69 40 70 38 71 64 72 65 73 73 74 66 75 67 76 71 77
REMARK SMILES IDX 74 78 68 79 69 80 72 81 70 82 49 83 50 84 58 85 51 86 52 87
REMARK SMILES IDX 56 88 59 89 53 90 54 91 57 92 55 93
REMARK H PARENT 13 7 20 27 79 46 47 57
REMARK Flexibility Score: inf
ROOT
ATOM      1  C   UNL A   1      48.366  20.488  34.861  1.00  0.00     0.002 C 
ENDROOT
BRANCH   1   2
ATOM      2  C   UNL A   1      48.935  21.565  35.793  1.00  0.00     0.021 C 
BRANCH   2   3
ATOM      3  C   UNL A   1      49.128  21.120  37.242  1.00  0.00     0.116 C 
BRANCH   3   4
ATOM      4  N   UNL A   1      47.970  21.442  38.054  1.00  0.00    -0.354 N 
ATOM      5  C   UNL A   1      47.013  20.637  38.603  1.00  0.00     0.250 C 
ATOM      6  O   UNL A   1      46.086  21.195  39.196  1.00  0.00    -0.272 OA
ATOM      7  H   UNL A   1      47.855  22.402  38.241  1.00  0.00     0.163 HD
BRANCH   5   8
ATOM      8  C   UNL A   1      47.113  19.115  38.456  1.00  0.00     0.242 C 
ATOM      9  C   UNL A   1      45.865  17.665  39.611  1.00  0.00     0.091 C 
ATOM     10  C   UNL A   1      45.791  18.456  38.539  1.00  0.00     0.042 C 
ATOM     11  N   UNL A   1      47.071  17.758  40.257  1.00  0.00    -0.155 NA
ATOM     12  N   UNL A   1      47.822  18.577  39.652  1.00  0.00    -0.171 NA
BRANCH   9  13
ATOM     13  C   UNL A   1      44.794  16.772  40.046  1.00  0.00     0.002 A 
ATOM     14  C   UNL A   1      42.704  15.077  40.827  1.00  0.00     0.119 A 
ATOM     15  C   UNL A   1      43.409  15.799  41.788  1.00  0.00     0.047 A 
ATOM     16  C   UNL A   1      43.019  15.217  39.479  1.00  0.00     0.047 A 
ATOM     17  C   UNL A   1      44.462  16.637  41.401  1.00  0.00     0.014 A 
ATOM     18  C   UNL A   1      44.070  16.043  39.093  1.00  0.00     0.014 A 
BRANCH  14  19
ATOM     19  O   UNL A   1      41.627  14.337  41.225  1.00  0.00    -0.494 OA
BRANCH  19  20
ATOM     20  C   UNL A   1      41.944  13.366  42.229  1.00  0.00     0.226 C 
ATOM     21  C   UNL A   1      40.877  12.289  42.352  1.00  0.00     0.049 C 
ENDBRANCH  19  20
ENDBRANCH  14  19
ENDBRANCH   9  13
ENDBRANCH   5   8
ENDBRANCH   3   4
ENDBRANCH   2   3
ENDBRANCH   1   2
BRANCH   1  22
ATOM     22  C   UNL A   1      46.946  20.737  34.334  1.00  0.00     0.002 C 
BRANCH  22  23
ATOM     23  C   UNL A   1      45.795  20.419  35.297  1.00  0.00     0.021 C 
BRANCH  23  24
ATOM     24  C   UNL A   1      44.782  21.544  35.455  1.00  0.00     0.116 C 
BRANCH  24  25
ATOM     25  N   UNL A   1      45.183  22.520  36.463  1.00  0.00    -0.352 N 
ATOM     26  C   UNL A   1      45.871  23.698  36.274  1.00  0.00     0.251 C 
ATOM     27  H   UNL A   1      44.932  22.312  37.392  1.00  0.00     0.163 HD
ATOM     28  O   UNL A   1      46.481  24.231  37.201  1.00  0.00    -0.269 OA
BRANCH  26  29
ATOM     29  C   UNL A   1      45.875  24.316  34.939  1.00  0.00     0.039 A 
ATOM     30  C   UNL A   1      47.041  24.347  34.169  1.00  0.00     0.014 A 
ATOM     31  C   UNL A   1      44.681  24.841  34.450  1.00  0.00     0.014 A 
ATOM     32  C   UNL A   1      46.970  24.829  32.866  1.00  0.00     0.010 A 
ATOM     33  C   UNL A   1      44.583  25.194  33.124  1.00  0.00     0.010 A 
ATOM     34  C   UNL A   1      45.729  25.223  32.336  1.00  0.00    -0.014 A 
BRANCH  34  35
ATOM     35  C   UNL A   1      45.604  25.502  30.906  1.00  0.00     0.031 A 
ATOM     36  C   UNL A   1      46.584  26.506  30.409  1.00  0.00     0.074 A 
ATOM     37  C   UNL A   1      44.841  24.774  30.060  1.00  0.00     0.049 A 
ATOM     38  N   UNL A   1      46.332  27.687  29.951  1.00  0.00    -0.248 NA
ATOM     39  C   UNL A   1      48.022  26.228  30.566  1.00  0.00     0.031 C 
ATOM     40  C   UNL A   1      44.098  23.548  30.375  1.00  0.00     0.029 A 
ATOM     41  N   UNL A   1      44.652  24.898  28.710  1.00  0.00    -0.354 N 
ATOM     42  C   UNL A   1      47.559  28.201  29.535  1.00  0.00     0.074 A 
ATOM     43  C   UNL A   1      48.567  27.363  30.121  1.00  0.00     0.031 C 
ATOM     44  C   UNL A   1      43.759  22.913  29.233  1.00  0.00     0.029 A 
ATOM     45  C   UNL A   1      44.088  23.773  28.112  1.00  0.00     0.049 A 
ATOM     46  H   UNL A   1      44.892  25.709  28.208  1.00  0.00     0.167 HD
ATOM     47  C   UNL A   1      47.604  29.057  28.476  1.00  0.00     0.037 A 
ATOM     48  C   UNL A   1      43.900  23.549  26.790  1.00  0.00     0.037 A 
ATOM     49  C   UNL A   1      46.286  29.559  28.183  1.00  0.00     0.049 A 
ATOM     50  C   UNL A   1      43.895  24.860  26.106  1.00  0.00     0.074 A 
ATOM     51  C   UNL A   1      45.416  30.490  28.703  1.00  0.00     0.029 A 
ATOM     52  N   UNL A   1      45.557  28.723  27.383  1.00  0.00    -0.354 N 
ATOM     53  N   UNL A   1      42.959  25.752  26.272  1.00  0.00    -0.248 NA
ATOM     54  C   UNL A   1      45.115  25.342  25.466  1.00  0.00     0.031 C 
ATOM     55  C   UNL A   1      44.110  30.107  28.268  1.00  0.00     0.029 A 
ATOM     56  C   UNL A   1      44.218  28.979  27.461  1.00  0.00     0.049 A 
ATOM     57  H   UNL A   1      45.951  28.019  26.818  1.00  0.00     0.167 HD
ATOM     58  C   UNL A   1      43.624  26.954  26.176  1.00  0.00     0.074 A 
ATOM     59  C   UNL A   1      44.877  26.655  25.497  1.00  0.00     0.031 C 
ATOM     60  C   UNL A   1      43.272  28.005  26.970  1.00  0.00     0.037 A 
BRANCH  47  61
ATOM     61  C   UNL A   1      48.656  29.029  27.375  1.00  0.00     0.064 A 
ATOM     62  C   UNL A   1      48.820  27.836  26.633  1.00  0.00     0.173 A 
ATOM     63  C   UNL A   1      49.713  29.957  27.255  1.00  0.00     0.173 A 
ATOM     64  F   UNL A   1      47.887  26.873  26.671  1.00  0.00    -0.203 F 
ATOM     65  C   UNL A   1      49.989  27.561  25.914  1.00  0.00     0.198 A 
ATOM     66  C   UNL A   1      50.857  29.698  26.499  1.00  0.00     0.198 A 
ATOM     67  F   UNL A   1      49.747  31.100  27.946  1.00  0.00    -0.203 F 
ATOM     68  F   UNL A   1      50.150  26.362  25.337  1.00  0.00    -0.200 F 
ATOM     69  C   UNL A   1      51.010  28.488  25.856  1.00  0.00     0.200 A 
ATOM     70  F   UNL A   1      51.847  30.601  26.474  1.00  0.00    -0.200 F 
ATOM     71  F   UNL A   1      52.158  28.204  25.227  1.00  0.00    -0.200 F 
ENDBRANCH  47  61
BRANCH  48  72
ATOM     72  C   UNL A   1      43.897  22.273  26.039  1.00  0.00     0.064 A 
ATOM     73  C   UNL A   1      45.093  21.702  25.573  1.00  0.00     0.173 A 
ATOM     74  C   UNL A   1      42.759  21.446  26.023  1.00  0.00     0.173 A 
ATOM     75  F   UNL A   1      46.230  22.413  25.584  1.00  0.00    -0.203 F 
ATOM     76  C   UNL A   1      45.157  20.367  25.161  1.00  0.00     0.198 A 
ATOM     77  C   UNL A   1      42.822  20.115  25.607  1.00  0.00     0.198 A 
ATOM     78  F   UNL A   1      41.587  21.884  26.507  1.00  0.00    -0.203 F 
ATOM     79  F   UNL A   1      46.332  19.836  24.795  1.00  0.00    -0.200 F 
ATOM     80  C   UNL A   1      44.024  19.570  25.194  1.00  0.00     0.200 A 
ATOM     81  F   UNL A   1      41.727  19.344  25.676  1.00  0.00    -0.200 F 
ATOM     82  F   UNL A   1      44.100  18.271  24.873  1.00  0.00    -0.200 F 
ENDBRANCH  48  72
BRANCH  60  83
ATOM     83  C   UNL A   1      41.868  28.048  27.476  1.00  0.00     0.064 A 
ATOM     84  C   UNL A   1      41.427  27.460  28.672  1.00  0.00     0.173 A 
ATOM     85  C   UNL A   1      40.935  28.779  26.728  1.00  0.00     0.173 A 
ATOM     86  F   UNL A   1      42.278  26.808  29.475  1.00  0.00    -0.203 F 
ATOM     87  C   UNL A   1      40.097  27.570  29.076  1.00  0.00     0.198 A 
ATOM     88  C   UNL A   1      39.619  28.918  27.152  1.00  0.00     0.198 A 
ATOM     89  F   UNL A   1      41.313  29.389  25.594  1.00  0.00    -0.203 F 
ATOM     90  F   UNL A   1      39.690  26.981  30.210  1.00  0.00    -0.200 F 
ATOM     91  C   UNL A   1      39.197  28.304  28.319  1.00  0.00     0.200 A 
ATOM     92  F   UNL A   1      38.765  29.661  26.435  1.00  0.00    -0.200 F 
ATOM     93  F   UNL A   1      37.926  28.434  28.723  1.00  0.00    -0.200 F 
ENDBRANCH  60  83
ENDBRANCH  34  35
ENDBRANCH  26  29
ENDBRANCH  24  25
ENDBRANCH  23  24
ENDBRANCH  22  23
ENDBRANCH   1  22
TORSDOF 16
ENDMDL
