MODEL 1
REMARK VINA RESULT:     -12.6      0.000      0.000
REMARK SMILES Cn1c(SCC(=O)Nc2cccc(C(=O)NCCCCCCNC(=O)c3ccc(-c4c5nc(c(-c6c(F)c(F)c(F)c(F)c6F)c6ccc([nH]6)c(-c6c(F)c(F)c(F)c(F)c6F)c6nc(c(-c7c(F)c(F)c(F)c(F)c7F)c7ccc4[nH]7)C=C6)C=C5)cc3)c2)nnc1[C@@H]1CCCN1C(=O)c1ccccc1Cl
REMARK SMILES IDX 17 1 16 2 14 3 15 4 13 6 9 7 10 8 89 9 11 10 12 11 8 12 6 13
REMARK SMILES IDX 7 14 5 16 4 17 3 18 1 19 2 20 92 21 90 22 91 23 93 24 94 25
REMARK SMILES IDX 97 26 95 27 96 28 98 29 99 30 100 31 101 32 105 33 102 34
REMARK SMILES IDX 104 35 106 36 103 37 18 38 19 39 20 40 21 41 22 42 23 43
REMARK SMILES IDX 24 44 25 46 26 47 27 48 88 49 28 50 87 51 29 52 30 53 31 54
REMARK SMILES IDX 81 55 32 56 86 57 80 58 82 59 33 60 85 61 79 62 78 63 34 65
REMARK SMILES IDX 66 66 46 67 65 68 47 69 50 70 64 71 83 72 48 73 49 74 63 76
REMARK SMILES IDX 84 77 51 78 35 79 36 80 44 81 37 82 38 83 42 84 45 85 39 86
REMARK SMILES IDX 40 87 43 88 41 89 67 90 68 91 76 92 69 93 70 94 74 95 77 96
REMARK SMILES IDX 71 97 72 98 75 99 73 100 52 101 53 102 61 103 54 104 55 105
REMARK SMILES IDX 59 106 62 107 56 108 57 109 60 110 58 111
REMARK H PARENT 16 5 8 15 23 45 82 64 50 75
REMARK Flexibility Score: inf
ROOT
ATOM      1  C   UNL A   1      40.131  23.175  26.180  1.00  0.00     0.116 C 
ENDROOT
BRANCH   1   2
ATOM      2  N   UNL A   1      38.795  23.740  26.117  1.00  0.00    -0.352 N 
ATOM      3  C   UNL A   1      37.531  23.268  25.873  1.00  0.00     0.251 C 
ATOM      4  O   UNL A   1      36.636  24.107  26.037  1.00  0.00    -0.269 OA
ATOM      5  H   UNL A   1      38.797  24.708  26.296  1.00  0.00     0.163 HD
BRANCH   3   6
ATOM      6  C   UNL A   1      37.114  21.887  25.437  1.00  0.00     0.041 A 
ATOM      7  C   UNL A   1      35.607  20.019  24.977  1.00  0.00     0.041 A 
ATOM      8  C   UNL A   1      36.683  19.154  24.799  1.00  0.00     0.026 A 
ATOM      9  C   UNL A   1      35.818  21.370  25.326  1.00  0.00     0.040 A 
ATOM     10  C   UNL A   1      37.975  19.646  24.880  1.00  0.00     0.003 A 
ATOM     11  C   UNL A   1      38.183  20.994  25.187  1.00  0.00     0.014 A 
BRANCH   7  12
ATOM     12  N   UNL A   1      34.330  19.451  24.932  1.00  0.00    -0.325 N 
ATOM     13  C   UNL A   1      33.128  20.001  25.269  1.00  0.00     0.234 C 
ATOM     14  O   UNL A   1      32.126  19.277  25.244  1.00  0.00    -0.274 OA
ATOM     15  H   UNL A   1      34.293  18.522  24.611  1.00  0.00     0.169 HD
BRANCH  13  16
ATOM     16  C   UNL A   1      32.994  21.487  25.485  1.00  0.00     0.178 C 
BRANCH  16  17
ATOM     17  S   UNL A   1      31.344  22.155  25.459  1.00  0.00    -0.076 SA
BRANCH  17  18
ATOM     18  C   UNL A   1      31.417  23.700  24.700  1.00  0.00     0.191 A 
ATOM     19  C   UNL A   1      31.411  25.389  26.577  1.00  0.00     0.154 C 
ATOM     20  N   UNL A   1      31.094  24.903  25.262  1.00  0.00    -0.307 N 
ATOM     21  C   UNL A   1      30.540  25.629  24.231  1.00  0.00     0.156 A 
ATOM     22  N   UNL A   1      31.389  23.826  23.395  1.00  0.00    -0.123 NA
ATOM     23  N   UNL A   1      30.844  25.037  23.094  1.00  0.00    -0.132 NA
BRANCH  21  24
ATOM     24  C   UNL A   1      29.761  26.882  24.319  1.00  0.00     0.154 C 
ATOM     25  C   UNL A   1      28.372  26.713  23.691  1.00  0.00     0.035 C 
ATOM     26  N   UNL A   1      30.337  28.056  23.661  1.00  0.00    -0.328 N 
ATOM     27  C   UNL A   1      27.976  28.129  23.316  1.00  0.00     0.024 C 
ATOM     28  C   UNL A   1      29.297  28.791  22.951  1.00  0.00     0.120 C 
BRANCH  26  29
ATOM     29  C   UNL A   1      31.597  28.643  23.731  1.00  0.00     0.255 C 
ATOM     30  O   UNL A   1      32.226  28.962  22.724  1.00  0.00    -0.269 OA
BRANCH  29  31
ATOM     31  C   UNL A   1      32.310  28.872  24.999  1.00  0.00     0.058 A 
ATOM     32  C   UNL A   1      32.093  30.060  25.701  1.00  0.00     0.015 A 
ATOM     33  C   UNL A   1      33.417  28.079  25.334  1.00  0.00     0.053 A 
ATOM     34  C   UNL A   1      32.919  30.400  26.781  1.00  0.00     0.001 A 
ATOM     35  C   UNL A   1      34.195  28.389  26.456  1.00  0.00     0.021 A 
ATOM     36  Cl  UNL A   1      33.946  26.755  24.359  1.00  0.00    -0.083 Cl
ATOM     37  C   UNL A   1      33.940  29.544  27.186  1.00  0.00     0.002 A 
ENDBRANCH  29  31
ENDBRANCH  26  29
ENDBRANCH  21  24
ENDBRANCH  17  18
ENDBRANCH  16  17
ENDBRANCH  13  16
ENDBRANCH   7  12
ENDBRANCH   3   6
ENDBRANCH   1   2
BRANCH   1  38
ATOM     38  C   UNL A   1      40.487  22.664  27.586  1.00  0.00     0.021 C 
BRANCH  38  39
ATOM     39  C   UNL A   1      41.588  21.595  27.683  1.00  0.00     0.002 C 
BRANCH  39  40
ATOM     40  C   UNL A   1      41.246  20.156  27.274  1.00  0.00     0.002 C 
BRANCH  40  41
ATOM     41  C   UNL A   1      41.911  19.587  26.018  1.00  0.00     0.021 C 
BRANCH  41  42
ATOM     42  C   UNL A   1      43.030  18.551  26.200  1.00  0.00     0.116 C 
BRANCH  42  43
ATOM     43  N   UNL A   1      43.940  18.515  25.057  1.00  0.00    -0.352 N 
ATOM     44  C   UNL A   1      44.640  19.481  24.372  1.00  0.00     0.251 C 
ATOM     45  H   UNL A   1      44.081  17.607  24.702  1.00  0.00     0.163 HD
ATOM     46  O   UNL A   1      45.175  19.159  23.311  1.00  0.00    -0.269 OA
BRANCH  44  47
ATOM     47  C   UNL A   1      44.791  20.893  24.828  1.00  0.00     0.039 A 
ATOM     48  C   UNL A   1      44.564  21.925  23.899  1.00  0.00     0.014 A 
ATOM     49  C   UNL A   1      45.255  21.243  26.093  1.00  0.00     0.014 A 
ATOM     50  C   UNL A   1      44.751  23.277  24.244  1.00  0.00     0.010 A 
ATOM     51  C   UNL A   1      45.397  22.598  26.446  1.00  0.00     0.010 A 
ATOM     52  C   UNL A   1      45.146  23.642  25.538  1.00  0.00    -0.014 A 
BRANCH  52  53
ATOM     53  C   UNL A   1      45.305  25.079  25.950  1.00  0.00     0.031 A 
ATOM     54  C   UNL A   1      46.664  25.742  25.982  1.00  0.00     0.074 A 
ATOM     55  C   UNL A   1      44.250  25.798  26.391  1.00  0.00     0.049 A 
ATOM     56  N   UNL A   1      47.004  26.929  26.431  1.00  0.00    -0.248 NA
ATOM     57  C   UNL A   1      47.794  24.958  25.465  1.00  0.00     0.031 C 
ATOM     58  C   UNL A   1      42.878  25.313  26.481  1.00  0.00     0.029 A 
ATOM     59  N   UNL A   1      44.181  27.078  26.904  1.00  0.00    -0.354 N 
ATOM     60  C   UNL A   1      48.379  27.028  26.259  1.00  0.00     0.074 A 
ATOM     61  C   UNL A   1      48.821  25.756  25.724  1.00  0.00     0.031 C 
ATOM     62  C   UNL A   1      42.112  26.251  27.064  1.00  0.00     0.029 A 
ATOM     63  C   UNL A   1      42.939  27.405  27.396  1.00  0.00     0.049 A 
ATOM     64  H   UNL A   1      44.948  27.697  26.917  1.00  0.00     0.167 HD
ATOM     65  C   UNL A   1      49.199  28.085  26.486  1.00  0.00     0.037 A 
ATOM     66  C   UNL A   1      42.503  28.493  28.064  1.00  0.00     0.037 A 
ATOM     67  C   UNL A   1      48.777  29.378  26.961  1.00  0.00     0.049 A 
ATOM     68  C   UNL A   1      43.423  29.652  28.318  1.00  0.00     0.074 A 
ATOM     69  C   UNL A   1      49.528  30.537  27.091  1.00  0.00     0.029 A 
ATOM     70  N   UNL A   1      47.497  29.687  27.393  1.00  0.00    -0.354 N 
ATOM     71  N   UNL A   1      44.701  29.765  28.054  1.00  0.00    -0.248 NA
ATOM     72  C   UNL A   1      42.832  30.850  28.936  1.00  0.00     0.031 C 
ATOM     73  C   UNL A   1      48.715  31.532  27.645  1.00  0.00     0.029 A 
ATOM     74  C   UNL A   1      47.446  31.008  27.820  1.00  0.00     0.049 A 
ATOM     75  H   UNL A   1      46.736  29.063  27.399  1.00  0.00     0.167 HD
ATOM     76  C   UNL A   1      45.056  31.052  28.434  1.00  0.00     0.074 A 
ATOM     77  C   UNL A   1      43.863  31.683  28.955  1.00  0.00     0.031 C 
ATOM     78  C   UNL A   1      46.268  31.652  28.341  1.00  0.00     0.037 A 
BRANCH  65  79
ATOM     79  C   UNL A   1      50.663  27.899  26.200  1.00  0.00     0.064 A 
ATOM     80  C   UNL A   1      51.572  27.552  27.212  1.00  0.00     0.173 A 
ATOM     81  C   UNL A   1      51.154  28.024  24.891  1.00  0.00     0.173 A 
ATOM     82  F   UNL A   1      51.153  27.422  28.479  1.00  0.00    -0.203 F 
ATOM     83  C   UNL A   1      52.924  27.375  26.931  1.00  0.00     0.198 A 
ATOM     84  C   UNL A   1      52.503  27.816  24.610  1.00  0.00     0.198 A 
ATOM     85  F   UNL A   1      50.326  28.339  23.885  1.00  0.00    -0.203 F 
ATOM     86  F   UNL A   1      53.781  27.096  27.922  1.00  0.00    -0.200 F 
ATOM     87  C   UNL A   1      53.386  27.503  25.629  1.00  0.00     0.200 A 
ATOM     88  F   UNL A   1      52.946  27.925  23.349  1.00  0.00    -0.200 F 
ATOM     89  F   UNL A   1      54.689  27.329  25.361  1.00  0.00    -0.200 F 
ENDBRANCH  65  79
BRANCH  66  90
ATOM     90  C   UNL A   1      41.093  28.542  28.526  1.00  0.00     0.064 A 
ATOM     91  C   UNL A   1      40.745  28.148  29.825  1.00  0.00     0.173 A 
ATOM     92  C   UNL A   1      40.070  28.996  27.681  1.00  0.00     0.173 A 
ATOM     93  F   UNL A   1      41.686  27.673  30.653  1.00  0.00    -0.203 F 
ATOM     94  C   UNL A   1      39.424  28.203  30.262  1.00  0.00     0.198 A 
ATOM     95  C   UNL A   1      38.751  29.071  28.127  1.00  0.00     0.198 A 
ATOM     96  F   UNL A   1      40.350  29.360  26.421  1.00  0.00    -0.203 F 
ATOM     97  F   UNL A   1      39.112  27.786  31.496  1.00  0.00    -0.200 F 
ATOM     98  C   UNL A   1      38.430  28.672  29.417  1.00  0.00     0.200 A 
ATOM     99  F   UNL A   1      37.791  29.520  27.308  1.00  0.00    -0.200 F 
ATOM    100  F   UNL A   1      37.159  28.727  29.840  1.00  0.00    -0.200 F 
ENDBRANCH  66  90
BRANCH  78 101
ATOM    101  C   UNL A   1      46.370  33.085  28.773  1.00  0.00     0.064 A 
ATOM    102  C   UNL A   1      46.111  34.142  27.889  1.00  0.00     0.173 A 
ATOM    103  C   UNL A   1      46.702  33.406  30.098  1.00  0.00     0.173 A 
ATOM    104  F   UNL A   1      45.806  33.892  26.606  1.00  0.00    -0.203 F 
ATOM    105  C   UNL A   1      46.197  35.468  28.312  1.00  0.00     0.198 A 
ATOM    106  C   UNL A   1      46.763  34.730  30.524  1.00  0.00     0.198 A 
ATOM    107  F   UNL A   1      46.958  32.432  30.986  1.00  0.00    -0.203 F 
ATOM    108  F   UNL A   1      45.984  36.463  27.440  1.00  0.00    -0.200 F 
ATOM    109  C   UNL A   1      46.517  35.760  29.629  1.00  0.00     0.200 A 
ATOM    110  F   UNL A   1      47.063  35.010  31.800  1.00  0.00    -0.200 F 
ATOM    111  F   UNL A   1      46.594  37.035  30.036  1.00  0.00    -0.200 F 
ENDBRANCH  78 101
ENDBRANCH  52  53
ENDBRANCH  44  47
ENDBRANCH  42  43
ENDBRANCH  41  42
ENDBRANCH  40  41
ENDBRANCH  39  40
ENDBRANCH  38  39
ENDBRANCH   1  38
TORSDOF 20
ENDMDL
MODEL 2
REMARK VINA RESULT:     -12.4      3.254      9.222
REMARK SMILES Cn1c(SCC(=O)Nc2cccc(C(=O)NCCCCCCNC(=O)c3ccc(-c4c5nc(c(-c6c(F)c(F)c(F)c(F)c6F)c6ccc([nH]6)c(-c6c(F)c(F)c(F)c(F)c6F)c6nc(c(-c7c(F)c(F)c(F)c(F)c7F)c7ccc4[nH]7)C=C6)C=C5)cc3)c2)nnc1[C@@H]1CCCN1C(=O)c1ccccc1Cl
REMARK SMILES IDX 17 1 16 2 14 3 15 4 13 6 9 7 10 8 89 9 11 10 12 11 8 12 6 13
REMARK SMILES IDX 7 14 5 16 4 17 3 18 1 19 2 20 92 21 90 22 91 23 93 24 94 25
REMARK SMILES IDX 97 26 95 27 96 28 98 29 99 30 100 31 101 32 105 33 102 34
REMARK SMILES IDX 104 35 106 36 103 37 18 38 19 39 20 40 21 41 22 42 23 43
REMARK SMILES IDX 24 44 25 46 26 47 27 48 88 49 28 50 87 51 29 52 30 53 31 54
REMARK SMILES IDX 81 55 32 56 86 57 80 58 82 59 33 60 85 61 79 62 78 63 34 65
REMARK SMILES IDX 66 66 46 67 65 68 47 69 50 70 64 71 83 72 48 73 49 74 63 76
REMARK SMILES IDX 84 77 51 78 35 79 36 80 44 81 37 82 38 83 42 84 45 85 39 86
REMARK SMILES IDX 40 87 43 88 41 89 67 90 68 91 76 92 69 93 70 94 74 95 77 96
REMARK SMILES IDX 71 97 72 98 75 99 73 100 52 101 53 102 61 103 54 104 55 105
REMARK SMILES IDX 59 106 62 107 56 108 57 109 60 110 58 111
REMARK H PARENT 16 5 8 15 23 45 82 64 50 75
REMARK Flexibility Score: inf
ROOT
ATOM      1  C   UNL A   1      36.088  30.205  27.758  1.00  0.00     0.116 C 
ENDROOT
BRANCH   1   2
ATOM      2  N   UNL A   1      34.992  31.154  27.676  1.00  0.00    -0.352 N 
ATOM      3  C   UNL A   1      33.669  31.110  27.316  1.00  0.00     0.251 C 
ATOM      4  O   UNL A   1      33.055  32.166  27.511  1.00  0.00    -0.269 OA
ATOM      5  H   UNL A   1      35.268  32.058  27.948  1.00  0.00     0.163 HD
BRANCH   3   6
ATOM      6  C   UNL A   1      32.897  29.959  26.724  1.00  0.00     0.041 A 
ATOM      7  C   UNL A   1      31.407  28.793  25.178  1.00  0.00     0.041 A 
ATOM      8  C   UNL A   1      31.372  27.674  26.006  1.00  0.00     0.026 A 
ATOM      9  C   UNL A   1      32.137  29.942  25.548  1.00  0.00     0.040 A 
ATOM     10  C   UNL A   1      32.134  27.657  27.162  1.00  0.00     0.003 A 
ATOM     11  C   UNL A   1      32.889  28.781  27.508  1.00  0.00     0.014 A 
BRANCH   7  12
ATOM     12  N   UNL A   1      30.578  28.767  24.052  1.00  0.00    -0.325 N 
ATOM     13  C   UNL A   1      30.897  28.513  22.750  1.00  0.00     0.234 C 
ATOM     14  O   UNL A   1      30.013  28.642  21.896  1.00  0.00    -0.274 OA
ATOM     15  H   UNL A   1      29.628  28.960  24.223  1.00  0.00     0.169 HD
BRANCH  13  16
ATOM     16  C   UNL A   1      32.232  27.914  22.387  1.00  0.00     0.178 C 
BRANCH  16  17
ATOM     17  S   UNL A   1      32.236  26.206  21.889  1.00  0.00    -0.076 SA
BRANCH  17  18
ATOM     18  C   UNL A   1      33.116  25.317  23.073  1.00  0.00     0.191 A 
ATOM     19  C   UNL A   1      32.738  22.881  22.527  1.00  0.00     0.154 C 
ATOM     20  N   UNL A   1      32.946  24.002  23.402  1.00  0.00    -0.307 N 
ATOM     21  C   UNL A   1      33.187  23.950  24.757  1.00  0.00     0.156 A 
ATOM     22  N   UNL A   1      33.743  25.917  24.056  1.00  0.00    -0.123 NA
ATOM     23  N   UNL A   1      33.796  25.063  25.114  1.00  0.00    -0.132 NA
BRANCH  21  24
ATOM     24  C   UNL A   1      32.875  22.851  25.694  1.00  0.00     0.154 C 
ATOM     25  C   UNL A   1      32.598  23.388  27.103  1.00  0.00     0.035 C 
ATOM     26  N   UNL A   1      33.910  21.831  25.871  1.00  0.00    -0.328 N 
ATOM     27  C   UNL A   1      32.901  22.204  28.002  1.00  0.00     0.024 C 
ATOM     28  C   UNL A   1      34.031  21.480  27.282  1.00  0.00     0.120 C 
BRANCH  26  29
ATOM     29  C   UNL A   1      34.637  21.068  24.962  1.00  0.00     0.255 C 
ATOM     30  O   UNL A   1      35.637  21.505  24.394  1.00  0.00    -0.269 OA
BRANCH  29  31
ATOM     31  C   UNL A   1      34.243  19.710  24.552  1.00  0.00     0.058 A 
ATOM     32  C   UNL A   1      32.886  19.394  24.445  1.00  0.00     0.015 A 
ATOM     33  C   UNL A   1      35.180  18.668  24.584  1.00  0.00     0.053 A 
ATOM     34  C   UNL A   1      32.484  18.062  24.280  1.00  0.00     0.001 A 
ATOM     35  C   UNL A   1      34.779  17.348  24.350  1.00  0.00     0.021 A 
ATOM     36  Cl  UNL A   1      36.839  18.916  25.000  1.00  0.00    -0.083 Cl
ATOM     37  C   UNL A   1      33.431  17.045  24.187  1.00  0.00     0.002 A 
ENDBRANCH  29  31
ENDBRANCH  26  29
ENDBRANCH  21  24
ENDBRANCH  17  18
ENDBRANCH  16  17
ENDBRANCH  13  16
ENDBRANCH   7  12
ENDBRANCH   3   6
ENDBRANCH   1   2
BRANCH   1  38
ATOM     38  C   UNL A   1      36.343  29.725  29.196  1.00  0.00     0.021 C 
BRANCH  38  39
ATOM     39  C   UNL A   1      36.794  30.784  30.216  1.00  0.00     0.002 C 
BRANCH  39  40
ATOM     40  C   UNL A   1      35.903  31.048  31.437  1.00  0.00     0.002 C 
BRANCH  40  41
ATOM     41  C   UNL A   1      34.777  32.077  31.299  1.00  0.00     0.021 C 
BRANCH  41  42
ATOM     42  C   UNL A   1      35.132  33.465  30.749  1.00  0.00     0.116 C 
BRANCH  42  43
ATOM     43  N   UNL A   1      35.724  34.328  31.768  1.00  0.00    -0.352 N 
ATOM     44  C   UNL A   1      36.987  34.433  32.304  1.00  0.00     0.251 C 
ATOM     45  H   UNL A   1      35.084  34.970  32.154  1.00  0.00     0.163 HD
ATOM     46  O   UNL A   1      37.129  35.135  33.305  1.00  0.00    -0.269 OA
BRANCH  44  47
ATOM     47  C   UNL A   1      38.194  33.750  31.754  1.00  0.00     0.039 A 
ATOM     48  C   UNL A   1      38.519  33.953  30.401  1.00  0.00     0.014 A 
ATOM     49  C   UNL A   1      38.951  32.833  32.478  1.00  0.00     0.014 A 
ATOM     50  C   UNL A   1      39.605  33.290  29.800  1.00  0.00     0.010 A 
ATOM     51  C   UNL A   1      40.063  32.207  31.885  1.00  0.00     0.010 A 
ATOM     52  C   UNL A   1      40.418  32.422  30.541  1.00  0.00    -0.014 A 
BRANCH  52  53
ATOM     53  C   UNL A   1      41.616  31.739  29.940  1.00  0.00     0.031 A 
ATOM     54  C   UNL A   1      42.859  32.515  29.569  1.00  0.00     0.074 A 
ATOM     55  C   UNL A   1      41.585  30.425  29.629  1.00  0.00     0.049 A 
ATOM     56  N   UNL A   1      43.933  32.114  28.927  1.00  0.00    -0.248 NA
ATOM     57  C   UNL A   1      42.890  33.934  29.948  1.00  0.00     0.031 C 
ATOM     58  C   UNL A   1      40.457  29.529  29.862  1.00  0.00     0.029 A 
ATOM     59  N   UNL A   1      42.513  29.626  28.992  1.00  0.00    -0.354 N 
ATOM     60  C   UNL A   1      44.757  33.229  28.818  1.00  0.00     0.074 A 
ATOM     61  C   UNL A   1      44.030  34.338  29.404  1.00  0.00     0.031 C 
ATOM     62  C   UNL A   1      40.729  28.325  29.332  1.00  0.00     0.029 A 
ATOM     63  C   UNL A   1      42.049  28.362  28.713  1.00  0.00     0.049 A 
ATOM     64  H   UNL A   1      43.420  29.932  28.759  1.00  0.00     0.167 HD
ATOM     65  C   UNL A   1      46.013  33.322  28.315  1.00  0.00     0.037 A 
ATOM     66  C   UNL A   1      42.598  27.344  28.018  1.00  0.00     0.037 A 
ATOM     67  C   UNL A   1      46.779  32.224  27.781  1.00  0.00     0.049 A 
ATOM     68  C   UNL A   1      43.985  27.463  27.458  1.00  0.00     0.074 A 
ATOM     69  C   UNL A   1      48.105  32.215  27.375  1.00  0.00     0.029 A 
ATOM     70  N   UNL A   1      46.293  30.944  27.570  1.00  0.00    -0.354 N 
ATOM     71  N   UNL A   1      44.789  28.497  27.456  1.00  0.00    -0.248 NA
ATOM     72  C   UNL A   1      44.556  26.261  26.829  1.00  0.00     0.031 C 
ATOM     73  C   UNL A   1      48.406  30.943  26.874  1.00  0.00     0.029 A 
ATOM     74  C   UNL A   1      47.282  30.147  27.010  1.00  0.00     0.049 A 
ATOM     75  H   UNL A   1      45.380  30.644  27.785  1.00  0.00     0.167 HD
ATOM     76  C   UNL A   1      45.968  28.062  26.866  1.00  0.00     0.074 A 
ATOM     77  C   UNL A   1      45.777  26.672  26.514  1.00  0.00     0.031 C 
ATOM     78  C   UNL A   1      47.109  28.762  26.653  1.00  0.00     0.037 A 
BRANCH  65  79
ATOM     79  C   UNL A   1      46.667  34.675  28.334  1.00  0.00     0.064 A 
ATOM     80  C   UNL A   1      47.359  35.143  29.462  1.00  0.00     0.173 A 
ATOM     81  C   UNL A   1      46.641  35.494  27.194  1.00  0.00     0.173 A 
ATOM     82  F   UNL A   1      47.411  34.399  30.577  1.00  0.00    -0.203 F 
ATOM     83  C   UNL A   1      47.966  36.396  29.462  1.00  0.00     0.198 A 
ATOM     84  C   UNL A   1      47.276  36.734  27.188  1.00  0.00     0.198 A 
ATOM     85  F   UNL A   1      46.006  35.089  26.084  1.00  0.00    -0.203 F 
ATOM     86  F   UNL A   1      48.575  36.842  30.569  1.00  0.00    -0.200 F 
ATOM     87  C   UNL A   1      47.928  37.187  28.324  1.00  0.00     0.200 A 
ATOM     88  F   UNL A   1      47.252  37.492  26.083  1.00  0.00    -0.200 F 
ATOM     89  F   UNL A   1      48.516  38.392  28.325  1.00  0.00    -0.200 F 
ENDBRANCH  65  79
BRANCH  66  90
ATOM     90  C   UNL A   1      41.821  26.091  27.834  1.00  0.00     0.064 A 
ATOM     91  C   UNL A   1      40.774  26.022  26.906  1.00  0.00     0.173 A 
ATOM     92  C   UNL A   1      42.122  24.938  28.573  1.00  0.00     0.173 A 
ATOM     93  F   UNL A   1      40.428  27.112  26.206  1.00  0.00    -0.203 F 
ATOM     94  C   UNL A   1      40.051  24.845  26.727  1.00  0.00     0.198 A 
ATOM     95  C   UNL A   1      41.413  23.754  28.376  1.00  0.00     0.198 A 
ATOM     96  F   UNL A   1      43.100  24.963  29.491  1.00  0.00    -0.203 F 
ATOM     97  F   UNL A   1      39.030  24.815  25.860  1.00  0.00    -0.200 F 
ATOM     98  C   UNL A   1      40.377  23.711  27.454  1.00  0.00     0.200 A 
ATOM     99  F   UNL A   1      41.725  22.660  29.083  1.00  0.00    -0.200 F 
ATOM    100  F   UNL A   1      39.682  22.577  27.277  1.00  0.00    -0.200 F 
ENDBRANCH  66  90
BRANCH  78 101
ATOM    101  C   UNL A   1      48.270  28.032  26.044  1.00  0.00     0.064 A 
ATOM    102  C   UNL A   1      49.335  27.559  26.824  1.00  0.00     0.173 A 
ATOM    103  C   UNL A   1      48.302  27.774  24.665  1.00  0.00     0.173 A 
ATOM    104  F   UNL A   1      49.363  27.794  28.145  1.00  0.00    -0.203 F 
ATOM    105  C   UNL A   1      50.398  26.870  26.243  1.00  0.00     0.198 A 
ATOM    106  C   UNL A   1      49.353  27.064  24.091  1.00  0.00     0.198 A 
ATOM    107  F   UNL A   1      47.307  28.202  23.873  1.00  0.00    -0.203 F 
ATOM    108  F   UNL A   1      51.426  26.462  27.001  1.00  0.00    -0.200 F 
ATOM    109  C   UNL A   1      50.404  26.618  24.879  1.00  0.00     0.200 A 
ATOM    110  F   UNL A   1      49.352  26.813  22.774  1.00  0.00    -0.200 F 
ATOM    111  F   UNL A   1      51.424  25.951  24.322  1.00  0.00    -0.200 F 
ENDBRANCH  78 101
ENDBRANCH  52  53
ENDBRANCH  44  47
ENDBRANCH  42  43
ENDBRANCH  41  42
ENDBRANCH  40  41
ENDBRANCH  39  40
ENDBRANCH  38  39
ENDBRANCH   1  38
TORSDOF 20
ENDMDL
MODEL 3
REMARK VINA RESULT:     -12.1      0.461      6.588
REMARK SMILES Cn1c(SCC(=O)Nc2cccc(C(=O)NCCCCCCNC(=O)c3ccc(-c4c5nc(c(-c6c(F)c(F)c(F)c(F)c6F)c6ccc([nH]6)c(-c6c(F)c(F)c(F)c(F)c6F)c6nc(c(-c7c(F)c(F)c(F)c(F)c7F)c7ccc4[nH]7)C=C6)C=C5)cc3)c2)nnc1[C@@H]1CCCN1C(=O)c1ccccc1Cl
REMARK SMILES IDX 17 1 16 2 14 3 15 4 13 6 9 7 10 8 89 9 11 10 12 11 8 12 6 13
REMARK SMILES IDX 7 14 5 16 4 17 3 18 1 19 2 20 92 21 90 22 91 23 93 24 94 25
REMARK SMILES IDX 97 26 95 27 96 28 98 29 99 30 100 31 101 32 105 33 102 34
REMARK SMILES IDX 104 35 106 36 103 37 18 38 19 39 20 40 21 41 22 42 23 43
REMARK SMILES IDX 24 44 25 46 26 47 27 48 88 49 28 50 87 51 29 52 30 53 31 54
REMARK SMILES IDX 81 55 32 56 86 57 80 58 82 59 33 60 85 61 79 62 78 63 34 65
REMARK SMILES IDX 66 66 46 67 65 68 47 69 50 70 64 71 83 72 48 73 49 74 63 76
REMARK SMILES IDX 84 77 51 78 35 79 36 80 44 81 37 82 38 83 42 84 45 85 39 86
REMARK SMILES IDX 40 87 43 88 41 89 67 90 68 91 76 92 69 93 70 94 74 95 77 96
REMARK SMILES IDX 71 97 72 98 75 99 73 100 52 101 53 102 61 103 54 104 55 105
REMARK SMILES IDX 59 106 62 107 56 108 57 109 60 110 58 111
REMARK H PARENT 16 5 8 15 23 45 82 64 50 75
REMARK Flexibility Score: inf
ROOT
ATOM      1  C   UNL A   1      40.110  23.124  26.174  1.00  0.00     0.116 C 
ENDROOT
BRANCH   1   2
ATOM      2  N   UNL A   1      38.788  23.717  26.084  1.00  0.00    -0.352 N 
ATOM      3  C   UNL A   1      37.517  23.270  25.830  1.00  0.00     0.251 C 
ATOM      4  O   UNL A   1      36.638  24.130  25.970  1.00  0.00    -0.269 OA
ATOM      5  H   UNL A   1      38.808  24.687  26.250  1.00  0.00     0.163 HD
BRANCH   3   6
ATOM      6  C   UNL A   1      37.075  21.892  25.408  1.00  0.00     0.041 A 
ATOM      7  C   UNL A   1      35.531  20.060  24.929  1.00  0.00     0.041 A 
ATOM      8  C   UNL A   1      36.586  19.159  24.813  1.00  0.00     0.026 A 
ATOM      9  C   UNL A   1      35.769  21.411  25.256  1.00  0.00     0.040 A 
ATOM     10  C   UNL A   1      37.889  19.614  24.934  1.00  0.00     0.003 A 
ATOM     11  C   UNL A   1      38.125  20.963  25.220  1.00  0.00     0.014 A 
BRANCH   7  12
ATOM     12  N   UNL A   1      34.240  19.529  24.845  1.00  0.00    -0.325 N 
ATOM     13  C   UNL A   1      33.062  20.048  25.297  1.00  0.00     0.234 C 
ATOM     14  O   UNL A   1      32.043  19.355  25.201  1.00  0.00    -0.274 OA
ATOM     15  H   UNL A   1      34.171  18.657  24.394  1.00  0.00     0.169 HD
BRANCH  13  16
ATOM     16  C   UNL A   1      32.970  21.490  25.729  1.00  0.00     0.178 C 
BRANCH  16  17
ATOM     17  S   UNL A   1      31.345  22.215  25.761  1.00  0.00    -0.076 SA
BRANCH  17  18
ATOM     18  C   UNL A   1      31.416  23.697  24.886  1.00  0.00     0.191 A 
ATOM     19  C   UNL A   1      31.516  25.520  26.630  1.00  0.00     0.154 C 
ATOM     20  N   UNL A   1      31.138  24.945  25.368  1.00  0.00    -0.307 N 
ATOM     21  C   UNL A   1      30.557  25.605  24.308  1.00  0.00     0.156 A 
ATOM     22  N   UNL A   1      31.339  23.726  23.577  1.00  0.00    -0.123 NA
ATOM     23  N   UNL A   1      30.806  24.923  23.208  1.00  0.00    -0.132 NA
BRANCH  21  24
ATOM     24  C   UNL A   1      29.805  26.876  24.330  1.00  0.00     0.154 C 
ATOM     25  C   UNL A   1      28.422  26.712  23.690  1.00  0.00     0.035 C 
ATOM     26  N   UNL A   1      30.417  28.008  23.633  1.00  0.00    -0.328 N 
ATOM     27  C   UNL A   1      28.064  28.119  23.249  1.00  0.00     0.024 C 
ATOM     28  C   UNL A   1      29.404  28.736  22.876  1.00  0.00     0.120 C 
BRANCH  26  29
ATOM     29  C   UNL A   1      31.689  28.570  23.697  1.00  0.00     0.255 C 
ATOM     30  O   UNL A   1      32.326  28.862  22.687  1.00  0.00    -0.269 OA
BRANCH  29  31
ATOM     31  C   UNL A   1      32.404  28.802  24.963  1.00  0.00     0.058 A 
ATOM     32  C   UNL A   1      32.198  29.997  25.657  1.00  0.00     0.015 A 
ATOM     33  C   UNL A   1      33.504  28.002  25.304  1.00  0.00     0.053 A 
ATOM     34  C   UNL A   1      33.027  30.337  26.734  1.00  0.00     0.001 A 
ATOM     35  C   UNL A   1      34.286  28.313  26.423  1.00  0.00     0.021 A 
ATOM     36  Cl  UNL A   1      34.021  26.666  24.338  1.00  0.00    -0.083 Cl
ATOM     37  C   UNL A   1      34.041  29.475  27.145  1.00  0.00     0.002 A 
ENDBRANCH  29  31
ENDBRANCH  26  29
ENDBRANCH  21  24
ENDBRANCH  17  18
ENDBRANCH  16  17
ENDBRANCH  13  16
ENDBRANCH   7  12
ENDBRANCH   3   6
ENDBRANCH   1   2
BRANCH   1  38
ATOM     38  C   UNL A   1      40.445  22.647  27.596  1.00  0.00     0.021 C 
BRANCH  38  39
ATOM     39  C   UNL A   1      41.682  21.747  27.758  1.00  0.00     0.002 C 
BRANCH  39  40
ATOM     40  C   UNL A   1      41.522  20.239  27.523  1.00  0.00     0.002 C 
BRANCH  40  41
ATOM     41  C   UNL A   1      41.942  19.672  26.164  1.00  0.00     0.021 C 
BRANCH  41  42
ATOM     42  C   UNL A   1      43.102  18.667  26.129  1.00  0.00     0.116 C 
BRANCH  42  43
ATOM     43  N   UNL A   1      43.816  18.693  24.854  1.00  0.00    -0.352 N 
ATOM     44  C   UNL A   1      44.428  19.691  24.131  1.00  0.00     0.251 C 
ATOM     45  H   UNL A   1      43.871  17.810  24.422  1.00  0.00     0.163 HD
ATOM     46  O   UNL A   1      44.777  19.433  22.979  1.00  0.00    -0.269 OA
BRANCH  44  47
ATOM     47  C   UNL A   1      44.693  21.064  24.649  1.00  0.00     0.039 A 
ATOM     48  C   UNL A   1      45.355  21.198  25.882  1.00  0.00     0.014 A 
ATOM     49  C   UNL A   1      44.219  22.219  24.033  1.00  0.00     0.014 A 
ATOM     50  C   UNL A   1      45.580  22.461  26.461  1.00  0.00     0.010 A 
ATOM     51  C   UNL A   1      44.487  23.482  24.593  1.00  0.00     0.010 A 
ATOM     52  C   UNL A   1      45.173  23.634  25.811  1.00  0.00    -0.014 A 
BRANCH  52  53
ATOM     53  C   UNL A   1      45.444  24.999  26.380  1.00  0.00     0.031 A 
ATOM     54  C   UNL A   1      44.328  25.854  26.938  1.00  0.00     0.074 A 
ATOM     55  C   UNL A   1      46.680  25.542  26.329  1.00  0.00     0.049 A 
ATOM     56  N   UNL A   1      44.358  27.100  27.351  1.00  0.00    -0.248 NA
ATOM     57  C   UNL A   1      42.999  25.234  27.020  1.00  0.00     0.031 C 
ATOM     58  C   UNL A   1      47.864  24.892  25.780  1.00  0.00     0.029 A 
ATOM     59  N   UNL A   1      47.130  26.795  26.692  1.00  0.00    -0.354 N 
ATOM     60  C   UNL A   1      43.058  27.413  27.731  1.00  0.00     0.074 A 
ATOM     61  C   UNL A   1      42.251  26.246  27.438  1.00  0.00     0.031 C 
ATOM     62  C   UNL A   1      48.891  25.758  25.788  1.00  0.00     0.029 A 
ATOM     63  C   UNL A   1      48.438  27.032  26.338  1.00  0.00     0.049 A 
ATOM     64  H   UNL A   1      46.569  27.457  27.159  1.00  0.00     0.167 HD
ATOM     65  C   UNL A   1      42.580  28.547  28.303  1.00  0.00     0.037 A 
ATOM     66  C   UNL A   1      49.195  28.145  26.414  1.00  0.00     0.037 A 
ATOM     67  C   UNL A   1      43.371  29.698  28.657  1.00  0.00     0.049 A 
ATOM     68  C   UNL A   1      48.651  29.396  27.041  1.00  0.00     0.074 A 
ATOM     69  C   UNL A   1      42.982  30.829  29.358  1.00  0.00     0.029 A 
ATOM     70  N   UNL A   1      44.707  29.874  28.333  1.00  0.00    -0.354 N 
ATOM     71  N   UNL A   1      47.444  29.638  27.488  1.00  0.00    -0.248 NA
ATOM     72  C   UNL A   1      49.586  30.522  27.202  1.00  0.00     0.031 C 
ATOM     73  C   UNL A   1      44.069  31.709  29.417  1.00  0.00     0.029 A 
ATOM     74  C   UNL A   1      45.148  31.108  28.792  1.00  0.00     0.049 A 
ATOM     75  H   UNL A   1      45.262  29.221  27.849  1.00  0.00     0.167 HD
ATOM     76  C   UNL A   1      47.484  30.921  28.017  1.00  0.00     0.074 A 
ATOM     77  C   UNL A   1      48.831  31.414  27.831  1.00  0.00     0.031 C 
ATOM     78  C   UNL A   1      46.485  31.614  28.616  1.00  0.00     0.037 A 
BRANCH  65  79
ATOM     79  C   UNL A   1      41.109  28.599  28.610  1.00  0.00     0.064 A 
ATOM     80  C   UNL A   1      40.607  28.229  29.868  1.00  0.00     0.173 A 
ATOM     81  C   UNL A   1      40.198  29.067  27.651  1.00  0.00     0.173 A 
ATOM     82  F   UNL A   1      41.437  27.773  30.818  1.00  0.00    -0.203 F 
ATOM     83  C   UNL A   1      39.243  28.290  30.141  1.00  0.00     0.198 A 
ATOM     84  C   UNL A   1      38.838  29.155  27.939  1.00  0.00     0.198 A 
ATOM     85  F   UNL A   1      40.627  29.447  26.438  1.00  0.00    -0.203 F 
ATOM     86  F   UNL A   1      38.782  27.882  31.331  1.00  0.00    -0.200 F 
ATOM     87  C   UNL A   1      38.361  28.757  29.178  1.00  0.00     0.200 A 
ATOM     88  F   UNL A   1      37.988  29.621  27.013  1.00  0.00    -0.200 F 
ATOM     89  F   UNL A   1      37.048  28.817  29.444  1.00  0.00    -0.200 F 
ENDBRANCH  65  79
BRANCH  66  90
ATOM     90  C   UNL A   1      50.586  28.114  25.893  1.00  0.00     0.064 A 
ATOM     91  C   UNL A   1      51.679  28.013  26.762  1.00  0.00     0.173 A 
ATOM     92  C   UNL A   1      50.844  28.172  24.516  1.00  0.00     0.173 A 
ATOM     93  F   UNL A   1      51.480  27.993  28.088  1.00  0.00    -0.203 F 
ATOM     94  C   UNL A   1      52.983  27.975  26.273  1.00  0.00     0.198 A 
ATOM     95  C   UNL A   1      52.147  28.111  24.026  1.00  0.00     0.198 A 
ATOM     96  F   UNL A   1      49.829  28.294  23.646  1.00  0.00    -0.203 F 
ATOM     97  F   UNL A   1      54.014  27.915  27.127  1.00  0.00    -0.200 F 
ATOM     98  C   UNL A   1      53.216  28.014  24.907  1.00  0.00     0.200 A 
ATOM     99  F   UNL A   1      52.371  28.155  22.706  1.00  0.00    -0.200 F 
ATOM    100  F   UNL A   1      54.471  27.974  24.438  1.00  0.00    -0.200 F 
ENDBRANCH  66  90
BRANCH  78 101
ATOM    101  C   UNL A   1      46.810  32.975  29.159  1.00  0.00     0.064 A 
ATOM    102  C   UNL A   1      46.636  34.136  28.393  1.00  0.00     0.173 A 
ATOM    103  C   UNL A   1      47.273  33.122  30.476  1.00  0.00     0.173 A 
ATOM    104  F   UNL A   1      46.212  34.051  27.123  1.00  0.00    -0.203 F 
ATOM    105  C   UNL A   1      46.929  35.393  28.920  1.00  0.00     0.198 A 
ATOM    106  C   UNL A   1      47.542  34.380  31.007  1.00  0.00     0.198 A 
ATOM    107  F   UNL A   1      47.455  32.043  31.253  1.00  0.00    -0.203 F 
ATOM    108  F   UNL A   1      46.793  36.486  28.156  1.00  0.00    -0.200 F 
ATOM    109  C   UNL A   1      47.376  35.514  30.227  1.00  0.00     0.200 A 
ATOM    110  F   UNL A   1      47.965  34.496  32.274  1.00  0.00    -0.200 F 
ATOM    111  F   UNL A   1      47.653  36.724  30.734  1.00  0.00    -0.200 F 
ENDBRANCH  78 101
ENDBRANCH  52  53
ENDBRANCH  44  47
ENDBRANCH  42  43
ENDBRANCH  41  42
ENDBRANCH  40  41
ENDBRANCH  39  40
ENDBRANCH  38  39
ENDBRANCH   1  38
TORSDOF 20
ENDMDL
