MODEL 1
REMARK VINA RESULT:     -14.0      0.000      0.000
REMARK SMILES O=C(NCCCCCCNC(=O)[C@H](c1c[nH]c2cc(F)ccc12)[NH+]1CCN(c2ccccc2)CC1)c1ccc(-c2c3nc(c(-c4c(F)c(F)c(F)c(F)c4F)c4ccc([nH]4)c(-c4c(F)c(F)c(F)c(F)c4F)c4nc(c(-c5c(F)c(F)c(F)c(F)c5F)c5ccc2[nH]5)C=C4)C=C3)cc1
REMARK SMILES IDX 6 1 5 2 4 3 3 4 1 5 2 6 36 8 37 9 98 10 38 11 97 12 39 13
REMARK SMILES IDX 40 14 41 15 91 16 42 17 96 18 90 19 92 20 43 21 95 22 89 23
REMARK SMILES IDX 88 24 44 26 76 27 56 28 75 29 57 30 60 31 74 32 93 33 58 34
REMARK SMILES IDX 59 35 73 37 94 38 61 39 45 40 46 41 54 42 47 43 48 44 52 45
REMARK SMILES IDX 55 46 49 47 50 48 53 49 51 50 77 51 78 52 86 53 79 54 80 55
REMARK SMILES IDX 84 56 87 57 81 58 82 59 85 60 83 61 62 62 63 63 71 64 64 65
REMARK SMILES IDX 65 66 69 67 72 68 66 69 67 70 70 71 68 72 7 73 8 74 9 75
REMARK SMILES IDX 10 76 11 77 12 79 13 80 24 81 25 82 35 83 26 85 34 86 27 87
REMARK SMILES IDX 28 88 29 89 33 90 30 91 32 92 31 93 14 94 15 95 23 96 16 97
REMARK SMILES IDX 17 98 22 99 18 101 21 102 19 103 20 104
REMARK H PARENT 3 7 92 25 60 36 10 78 24 84 16 100
REMARK Flexibility Score: inf
ROOT
ATOM      1  C   UNL A   1      31.575  30.747  26.106  1.00  0.00     0.002 C 
ENDROOT
BRANCH   1   2
ATOM      2  C   UNL A   1      31.392  32.201  26.551  1.00  0.00     0.021 C 
BRANCH   2   3
ATOM      3  C   UNL A   1      32.581  32.820  27.272  1.00  0.00     0.116 C 
BRANCH   3   4
ATOM      4  N   UNL A   1      32.352  34.209  27.622  1.00  0.00    -0.352 N 
ATOM      5  O   UNL A   1      32.503  36.077  28.874  1.00  0.00    -0.269 OA
ATOM      6  C   UNL A   1      32.951  34.973  28.588  1.00  0.00     0.251 C 
ATOM      7  H   UNL A   1      31.666  34.670  27.086  1.00  0.00     0.163 HD
BRANCH   6   8
ATOM      8  C   UNL A   1      34.147  34.460  29.287  1.00  0.00     0.039 A 
ATOM      9  C   UNL A   1      34.019  33.765  30.493  1.00  0.00     0.014 A 
ATOM     10  C   UNL A   1      35.404  34.626  28.699  1.00  0.00     0.014 A 
ATOM     11  C   UNL A   1      35.152  33.316  31.158  1.00  0.00     0.010 A 
ATOM     12  C   UNL A   1      36.534  34.100  29.324  1.00  0.00     0.010 A 
ATOM     13  C   UNL A   1      36.415  33.438  30.555  1.00  0.00    -0.014 A 
BRANCH  13  14
ATOM     14  C   UNL A   1      37.569  32.724  31.151  1.00  0.00     0.031 A 
ATOM     15  C   UNL A   1      38.222  31.571  30.452  1.00  0.00     0.074 A 
ATOM     16  C   UNL A   1      37.999  33.131  32.362  1.00  0.00     0.049 A 
ATOM     17  N   UNL A   1      39.208  30.815  30.865  1.00  0.00    -0.248 NA
ATOM     18  C   UNL A   1      37.704  31.210  29.123  1.00  0.00     0.031 C 
ATOM     19  C   UNL A   1      37.415  34.231  33.135  1.00  0.00     0.029 A 
ATOM     20  N   UNL A   1      39.016  32.674  33.159  1.00  0.00    -0.354 N 
ATOM     21  C   UNL A   1      39.416  29.879  29.861  1.00  0.00     0.074 A 
ATOM     22  C   UNL A   1      38.447  30.152  28.821  1.00  0.00     0.031 C 
ATOM     23  C   UNL A   1      38.092  34.375  34.282  1.00  0.00     0.029 A 
ATOM     24  C   UNL A   1      39.106  33.333  34.360  1.00  0.00     0.049 A 
ATOM     25  H   UNL A   1      39.622  31.943  32.897  1.00  0.00     0.167 HD
ATOM     26  C   UNL A   1      40.335  28.886  29.825  1.00  0.00     0.037 A 
ATOM     27  C   UNL A   1      39.888  33.097  35.430  1.00  0.00     0.037 A 
ATOM     28  C   UNL A   1      41.303  28.642  30.864  1.00  0.00     0.049 A 
ATOM     29  C   UNL A   1      40.866  31.959  35.367  1.00  0.00     0.074 A 
ATOM     30  C   UNL A   1      42.330  27.714  30.883  1.00  0.00     0.029 A 
ATOM     31  N   UNL A   1      41.353  29.316  32.076  1.00  0.00    -0.354 N 
ATOM     32  N   UNL A   1      41.110  31.134  34.379  1.00  0.00    -0.248 NA
ATOM     33  C   UNL A   1      41.671  31.711  36.571  1.00  0.00     0.031 C 
ATOM     34  C   UNL A   1      42.953  27.776  32.132  1.00  0.00     0.029 A 
ATOM     35  C   UNL A   1      42.358  28.787  32.870  1.00  0.00     0.049 A 
ATOM     36  H   UNL A   1      40.762  30.060  32.334  1.00  0.00     0.167 HD
ATOM     37  C   UNL A   1      42.102  30.278  34.834  1.00  0.00     0.074 A 
ATOM     38  C   UNL A   1      42.439  30.707  36.176  1.00  0.00     0.031 C 
ATOM     39  C   UNL A   1      42.674  29.224  34.205  1.00  0.00     0.037 A 
BRANCH  26  40
ATOM     40  C   UNL A   1      40.344  27.959  28.645  1.00  0.00     0.064 A 
ATOM     41  C   UNL A   1      41.080  28.242  27.486  1.00  0.00     0.173 A 
ATOM     42  C   UNL A   1      39.694  26.716  28.722  1.00  0.00     0.173 A 
ATOM     43  F   UNL A   1      41.713  29.418  27.357  1.00  0.00    -0.203 F 
ATOM     44  C   UNL A   1      41.163  27.317  26.448  1.00  0.00     0.198 A 
ATOM     45  C   UNL A   1      39.802  25.783  27.695  1.00  0.00     0.198 A 
ATOM     46  F   UNL A   1      38.983  26.394  29.812  1.00  0.00    -0.203 F 
ATOM     47  F   UNL A   1      41.859  27.614  25.341  1.00  0.00    -0.200 F 
ATOM     48  C   UNL A   1      40.536  26.084  26.559  1.00  0.00     0.200 A 
ATOM     49  F   UNL A   1      39.208  24.588  27.812  1.00  0.00    -0.200 F 
ATOM     50  F   UNL A   1      40.641  25.185  25.569  1.00  0.00    -0.200 F 
ENDBRANCH  26  40
BRANCH  27  51
ATOM     51  C   UNL A   1      39.736  33.915  36.662  1.00  0.00     0.064 A 
ATOM     52  C   UNL A   1      38.922  33.491  37.721  1.00  0.00     0.173 A 
ATOM     53  C   UNL A   1      40.381  35.156  36.794  1.00  0.00     0.173 A 
ATOM     54  F   UNL A   1      38.271  32.321  37.637  1.00  0.00    -0.203 F 
ATOM     55  C   UNL A   1      38.730  34.291  38.846  1.00  0.00     0.198 A 
ATOM     56  C   UNL A   1      40.220  35.936  37.936  1.00  0.00     0.198 A 
ATOM     57  F   UNL A   1      41.177  35.607  35.814  1.00  0.00    -0.203 F 
ATOM     58  F   UNL A   1      37.893  33.890  39.813  1.00  0.00    -0.200 F 
ATOM     59  C   UNL A   1      39.383  35.510  38.954  1.00  0.00     0.200 A 
ATOM     60  F   UNL A   1      40.870  37.102  38.044  1.00  0.00    -0.200 F 
ATOM     61  F   UNL A   1      39.195  36.279  40.035  1.00  0.00    -0.200 F 
ENDBRANCH  27  51
BRANCH  39  62
ATOM     62  C   UNL A   1      43.728  28.469  34.959  1.00  0.00     0.064 A 
ATOM     63  C   UNL A   1      43.409  27.341  35.729  1.00  0.00     0.173 A 
ATOM     64  C   UNL A   1      45.076  28.853  34.880  1.00  0.00     0.173 A 
ATOM     65  F   UNL A   1      42.133  26.947  35.852  1.00  0.00    -0.203 F 
ATOM     66  C   UNL A   1      44.398  26.637  36.410  1.00  0.00     0.198 A 
ATOM     67  C   UNL A   1      46.066  28.126  35.534  1.00  0.00     0.198 A 
ATOM     68  F   UNL A   1      45.433  29.923  34.154  1.00  0.00    -0.203 F 
ATOM     69  F   UNL A   1      44.064  25.591  37.179  1.00  0.00    -0.200 F 
ATOM     70  C   UNL A   1      45.726  27.024  36.304  1.00  0.00     0.200 A 
ATOM     71  F   UNL A   1      47.350  28.492  35.419  1.00  0.00    -0.200 F 
ATOM     72  F   UNL A   1      46.678  26.337  36.950  1.00  0.00    -0.200 F 
ENDBRANCH  39  62
ENDBRANCH  13  14
ENDBRANCH   6   8
ENDBRANCH   3   4
ENDBRANCH   2   3
ENDBRANCH   1   2
BRANCH   1  73
ATOM     73  C   UNL A   1      33.012  30.211  26.068  1.00  0.00     0.002 C 
BRANCH  73  74
ATOM     74  C   UNL A   1      33.414  29.253  27.183  1.00  0.00     0.021 C 
BRANCH  74  75
ATOM     75  C   UNL A   1      33.213  27.777  26.902  1.00  0.00     0.116 C 
BRANCH  75  76
ATOM     76  N   UNL A   1      31.883  27.285  26.735  1.00  0.00    -0.351 N 
ATOM     77  C   UNL A   1      31.373  26.383  25.839  1.00  0.00     0.283 C 
ATOM     78  H   UNL A   1      31.225  27.656  27.367  1.00  0.00     0.163 HD
ATOM     79  O   UNL A   1      30.266  25.962  26.219  1.00  0.00    -0.268 OA
BRANCH  77  80
ATOM     80  C   UNL A   1      31.948  26.045  24.361  1.00  0.00     0.307 C 
BRANCH  80  81
ATOM     81  N   UNL A   1      31.326  24.943  23.534  1.00  0.00    -0.318 N 
ATOM     82  C   UNL A   1      32.316  24.341  22.552  1.00  0.00     0.284 C 
ATOM     83  C   UNL A   1      30.785  23.775  24.239  1.00  0.00     0.284 C 
ATOM     84  H   UNL A   1      30.554  25.458  23.109  1.00  0.00     0.349 HD
ATOM     85  C   UNL A   1      33.410  23.378  23.134  1.00  0.00     0.178 C 
ATOM     86  C   UNL A   1      31.856  22.951  24.986  1.00  0.00     0.178 C 
ATOM     87  N   UNL A   1      32.776  22.390  24.012  1.00  0.00    -0.360 N 
BRANCH  87  88
ATOM     88  C   UNL A   1      33.128  21.065  24.124  1.00  0.00     0.037 A 
ATOM     89  C   UNL A   1      32.339  20.024  23.630  1.00  0.00     0.026 A 
ATOM     90  C   UNL A   1      34.343  20.716  24.744  1.00  0.00     0.026 A 
ATOM     91  C   UNL A   1      32.761  18.691  23.731  1.00  0.00     0.002 A 
ATOM     92  C   UNL A   1      34.767  19.393  24.854  1.00  0.00     0.002 A 
ATOM     93  C   UNL A   1      33.974  18.376  24.343  1.00  0.00     0.000 A 
ENDBRANCH  87  88
ENDBRANCH  80  81
BRANCH  80  94
ATOM     94  C   UNL A   1      31.697  27.315  23.524  1.00  0.00     0.044 A 
ATOM     95  C   UNL A   1      32.684  28.162  23.035  1.00  0.00     0.094 A 
ATOM     96  C   UNL A   1      30.442  27.918  23.168  1.00  0.00     0.009 A 
ATOM     97  N   UNL A   1      32.094  29.205  22.389  1.00  0.00    -0.361 N 
ATOM     98  C   UNL A   1      30.728  29.111  22.496  1.00  0.00     0.049 A 
ATOM     99  C   UNL A   1      29.089  27.589  23.402  1.00  0.00     0.014 A 
ATOM    100  H   UNL A   1      32.576  29.921  21.914  1.00  0.00     0.166 HD
ATOM    101  C   UNL A   1      29.738  29.994  22.056  1.00  0.00     0.065 A 
ATOM    102  C   UNL A   1      28.086  28.470  22.978  1.00  0.00     0.040 A 
ATOM    103  C   UNL A   1      28.417  29.648  22.323  1.00  0.00     0.125 A 
ATOM    104  F   UNL A   1      27.439  30.480  21.941  1.00  0.00    -0.207 F 
ENDBRANCH  80  94
ENDBRANCH  77  80
ENDBRANCH  75  76
ENDBRANCH  74  75
ENDBRANCH  73  74
ENDBRANCH   1  73
TORSDOF 16
ENDMDL
MODEL 2
REMARK VINA RESULT:     -13.9      0.902      1.697
REMARK SMILES O=C(NCCCCCCNC(=O)[C@H](c1c[nH]c2cc(F)ccc12)[NH+]1CCN(c2ccccc2)CC1)c1ccc(-c2c3nc(c(-c4c(F)c(F)c(F)c(F)c4F)c4ccc([nH]4)c(-c4c(F)c(F)c(F)c(F)c4F)c4nc(c(-c5c(F)c(F)c(F)c(F)c5F)c5ccc2[nH]5)C=C4)C=C3)cc1
REMARK SMILES IDX 6 1 5 2 4 3 3 4 1 5 2 6 36 8 37 9 98 10 38 11 97 12 39 13
REMARK SMILES IDX 40 14 41 15 91 16 42 17 96 18 90 19 92 20 43 21 95 22 89 23
REMARK SMILES IDX 88 24 44 26 76 27 56 28 75 29 57 30 60 31 74 32 93 33 58 34
REMARK SMILES IDX 59 35 73 37 94 38 61 39 45 40 46 41 54 42 47 43 48 44 52 45
REMARK SMILES IDX 55 46 49 47 50 48 53 49 51 50 77 51 78 52 86 53 79 54 80 55
REMARK SMILES IDX 84 56 87 57 81 58 82 59 85 60 83 61 62 62 63 63 71 64 64 65
REMARK SMILES IDX 65 66 69 67 72 68 66 69 67 70 70 71 68 72 7 73 8 74 9 75
REMARK SMILES IDX 10 76 11 77 12 79 13 80 24 81 25 82 35 83 26 85 34 86 27 87
REMARK SMILES IDX 28 88 29 89 33 90 30 91 32 92 31 93 14 94 15 95 23 96 16 97
REMARK SMILES IDX 17 98 22 99 18 101 21 102 19 103 20 104
REMARK H PARENT 3 7 92 25 60 36 10 78 24 84 16 100
REMARK Flexibility Score: inf
ROOT
ATOM      1  C   UNL A   1      31.575  30.726  26.264  1.00  0.00     0.002 C 
ENDROOT
BRANCH   1   2
ATOM      2  C   UNL A   1      31.441  32.221  26.569  1.00  0.00     0.021 C 
BRANCH   2   3
ATOM      3  C   UNL A   1      32.636  32.855  27.267  1.00  0.00     0.116 C 
BRANCH   3   4
ATOM      4  N   UNL A   1      32.387  34.234  27.643  1.00  0.00    -0.352 N 
ATOM      5  O   UNL A   1      32.501  36.076  28.936  1.00  0.00    -0.269 OA
ATOM      6  C   UNL A   1      32.965  34.985  28.633  1.00  0.00     0.251 C 
ATOM      7  H   UNL A   1      31.701  34.699  27.108  1.00  0.00     0.163 HD
BRANCH   6   8
ATOM      8  C   UNL A   1      34.159  34.470  29.335  1.00  0.00     0.039 A 
ATOM      9  C   UNL A   1      34.027  33.782  30.545  1.00  0.00     0.014 A 
ATOM     10  C   UNL A   1      35.416  34.628  28.746  1.00  0.00     0.014 A 
ATOM     11  C   UNL A   1      35.158  33.332  31.213  1.00  0.00     0.010 A 
ATOM     12  C   UNL A   1      36.544  34.101  29.376  1.00  0.00     0.010 A 
ATOM     13  C   UNL A   1      36.421  33.446  30.611  1.00  0.00    -0.014 A 
BRANCH  13  14
ATOM     14  C   UNL A   1      37.572  32.730  31.211  1.00  0.00     0.031 A 
ATOM     15  C   UNL A   1      38.223  31.573  30.517  1.00  0.00     0.074 A 
ATOM     16  C   UNL A   1      38.001  33.140  32.421  1.00  0.00     0.049 A 
ATOM     17  N   UNL A   1      39.206  30.815  30.934  1.00  0.00    -0.248 NA
ATOM     18  C   UNL A   1      37.706  31.209  29.189  1.00  0.00     0.031 C 
ATOM     19  C   UNL A   1      37.419  34.245  33.190  1.00  0.00     0.029 A 
ATOM     20  N   UNL A   1      39.016  32.683  33.222  1.00  0.00    -0.354 N 
ATOM     21  C   UNL A   1      39.412  29.875  29.934  1.00  0.00     0.074 A 
ATOM     22  C   UNL A   1      38.446  30.147  28.891  1.00  0.00     0.031 C 
ATOM     23  C   UNL A   1      38.094  34.391  34.337  1.00  0.00     0.029 A 
ATOM     24  C   UNL A   1      39.105  33.346  34.421  1.00  0.00     0.049 A 
ATOM     25  H   UNL A   1      39.619  31.949  32.963  1.00  0.00     0.167 HD
ATOM     26  C   UNL A   1      40.329  28.879  29.903  1.00  0.00     0.037 A 
ATOM     27  C   UNL A   1      39.884  33.111  35.493  1.00  0.00     0.037 A 
ATOM     28  C   UNL A   1      41.294  28.636  30.946  1.00  0.00     0.049 A 
ATOM     29  C   UNL A   1      40.859  31.970  35.436  1.00  0.00     0.074 A 
ATOM     30  C   UNL A   1      42.318  27.705  30.970  1.00  0.00     0.029 A 
ATOM     31  N   UNL A   1      41.344  29.314  32.155  1.00  0.00    -0.354 N 
ATOM     32  N   UNL A   1      41.103  31.141  34.451  1.00  0.00    -0.248 NA
ATOM     33  C   UNL A   1      41.661  31.724  36.642  1.00  0.00     0.031 C 
ATOM     34  C   UNL A   1      42.939  27.770  32.220  1.00  0.00     0.029 A 
ATOM     35  C   UNL A   1      42.346  28.784  32.952  1.00  0.00     0.049 A 
ATOM     36  H   UNL A   1      40.754  30.061  32.409  1.00  0.00     0.167 HD
ATOM     37  C   UNL A   1      42.090  30.284  34.911  1.00  0.00     0.074 A 
ATOM     38  C   UNL A   1      42.426  30.716  36.252  1.00  0.00     0.031 C 
ATOM     39  C   UNL A   1      42.661  29.226  34.287  1.00  0.00     0.037 A 
BRANCH  26  40
ATOM     40  C   UNL A   1      40.337  27.948  28.726  1.00  0.00     0.064 A 
ATOM     41  C   UNL A   1      41.084  28.220  27.572  1.00  0.00     0.173 A 
ATOM     42  C   UNL A   1      39.675  26.712  28.804  1.00  0.00     0.173 A 
ATOM     43  F   UNL A   1      41.729  29.389  27.444  1.00  0.00    -0.203 F 
ATOM     44  C   UNL A   1      41.166  27.290  26.538  1.00  0.00     0.198 A 
ATOM     45  C   UNL A   1      39.781  25.774  27.781  1.00  0.00     0.198 A 
ATOM     46  F   UNL A   1      38.952  26.400  29.890  1.00  0.00    -0.203 F 
ATOM     47  F   UNL A   1      41.872  27.577  25.435  1.00  0.00    -0.200 F 
ATOM     48  C   UNL A   1      40.525  26.064  26.648  1.00  0.00     0.200 A 
ATOM     49  F   UNL A   1      39.174  24.585  27.897  1.00  0.00    -0.200 F 
ATOM     50  F   UNL A   1      40.629  25.160  25.663  1.00  0.00    -0.200 F 
ENDBRANCH  26  40
BRANCH  27  51
ATOM     51  C   UNL A   1      39.733  33.934  36.722  1.00  0.00     0.064 A 
ATOM     52  C   UNL A   1      38.909  33.520  37.777  1.00  0.00     0.173 A 
ATOM     53  C   UNL A   1      40.388  35.170  36.853  1.00  0.00     0.173 A 
ATOM     54  F   UNL A   1      38.248  32.356  37.693  1.00  0.00    -0.203 F 
ATOM     55  C   UNL A   1      38.718  34.325  38.898  1.00  0.00     0.198 A 
ATOM     56  C   UNL A   1      40.227  35.954  37.992  1.00  0.00     0.198 A 
ATOM     57  F   UNL A   1      41.193  35.611  35.877  1.00  0.00    -0.203 F 
ATOM     58  F   UNL A   1      37.872  33.935  39.862  1.00  0.00    -0.200 F 
ATOM     59  C   UNL A   1      39.381  35.539  39.007  1.00  0.00     0.200 A 
ATOM     60  F   UNL A   1      40.887  37.115  38.101  1.00  0.00    -0.200 F 
ATOM     61  F   UNL A   1      39.193  36.312  40.084  1.00  0.00    -0.200 F 
ENDBRANCH  27  51
BRANCH  39  62
ATOM     62  C   UNL A   1      43.711  28.470  35.045  1.00  0.00     0.064 A 
ATOM     63  C   UNL A   1      45.063  28.845  34.993  1.00  0.00     0.173 A 
ATOM     64  C   UNL A   1      43.361  27.386  35.863  1.00  0.00     0.173 A 
ATOM     65  F   UNL A   1      45.450  29.862  34.209  1.00  0.00    -0.203 F 
ATOM     66  C   UNL A   1      46.026  28.147  35.715  1.00  0.00     0.198 A 
ATOM     67  C   UNL A   1      44.322  26.713  36.611  1.00  0.00     0.198 A 
ATOM     68  F   UNL A   1      42.081  26.990  35.950  1.00  0.00    -0.203 F 
ATOM     69  F   UNL A   1      47.317  28.493  35.611  1.00  0.00    -0.200 F 
ATOM     70  C   UNL A   1      45.654  27.089  36.531  1.00  0.00     0.200 A 
ATOM     71  F   UNL A   1      43.959  25.701  37.410  1.00  0.00    -0.200 F 
ATOM     72  F   UNL A   1      46.582  26.428  37.235  1.00  0.00    -0.200 F 
ENDBRANCH  39  62
ENDBRANCH  13  14
ENDBRANCH   6   8
ENDBRANCH   3   4
ENDBRANCH   2   3
ENDBRANCH   1   2
BRANCH   1  73
ATOM     73  C   UNL A   1      32.479  29.907  27.194  1.00  0.00     0.002 C 
BRANCH  73  74
ATOM     74  C   UNL A   1      33.543  29.043  26.528  1.00  0.00     0.021 C 
BRANCH  74  75
ATOM     75  C   UNL A   1      33.300  27.547  26.549  1.00  0.00     0.116 C 
BRANCH  75  76
ATOM     76  N   UNL A   1      31.970  27.072  26.764  1.00  0.00    -0.351 N 
ATOM     77  C   UNL A   1      31.122  26.392  25.929  1.00  0.00     0.283 C 
ATOM     78  H   UNL A   1      31.603  27.264  27.657  1.00  0.00     0.163 HD
ATOM     79  O   UNL A   1      30.200  25.862  26.575  1.00  0.00    -0.268 OA
BRANCH  77  80
ATOM     80  C   UNL A   1      31.113  26.428  24.309  1.00  0.00     0.307 C 
BRANCH  80  81
ATOM     81  N   UNL A   1      31.187  25.142  23.516  1.00  0.00    -0.318 N 
ATOM     82  C   UNL A   1      32.359  25.136  22.552  1.00  0.00     0.284 C 
ATOM     83  C   UNL A   1      31.342  23.885  24.258  1.00  0.00     0.284 C 
ATOM     84  H   UNL A   1      30.266  25.155  23.078  1.00  0.00     0.349 HD
ATOM     85  C   UNL A   1      33.791  24.922  23.160  1.00  0.00     0.178 C 
ATOM     86  C   UNL A   1      32.678  23.780  25.027  1.00  0.00     0.178 C 
ATOM     87  N   UNL A   1      33.769  23.772  24.069  1.00  0.00    -0.360 N 
BRANCH  87  88
ATOM     88  C   UNL A   1      34.772  22.843  24.220  1.00  0.00     0.037 A 
ATOM     89  C   UNL A   1      36.076  23.050  23.764  1.00  0.00     0.026 A 
ATOM     90  C   UNL A   1      34.504  21.627  24.876  1.00  0.00     0.026 A 
ATOM     91  C   UNL A   1      37.075  22.090  23.979  1.00  0.00     0.002 A 
ATOM     92  C   UNL A   1      35.489  20.664  25.089  1.00  0.00     0.002 A 
ATOM     93  C   UNL A   1      36.780  20.899  24.641  1.00  0.00     0.000 A 
ENDBRANCH  87  88
ENDBRANCH  80  81
BRANCH  80  94
ATOM     94  C   UNL A   1      29.742  27.016  23.920  1.00  0.00     0.044 A 
ATOM     95  C   UNL A   1      28.523  26.359  24.042  1.00  0.00     0.094 A 
ATOM     96  C   UNL A   1      29.455  28.274  23.289  1.00  0.00     0.009 A 
ATOM     97  N   UNL A   1      27.536  27.160  23.554  1.00  0.00    -0.361 N 
ATOM     98  C   UNL A   1      28.078  28.313  23.043  1.00  0.00     0.049 A 
ATOM     99  C   UNL A   1      30.244  29.362  22.855  1.00  0.00     0.014 A 
ATOM    100  H   UNL A   1      26.576  26.945  23.568  1.00  0.00     0.166 HD
ATOM    101  C   UNL A   1      27.453  29.373  22.378  1.00  0.00     0.065 A 
ATOM    102  C   UNL A   1      29.634  30.425  22.178  1.00  0.00     0.040 A 
ATOM    103  C   UNL A   1      28.265  30.418  21.947  1.00  0.00     0.125 A 
ATOM    104  F   UNL A   1      27.709  31.440  21.284  1.00  0.00    -0.207 F 
ENDBRANCH  80  94
ENDBRANCH  77  80
ENDBRANCH  75  76
ENDBRANCH  74  75
ENDBRANCH  73  74
ENDBRANCH   1  73
TORSDOF 16
ENDMDL
MODEL 3
REMARK VINA RESULT:     -13.9      0.917      2.016
REMARK SMILES O=C(NCCCCCCNC(=O)[C@H](c1c[nH]c2cc(F)ccc12)[NH+]1CCN(c2ccccc2)CC1)c1ccc(-c2c3nc(c(-c4c(F)c(F)c(F)c(F)c4F)c4ccc([nH]4)c(-c4c(F)c(F)c(F)c(F)c4F)c4nc(c(-c5c(F)c(F)c(F)c(F)c5F)c5ccc2[nH]5)C=C4)C=C3)cc1
REMARK SMILES IDX 6 1 5 2 4 3 3 4 1 5 2 6 36 8 37 9 98 10 38 11 97 12 39 13
REMARK SMILES IDX 40 14 41 15 91 16 42 17 96 18 90 19 92 20 43 21 95 22 89 23
REMARK SMILES IDX 88 24 44 26 76 27 56 28 75 29 57 30 60 31 74 32 93 33 58 34
REMARK SMILES IDX 59 35 73 37 94 38 61 39 45 40 46 41 54 42 47 43 48 44 52 45
REMARK SMILES IDX 55 46 49 47 50 48 53 49 51 50 77 51 78 52 86 53 79 54 80 55
REMARK SMILES IDX 84 56 87 57 81 58 82 59 85 60 83 61 62 62 63 63 71 64 64 65
REMARK SMILES IDX 65 66 69 67 72 68 66 69 67 70 70 71 68 72 7 73 8 74 9 75
REMARK SMILES IDX 10 76 11 77 12 79 13 80 24 81 25 82 35 83 26 85 34 86 27 87
REMARK SMILES IDX 28 88 29 89 33 90 30 91 32 92 31 93 14 94 15 95 23 96 16 97
REMARK SMILES IDX 17 98 22 99 18 101 21 102 19 103 20 104
REMARK H PARENT 3 7 92 25 60 36 10 78 24 84 16 100
REMARK Flexibility Score: inf
ROOT
ATOM      1  C   UNL A   1      31.632  30.400  26.403  1.00  0.00     0.002 C 
ENDROOT
BRANCH   1   2
ATOM      2  C   UNL A   1      31.572  31.926  26.526  1.00  0.00     0.021 C 
BRANCH   2   3
ATOM      3  C   UNL A   1      32.727  32.568  27.280  1.00  0.00     0.116 C 
BRANCH   3   4
ATOM      4  N   UNL A   1      32.484  33.968  27.573  1.00  0.00    -0.352 N 
ATOM      5  O   UNL A   1      32.591  35.878  28.765  1.00  0.00    -0.269 OA
ATOM      6  C   UNL A   1      33.050  34.767  28.532  1.00  0.00     0.251 C 
ATOM      7  H   UNL A   1      31.815  34.408  27.000  1.00  0.00     0.163 HD
BRANCH   6   8
ATOM      8  C   UNL A   1      34.225  34.282  29.285  1.00  0.00     0.039 A 
ATOM      9  C   UNL A   1      34.056  33.539  30.458  1.00  0.00     0.014 A 
ATOM     10  C   UNL A   1      35.505  34.525  28.782  1.00  0.00     0.014 A 
ATOM     11  C   UNL A   1      35.167  33.117  31.176  1.00  0.00     0.010 A 
ATOM     12  C   UNL A   1      36.619  34.028  29.459  1.00  0.00     0.010 A 
ATOM     13  C   UNL A   1      36.456  33.316  30.657  1.00  0.00    -0.014 A 
BRANCH  13  14
ATOM     14  C   UNL A   1      37.604  32.633  31.299  1.00  0.00     0.031 A 
ATOM     15  C   UNL A   1      38.280  31.462  30.653  1.00  0.00     0.074 A 
ATOM     16  C   UNL A   1      38.008  33.085  32.503  1.00  0.00     0.049 A 
ATOM     17  N   UNL A   1      39.263  30.729  31.110  1.00  0.00    -0.248 NA
ATOM     18  C   UNL A   1      37.790  31.051  29.328  1.00  0.00     0.031 C 
ATOM     19  C   UNL A   1      37.400  34.206  33.227  1.00  0.00     0.029 A 
ATOM     20  N   UNL A   1      39.013  32.664  33.335  1.00  0.00    -0.354 N 
ATOM     21  C   UNL A   1      39.497  29.761  30.144  1.00  0.00     0.074 A 
ATOM     22  C   UNL A   1      38.547  29.989  29.076  1.00  0.00     0.031 C 
ATOM     23  C   UNL A   1      38.054  34.395  34.380  1.00  0.00     0.029 A 
ATOM     24  C   UNL A   1      39.074  33.365  34.514  1.00  0.00     0.049 A 
ATOM     25  H   UNL A   1      39.629  31.929  33.110  1.00  0.00     0.167 HD
ATOM     26  C   UNL A   1      40.425  28.774  30.160  1.00  0.00     0.037 A 
ATOM     27  C   UNL A   1      39.837  33.172  35.606  1.00  0.00     0.037 A 
ATOM     28  C   UNL A   1      41.375  28.574  31.225  1.00  0.00     0.049 A 
ATOM     29  C   UNL A   1      40.825  32.041  35.602  1.00  0.00     0.074 A 
ATOM     30  C   UNL A   1      42.408  27.656  31.296  1.00  0.00     0.029 A 
ATOM     31  N   UNL A   1      41.396  29.290  32.414  1.00  0.00    -0.354 N 
ATOM     32  N   UNL A   1      41.095  31.185  34.647  1.00  0.00    -0.248 NA
ATOM     33  C   UNL A   1      41.608  31.842  36.828  1.00  0.00     0.031 C 
ATOM     34  C   UNL A   1      43.006  27.767  32.554  1.00  0.00     0.029 A 
ATOM     35  C   UNL A   1      42.390  28.797  33.244  1.00  0.00     0.049 A 
ATOM     36  H   UNL A   1      40.794  30.038  32.635  1.00  0.00     0.167 HD
ATOM     37  C   UNL A   1      42.084  30.353  35.151  1.00  0.00     0.074 A 
ATOM     38  C   UNL A   1      42.391  30.830  36.483  1.00  0.00     0.031 C 
ATOM     39  C   UNL A   1      42.676  29.283  34.569  1.00  0.00     0.037 A 
BRANCH  26  40
ATOM     40  C   UNL A   1      40.463  27.808  29.012  1.00  0.00     0.064 A 
ATOM     41  C   UNL A   1      39.671  26.652  28.991  1.00  0.00     0.173 A 
ATOM     42  C   UNL A   1      41.221  28.105  27.868  1.00  0.00     0.173 A 
ATOM     43  F   UNL A   1      38.934  26.318  30.061  1.00  0.00    -0.203 F 
ATOM     44  C   UNL A   1      39.638  25.828  27.869  1.00  0.00     0.198 A 
ATOM     45  C   UNL A   1      41.165  27.294  26.738  1.00  0.00     0.198 A 
ATOM     46  F   UNL A   1      41.990  29.203  27.834  1.00  0.00    -0.203 F 
ATOM     47  F   UNL A   1      38.887  24.717  27.876  1.00  0.00    -0.200 F 
ATOM     48  C   UNL A   1      40.375  26.156  26.739  1.00  0.00     0.200 A 
ATOM     49  F   UNL A   1      41.865  27.622  25.643  1.00  0.00    -0.200 F 
ATOM     50  F   UNL A   1      40.319  25.375  25.650  1.00  0.00    -0.200 F 
ENDBRANCH  26  40
BRANCH  27  51
ATOM     51  C   UNL A   1      39.655  34.031  36.806  1.00  0.00     0.064 A 
ATOM     52  C   UNL A   1      40.287  35.277  36.912  1.00  0.00     0.173 A 
ATOM     53  C   UNL A   1      38.867  33.607  37.889  1.00  0.00     0.173 A 
ATOM     54  F   UNL A   1      41.064  35.720  35.912  1.00  0.00    -0.203 F 
ATOM     55  C   UNL A   1      40.167  36.049  38.065  1.00  0.00     0.198 A 
ATOM     56  C   UNL A   1      38.716  34.397  39.025  1.00  0.00     0.198 A 
ATOM     57  F   UNL A   1      38.235  32.425  37.839  1.00  0.00    -0.203 F 
ATOM     58  F   UNL A   1      40.836  37.206  38.165  1.00  0.00    -0.200 F 
ATOM     59  C   UNL A   1      39.378  35.610  39.119  1.00  0.00     0.200 A 
ATOM     60  F   UNL A   1      37.935  33.978  40.030  1.00  0.00    -0.200 F 
ATOM     61  F   UNL A   1      39.266  36.353  40.228  1.00  0.00    -0.200 F 
ENDBRANCH  27  51
BRANCH  39  62
ATOM     62  C   UNL A   1      43.721  28.563  35.369  1.00  0.00     0.064 A 
ATOM     63  C   UNL A   1      43.379  27.542  36.268  1.00  0.00     0.173 A 
ATOM     64  C   UNL A   1      45.081  28.869  35.207  1.00  0.00     0.173 A 
ATOM     65  F   UNL A   1      42.091  27.229  36.474  1.00  0.00    -0.203 F 
ATOM     66  C   UNL A   1      44.359  26.869  36.992  1.00  0.00     0.198 A 
ATOM     67  C   UNL A   1      46.060  28.169  35.905  1.00  0.00     0.198 A 
ATOM     68  F   UNL A   1      45.461  29.835  34.356  1.00  0.00    -0.203 F 
ATOM     69  F   UNL A   1      44.005  25.931  37.881  1.00  0.00    -0.200 F 
ATOM     70  C   UNL A   1      45.698  27.175  36.802  1.00  0.00     0.200 A 
ATOM     71  F   UNL A   1      47.354  28.457  35.711  1.00  0.00    -0.200 F 
ATOM     72  F   UNL A   1      46.640  26.517  37.490  1.00  0.00    -0.200 F 
ENDBRANCH  39  62
ENDBRANCH  13  14
ENDBRANCH   6   8
ENDBRANCH   3   4
ENDBRANCH   2   3
ENDBRANCH   1   2
BRANCH   1  73
ATOM     73  C   UNL A   1      32.795  29.817  25.590  1.00  0.00     0.002 C 
BRANCH  73  74
ATOM     74  C   UNL A   1      33.809  28.975  26.355  1.00  0.00     0.021 C 
BRANCH  74  75
ATOM     75  C   UNL A   1      33.522  27.489  26.433  1.00  0.00     0.116 C 
BRANCH  75  76
ATOM     76  N   UNL A   1      32.186  27.061  26.698  1.00  0.00    -0.351 N 
ATOM     77  C   UNL A   1      31.292  26.390  25.905  1.00  0.00     0.283 C 
ATOM     78  H   UNL A   1      31.851  27.286  27.596  1.00  0.00     0.163 HD
ATOM     79  O   UNL A   1      30.373  25.905  26.589  1.00  0.00    -0.268 OA
BRANCH  77  80
ATOM     80  C   UNL A   1      31.236  26.388  24.284  1.00  0.00     0.307 C 
BRANCH  80  81
ATOM     81  N   UNL A   1      31.293  25.085  23.520  1.00  0.00    -0.318 N 
ATOM     82  C   UNL A   1      32.461  25.044  22.552  1.00  0.00     0.284 C 
ATOM     83  C   UNL A   1      31.437  23.843  24.288  1.00  0.00     0.284 C 
ATOM     84  H   UNL A   1      30.370  25.098  23.085  1.00  0.00     0.349 HD
ATOM     85  C   UNL A   1      33.892  24.827  23.160  1.00  0.00     0.178 C 
ATOM     86  C   UNL A   1      32.774  23.739  25.055  1.00  0.00     0.178 C 
ATOM     87  N   UNL A   1      33.861  23.697  24.093  1.00  0.00    -0.360 N 
BRANCH  87  88
ATOM     88  C   UNL A   1      34.854  22.760  24.262  1.00  0.00     0.037 A 
ATOM     89  C   UNL A   1      36.191  23.002  23.939  1.00  0.00     0.026 A 
ATOM     90  C   UNL A   1      34.539  21.498  24.798  1.00  0.00     0.026 A 
ATOM     91  C   UNL A   1      37.174  22.030  24.168  1.00  0.00     0.002 A 
ATOM     92  C   UNL A   1      35.508  20.523  25.023  1.00  0.00     0.002 A 
ATOM     93  C   UNL A   1      36.833  20.792  24.710  1.00  0.00     0.000 A 
ENDBRANCH  87  88
ENDBRANCH  80  81
BRANCH  80  94
ATOM     94  C   UNL A   1      29.852  26.963  23.922  1.00  0.00     0.044 A 
ATOM     95  C   UNL A   1      28.640  26.304  24.091  1.00  0.00     0.094 A 
ATOM     96  C   UNL A   1      29.543  28.206  23.273  1.00  0.00     0.009 A 
ATOM     97  N   UNL A   1      27.637  27.090  23.615  1.00  0.00    -0.361 N 
ATOM     98  C   UNL A   1      28.159  28.235  23.064  1.00  0.00     0.049 A 
ATOM     99  C   UNL A   1      30.314  29.287  22.794  1.00  0.00     0.014 A 
ATOM    100  H   UNL A   1      26.678  26.872  23.659  1.00  0.00     0.166 HD
ATOM    101  C   UNL A   1      27.511  29.277  22.395  1.00  0.00     0.065 A 
ATOM    102  C   UNL A   1      29.681  30.334  22.112  1.00  0.00     0.040 A 
ATOM    103  C   UNL A   1      28.306  30.316  21.919  1.00  0.00     0.125 A 
ATOM    104  F   UNL A   1      27.727  31.322  21.250  1.00  0.00    -0.207 F 
ENDBRANCH  80  94
ENDBRANCH  77  80
ENDBRANCH  75  76
ENDBRANCH  74  75
ENDBRANCH  73  74
ENDBRANCH   1  73
TORSDOF 16
ENDMDL
