MODEL 1
REMARK VINA RESULT:     -11.7      0.000      0.000
REMARK SMILES CC(=O)O[C@@H]1[C@H](O)C(C)=C(CC[C@@H](C)CC(=O)NCCCCCCNC(=O)c2ccc(-c3c4nc(c(-c5c(F)c(F)c(F)c(F)c5F)c5ccc([nH]5)c(-c5c(F)c(F)c(F)c(F)c5F)c5nc(c(-c6c(F)c(F)c(F)c(F)c6F)c6ccc3[nH]6)C=C5)C=C4)cc2)[C@@]2(C)CCCC(C)(C)[C@H]12
REMARK SMILES IDX 19 1 18 2 16 3 17 4 15 6 13 7 14 8 12 9 11 10 10 11 5 12
REMARK SMILES IDX 6 13 99 14 8 15 91 16 96 17 9 18 93 19 92 20 95 21 97 22
REMARK SMILES IDX 98 23 94 24 4 25 2 26 1 27 3 28 7 29 20 31 21 32 22 33 23 34
REMARK SMILES IDX 24 35 25 36 26 37 27 39 28 40 29 41 90 42 30 43 89 44 31 45
REMARK SMILES IDX 32 46 33 47 83 48 34 49 88 50 82 51 84 52 35 53 87 54 81 55
REMARK SMILES IDX 80 56 36 58 68 59 48 60 67 61 49 62 52 63 66 64 85 65 50 66
REMARK SMILES IDX 51 67 65 69 86 70 53 71 37 72 38 73 46 74 39 75 40 76 44 77
REMARK SMILES IDX 47 78 41 79 42 80 45 81 43 82 69 83 70 84 78 85 71 86 72 87
REMARK SMILES IDX 76 88 79 89 73 90 74 91 77 92 75 93 54 94 55 95 63 96 56 97
REMARK SMILES IDX 57 98 61 99 64 100 58 101 59 102 62 103 60 104
REMARK H PARENT 18 5 7 30 25 38 84 57 52 68
REMARK Flexibility Score: inf
ROOT
ATOM      1  C   UNL A   1      35.586  31.547  27.978  1.00  0.00     0.116 C 
ENDROOT
BRANCH   1   2
ATOM      2  N   UNL A   1      35.665  30.264  27.292  1.00  0.00    -0.356 N 
ATOM      3  C   UNL A   1      34.705  29.360  26.948  1.00  0.00     0.220 C 
ATOM      4  O   UNL A   1      35.072  28.272  26.494  1.00  0.00    -0.275 OA
ATOM      5  H   UNL A   1      36.577  30.001  27.031  1.00  0.00     0.163 HD
BRANCH   3   6
ATOM      6  C   UNL A   1      33.221  29.645  27.144  1.00  0.00     0.103 C 
BRANCH   6   7
ATOM      7  C   UNL A   1      32.377  28.973  26.039  1.00  0.00    -0.005 C 
ATOM      8  C   UNL A   1      31.398  29.958  25.400  1.00  0.00     0.008 C 
BRANCH   7   9
ATOM      9  C   UNL A   1      31.641  27.767  26.623  1.00  0.00     0.008 C 
BRANCH   9  10
ATOM     10  C   UNL A   1      32.194  26.343  26.535  1.00  0.00     0.032 C 
BRANCH  10  11
ATOM     11  C   UNL A   1      31.327  25.191  25.966  1.00  0.00    -0.062 C 
ATOM     12  C   UNL A   1      33.005  22.807  25.501  1.00  0.00     0.213 C 
ATOM     13  C   UNL A   1      32.481  23.324  26.879  1.00  0.00     0.181 C 
ATOM     14  C   UNL A   1      32.999  24.037  24.467  1.00  0.00     0.049 C 
ATOM     15  C   UNL A   1      31.170  24.066  26.707  1.00  0.00    -0.042 C 
ATOM     16  C   UNL A   1      31.641  24.876  24.448  1.00  0.00    -0.004 C 
ATOM     17  C   UNL A   1      33.650  23.834  23.058  1.00  0.00    -0.028 C 
ATOM     18  C   UNL A   1      29.938  23.190  26.667  1.00  0.00     0.042 C 
ATOM     19  C   UNL A   1      31.816  26.188  23.622  1.00  0.00     0.011 C 
ATOM     20  C   UNL A   1      30.452  24.122  23.791  1.00  0.00     0.016 C 
ATOM     21  C   UNL A   1      33.776  25.228  22.372  1.00  0.00     0.007 C 
ATOM     22  C   UNL A   1      35.088  23.293  23.237  1.00  0.00     0.011 C 
ATOM     23  C   UNL A   1      32.906  22.870  22.122  1.00  0.00     0.011 C 
ATOM     24  C   UNL A   1      32.460  25.992  22.254  1.00  0.00     0.001 C 
BRANCH  12  25
ATOM     25  O   UNL A   1      32.249  21.685  25.003  1.00  0.00    -0.459 OA
BRANCH  25  26
ATOM     26  C   UNL A   1      32.826  20.453  25.026  1.00  0.00     0.303 C 
ATOM     27  C   UNL A   1      34.315  20.418  25.207  1.00  0.00     0.139 C 
ATOM     28  O   UNL A   1      32.152  19.429  25.002  1.00  0.00    -0.253 OA
ENDBRANCH  25  26
ENDBRANCH  12  25
BRANCH  13  29
ATOM     29  O   UNL A   1      32.384  22.373  27.919  1.00  0.00    -0.385 OA
ATOM     30  H   UNL A   1      33.263  22.015  28.112  1.00  0.00     0.211 HD
ENDBRANCH  13  29
ENDBRANCH  10  11
ENDBRANCH   9  10
ENDBRANCH   7   9
ENDBRANCH   6   7
ENDBRANCH   3   6
ENDBRANCH   1   2
BRANCH   1  31
ATOM     31  C   UNL A   1      34.151  32.109  27.928  1.00  0.00     0.021 C 
BRANCH  31  32
ATOM     32  C   UNL A   1      34.001  33.535  28.443  1.00  0.00     0.002 C 
BRANCH  32  33
ATOM     33  C   UNL A   1      34.941  33.885  29.599  1.00  0.00     0.002 C 
BRANCH  33  34
ATOM     34  C   UNL A   1      34.455  33.474  30.995  1.00  0.00     0.021 C 
BRANCH  34  35
ATOM     35  C   UNL A   1      35.085  32.196  31.546  1.00  0.00     0.116 C 
BRANCH  35  36
ATOM     36  N   UNL A   1      35.655  32.408  32.866  1.00  0.00    -0.352 N 
ATOM     37  C   UNL A   1      36.845  31.968  33.390  1.00  0.00     0.251 C 
ATOM     38  H   UNL A   1      35.105  32.948  33.478  1.00  0.00     0.163 HD
ATOM     39  O   UNL A   1      37.027  31.978  34.602  1.00  0.00    -0.269 OA
BRANCH  37  40
ATOM     40  C   UNL A   1      37.916  31.484  32.494  1.00  0.00     0.039 A 
ATOM     41  C   UNL A   1      37.952  31.934  31.171  1.00  0.00     0.014 A 
ATOM     42  C   UNL A   1      38.852  30.547  32.942  1.00  0.00     0.014 A 
ATOM     43  C   UNL A   1      38.961  31.487  30.314  1.00  0.00     0.010 A 
ATOM     44  C   UNL A   1      39.893  30.152  32.107  1.00  0.00     0.010 A 
ATOM     45  C   UNL A   1      39.956  30.615  30.784  1.00  0.00    -0.014 A 
BRANCH  45  46
ATOM     46  C   UNL A   1      41.076  30.185  29.910  1.00  0.00     0.031 A 
ATOM     47  C   UNL A   1      41.058  28.828  29.264  1.00  0.00     0.074 A 
ATOM     48  C   UNL A   1      42.142  30.994  29.756  1.00  0.00     0.049 A 
ATOM     49  N   UNL A   1      41.973  28.250  28.528  1.00  0.00    -0.248 NA
ATOM     50  C   UNL A   1      39.864  28.001  29.496  1.00  0.00     0.031 C 
ATOM     51  C   UNL A   1      42.296  32.313  30.373  1.00  0.00     0.029 A 
ATOM     52  N   UNL A   1      43.304  30.821  29.047  1.00  0.00    -0.354 N 
ATOM     53  C   UNL A   1      41.473  26.991  28.222  1.00  0.00     0.074 A 
ATOM     54  C   UNL A   1      40.196  26.869  28.892  1.00  0.00     0.031 C 
ATOM     55  C   UNL A   1      43.474  32.837  30.000  1.00  0.00     0.029 A 
ATOM     56  C   UNL A   1      44.175  31.878  29.153  1.00  0.00     0.049 A 
ATOM     57  H   UNL A   1      43.494  30.017  28.513  1.00  0.00     0.167 HD
ATOM     58  C   UNL A   1      42.021  26.033  27.437  1.00  0.00     0.037 A 
ATOM     59  C   UNL A   1      45.405  32.049  28.633  1.00  0.00     0.037 A 
ATOM     60  C   UNL A   1      43.282  26.170  26.753  1.00  0.00     0.049 A 
ATOM     61  C   UNL A   1      45.991  30.966  27.767  1.00  0.00     0.074 A 
ATOM     62  C   UNL A   1      43.891  25.283  25.882  1.00  0.00     0.029 A 
ATOM     63  N   UNL A   1      44.128  27.262  26.869  1.00  0.00    -0.354 N 
ATOM     64  N   UNL A   1      45.477  29.811  27.425  1.00  0.00    -0.248 NA
ATOM     65  C   UNL A   1      47.327  31.217  27.208  1.00  0.00     0.031 C 
ATOM     66  C   UNL A   1      45.129  25.818  25.509  1.00  0.00     0.029 A 
ATOM     67  C   UNL A   1      45.267  27.060  26.106  1.00  0.00     0.049 A 
ATOM     68  H   UNL A   1      43.946  28.062  27.414  1.00  0.00     0.167 HD
ATOM     69  C   UNL A   1      46.411  29.207  26.594  1.00  0.00     0.074 A 
ATOM     70  C   UNL A   1      47.516  30.134  26.468  1.00  0.00     0.031 C 
ATOM     71  C   UNL A   1      46.358  27.995  25.989  1.00  0.00     0.037 A 
BRANCH  58  72
ATOM     72  C   UNL A   1      41.259  24.749  27.267  1.00  0.00     0.064 A 
ATOM     73  C   UNL A   1      41.644  23.571  27.926  1.00  0.00     0.173 A 
ATOM     74  C   UNL A   1      40.103  24.707  26.472  1.00  0.00     0.173 A 
ATOM     75  F   UNL A   1      42.747  23.555  28.690  1.00  0.00    -0.203 F 
ATOM     76  C   UNL A   1      40.917  22.394  27.774  1.00  0.00     0.198 A 
ATOM     77  C   UNL A   1      39.361  23.535  26.347  1.00  0.00     0.198 A 
ATOM     78  F   UNL A   1      39.688  25.805  25.825  1.00  0.00    -0.203 F 
ATOM     79  F   UNL A   1      41.330  21.270  28.377  1.00  0.00    -0.200 F 
ATOM     80  C   UNL A   1      39.773  22.379  26.991  1.00  0.00     0.200 A 
ATOM     81  F   UNL A   1      38.247  23.526  25.601  1.00  0.00    -0.200 F 
ATOM     82  F   UNL A   1      39.067  21.247  26.854  1.00  0.00    -0.200 F 
ENDBRANCH  58  72
BRANCH  59  83
ATOM     83  C   UNL A   1      46.157  33.302  28.901  1.00  0.00     0.064 A 
ATOM     84  C   UNL A   1      45.944  34.450  28.125  1.00  0.00     0.173 A 
ATOM     85  C   UNL A   1      47.103  33.379  29.934  1.00  0.00     0.173 A 
ATOM     86  F   UNL A   1      45.064  34.420  27.113  1.00  0.00    -0.203 F 
ATOM     87  C   UNL A   1      46.665  35.620  28.357  1.00  0.00     0.198 A 
ATOM     88  C   UNL A   1      47.801  34.557  30.184  1.00  0.00     0.198 A 
ATOM     89  F   UNL A   1      47.339  32.310  30.710  1.00  0.00    -0.203 F 
ATOM     90  F   UNL A   1      46.475  36.687  27.571  1.00  0.00    -0.200 F 
ATOM     91  C   UNL A   1      47.588  35.674  29.390  1.00  0.00     0.200 A 
ATOM     92  F   UNL A   1      48.681  34.611  31.194  1.00  0.00    -0.200 F 
ATOM     93  F   UNL A   1      48.278  36.801  29.616  1.00  0.00    -0.200 F 
ENDBRANCH  59  83
BRANCH  71  94
ATOM     94  C   UNL A   1      47.517  27.613  25.115  1.00  0.00     0.064 A 
ATOM     95  C   UNL A   1      47.495  27.827  23.729  1.00  0.00     0.173 A 
ATOM     96  C   UNL A   1      48.677  27.057  25.677  1.00  0.00     0.173 A 
ATOM     97  F   UNL A   1      46.403  28.340  23.142  1.00  0.00    -0.203 F 
ATOM     98  C   UNL A   1      48.582  27.475  22.934  1.00  0.00     0.198 A 
ATOM     99  C   UNL A   1      49.773  26.736  24.883  1.00  0.00     0.198 A 
ATOM    100  F   UNL A   1      48.751  26.839  26.998  1.00  0.00    -0.203 F 
ATOM    101  F   UNL A   1      48.520  27.642  21.605  1.00  0.00    -0.200 F 
ATOM    102  C   UNL A   1      49.722  26.937  23.511  1.00  0.00     0.200 A 
ATOM    103  F   UNL A   1      50.880  26.229  25.444  1.00  0.00    -0.200 F 
ATOM    104  F   UNL A   1      50.770  26.604  22.744  1.00  0.00    -0.200 F 
ENDBRANCH  71  94
ENDBRANCH  45  46
ENDBRANCH  37  40
ENDBRANCH  35  36
ENDBRANCH  34  35
ENDBRANCH  33  34
ENDBRANCH  32  33
ENDBRANCH  31  32
ENDBRANCH   1  31
TORSDOF 20
ENDMDL
MODEL 2
REMARK VINA RESULT:     -11.5      5.376     10.074
REMARK SMILES CC(=O)O[C@@H]1[C@H](O)C(C)=C(CC[C@@H](C)CC(=O)NCCCCCCNC(=O)c2ccc(-c3c4nc(c(-c5c(F)c(F)c(F)c(F)c5F)c5ccc([nH]5)c(-c5c(F)c(F)c(F)c(F)c5F)c5nc(c(-c6c(F)c(F)c(F)c(F)c6F)c6ccc3[nH]6)C=C5)C=C4)cc2)[C@@]2(C)CCCC(C)(C)[C@H]12
REMARK SMILES IDX 19 1 18 2 16 3 17 4 15 6 13 7 14 8 12 9 11 10 10 11 5 12
REMARK SMILES IDX 6 13 99 14 8 15 91 16 96 17 9 18 93 19 92 20 95 21 97 22
REMARK SMILES IDX 98 23 94 24 4 25 2 26 1 27 3 28 7 29 20 31 21 32 22 33 23 34
REMARK SMILES IDX 24 35 25 36 26 37 27 39 28 40 29 41 90 42 30 43 89 44 31 45
REMARK SMILES IDX 32 46 33 47 83 48 34 49 88 50 82 51 84 52 35 53 87 54 81 55
REMARK SMILES IDX 80 56 36 58 68 59 48 60 67 61 49 62 52 63 66 64 85 65 50 66
REMARK SMILES IDX 51 67 65 69 86 70 53 71 37 72 38 73 46 74 39 75 40 76 44 77
REMARK SMILES IDX 47 78 41 79 42 80 45 81 43 82 69 83 70 84 78 85 71 86 72 87
REMARK SMILES IDX 76 88 79 89 73 90 74 91 77 92 75 93 54 94 55 95 63 96 56 97
REMARK SMILES IDX 57 98 61 99 64 100 58 101 59 102 62 103 60 104
REMARK H PARENT 18 5 7 30 25 38 84 57 52 68
REMARK Flexibility Score: inf
ROOT
ATOM      1  C   UNL A   1      44.157  24.565  30.075  1.00  0.00     0.116 C 
ENDROOT
BRANCH   1   2
ATOM      2  N   UNL A   1      43.014  24.208  29.243  1.00  0.00    -0.356 N 
ATOM      3  C   UNL A   1      42.064  24.972  28.634  1.00  0.00     0.220 C 
ATOM      4  O   UNL A   1      41.112  24.394  28.101  1.00  0.00    -0.275 OA
ATOM      5  H   UNL A   1      42.909  23.241  29.096  1.00  0.00     0.163 HD
BRANCH   3   6
ATOM      6  C   UNL A   1      42.132  26.494  28.631  1.00  0.00     0.103 C 
BRANCH   6   7
ATOM      7  C   UNL A   1      40.792  27.110  29.090  1.00  0.00    -0.005 C 
ATOM      8  C   UNL A   1      39.973  27.625  27.907  1.00  0.00     0.008 C 
BRANCH   7   9
ATOM      9  C   UNL A   1      41.063  28.226  30.099  1.00  0.00     0.008 C 
BRANCH   9  10
ATOM     10  C   UNL A   1      40.053  29.339  30.389  1.00  0.00     0.032 C 
BRANCH  10  11
ATOM     11  C   UNL A   1      40.083  30.103  31.737  1.00  0.00    -0.062 C 
ATOM     12  C   UNL A   1      37.421  31.250  32.298  1.00  0.00     0.213 C 
ATOM     13  C   UNL A   1      37.843  29.753  32.452  1.00  0.00     0.181 C 
ATOM     14  C   UNL A   1      38.431  31.953  31.267  1.00  0.00     0.049 C 
ATOM     15  C   UNL A   1      39.323  29.644  32.762  1.00  0.00    -0.042 C 
ATOM     16  C   UNL A   1      39.975  31.671  31.558  1.00  0.00    -0.004 C 
ATOM     17  C   UNL A   1      38.122  33.414  30.795  1.00  0.00    -0.028 C 
ATOM     18  C   UNL A   1      39.685  29.805  34.222  1.00  0.00     0.042 C 
ATOM     19  C   UNL A   1      40.859  32.167  30.372  1.00  0.00     0.011 C 
ATOM     20  C   UNL A   1      40.515  32.401  32.819  1.00  0.00     0.016 C 
ATOM     21  C   UNL A   1      39.064  33.752  29.600  1.00  0.00     0.007 C 
ATOM     22  C   UNL A   1      36.675  33.476  30.253  1.00  0.00     0.011 C 
ATOM     23  C   UNL A   1      38.259  34.498  31.875  1.00  0.00     0.011 C 
ATOM     24  C   UNL A   1      40.550  33.585  29.905  1.00  0.00     0.001 C 
BRANCH  12  25
ATOM     25  O   UNL A   1      37.372  31.946  33.560  1.00  0.00    -0.459 OA
BRANCH  25  26
ATOM     26  C   UNL A   1      36.252  32.654  33.867  1.00  0.00     0.303 C 
ATOM     27  C   UNL A   1      36.389  33.677  34.955  1.00  0.00     0.139 C 
ATOM     28  O   UNL A   1      35.218  32.532  33.219  1.00  0.00    -0.253 OA
ENDBRANCH  25  26
ENDBRANCH  12  25
BRANCH  13  29
ATOM     29  O   UNL A   1      37.086  28.968  33.349  1.00  0.00    -0.385 OA
ATOM     30  H   UNL A   1      36.271  28.675  32.914  1.00  0.00     0.211 HD
ENDBRANCH  13  29
ENDBRANCH  10  11
ENDBRANCH   9  10
ENDBRANCH   7   9
ENDBRANCH   6   7
ENDBRANCH   3   6
ENDBRANCH   1   2
BRANCH   1  31
ATOM     31  C   UNL A   1      44.152  23.758  31.390  1.00  0.00     0.021 C 
BRANCH  31  32
ATOM     32  C   UNL A   1      44.532  24.554  32.632  1.00  0.00     0.002 C 
BRANCH  32  33
ATOM     33  C   UNL A   1      45.711  23.969  33.413  1.00  0.00     0.002 C 
BRANCH  33  34
ATOM     34  C   UNL A   1      45.339  23.083  34.609  1.00  0.00     0.021 C 
BRANCH  34  35
ATOM     35  C   UNL A   1      43.889  23.204  35.075  1.00  0.00     0.116 C 
BRANCH  35  36
ATOM     36  N   UNL A   1      43.806  23.708  36.436  1.00  0.00    -0.352 N 
ATOM     37  C   UNL A   1      44.004  24.978  36.916  1.00  0.00     0.251 C 
ATOM     38  H   UNL A   1      43.572  23.036  37.117  1.00  0.00     0.163 HD
ATOM     39  O   UNL A   1      44.193  25.162  38.113  1.00  0.00    -0.269 OA
BRANCH  37  40
ATOM     40  C   UNL A   1      43.986  26.131  35.992  1.00  0.00     0.039 A 
ATOM     41  C   UNL A   1      42.782  26.499  35.386  1.00  0.00     0.014 A 
ATOM     42  C   UNL A   1      45.166  26.816  35.683  1.00  0.00     0.014 A 
ATOM     43  C   UNL A   1      42.751  27.590  34.514  1.00  0.00     0.010 A 
ATOM     44  C   UNL A   1      45.121  27.941  34.865  1.00  0.00     0.010 A 
ATOM     45  C   UNL A   1      43.914  28.337  34.269  1.00  0.00    -0.014 A 
BRANCH  45  46
ATOM     46  C   UNL A   1      43.886  29.541  33.401  1.00  0.00     0.031 A 
ATOM     47  C   UNL A   1      44.160  29.423  31.928  1.00  0.00     0.074 A 
ATOM     48  C   UNL A   1      43.683  30.750  33.957  1.00  0.00     0.049 A 
ATOM     49  N   UNL A   1      44.248  30.366  31.025  1.00  0.00    -0.248 NA
ATOM     50  C   UNL A   1      44.388  28.067  31.405  1.00  0.00     0.031 C 
ATOM     51  C   UNL A   1      43.456  30.997  35.383  1.00  0.00     0.029 A 
ATOM     52  N   UNL A   1      43.648  32.002  33.395  1.00  0.00    -0.354 N 
ATOM     53  C   UNL A   1      44.554  29.722  29.834  1.00  0.00     0.074 A 
ATOM     54  C   UNL A   1      44.686  28.313  30.136  1.00  0.00     0.031 C 
ATOM     55  C   UNL A   1      43.287  32.314  35.580  1.00  0.00     0.029 A 
ATOM     56  C   UNL A   1      43.433  33.008  34.304  1.00  0.00     0.049 A 
ATOM     57  H   UNL A   1      43.766  32.162  32.431  1.00  0.00     0.167 HD
ATOM     58  C   UNL A   1      44.693  30.255  28.596  1.00  0.00     0.037 A 
ATOM     59  C   UNL A   1      43.371  34.342  34.130  1.00  0.00     0.037 A 
ATOM     60  C   UNL A   1      44.538  31.656  28.297  1.00  0.00     0.049 A 
ATOM     61  C   UNL A   1      43.532  34.908  32.745  1.00  0.00     0.074 A 
ATOM     62  C   UNL A   1      44.593  32.286  27.065  1.00  0.00     0.029 A 
ATOM     63  N   UNL A   1      44.301  32.643  29.242  1.00  0.00    -0.354 N 
ATOM     64  N   UNL A   1      43.748  34.282  31.615  1.00  0.00    -0.248 NA
ATOM     65  C   UNL A   1      43.432  36.368  32.611  1.00  0.00     0.031 C 
ATOM     66  C   UNL A   1      44.439  33.661  27.271  1.00  0.00     0.029 A 
ATOM     67  C   UNL A   1      44.235  33.882  28.623  1.00  0.00     0.049 A 
ATOM     68  H   UNL A   1      44.198  32.487  30.208  1.00  0.00     0.167 HD
ATOM     69  C   UNL A   1      43.786  35.264  30.634  1.00  0.00     0.074 A 
ATOM     70  C   UNL A   1      43.551  36.527  31.302  1.00  0.00     0.031 C 
ATOM     71  C   UNL A   1      43.997  35.131  29.302  1.00  0.00     0.037 A 
BRANCH  58  72
ATOM     72  C   UNL A   1      45.027  29.322  27.467  1.00  0.00     0.064 A 
ATOM     73  C   UNL A   1      46.348  28.935  27.196  1.00  0.00     0.173 A 
ATOM     74  C   UNL A   1      44.007  28.772  26.674  1.00  0.00     0.173 A 
ATOM     75  F   UNL A   1      47.360  29.440  27.918  1.00  0.00    -0.203 F 
ATOM     76  C   UNL A   1      46.638  28.055  26.157  1.00  0.00     0.198 A 
ATOM     77  C   UNL A   1      44.300  27.868  25.655  1.00  0.00     0.198 A 
ATOM     78  F   UNL A   1      42.726  29.104  26.893  1.00  0.00    -0.203 F 
ATOM     79  F   UNL A   1      47.913  27.736  25.889  1.00  0.00    -0.200 F 
ATOM     80  C   UNL A   1      45.615  27.517  25.394  1.00  0.00     0.200 A 
ATOM     81  F   UNL A   1      43.307  27.338  24.927  1.00  0.00    -0.200 F 
ATOM     82  F   UNL A   1      45.896  26.661  24.400  1.00  0.00    -0.200 F 
ENDBRANCH  58  72
BRANCH  59  83
ATOM     83  C   UNL A   1      43.125  35.232  35.295  1.00  0.00     0.064 A 
ATOM     84  C   UNL A   1      41.821  35.529  35.712  1.00  0.00     0.173 A 
ATOM     85  C   UNL A   1      44.186  35.805  36.011  1.00  0.00     0.173 A 
ATOM     86  F   UNL A   1      40.773  35.020  35.047  1.00  0.00    -0.203 F 
ATOM     87  C   UNL A   1      41.585  36.382  36.788  1.00  0.00     0.198 A 
ATOM     88  C   UNL A   1      43.951  36.635  37.105  1.00  0.00     0.198 A 
ATOM     89  F   UNL A   1      45.454  35.547  35.656  1.00  0.00    -0.203 F 
ATOM     90  F   UNL A   1      40.328  36.686  37.137  1.00  0.00    -0.200 F 
ATOM     91  C   UNL A   1      42.651  36.930  37.487  1.00  0.00     0.200 A 
ATOM     92  F   UNL A   1      44.983  37.149  37.788  1.00  0.00    -0.200 F 
ATOM     93  F   UNL A   1      42.425  37.747  38.525  1.00  0.00    -0.200 F 
ENDBRANCH  59  83
BRANCH  71  94
ATOM     94  C   UNL A   1      43.956  36.382  28.472  1.00  0.00     0.064 A 
ATOM     95  C   UNL A   1      45.110  37.138  28.223  1.00  0.00     0.173 A 
ATOM     96  C   UNL A   1      42.752  36.808  27.891  1.00  0.00     0.173 A 
ATOM     97  F   UNL A   1      46.283  36.781  28.770  1.00  0.00    -0.203 F 
ATOM     98  C   UNL A   1      45.056  38.290  27.444  1.00  0.00     0.198 A 
ATOM     99  C   UNL A   1      42.707  37.943  27.088  1.00  0.00     0.198 A 
ATOM    100  F   UNL A   1      41.620  36.116  28.093  1.00  0.00    -0.203 F 
ATOM    101  F   UNL A   1      46.162  39.026  27.260  1.00  0.00    -0.200 F 
ATOM    102  C   UNL A   1      43.857  38.688  26.871  1.00  0.00     0.200 A 
ATOM    103  F   UNL A   1      41.551  38.318  26.523  1.00  0.00    -0.200 F 
ATOM    104  F   UNL A   1      43.809  39.794  26.116  1.00  0.00    -0.200 F 
ENDBRANCH  71  94
ENDBRANCH  45  46
ENDBRANCH  37  40
ENDBRANCH  35  36
ENDBRANCH  34  35
ENDBRANCH  33  34
ENDBRANCH  32  33
ENDBRANCH  31  32
ENDBRANCH   1  31
TORSDOF 20
ENDMDL
MODEL 3
REMARK VINA RESULT:     -11.5      5.232      7.786
REMARK SMILES CC(=O)O[C@@H]1[C@H](O)C(C)=C(CC[C@@H](C)CC(=O)NCCCCCCNC(=O)c2ccc(-c3c4nc(c(-c5c(F)c(F)c(F)c(F)c5F)c5ccc([nH]5)c(-c5c(F)c(F)c(F)c(F)c5F)c5nc(c(-c6c(F)c(F)c(F)c(F)c6F)c6ccc3[nH]6)C=C5)C=C4)cc2)[C@@]2(C)CCCC(C)(C)[C@H]12
REMARK SMILES IDX 19 1 18 2 16 3 17 4 15 6 13 7 14 8 12 9 11 10 10 11 5 12
REMARK SMILES IDX 6 13 99 14 8 15 91 16 96 17 9 18 93 19 92 20 95 21 97 22
REMARK SMILES IDX 98 23 94 24 4 25 2 26 1 27 3 28 7 29 20 31 21 32 22 33 23 34
REMARK SMILES IDX 24 35 25 36 26 37 27 39 28 40 29 41 90 42 30 43 89 44 31 45
REMARK SMILES IDX 32 46 33 47 83 48 34 49 88 50 82 51 84 52 35 53 87 54 81 55
REMARK SMILES IDX 80 56 36 58 68 59 48 60 67 61 49 62 52 63 66 64 85 65 50 66
REMARK SMILES IDX 51 67 65 69 86 70 53 71 37 72 38 73 46 74 39 75 40 76 44 77
REMARK SMILES IDX 47 78 41 79 42 80 45 81 43 82 69 83 70 84 78 85 71 86 72 87
REMARK SMILES IDX 76 88 79 89 73 90 74 91 77 92 75 93 54 94 55 95 63 96 56 97
REMARK SMILES IDX 57 98 61 99 64 100 58 101 59 102 62 103 60 104
REMARK H PARENT 18 5 7 30 25 38 84 57 52 68
REMARK Flexibility Score: inf
ROOT
ATOM      1  C   UNL A   1      39.346  32.943  29.852  1.00  0.00     0.116 C 
ENDROOT
BRANCH   1   2
ATOM      2  N   UNL A   1      38.282  32.029  29.460  1.00  0.00    -0.356 N 
ATOM      3  C   UNL A   1      38.277  30.683  29.243  1.00  0.00     0.220 C 
ATOM      4  O   UNL A   1      37.254  30.178  28.772  1.00  0.00    -0.275 OA
ATOM      5  H   UNL A   1      37.408  32.462  29.326  1.00  0.00     0.163 HD
BRANCH   3   6
ATOM      6  C   UNL A   1      39.497  29.816  29.528  1.00  0.00     0.103 C 
BRANCH   6   7
ATOM      7  C   UNL A   1      40.027  29.163  28.234  1.00  0.00    -0.005 C 
ATOM      8  C   UNL A   1      39.468  27.753  28.044  1.00  0.00     0.008 C 
BRANCH   7   9
ATOM      9  C   UNL A   1      41.556  29.149  28.260  1.00  0.00     0.008 C 
BRANCH   9  10
ATOM     10  C   UNL A   1      42.361  27.935  28.728  1.00  0.00     0.032 C 
BRANCH  10  11
ATOM     11  C   UNL A   1      43.681  27.538  28.018  1.00  0.00    -0.062 C 
ATOM     12  C   UNL A   1      43.195  25.266  26.196  1.00  0.00     0.213 C 
ATOM     13  C   UNL A   1      42.809  26.760  25.947  1.00  0.00     0.181 C 
ATOM     14  C   UNL A   1      43.356  25.045  27.779  1.00  0.00     0.049 C 
ATOM     15  C   UNL A   1      43.766  27.686  26.673  1.00  0.00    -0.042 C 
ATOM     16  C   UNL A   1      44.251  26.147  28.511  1.00  0.00    -0.004 C 
ATOM     17  C   UNL A   1      43.563  23.589  28.315  1.00  0.00    -0.028 C 
ATOM     18  C   UNL A   1      45.051  27.986  25.934  1.00  0.00     0.042 C 
ATOM     19  C   UNL A   1      44.138  26.006  30.061  1.00  0.00     0.011 C 
ATOM     20  C   UNL A   1      45.766  26.034  28.188  1.00  0.00     0.016 C 
ATOM     21  C   UNL A   1      43.400  23.610  29.864  1.00  0.00     0.007 C 
ATOM     22  C   UNL A   1      42.442  22.680  27.760  1.00  0.00     0.011 C 
ATOM     23  C   UNL A   1      44.907  22.938  27.952  1.00  0.00     0.011 C 
ATOM     24  C   UNL A   1      44.328  24.586  30.581  1.00  0.00     0.001 C 
BRANCH  12  25
ATOM     25  O   UNL A   1      44.379  24.870  25.476  1.00  0.00    -0.459 OA
BRANCH  25  26
ATOM     26  C   UNL A   1      44.319  23.762  24.689  1.00  0.00     0.303 C 
ATOM     27  C   UNL A   1      45.633  23.182  24.255  1.00  0.00     0.139 C 
ATOM     28  O   UNL A   1      43.253  23.210  24.436  1.00  0.00    -0.253 OA
ENDBRANCH  25  26
ENDBRANCH  12  25
BRANCH  13  29
ATOM     29  O   UNL A   1      42.651  27.160  24.603  1.00  0.00    -0.385 OA
ATOM     30  H   UNL A   1      42.250  28.042  24.573  1.00  0.00     0.211 HD
ENDBRANCH  13  29
ENDBRANCH  10  11
ENDBRANCH   9  10
ENDBRANCH   7   9
ENDBRANCH   6   7
ENDBRANCH   3   6
ENDBRANCH   1   2
BRANCH   1  31
ATOM     31  C   UNL A   1      39.489  32.995  31.387  1.00  0.00     0.021 C 
BRANCH  31  32
ATOM     32  C   UNL A   1      39.198  34.352  32.014  1.00  0.00     0.002 C 
BRANCH  32  33
ATOM     33  C   UNL A   1      38.094  34.329  33.074  1.00  0.00     0.002 C 
BRANCH  33  34
ATOM     34  C   UNL A   1      36.803  33.606  32.670  1.00  0.00     0.021 C 
BRANCH  34  35
ATOM     35  C   UNL A   1      36.698  32.159  33.147  1.00  0.00     0.116 C 
BRANCH  35  36
ATOM     36  N   UNL A   1      36.926  32.050  34.579  1.00  0.00    -0.352 N 
ATOM     37  C   UNL A   1      37.911  31.384  35.263  1.00  0.00     0.251 C 
ATOM     38  H   UNL A   1      36.275  32.527  35.144  1.00  0.00     0.163 HD
ATOM     39  O   UNL A   1      37.778  31.144  36.458  1.00  0.00    -0.269 OA
BRANCH  37  40
ATOM     40  C   UNL A   1      39.140  30.954  34.564  1.00  0.00     0.039 A 
ATOM     41  C   UNL A   1      40.336  31.631  34.813  1.00  0.00     0.014 A 
ATOM     42  C   UNL A   1      39.101  29.921  33.623  1.00  0.00     0.014 A 
ATOM     43  C   UNL A   1      41.507  31.234  34.161  1.00  0.00     0.010 A 
ATOM     44  C   UNL A   1      40.279  29.484  33.022  1.00  0.00     0.010 A 
ATOM     45  C   UNL A   1      41.492  30.138  33.283  1.00  0.00    -0.014 A 
BRANCH  45  46
ATOM     46  C   UNL A   1      42.738  29.656  32.635  1.00  0.00     0.031 A 
ATOM     47  C   UNL A   1      43.499  28.498  33.218  1.00  0.00     0.074 A 
ATOM     48  C   UNL A   1      43.218  30.310  31.561  1.00  0.00     0.049 A 
ATOM     49  N   UNL A   1      44.640  27.982  32.835  1.00  0.00    -0.248 NA
ATOM     50  C   UNL A   1      42.914  27.851  34.402  1.00  0.00     0.031 C 
ATOM     51  C   UNL A   1      42.594  31.478  30.935  1.00  0.00     0.029 A 
ATOM     52  N   UNL A   1      44.348  30.097  30.812  1.00  0.00    -0.354 N 
ATOM     53  C   UNL A   1      44.914  26.962  33.736  1.00  0.00     0.074 A 
ATOM     54  C   UNL A   1      43.847  26.963  34.714  1.00  0.00     0.031 C 
ATOM     55  C   UNL A   1      43.339  31.866  29.887  1.00  0.00     0.029 A 
ATOM     56  C   UNL A   1      44.511  31.002  29.791  1.00  0.00     0.049 A 
ATOM     57  H   UNL A   1      44.982  29.364  30.989  1.00  0.00     0.167 HD
ATOM     58  C   UNL A   1      45.951  26.090  33.735  1.00  0.00     0.037 A 
ATOM     59  C   UNL A   1      45.500  31.125  28.886  1.00  0.00     0.037 A 
ATOM     60  C   UNL A   1      46.997  26.079  32.745  1.00  0.00     0.049 A 
ATOM     61  C   UNL A   1      46.642  30.146  28.910  1.00  0.00     0.074 A 
ATOM     62  C   UNL A   1      48.055  25.195  32.619  1.00  0.00     0.029 A 
ATOM     63  N   UNL A   1      47.119  26.999  31.715  1.00  0.00    -0.354 N 
ATOM     64  N   UNL A   1      46.852  29.140  29.722  1.00  0.00    -0.248 NA
ATOM     65  C   UNL A   1      47.681  30.316  27.884  1.00  0.00     0.031 C 
ATOM     66  C   UNL A   1      48.845  25.610  31.540  1.00  0.00     0.029 A 
ATOM     67  C   UNL A   1      48.250  26.720  30.964  1.00  0.00     0.049 A 
ATOM     68  H   UNL A   1      46.495  27.741  31.544  1.00  0.00     0.167 HD
ATOM     69  C   UNL A   1      48.030  28.542  29.294  1.00  0.00     0.074 A 
ATOM     70  C   UNL A   1      48.478  29.289  28.137  1.00  0.00     0.031 C 
ATOM     71  C   UNL A   1      48.681  27.472  29.812  1.00  0.00     0.037 A 
BRANCH  58  72
ATOM     72  C   UNL A   1      46.007  25.070  34.836  1.00  0.00     0.064 A 
ATOM     73  C   UNL A   1      45.423  23.801  34.696  1.00  0.00     0.173 A 
ATOM     74  C   UNL A   1      46.692  25.347  36.029  1.00  0.00     0.173 A 
ATOM     75  F   UNL A   1      44.747  23.489  33.579  1.00  0.00    -0.203 F 
ATOM     76  C   UNL A   1      45.499  22.860  35.719  1.00  0.00     0.198 A 
ATOM     77  C   UNL A   1      46.793  24.392  37.038  1.00  0.00     0.198 A 
ATOM     78  F   UNL A   1      47.274  26.542  36.213  1.00  0.00    -0.203 F 
ATOM     79  F   UNL A   1      44.894  21.671  35.580  1.00  0.00    -0.200 F 
ATOM     80  C   UNL A   1      46.190  23.152  36.884  1.00  0.00     0.200 A 
ATOM     81  F   UNL A   1      47.473  24.671  38.159  1.00  0.00    -0.200 F 
ATOM     82  F   UNL A   1      46.272  22.241  37.864  1.00  0.00    -0.200 F 
ENDBRANCH  58  72
BRANCH  59  83
ATOM     83  C   UNL A   1      45.444  32.207  27.868  1.00  0.00     0.064 A 
ATOM     84  C   UNL A   1      44.594  32.108  26.758  1.00  0.00     0.173 A 
ATOM     85  C   UNL A   1      46.236  33.359  27.983  1.00  0.00     0.173 A 
ATOM     86  F   UNL A   1      43.831  31.017  26.594  1.00  0.00    -0.203 F 
ATOM     87  C   UNL A   1      44.556  33.108  25.788  1.00  0.00     0.198 A 
ATOM     88  C   UNL A   1      46.176  34.372  27.029  1.00  0.00     0.198 A 
ATOM     89  F   UNL A   1      47.061  33.506  29.031  1.00  0.00    -0.203 F 
ATOM     90  F   UNL A   1      43.770  32.967  24.713  1.00  0.00    -0.200 F 
ATOM     91  C   UNL A   1      45.343  34.242  25.929  1.00  0.00     0.200 A 
ATOM     92  F   UNL A   1      46.926  35.473  27.177  1.00  0.00    -0.200 F 
ATOM     93  F   UNL A   1      45.303  35.206  24.999  1.00  0.00    -0.200 F 
ENDBRANCH  59  83
BRANCH  71  94
ATOM     94  C   UNL A   1      49.935  27.027  29.115  1.00  0.00     0.064 A 
ATOM     95  C   UNL A   1      49.899  26.123  28.043  1.00  0.00     0.173 A 
ATOM     96  C   UNL A   1      51.182  27.540  29.502  1.00  0.00     0.173 A 
ATOM     97  F   UNL A   1      48.732  25.592  27.646  1.00  0.00    -0.203 F 
ATOM     98  C   UNL A   1      51.069  25.728  27.402  1.00  0.00     0.198 A 
ATOM     99  C   UNL A   1      52.346  27.166  28.838  1.00  0.00     0.198 A 
ATOM    100  F   UNL A   1      51.270  28.413  30.516  1.00  0.00    -0.203 F 
ATOM    101  F   UNL A   1      51.017  24.824  26.413  1.00  0.00    -0.200 F 
ATOM    102  C   UNL A   1      52.290  26.255  27.794  1.00  0.00     0.200 A 
ATOM    103  F   UNL A   1      53.524  27.687  29.209  1.00  0.00    -0.200 F 
ATOM    104  F   UNL A   1      53.416  25.878  27.171  1.00  0.00    -0.200 F 
ENDBRANCH  71  94
ENDBRANCH  45  46
ENDBRANCH  37  40
ENDBRANCH  35  36
ENDBRANCH  34  35
ENDBRANCH  33  34
ENDBRANCH  32  33
ENDBRANCH  31  32
ENDBRANCH   1  31
TORSDOF 20
ENDMDL
