MODEL 1
REMARK VINA RESULT:     -12.1      0.000      0.000
REMARK SMILES CC[C@@H]1CCCN(S(=O)(=O)c2cc(C(=O)NCCCCCCNC(=O)c3ccc(-c4c5nc(c(-c6c(F)c(F)c(F)c(F)c6F)c6ccc([nH]6)c(-c6c(F)c(F)c(F)c(F)c6F)c6nc(c(-c7c(F)c(F)c(F)c(F)c7F)c7ccc4[nH]7)C=C6)C=C5)cc3)ccc2F)C1
REMARK SMILES IDX 19 1 18 2 17 3 16 4 14 5 15 6 13 8 11 9 12 10 91 11 90 12
REMARK SMILES IDX 92 13 89 14 8 15 9 16 10 17 7 18 3 19 4 20 93 21 5 22 6 23
REMARK SMILES IDX 2 24 1 25 20 26 21 27 22 28 23 29 24 30 25 32 26 33 27 34
REMARK SMILES IDX 88 35 28 36 87 37 29 38 30 39 31 40 81 41 32 42 86 43 80 44
REMARK SMILES IDX 82 45 33 46 85 47 79 48 78 49 34 51 66 52 46 53 65 54 47 55
REMARK SMILES IDX 50 56 64 57 83 58 48 59 49 60 63 62 84 63 51 64 35 65 36 66
REMARK SMILES IDX 44 67 37 68 38 69 42 70 45 71 39 72 40 73 43 74 41 75 67 76
REMARK SMILES IDX 68 77 76 78 69 79 70 80 74 81 77 82 71 83 72 84 75 85 73 86
REMARK SMILES IDX 52 87 53 88 61 89 54 90 55 91 59 92 62 93 56 94 57 95 60 96
REMARK SMILES IDX 58 97
REMARK H PARENT 16 7 23 31 82 50 50 61
REMARK Flexibility Score: inf
ROOT
ATOM      1  C   UNL A   1      36.701  21.658  25.635  1.00  0.00     0.002 C 
ENDROOT
BRANCH   1   2
ATOM      2  C   UNL A   1      35.357  22.372  25.845  1.00  0.00     0.021 C 
BRANCH   2   3
ATOM      3  C   UNL A   1      34.481  21.717  26.915  1.00  0.00     0.116 C 
BRANCH   3   4
ATOM      4  N   UNL A   1      33.450  20.887  26.327  1.00  0.00    -0.352 N 
ATOM      5  C   UNL A   1      32.550  21.029  25.306  1.00  0.00     0.251 C 
ATOM      6  O   UNL A   1      31.865  20.035  25.057  1.00  0.00    -0.269 OA
ATOM      7  H   UNL A   1      33.379  20.010  26.768  1.00  0.00     0.163 HD
BRANCH   5   8
ATOM      8  C   UNL A   1      32.331  22.266  24.489  1.00  0.00     0.041 A 
ATOM      9  C   UNL A   1      31.345  24.510  24.430  1.00  0.00     0.119 A 
ATOM     10  C   UNL A   1      31.577  23.296  25.097  1.00  0.00     0.038 A 
ATOM     11  C   UNL A   1      31.878  24.718  23.169  1.00  0.00     0.143 A 
ATOM     12  C   UNL A   1      32.591  23.710  22.542  1.00  0.00     0.041 A 
ATOM     13  F   UNL A   1      31.680  25.859  22.497  1.00  0.00    -0.206 F 
ATOM     14  C   UNL A   1      32.832  22.500  23.205  1.00  0.00     0.017 A 
BRANCH   9  15
ATOM     15  S   UNL A   1      30.434  25.805  25.207  1.00  0.00     0.246 S 
ATOM     16  O   UNL A   1      29.947  25.338  26.491  1.00  0.00    -0.207 OA
ATOM     17  O   UNL A   1      29.505  26.324  24.228  1.00  0.00    -0.207 OA
BRANCH  15  18
ATOM     18  N   UNL A   1      31.605  27.021  25.495  1.00  0.00    -0.197 NA
ATOM     19  C   UNL A   1      32.737  29.040  24.602  1.00  0.00     0.004 C 
ATOM     20  C   UNL A   1      33.041  29.480  26.045  1.00  0.00     0.006 C 
ATOM     21  C   UNL A   1      31.463  28.185  24.569  1.00  0.00     0.106 C 
ATOM     22  C   UNL A   1      33.041  28.314  27.020  1.00  0.00     0.017 C 
ATOM     23  C   UNL A   1      31.771  27.478  26.899  1.00  0.00     0.102 C 
BRANCH  19  24
ATOM     24  C   UNL A   1      33.963  28.415  23.889  1.00  0.00     0.001 C 
ATOM     25  C   UNL A   1      33.911  28.263  22.374  1.00  0.00     0.004 C 
ENDBRANCH  19  24
ENDBRANCH  15  18
ENDBRANCH   9  15
ENDBRANCH   5   8
ENDBRANCH   3   4
ENDBRANCH   2   3
ENDBRANCH   1   2
BRANCH   1  26
ATOM     26  C   UNL A   1      36.609  20.281  24.965  1.00  0.00     0.002 C 
BRANCH  26  27
ATOM     27  C   UNL A   1      37.921  19.493  24.911  1.00  0.00     0.021 C 
BRANCH  27  28
ATOM     28  C   UNL A   1      39.004  20.005  25.856  1.00  0.00     0.116 C 
BRANCH  28  29
ATOM     29  N   UNL A   1      40.160  19.126  25.873  1.00  0.00    -0.352 N 
ATOM     30  C   UNL A   1      41.491  19.413  26.009  1.00  0.00     0.251 C 
ATOM     31  H   UNL A   1      39.953  18.169  25.769  1.00  0.00     0.163 HD
ATOM     32  O   UNL A   1      42.327  18.555  25.738  1.00  0.00    -0.269 OA
BRANCH  30  33
ATOM     33  C   UNL A   1      41.936  20.744  26.477  1.00  0.00     0.039 A 
ATOM     34  C   UNL A   1      42.198  21.729  25.522  1.00  0.00     0.014 A 
ATOM     35  C   UNL A   1      42.158  21.010  27.831  1.00  0.00     0.014 A 
ATOM     36  C   UNL A   1      42.651  22.984  25.926  1.00  0.00     0.010 A 
ATOM     37  C   UNL A   1      42.535  22.289  28.241  1.00  0.00     0.010 A 
ATOM     38  C   UNL A   1      42.798  23.285  27.291  1.00  0.00    -0.014 A 
BRANCH  38  39
ATOM     39  C   UNL A   1      43.214  24.646  27.713  1.00  0.00     0.031 A 
ATOM     40  C   UNL A   1      44.663  25.047  27.717  1.00  0.00     0.074 A 
ATOM     41  C   UNL A   1      42.269  25.526  28.095  1.00  0.00     0.049 A 
ATOM     42  N   UNL A   1      45.194  26.213  27.989  1.00  0.00    -0.248 NA
ATOM     43  C   UNL A   1      45.647  24.002  27.398  1.00  0.00     0.031 C 
ATOM     44  C   UNL A   1      40.838  25.233  28.191  1.00  0.00     0.029 A 
ATOM     45  N   UNL A   1      42.362  26.846  28.456  1.00  0.00    -0.354 N 
ATOM     46  C   UNL A   1      46.567  26.041  27.872  1.00  0.00     0.074 A 
ATOM     47  C   UNL A   1      46.793  24.646  27.566  1.00  0.00     0.031 C 
ATOM     48  C   UNL A   1      40.183  26.352  28.534  1.00  0.00     0.029 A 
ATOM     49  C   UNL A   1      41.147  27.432  28.713  1.00  0.00     0.049 A 
ATOM     50  H   UNL A   1      43.219  27.328  28.525  1.00  0.00     0.167 HD
ATOM     51  C   UNL A   1      47.545  26.972  27.982  1.00  0.00     0.037 A 
ATOM     52  C   UNL A   1      40.842  28.701  29.043  1.00  0.00     0.037 A 
ATOM     53  C   UNL A   1      47.309  28.364  28.267  1.00  0.00     0.049 A 
ATOM     54  C   UNL A   1      41.944  29.717  29.142  1.00  0.00     0.074 A 
ATOM     55  C   UNL A   1      48.229  29.396  28.340  1.00  0.00     0.029 A 
ATOM     56  N   UNL A   1      46.065  28.920  28.530  1.00  0.00    -0.354 N 
ATOM     57  N   UNL A   1      43.232  29.560  28.956  1.00  0.00    -0.248 NA
ATOM     58  C   UNL A   1      41.550  31.090  29.484  1.00  0.00     0.031 C 
ATOM     59  C   UNL A   1      47.551  30.563  28.702  1.00  0.00     0.029 A 
ATOM     60  C   UNL A   1      46.198  30.274  28.793  1.00  0.00     0.049 A 
ATOM     61  H   UNL A   1      45.214  28.424  28.531  1.00  0.00     0.167 HD
ATOM     62  C   UNL A   1      43.802  30.811  29.145  1.00  0.00     0.074 A 
ATOM     63  C   UNL A   1      42.714  31.724  29.430  1.00  0.00     0.031 C 
ATOM     64  C   UNL A   1      45.108  31.169  29.093  1.00  0.00     0.037 A 
BRANCH  51  65
ATOM     65  C   UNL A   1      48.966  26.526  27.779  1.00  0.00     0.064 A 
ATOM     66  C   UNL A   1      49.800  26.282  28.881  1.00  0.00     0.173 A 
ATOM     67  C   UNL A   1      49.526  26.418  26.497  1.00  0.00     0.173 A 
ATOM     68  F   UNL A   1      49.317  26.375  30.129  1.00  0.00    -0.203 F 
ATOM     69  C   UNL A   1      51.145  25.962  28.706  1.00  0.00     0.198 A 
ATOM     70  C   UNL A   1      50.864  26.067  26.326  1.00  0.00     0.198 A 
ATOM     71  F   UNL A   1      48.771  26.630  25.409  1.00  0.00    -0.203 F 
ATOM     72  F   UNL A   1      51.929  25.768  29.775  1.00  0.00    -0.200 F 
ATOM     73  C   UNL A   1      51.673  25.851  27.430  1.00  0.00     0.200 A 
ATOM     74  F   UNL A   1      51.366  25.936  25.091  1.00  0.00    -0.200 F 
ATOM     75  F   UNL A   1      52.965  25.534  27.264  1.00  0.00    -0.200 F 
ENDBRANCH  51  65
BRANCH  52  76
ATOM     76  C   UNL A   1      39.419  29.079  29.251  1.00  0.00     0.064 A 
ATOM     77  C   UNL A   1      38.623  29.534  28.189  1.00  0.00     0.173 A 
ATOM     78  C   UNL A   1      38.841  29.034  30.527  1.00  0.00     0.173 A 
ATOM     79  F   UNL A   1      39.132  29.605  26.950  1.00  0.00    -0.203 F 
ATOM     80  C   UNL A   1      37.311  29.951  28.400  1.00  0.00     0.198 A 
ATOM     81  C   UNL A   1      37.519  29.422  30.732  1.00  0.00     0.198 A 
ATOM     82  F   UNL A   1      39.556  28.590  31.571  1.00  0.00    -0.203 F 
ATOM     83  F   UNL A   1      36.587  30.422  27.376  1.00  0.00    -0.200 F 
ATOM     84  C   UNL A   1      36.758  29.890  29.671  1.00  0.00     0.200 A 
ATOM     85  F   UNL A   1      36.980  29.340  31.956  1.00  0.00    -0.200 F 
ATOM     86  F   UNL A   1      35.493  30.283  29.871  1.00  0.00    -0.200 F 
ENDBRANCH  52  76
BRANCH  64  87
ATOM     87  C   UNL A   1      45.437  32.613  29.350  1.00  0.00     0.064 A 
ATOM     88  C   UNL A   1      45.705  33.064  30.652  1.00  0.00     0.173 A 
ATOM     89  C   UNL A   1      45.446  33.559  28.314  1.00  0.00     0.173 A 
ATOM     90  F   UNL A   1      45.698  32.204  31.682  1.00  0.00    -0.203 F 
ATOM     91  C   UNL A   1      45.966  34.407  30.906  1.00  0.00     0.198 A 
ATOM     92  C   UNL A   1      45.743  34.895  28.567  1.00  0.00     0.198 A 
ATOM     93  F   UNL A   1      45.206  33.178  27.050  1.00  0.00    -0.203 F 
ATOM     94  F   UNL A   1      46.191  34.820  32.161  1.00  0.00    -0.200 F 
ATOM     95  C   UNL A   1      45.996  35.320  29.862  1.00  0.00     0.200 A 
ATOM     96  F   UNL A   1      45.801  35.769  27.553  1.00  0.00    -0.200 F 
ATOM     97  F   UNL A   1      46.273  36.608  30.104  1.00  0.00    -0.200 F 
ENDBRANCH  64  87
ENDBRANCH  38  39
ENDBRANCH  30  33
ENDBRANCH  28  29
ENDBRANCH  27  28
ENDBRANCH  26  27
ENDBRANCH   1  26
TORSDOF 16
ENDMDL
MODEL 2
REMARK VINA RESULT:     -12.0      5.049     10.412
REMARK SMILES CC[C@@H]1CCCN(S(=O)(=O)c2cc(C(=O)NCCCCCCNC(=O)c3ccc(-c4c5nc(c(-c6c(F)c(F)c(F)c(F)c6F)c6ccc([nH]6)c(-c6c(F)c(F)c(F)c(F)c6F)c6nc(c(-c7c(F)c(F)c(F)c(F)c7F)c7ccc4[nH]7)C=C6)C=C5)cc3)ccc2F)C1
REMARK SMILES IDX 19 1 18 2 17 3 16 4 14 5 15 6 13 8 11 9 12 10 91 11 90 12
REMARK SMILES IDX 92 13 89 14 8 15 9 16 10 17 7 18 3 19 4 20 93 21 5 22 6 23
REMARK SMILES IDX 2 24 1 25 20 26 21 27 22 28 23 29 24 30 25 32 26 33 27 34
REMARK SMILES IDX 88 35 28 36 87 37 29 38 30 39 31 40 81 41 32 42 86 43 80 44
REMARK SMILES IDX 82 45 33 46 85 47 79 48 78 49 34 51 66 52 46 53 65 54 47 55
REMARK SMILES IDX 50 56 64 57 83 58 48 59 49 60 63 62 84 63 51 64 35 65 36 66
REMARK SMILES IDX 44 67 37 68 38 69 42 70 45 71 39 72 40 73 43 74 41 75 67 76
REMARK SMILES IDX 68 77 76 78 69 79 70 80 74 81 77 82 71 83 72 84 75 85 73 86
REMARK SMILES IDX 52 87 53 88 61 89 54 90 55 91 59 92 62 93 56 94 57 95 60 96
REMARK SMILES IDX 58 97
REMARK H PARENT 16 7 23 31 82 50 50 61
REMARK Flexibility Score: inf
ROOT
ATOM      1  C   UNL A   1      32.011  29.627  27.271  1.00  0.00     0.002 C 
ENDROOT
BRANCH   1   2
ATOM      2  C   UNL A   1      32.498  28.247  26.801  1.00  0.00     0.021 C 
BRANCH   2   3
ATOM      3  C   UNL A   1      33.951  28.247  26.321  1.00  0.00     0.116 C 
BRANCH   3   4
ATOM      4  N   UNL A   1      34.059  28.688  24.947  1.00  0.00    -0.352 N 
ATOM      5  C   UNL A   1      33.483  28.328  23.759  1.00  0.00     0.251 C 
ATOM      6  O   UNL A   1      33.795  29.016  22.785  1.00  0.00    -0.269 OA
ATOM      7  H   UNL A   1      34.704  29.425  24.841  1.00  0.00     0.163 HD
BRANCH   5   8
ATOM      8  C   UNL A   1      32.530  27.191  23.551  1.00  0.00     0.041 A 
ATOM      9  C   UNL A   1      32.300  24.811  23.011  1.00  0.00     0.119 A 
ATOM     10  C   UNL A   1      33.102  25.948  23.194  1.00  0.00     0.038 A 
ATOM     11  C   UNL A   1      30.932  24.893  23.203  1.00  0.00     0.143 A 
ATOM     12  C   UNL A   1      30.347  26.108  23.520  1.00  0.00     0.041 A 
ATOM     13  F   UNL A   1      30.129  23.834  23.037  1.00  0.00    -0.206 F 
ATOM     14  C   UNL A   1      31.143  27.244  23.711  1.00  0.00     0.017 A 
BRANCH   9  15
ATOM     15  S   UNL A   1      33.022  23.254  22.601  1.00  0.00     0.246 S 
ATOM     16  O   UNL A   1      33.665  23.358  21.305  1.00  0.00    -0.207 OA
ATOM     17  O   UNL A   1      32.018  22.240  22.830  1.00  0.00    -0.207 OA
BRANCH  15  18
ATOM     18  N   UNL A   1      34.243  23.040  23.783  1.00  0.00    -0.197 NA
ATOM     19  C   UNL A   1      34.901  21.879  25.875  1.00  0.00     0.004 C 
ATOM     20  C   UNL A   1      36.379  22.067  25.488  1.00  0.00     0.006 C 
ATOM     21  C   UNL A   1      34.029  21.816  24.613  1.00  0.00     0.106 C 
ATOM     22  C   UNL A   1      36.585  23.223  24.522  1.00  0.00     0.017 C 
ATOM     23  C   UNL A   1      35.652  23.125  23.319  1.00  0.00     0.102 C 
BRANCH  19  24
ATOM     24  C   UNL A   1      34.425  22.890  26.949  1.00  0.00     0.001 C 
ATOM     25  C   UNL A   1      32.983  23.379  26.884  1.00  0.00     0.004 C 
ENDBRANCH  19  24
ENDBRANCH  15  18
ENDBRANCH   9  15
ENDBRANCH   5   8
ENDBRANCH   3   4
ENDBRANCH   2   3
ENDBRANCH   1   2
BRANCH   1  26
ATOM     26  C   UNL A   1      31.383  30.502  26.179  1.00  0.00     0.002 C 
BRANCH  26  27
ATOM     27  C   UNL A   1      31.369  32.005  26.475  1.00  0.00     0.021 C 
BRANCH  27  28
ATOM     28  C   UNL A   1      32.672  32.546  27.057  1.00  0.00     0.116 C 
BRANCH  28  29
ATOM     29  N   UNL A   1      32.512  33.898  27.563  1.00  0.00    -0.352 N 
ATOM     30  C   UNL A   1      33.135  34.536  28.601  1.00  0.00     0.251 C 
ATOM     31  H   UNL A   1      31.848  34.443  27.082  1.00  0.00     0.163 HD
ATOM     32  O   UNL A   1      32.674  35.590  29.028  1.00  0.00    -0.269 OA
BRANCH  30  33
ATOM     33  C   UNL A   1      34.357  33.971  29.215  1.00  0.00     0.039 A 
ATOM     34  C   UNL A   1      34.212  32.988  30.197  1.00  0.00     0.014 A 
ATOM     35  C   UNL A   1      35.631  34.441  28.882  1.00  0.00     0.014 A 
ATOM     36  C   UNL A   1      35.341  32.458  30.820  1.00  0.00     0.010 A 
ATOM     37  C   UNL A   1      36.763  33.855  29.448  1.00  0.00     0.010 A 
ATOM     38  C   UNL A   1      36.628  32.868  30.433  1.00  0.00    -0.014 A 
BRANCH  38  39
ATOM     39  C   UNL A   1      37.825  32.246  31.054  1.00  0.00     0.031 A 
ATOM     40  C   UNL A   1      38.270  32.635  32.436  1.00  0.00     0.074 A 
ATOM     41  C   UNL A   1      38.513  31.320  30.358  1.00  0.00     0.049 A 
ATOM     42  N   UNL A   1      39.249  32.144  33.154  1.00  0.00    -0.248 NA
ATOM     43  C   UNL A   1      37.542  33.732  33.091  1.00  0.00     0.031 C 
ATOM     44  C   UNL A   1      38.213  30.907  28.986  1.00  0.00     0.029 A 
ATOM     45  N   UNL A   1      39.591  30.549  30.710  1.00  0.00    -0.354 N 
ATOM     46  C   UNL A   1      39.250  32.867  34.340  1.00  0.00     0.074 A 
ATOM     47  C   UNL A   1      38.218  33.873  34.222  1.00  0.00     0.031 C 
ATOM     48  C   UNL A   1      39.051  29.922  28.632  1.00  0.00     0.029 A 
ATOM     49  C   UNL A   1      39.967  29.657  29.737  1.00  0.00     0.049 A 
ATOM     50  H   UNL A   1      40.051  30.627  31.577  1.00  0.00     0.167 HD
ATOM     51  C   UNL A   1      40.025  32.688  35.436  1.00  0.00     0.037 A 
ATOM     52  C   UNL A   1      40.934  28.719  29.738  1.00  0.00     0.037 A 
ATOM     53  C   UNL A   1      41.038  31.671  35.553  1.00  0.00     0.049 A 
ATOM     54  C   UNL A   1      41.768  28.529  30.973  1.00  0.00     0.074 A 
ATOM     55  C   UNL A   1      41.835  31.370  36.644  1.00  0.00     0.029 A 
ATOM     56  N   UNL A   1      41.398  30.790  34.543  1.00  0.00    -0.354 N 
ATOM     57  N   UNL A   1      41.711  29.170  32.115  1.00  0.00    -0.248 NA
ATOM     58  C   UNL A   1      42.793  27.478  30.924  1.00  0.00     0.031 C 
ATOM     59  C   UNL A   1      42.715  30.348  36.277  1.00  0.00     0.029 A 
ATOM     60  C   UNL A   1      42.424  29.965  34.977  1.00  0.00     0.049 A 
ATOM     61  H   UNL A   1      40.986  30.757  33.650  1.00  0.00     0.167 HD
ATOM     62  C   UNL A   1      42.679  28.594  32.925  1.00  0.00     0.074 A 
ATOM     63  C   UNL A   1      43.289  27.531  32.153  1.00  0.00     0.031 C 
ATOM     64  C   UNL A   1      43.035  28.922  34.192  1.00  0.00     0.037 A 
BRANCH  51  65
ATOM     65  C   UNL A   1      39.804  33.598  36.611  1.00  0.00     0.064 A 
ATOM     66  C   UNL A   1      38.925  33.232  37.641  1.00  0.00     0.173 A 
ATOM     67  C   UNL A   1      40.400  34.866  36.680  1.00  0.00     0.173 A 
ATOM     68  F   UNL A   1      38.324  32.032  37.623  1.00  0.00    -0.203 F 
ATOM     69  C   UNL A   1      38.638  34.107  38.686  1.00  0.00     0.198 A 
ATOM     70  C   UNL A   1      40.136  35.728  37.743  1.00  0.00     0.198 A 
ATOM     71  F   UNL A   1      41.258  35.263  35.728  1.00  0.00    -0.203 F 
ATOM     72  F   UNL A   1      37.767  33.748  39.639  1.00  0.00    -0.200 F 
ATOM     73  C   UNL A   1      39.247  35.352  38.738  1.00  0.00     0.200 A 
ATOM     74  F   UNL A   1      40.745  36.919  37.804  1.00  0.00    -0.200 F 
ATOM     75  F   UNL A   1      38.977  36.189  39.749  1.00  0.00    -0.200 F 
ENDBRANCH  51  65
BRANCH  52  76
ATOM     76  C   UNL A   1      41.120  27.860  28.538  1.00  0.00     0.064 A 
ATOM     77  C   UNL A   1      42.010  28.220  27.516  1.00  0.00     0.173 A 
ATOM     78  C   UNL A   1      40.376  26.684  28.372  1.00  0.00     0.173 A 
ATOM     79  F   UNL A   1      42.739  29.341  27.623  1.00  0.00    -0.203 F 
ATOM     80  C   UNL A   1      42.133  27.447  26.363  1.00  0.00     0.198 A 
ATOM     81  C   UNL A   1      40.522  25.896  27.233  1.00  0.00     0.198 A 
ATOM     82  F   UNL A   1      39.525  26.288  29.330  1.00  0.00    -0.203 F 
ATOM     83  F   UNL A   1      42.958  27.837  25.383  1.00  0.00    -0.200 F 
ATOM     84  C   UNL A   1      41.391  26.283  26.224  1.00  0.00     0.200 A 
ATOM     85  F   UNL A   1      39.821  24.759  27.112  1.00  0.00    -0.200 F 
ATOM     86  F   UNL A   1      41.517  25.536  25.119  1.00  0.00    -0.200 F 
ENDBRANCH  52  76
BRANCH  64  87
ATOM     87  C   UNL A   1      44.137  28.120  34.826  1.00  0.00     0.064 A 
ATOM     88  C   UNL A   1      45.476  28.522  34.701  1.00  0.00     0.173 A 
ATOM     89  C   UNL A   1      43.871  26.931  35.523  1.00  0.00     0.173 A 
ATOM     90  F   UNL A   1      45.788  29.645  34.037  1.00  0.00    -0.203 F 
ATOM     91  C   UNL A   1      46.507  27.763  35.248  1.00  0.00     0.198 A 
ATOM     92  C   UNL A   1      44.902  26.193  36.098  1.00  0.00     0.198 A 
ATOM     93  F   UNL A   1      42.608  26.508  35.679  1.00  0.00    -0.203 F 
ATOM     94  F   UNL A   1      47.780  28.152  35.092  1.00  0.00    -0.200 F 
ATOM     95  C   UNL A   1      46.218  26.604  35.955  1.00  0.00     0.200 A 
ATOM     96  F   UNL A   1      44.619  25.091  36.806  1.00  0.00    -0.200 F 
ATOM     97  F   UNL A   1      47.209  25.888  36.502  1.00  0.00    -0.200 F 
ENDBRANCH  64  87
ENDBRANCH  38  39
ENDBRANCH  30  33
ENDBRANCH  28  29
ENDBRANCH  27  28
ENDBRANCH  26  27
ENDBRANCH   1  26
TORSDOF 16
ENDMDL
MODEL 3
REMARK VINA RESULT:     -12.0      4.734     10.047
REMARK SMILES CC[C@@H]1CCCN(S(=O)(=O)c2cc(C(=O)NCCCCCCNC(=O)c3ccc(-c4c5nc(c(-c6c(F)c(F)c(F)c(F)c6F)c6ccc([nH]6)c(-c6c(F)c(F)c(F)c(F)c6F)c6nc(c(-c7c(F)c(F)c(F)c(F)c7F)c7ccc4[nH]7)C=C6)C=C5)cc3)ccc2F)C1
REMARK SMILES IDX 19 1 18 2 17 3 16 4 14 5 15 6 13 8 11 9 12 10 91 11 90 12
REMARK SMILES IDX 92 13 89 14 8 15 9 16 10 17 7 18 3 19 4 20 93 21 5 22 6 23
REMARK SMILES IDX 2 24 1 25 20 26 21 27 22 28 23 29 24 30 25 32 26 33 27 34
REMARK SMILES IDX 88 35 28 36 87 37 29 38 30 39 31 40 81 41 32 42 86 43 80 44
REMARK SMILES IDX 82 45 33 46 85 47 79 48 78 49 34 51 66 52 46 53 65 54 47 55
REMARK SMILES IDX 50 56 64 57 83 58 48 59 49 60 63 62 84 63 51 64 35 65 36 66
REMARK SMILES IDX 44 67 37 68 38 69 42 70 45 71 39 72 40 73 43 74 41 75 67 76
REMARK SMILES IDX 68 77 76 78 69 79 70 80 74 81 77 82 71 83 72 84 75 85 73 86
REMARK SMILES IDX 52 87 53 88 61 89 54 90 55 91 59 92 62 93 56 94 57 95 60 96
REMARK SMILES IDX 58 97
REMARK H PARENT 16 7 23 31 82 50 50 61
REMARK Flexibility Score: inf
ROOT
ATOM      1  C   UNL A   1      32.994  28.718  25.629  1.00  0.00     0.002 C 
ENDROOT
BRANCH   1   2
ATOM      2  C   UNL A   1      33.978  28.156  24.591  1.00  0.00     0.021 C 
BRANCH   2   3
ATOM      3  C   UNL A   1      33.660  28.585  23.157  1.00  0.00     0.116 C 
BRANCH   3   4
ATOM      4  N   UNL A   1      33.404  27.444  22.302  1.00  0.00    -0.352 N 
ATOM      5  C   UNL A   1      32.506  26.412  22.298  1.00  0.00     0.251 C 
ATOM      6  O   UNL A   1      32.568  25.655  21.327  1.00  0.00    -0.269 OA
ATOM      7  H   UNL A   1      34.027  27.401  21.541  1.00  0.00     0.163 HD
BRANCH   5   8
ATOM      8  C   UNL A   1      31.483  26.129  23.356  1.00  0.00     0.041 A 
ATOM      9  C   UNL A   1      30.876  24.715  25.264  1.00  0.00     0.119 A 
ATOM     10  C   UNL A   1      31.753  25.041  24.217  1.00  0.00     0.038 A 
ATOM     11  C   UNL A   1      29.740  25.478  25.476  1.00  0.00     0.143 A 
ATOM     12  C   UNL A   1      29.440  26.528  24.624  1.00  0.00     0.041 A 
ATOM     13  F   UNL A   1      28.876  25.202  26.461  1.00  0.00    -0.206 F 
ATOM     14  C   UNL A   1      30.315  26.863  23.583  1.00  0.00     0.017 A 
BRANCH   9  15
ATOM     15  S   UNL A   1      31.234  23.378  26.358  1.00  0.00     0.246 S 
ATOM     16  O   UNL A   1      30.034  22.586  26.547  1.00  0.00    -0.207 OA
ATOM     17  O   UNL A   1      31.922  23.932  27.503  1.00  0.00    -0.207 OA
BRANCH  15  18
ATOM     18  N   UNL A   1      32.366  22.427  25.494  1.00  0.00    -0.197 NA
ATOM     19  C   UNL A   1      34.765  21.914  25.122  1.00  0.00     0.004 C 
ATOM     20  C   UNL A   1      34.366  20.511  24.632  1.00  0.00     0.006 C 
ATOM     21  C   UNL A   1      33.723  22.441  26.119  1.00  0.00     0.106 C 
ATOM     22  C   UNL A   1      32.931  20.456  24.131  1.00  0.00     0.017 C 
ATOM     23  C   UNL A   1      31.956  21.041  25.148  1.00  0.00     0.102 C 
BRANCH  19  24
ATOM     24  C   UNL A   1      35.110  22.884  23.963  1.00  0.00     0.001 C 
ATOM     25  C   UNL A   1      36.558  22.954  23.494  1.00  0.00     0.004 C 
ENDBRANCH  19  24
ENDBRANCH  15  18
ENDBRANCH   9  15
ENDBRANCH   5   8
ENDBRANCH   3   4
ENDBRANCH   2   3
ENDBRANCH   1   2
BRANCH   1  26
ATOM     26  C   UNL A   1      31.891  29.619  25.057  1.00  0.00     0.002 C 
BRANCH  26  27
ATOM     27  C   UNL A   1      31.520  30.826  25.925  1.00  0.00     0.021 C 
BRANCH  27  28
ATOM     28  C   UNL A   1      32.610  31.261  26.899  1.00  0.00     0.116 C 
BRANCH  28  29
ATOM     29  N   UNL A   1      32.568  32.692  27.145  1.00  0.00    -0.352 N 
ATOM     30  C   UNL A   1      33.304  33.467  28.000  1.00  0.00     0.251 C 
ATOM     31  H   UNL A   1      31.902  33.184  26.612  1.00  0.00     0.163 HD
ATOM     32  O   UNL A   1      32.938  34.613  28.246  1.00  0.00    -0.269 OA
BRANCH  30  33
ATOM     33  C   UNL A   1      34.534  32.942  28.632  1.00  0.00     0.039 A 
ATOM     34  C   UNL A   1      34.404  32.123  29.756  1.00  0.00     0.014 A 
ATOM     35  C   UNL A   1      35.805  33.296  28.171  1.00  0.00     0.014 A 
ATOM     36  C   UNL A   1      35.544  31.638  30.397  1.00  0.00     0.010 A 
ATOM     37  C   UNL A   1      36.943  32.747  28.763  1.00  0.00     0.010 A 
ATOM     38  C   UNL A   1      36.823  31.924  29.890  1.00  0.00    -0.014 A 
BRANCH  38  39
ATOM     39  C   UNL A   1      38.026  31.344  30.539  1.00  0.00     0.031 A 
ATOM     40  C   UNL A   1      38.399  31.713  31.948  1.00  0.00     0.074 A 
ATOM     41  C   UNL A   1      38.787  30.477  29.844  1.00  0.00     0.049 A 
ATOM     42  N   UNL A   1      39.375  31.249  32.689  1.00  0.00    -0.248 NA
ATOM     43  C   UNL A   1      37.592  32.751  32.605  1.00  0.00     0.031 C 
ATOM     44  C   UNL A   1      38.560  30.091  28.450  1.00  0.00     0.029 A 
ATOM     45  N   UNL A   1      39.889  29.750  30.215  1.00  0.00    -0.354 N 
ATOM     46  C   UNL A   1      39.295  31.935  33.894  1.00  0.00     0.074 A 
ATOM     47  C   UNL A   1      38.217  32.890  33.765  1.00  0.00     0.031 C 
ATOM     48  C   UNL A   1      39.460  29.161  28.100  1.00  0.00     0.029 A 
ATOM     49  C   UNL A   1      40.347  28.909  29.231  1.00  0.00     0.049 A 
ATOM     50  H   UNL A   1      40.313  29.824  31.101  1.00  0.00     0.167 HD
ATOM     51  C   UNL A   1      40.037  31.761  35.014  1.00  0.00     0.037 A 
ATOM     52  C   UNL A   1      41.360  28.021  29.242  1.00  0.00     0.037 A 
ATOM     53  C   UNL A   1      41.096  30.794  35.141  1.00  0.00     0.049 A 
ATOM     54  C   UNL A   1      42.157  27.836  30.503  1.00  0.00     0.074 A 
ATOM     55  C   UNL A   1      41.866  30.500  36.252  1.00  0.00     0.029 A 
ATOM     56  N   UNL A   1      41.538  29.964  34.120  1.00  0.00    -0.354 N 
ATOM     57  N   UNL A   1      42.024  28.437  31.660  1.00  0.00    -0.248 NA
ATOM     58  C   UNL A   1      43.236  26.840  30.464  1.00  0.00     0.031 C 
ATOM     59  C   UNL A   1      42.811  29.535  35.890  1.00  0.00     0.029 A 
ATOM     60  C   UNL A   1      42.589  29.179  34.569  1.00  0.00     0.049 A 
ATOM     61  H   UNL A   1      41.162  29.937  33.211  1.00  0.00     0.167 HD
ATOM     62  C   UNL A   1      42.990  27.887  32.490  1.00  0.00     0.074 A 
ATOM     63  C   UNL A   1      43.682  26.880  31.712  1.00  0.00     0.031 C 
ATOM     64  C   UNL A   1      43.282  28.192  33.779  1.00  0.00     0.037 A 
BRANCH  51  65
ATOM     65  C   UNL A   1      39.725  32.623  36.206  1.00  0.00     0.064 A 
ATOM     66  C   UNL A   1      38.688  32.275  37.084  1.00  0.00     0.173 A 
ATOM     67  C   UNL A   1      40.400  33.831  36.434  1.00  0.00     0.173 A 
ATOM     68  F   UNL A   1      38.007  31.132  36.909  1.00  0.00    -0.203 F 
ATOM     69  C   UNL A   1      38.327  33.115  38.136  1.00  0.00     0.198 A 
ATOM     70  C   UNL A   1      40.057  34.653  37.506  1.00  0.00     0.198 A 
ATOM     71  F   UNL A   1      41.408  34.206  35.632  1.00  0.00    -0.203 F 
ATOM     72  F   UNL A   1      37.309  32.778  38.940  1.00  0.00    -0.200 F 
ATOM     73  C   UNL A   1      39.015  34.300  38.348  1.00  0.00     0.200 A 
ATOM     74  F   UNL A   1      40.740  35.785  37.723  1.00  0.00    -0.200 F 
ATOM     75  F   UNL A   1      38.672  35.101  39.366  1.00  0.00    -0.200 F 
ENDBRANCH  51  65
BRANCH  52  76
ATOM     76  C   UNL A   1      41.635  27.211  28.027  1.00  0.00     0.064 A 
ATOM     77  C   UNL A   1      41.030  25.960  27.833  1.00  0.00     0.173 A 
ATOM     78  C   UNL A   1      42.543  27.653  27.055  1.00  0.00     0.173 A 
ATOM     79  F   UNL A   1      40.160  25.487  28.738  1.00  0.00    -0.203 F 
ATOM     80  C   UNL A   1      41.340  25.174  26.725  1.00  0.00     0.198 A 
ATOM     81  C   UNL A   1      42.830  26.880  25.933  1.00  0.00     0.198 A 
ATOM     82  F   UNL A   1      43.134  28.850  27.187  1.00  0.00    -0.203 F 
ATOM     83  F   UNL A   1      40.780  23.965  26.587  1.00  0.00    -0.200 F 
ATOM     84  C   UNL A   1      42.237  25.636  25.774  1.00  0.00     0.200 A 
ATOM     85  F   UNL A   1      43.679  27.340  25.003  1.00  0.00    -0.200 F 
ATOM     86  F   UNL A   1      42.527  24.884  24.704  1.00  0.00    -0.200 F 
ENDBRANCH  52  76
BRANCH  64  87
ATOM     87  C   UNL A   1      44.399  27.428  34.431  1.00  0.00     0.064 A 
ATOM     88  C   UNL A   1      44.137  26.245  35.139  1.00  0.00     0.173 A 
ATOM     89  C   UNL A   1      45.724  27.889  34.391  1.00  0.00     0.173 A 
ATOM     90  F   UNL A   1      42.887  25.765  35.218  1.00  0.00    -0.203 F 
ATOM     91  C   UNL A   1      45.159  25.553  35.783  1.00  0.00     0.198 A 
ATOM     92  C   UNL A   1      46.749  27.175  35.007  1.00  0.00     0.198 A 
ATOM     93  F   UNL A   1      46.029  29.009  33.720  1.00  0.00    -0.203 F 
ATOM     94  F   UNL A   1      44.880  24.441  36.477  1.00  0.00    -0.200 F 
ATOM     95  C   UNL A   1      46.465  26.014  35.708  1.00  0.00     0.200 A 
ATOM     96  F   UNL A   1      48.014  27.605  34.908  1.00  0.00    -0.200 F 
ATOM     97  F   UNL A   1      47.452  25.333  36.307  1.00  0.00    -0.200 F 
ENDBRANCH  64  87
ENDBRANCH  38  39
ENDBRANCH  30  33
ENDBRANCH  28  29
ENDBRANCH  27  28
ENDBRANCH  26  27
ENDBRANCH   1  26
TORSDOF 16
ENDMDL
