MODEL 1
REMARK VINA RESULT:     -11.0      0.000      0.000
REMARK SMILES Cc1c(CCC(=O)N[C@@H](C)C(=O)NCCCCCCNC(=O)c2ccc(-c3c4nc(c(-c5c(F)c(F)c(F)c(F)c5F)c5ccc([nH]5)c(-c5c(F)c(F)c(F)c(F)c5F)c5nc(c(-c6c(F)c(F)c(F)c(F)c6F)c6ccc3[nH]6)C=C5)C=C4)cc2)c(=O)oc2cc3oc4c(c3cc12)CCCC4
REMARK SMILES IDX 15 1 14 2 13 3 11 4 12 5 9 7 10 8 8 9 6 10 7 11 5 13 4 14
REMARK SMILES IDX 3 15 1 16 2 17 97 18 86 19 89 20 96 21 87 22 88 23 90 24
REMARK SMILES IDX 95 25 91 26 94 27 92 28 93 29 98 30 101 31 99 32 100 33
REMARK SMILES IDX 16 34 17 35 18 36 19 37 20 38 21 39 22 41 23 42 24 43 85 44
REMARK SMILES IDX 25 45 84 46 26 47 27 48 28 49 78 50 29 51 83 52 77 53 79 54
REMARK SMILES IDX 30 55 82 56 76 57 75 58 31 60 63 61 43 62 62 63 44 64 47 65
REMARK SMILES IDX 61 66 80 67 45 68 46 69 60 71 81 72 48 73 32 74 33 75 41 76
REMARK SMILES IDX 34 77 35 78 39 79 42 80 36 81 37 82 40 83 38 84 64 85 65 86
REMARK SMILES IDX 73 87 66 88 67 89 71 90 74 91 68 92 69 93 72 94 70 95 49 96
REMARK SMILES IDX 50 97 58 98 51 99 52 100 56 101 59 102 53 103 54 104 57 105
REMARK SMILES IDX 55 106
REMARK H PARENT 13 6 8 12 20 40 79 59 47 70
REMARK Flexibility Score: inf
ROOT
ATOM      1  C   UNL A   1      39.065  29.720  27.664  1.00  0.00     0.021 C 
ENDROOT
BRANCH   1   2
ATOM      2  C   UNL A   1      37.593  29.362  27.863  1.00  0.00     0.116 C 
BRANCH   2   3
ATOM      3  N   UNL A   1      37.110  29.896  29.132  1.00  0.00    -0.354 N 
ATOM      4  C   UNL A   1      36.550  31.073  29.530  1.00  0.00     0.242 C 
ATOM      5  O   UNL A   1      36.595  31.296  30.747  1.00  0.00    -0.273 OA
ATOM      6  H   UNL A   1      37.214  29.258  29.874  1.00  0.00     0.163 HD
BRANCH   4   7
ATOM      7  C   UNL A   1      35.781  32.052  28.601  1.00  0.00     0.168 C 
ATOM      8  C   UNL A   1      36.135  33.508  28.755  1.00  0.00     0.041 C 
BRANCH   7   9
ATOM      9  N   UNL A   1      34.325  31.985  28.751  1.00  0.00    -0.345 N 
ATOM     10  C   UNL A   1      33.481  31.538  27.763  1.00  0.00     0.220 C 
ATOM     11  O   UNL A   1      32.502  32.217  27.459  1.00  0.00    -0.275 OA
ATOM     12  H   UNL A   1      33.929  32.276  29.605  1.00  0.00     0.164 HD
BRANCH  10  13
ATOM     13  C   UNL A   1      33.745  30.177  27.135  1.00  0.00     0.105 C 
BRANCH  13  14
ATOM     14  C   UNL A   1      32.718  29.701  26.094  1.00  0.00     0.053 C 
BRANCH  14  15
ATOM     15  C   UNL A   1      32.567  28.197  26.056  1.00  0.00     0.042 A 
ATOM     16  C   UNL A   1      33.927  27.871  23.938  1.00  0.00     0.046 C 
ATOM     17  C   UNL A   1      33.215  27.408  25.181  1.00  0.00    -0.030 A 
ATOM     18  C   UNL A   1      33.378  26.020  25.606  1.00  0.00     0.022 A 
ATOM     19  C   UNL A   1      31.619  27.591  27.049  1.00  0.00     0.339 A 
ATOM     20  C   UNL A   1      32.463  25.424  26.470  1.00  0.00     0.142 A 
ATOM     21  C   UNL A   1      34.568  25.360  25.328  1.00  0.00     0.024 A 
ATOM     22  O   UNL A   1      30.970  28.293  27.816  1.00  0.00    -0.246 OA
ATOM     23  O   UNL A   1      31.433  26.210  27.007  1.00  0.00    -0.422 OA
ATOM     24  C   UNL A   1      32.561  24.088  26.895  1.00  0.00     0.095 A 
ATOM     25  C   UNL A   1      34.807  24.136  25.952  1.00  0.00     0.025 A 
ATOM     26  C   UNL A   1      33.753  23.464  26.550  1.00  0.00     0.138 A 
ATOM     27  C   UNL A   1      35.919  23.275  25.988  1.00  0.00     0.001 A 
ATOM     28  O   UNL A   1      34.065  22.127  26.599  1.00  0.00    -0.461 OA
ATOM     29  C   UNL A   1      35.309  22.040  26.042  1.00  0.00     0.108 A 
ATOM     30  C   UNL A   1      37.203  23.446  25.275  1.00  0.00     0.040 C 
ATOM     31  C   UNL A   1      35.596  21.052  24.956  1.00  0.00     0.076 C 
ATOM     32  C   UNL A   1      36.937  23.039  23.822  1.00  0.00     0.005 C 
ATOM     33  C   UNL A   1      35.838  21.927  23.673  1.00  0.00     0.008 C 
ENDBRANCH  14  15
ENDBRANCH  13  14
ENDBRANCH  10  13
ENDBRANCH   7   9
ENDBRANCH   4   7
ENDBRANCH   2   3
ENDBRANCH   1   2
BRANCH   1  34
ATOM     34  C   UNL A   1      39.699  28.931  26.514  1.00  0.00     0.002 C 
BRANCH  34  35
ATOM     35  C   UNL A   1      41.236  28.962  26.487  1.00  0.00     0.002 C 
BRANCH  35  36
ATOM     36  C   UNL A   1      41.886  28.006  25.481  1.00  0.00     0.021 C 
BRANCH  36  37
ATOM     37  C   UNL A   1      42.581  26.814  26.137  1.00  0.00     0.116 C 
BRANCH  37  38
ATOM     38  N   UNL A   1      41.761  25.615  26.127  1.00  0.00    -0.352 N 
ATOM     39  C   UNL A   1      40.974  25.117  27.139  1.00  0.00     0.251 C 
ATOM     40  H   UNL A   1      41.768  25.093  25.292  1.00  0.00     0.163 HD
ATOM     41  O   UNL A   1      40.438  24.018  27.052  1.00  0.00    -0.269 OA
BRANCH  39  42
ATOM     42  C   UNL A   1      40.838  25.915  28.370  1.00  0.00     0.039 A 
ATOM     43  C   UNL A   1      39.571  26.182  28.896  1.00  0.00     0.014 A 
ATOM     44  C   UNL A   1      41.984  26.467  28.939  1.00  0.00     0.014 A 
ATOM     45  C   UNL A   1      39.433  27.126  29.905  1.00  0.00     0.010 A 
ATOM     46  C   UNL A   1      41.847  27.366  29.990  1.00  0.00     0.010 A 
ATOM     47  C   UNL A   1      40.569  27.738  30.441  1.00  0.00    -0.014 A 
BRANCH  47  48
ATOM     48  C   UNL A   1      40.348  28.732  31.514  1.00  0.00     0.031 A 
ATOM     49  C   UNL A   1      41.325  28.572  32.635  1.00  0.00     0.074 A 
ATOM     50  C   UNL A   1      40.105  30.021  31.194  1.00  0.00     0.049 A 
ATOM     51  N   UNL A   1      42.553  28.999  32.605  1.00  0.00    -0.248 NA
ATOM     52  C   UNL A   1      41.018  27.690  33.758  1.00  0.00     0.031 C 
ATOM     53  C   UNL A   1      40.867  30.730  30.164  1.00  0.00     0.029 A 
ATOM     54  N   UNL A   1      39.480  31.019  31.926  1.00  0.00    -0.354 N 
ATOM     55  C   UNL A   1      43.204  28.400  33.664  1.00  0.00     0.074 A 
ATOM     56  C   UNL A   1      42.211  27.612  34.363  1.00  0.00     0.031 C 
ATOM     57  C   UNL A   1      40.822  32.041  30.439  1.00  0.00     0.029 A 
ATOM     58  C   UNL A   1      39.916  32.283  31.560  1.00  0.00     0.049 A 
ATOM     59  H   UNL A   1      38.806  30.850  32.624  1.00  0.00     0.167 HD
ATOM     60  C   UNL A   1      44.526  28.563  33.912  1.00  0.00     0.037 A 
ATOM     61  C   UNL A   1      39.862  33.433  32.283  1.00  0.00     0.037 A 
ATOM     62  C   UNL A   1      45.244  29.419  33.020  1.00  0.00     0.049 A 
ATOM     63  C   UNL A   1      41.275  33.480  32.798  1.00  0.00     0.074 A 
ATOM     64  C   UNL A   1      45.976  29.283  31.861  1.00  0.00     0.029 A 
ATOM     65  N   UNL A   1      45.234  30.769  33.273  1.00  0.00    -0.354 N 
ATOM     66  N   UNL A   1      42.340  33.817  32.117  1.00  0.00    -0.248 NA
ATOM     67  C   UNL A   1      41.538  32.663  33.984  1.00  0.00     0.031 C 
ATOM     68  C   UNL A   1      45.987  30.581  31.260  1.00  0.00     0.029 A 
ATOM     69  C   UNL A   1      45.204  31.410  32.061  1.00  0.00     0.049 A 
ATOM     70  H   UNL A   1      45.246  31.198  34.160  1.00  0.00     0.167 HD
ATOM     71  C   UNL A   1      43.339  32.951  32.576  1.00  0.00     0.074 A 
ATOM     72  C   UNL A   1      42.799  32.319  33.765  1.00  0.00     0.031 C 
ATOM     73  C   UNL A   1      44.432  32.611  31.831  1.00  0.00     0.037 A 
BRANCH  60  74
ATOM     74  C   UNL A   1      45.186  28.056  35.124  1.00  0.00     0.064 A 
ATOM     75  C   UNL A   1      45.730  26.766  35.083  1.00  0.00     0.173 A 
ATOM     76  C   UNL A   1      45.140  28.728  36.346  1.00  0.00     0.173 A 
ATOM     77  F   UNL A   1      45.787  26.098  33.919  1.00  0.00    -0.203 F 
ATOM     78  C   UNL A   1      46.170  26.141  36.242  1.00  0.00     0.198 A 
ATOM     79  C   UNL A   1      45.591  28.102  37.507  1.00  0.00     0.198 A 
ATOM     80  F   UNL A   1      44.630  29.966  36.420  1.00  0.00    -0.203 F 
ATOM     81  F   UNL A   1      46.641  24.889  36.183  1.00  0.00    -0.200 F 
ATOM     82  C   UNL A   1      46.089  26.805  37.455  1.00  0.00     0.200 A 
ATOM     83  F   UNL A   1      45.519  28.742  38.682  1.00  0.00    -0.200 F 
ATOM     84  F   UNL A   1      46.484  26.192  38.578  1.00  0.00    -0.200 F 
ENDBRANCH  60  74
BRANCH  61  85
ATOM     85  C   UNL A   1      38.637  33.729  33.080  1.00  0.00     0.064 A 
ATOM     86  C   UNL A   1      37.602  34.471  32.466  1.00  0.00     0.173 A 
ATOM     87  C   UNL A   1      38.421  33.368  34.416  1.00  0.00     0.173 A 
ATOM     88  F   UNL A   1      37.765  34.956  31.226  1.00  0.00    -0.203 F 
ATOM     89  C   UNL A   1      36.391  34.730  33.107  1.00  0.00     0.198 A 
ATOM     90  C   UNL A   1      37.198  33.607  35.052  1.00  0.00     0.198 A 
ATOM     91  F   UNL A   1      39.380  32.771  35.134  1.00  0.00    -0.203 F 
ATOM     92  F   UNL A   1      35.428  35.409  32.469  1.00  0.00    -0.200 F 
ATOM     93  C   UNL A   1      36.178  34.272  34.393  1.00  0.00     0.200 A 
ATOM     94  F   UNL A   1      37.007  33.171  36.304  1.00  0.00    -0.200 F 
ATOM     95  F   UNL A   1      35.000  34.473  34.998  1.00  0.00    -0.200 F 
ENDBRANCH  61  85
BRANCH  73  96
ATOM     96  C   UNL A   1      44.632  33.380  30.566  1.00  0.00     0.064 A 
ATOM     97  C   UNL A   1      44.235  32.839  29.338  1.00  0.00     0.173 A 
ATOM     98  C   UNL A   1      45.164  34.681  30.567  1.00  0.00     0.173 A 
ATOM     99  F   UNL A   1      43.722  31.600  29.278  1.00  0.00    -0.203 F 
ATOM    100  C   UNL A   1      44.334  33.582  28.164  1.00  0.00     0.198 A 
ATOM    101  C   UNL A   1      45.233  35.431  29.398  1.00  0.00     0.198 A 
ATOM    102  F   UNL A   1      45.607  35.241  31.704  1.00  0.00    -0.203 F 
ATOM    103  F   UNL A   1      43.941  33.047  26.999  1.00  0.00    -0.200 F 
ATOM    104  C   UNL A   1      44.814  34.883  28.198  1.00  0.00     0.200 A 
ATOM    105  F   UNL A   1      45.689  36.692  29.439  1.00  0.00    -0.200 F 
ATOM    106  F   UNL A   1      44.865  35.612  27.074  1.00  0.00    -0.200 F 
ENDBRANCH  73  96
ENDBRANCH  47  48
ENDBRANCH  39  42
ENDBRANCH  37  38
ENDBRANCH  36  37
ENDBRANCH  35  36
ENDBRANCH  34  35
ENDBRANCH   1  34
TORSDOF 17
ENDMDL
MODEL 2
REMARK VINA RESULT:     -10.7      2.569      8.537
REMARK SMILES Cc1c(CCC(=O)N[C@@H](C)C(=O)NCCCCCCNC(=O)c2ccc(-c3c4nc(c(-c5c(F)c(F)c(F)c(F)c5F)c5ccc([nH]5)c(-c5c(F)c(F)c(F)c(F)c5F)c5nc(c(-c6c(F)c(F)c(F)c(F)c6F)c6ccc3[nH]6)C=C5)C=C4)cc2)c(=O)oc2cc3oc4c(c3cc12)CCCC4
REMARK SMILES IDX 15 1 14 2 13 3 11 4 12 5 9 7 10 8 8 9 6 10 7 11 5 13 4 14
REMARK SMILES IDX 3 15 1 16 2 17 97 18 86 19 89 20 96 21 87 22 88 23 90 24
REMARK SMILES IDX 95 25 91 26 94 27 92 28 93 29 98 30 101 31 99 32 100 33
REMARK SMILES IDX 16 34 17 35 18 36 19 37 20 38 21 39 22 41 23 42 24 43 85 44
REMARK SMILES IDX 25 45 84 46 26 47 27 48 28 49 78 50 29 51 83 52 77 53 79 54
REMARK SMILES IDX 30 55 82 56 76 57 75 58 31 60 63 61 43 62 62 63 44 64 47 65
REMARK SMILES IDX 61 66 80 67 45 68 46 69 60 71 81 72 48 73 32 74 33 75 41 76
REMARK SMILES IDX 34 77 35 78 39 79 42 80 36 81 37 82 40 83 38 84 64 85 65 86
REMARK SMILES IDX 73 87 66 88 67 89 71 90 74 91 68 92 69 93 72 94 70 95 49 96
REMARK SMILES IDX 50 97 58 98 51 99 52 100 56 101 59 102 53 103 54 104 57 105
REMARK SMILES IDX 55 106
REMARK H PARENT 13 6 8 12 20 40 79 59 47 70
REMARK Flexibility Score: inf
ROOT
ATOM      1  C   UNL A   1      31.714  28.604  27.004  1.00  0.00     0.021 C 
ENDROOT
BRANCH   1   2
ATOM      2  C   UNL A   1      31.521  27.492  25.975  1.00  0.00     0.116 C 
BRANCH   2   3
ATOM      3  N   UNL A   1      31.508  26.190  26.634  1.00  0.00    -0.354 N 
ATOM      4  C   UNL A   1      31.296  24.907  26.226  1.00  0.00     0.242 C 
ATOM      5  O   UNL A   1      31.017  24.105  27.126  1.00  0.00    -0.273 OA
ATOM      6  H   UNL A   1      31.695  26.253  27.598  1.00  0.00     0.163 HD
BRANCH   4   7
ATOM      7  C   UNL A   1      31.497  24.389  24.775  1.00  0.00     0.168 C 
ATOM      8  C   UNL A   1      30.584  24.989  23.738  1.00  0.00     0.041 C 
BRANCH   7   9
ATOM      9  N   UNL A   1      31.342  22.938  24.641  1.00  0.00    -0.345 N 
ATOM     10  C   UNL A   1      32.093  22.173  23.782  1.00  0.00     0.220 C 
ATOM     11  O   UNL A   1      31.525  21.383  23.030  1.00  0.00    -0.275 OA
ATOM     12  H   UNL A   1      30.665  22.487  25.195  1.00  0.00     0.164 HD
BRANCH  10  13
ATOM     13  C   UNL A   1      33.611  22.272  23.848  1.00  0.00     0.105 C 
BRANCH  13  14
ATOM     14  C   UNL A   1      34.267  21.751  25.138  1.00  0.00     0.053 C 
BRANCH  14  15
ATOM     15  C   UNL A   1      35.756  22.008  25.191  1.00  0.00     0.042 A 
ATOM     16  C   UNL A   1      35.572  24.534  25.030  1.00  0.00     0.046 C 
ATOM     17  C   UNL A   1      36.295  23.237  25.276  1.00  0.00    -0.030 A 
ATOM     18  C   UNL A   1      37.642  23.282  25.840  1.00  0.00     0.022 A 
ATOM     19  C   UNL A   1      36.649  20.804  25.120  1.00  0.00     0.339 A 
ATOM     20  C   UNL A   1      38.506  22.196  25.716  1.00  0.00     0.142 A 
ATOM     21  C   UNL A   1      37.986  24.320  26.696  1.00  0.00     0.024 A 
ATOM     22  O   UNL A   1      36.185  19.678  24.979  1.00  0.00    -0.246 OA
ATOM     23  O   UNL A   1      38.026  21.018  25.126  1.00  0.00    -0.422 OA
ATOM     24  C   UNL A   1      39.817  22.193  26.221  1.00  0.00     0.095 A 
ATOM     25  C   UNL A   1      39.175  24.216  27.417  1.00  0.00     0.025 A 
ATOM     26  C   UNL A   1      40.120  23.278  27.033  1.00  0.00     0.138 A 
ATOM     27  C   UNL A   1      39.760  25.002  28.426  1.00  0.00     0.001 A 
ATOM     28  O   UNL A   1      41.350  23.696  27.481  1.00  0.00    -0.461 OA
ATOM     29  C   UNL A   1      41.101  24.868  28.137  1.00  0.00     0.108 A 
ATOM     30  C   UNL A   1      39.238  26.267  28.987  1.00  0.00     0.040 C 
ATOM     31  C   UNL A   1      41.896  26.099  27.837  1.00  0.00     0.076 C 
ATOM     32  C   UNL A   1      39.562  27.353  27.956  1.00  0.00     0.005 C 
ATOM     33  C   UNL A   1      40.877  27.073  27.143  1.00  0.00     0.008 C 
ENDBRANCH  14  15
ENDBRANCH  13  14
ENDBRANCH  10  13
ENDBRANCH   7   9
ENDBRANCH   4   7
ENDBRANCH   2   3
ENDBRANCH   1   2
BRANCH   1  34
ATOM     34  C   UNL A   1      32.056  29.944  26.346  1.00  0.00     0.002 C 
BRANCH  34  35
ATOM     35  C   UNL A   1      33.098  30.783  27.104  1.00  0.00     0.002 C 
BRANCH  35  36
ATOM     36  C   UNL A   1      34.423  30.069  27.391  1.00  0.00     0.021 C 
BRANCH  36  37
ATOM     37  C   UNL A   1      35.419  30.926  28.171  1.00  0.00     0.116 C 
BRANCH  37  38
ATOM     38  N   UNL A   1      34.784  31.701  29.223  1.00  0.00    -0.352 N 
ATOM     39  C   UNL A   1      35.178  31.835  30.533  1.00  0.00     0.251 C 
ATOM     40  H   UNL A   1      33.969  32.192  28.966  1.00  0.00     0.163 HD
ATOM     41  O   UNL A   1      34.475  32.409  31.358  1.00  0.00    -0.269 OA
BRANCH  39  42
ATOM     42  C   UNL A   1      36.448  31.214  30.945  1.00  0.00     0.039 A 
ATOM     43  C   UNL A   1      37.620  31.974  30.989  1.00  0.00     0.014 A 
ATOM     44  C   UNL A   1      36.471  29.843  31.196  1.00  0.00     0.014 A 
ATOM     45  C   UNL A   1      38.845  31.339  31.139  1.00  0.00     0.010 A 
ATOM     46  C   UNL A   1      37.694  29.218  31.407  1.00  0.00     0.010 A 
ATOM     47  C   UNL A   1      38.889  29.954  31.326  1.00  0.00    -0.014 A 
BRANCH  47  48
ATOM     48  C   UNL A   1      40.227  29.344  31.481  1.00  0.00     0.031 A 
ATOM     49  C   UNL A   1      41.285  30.128  30.772  1.00  0.00     0.074 A 
ATOM     50  C   UNL A   1      40.618  28.885  32.690  1.00  0.00     0.049 A 
ATOM     51  N   UNL A   1      41.821  31.220  31.230  1.00  0.00    -0.248 NA
ATOM     52  C   UNL A   1      41.608  29.832  29.378  1.00  0.00     0.031 C 
ATOM     53  C   UNL A   1      40.394  29.638  33.925  1.00  0.00     0.029 A 
ATOM     54  N   UNL A   1      41.582  27.943  33.016  1.00  0.00    -0.354 N 
ATOM     55  C   UNL A   1      42.502  31.795  30.178  1.00  0.00     0.074 A 
ATOM     56  C   UNL A   1      42.360  30.893  29.055  1.00  0.00     0.031 C 
ATOM     57  C   UNL A   1      41.321  29.264  34.817  1.00  0.00     0.029 A 
ATOM     58  C   UNL A   1      42.102  28.150  34.284  1.00  0.00     0.049 A 
ATOM     59  H   UNL A   1      41.863  27.213  32.418  1.00  0.00     0.167 HD
ATOM     60  C   UNL A   1      43.138  32.989  30.267  1.00  0.00     0.037 A 
ATOM     61  C   UNL A   1      43.294  27.726  34.783  1.00  0.00     0.037 A 
ATOM     62  C   UNL A   1      43.092  33.645  31.536  1.00  0.00     0.049 A 
ATOM     63  C   UNL A   1      44.101  28.986  34.631  1.00  0.00     0.074 A 
ATOM     64  C   UNL A   1      42.293  34.574  32.164  1.00  0.00     0.029 A 
ATOM     65  N   UNL A   1      44.032  33.299  32.476  1.00  0.00    -0.354 N 
ATOM     66  N   UNL A   1      44.027  30.052  35.385  1.00  0.00    -0.248 NA
ATOM     67  C   UNL A   1      44.660  29.215  33.297  1.00  0.00     0.031 C 
ATOM     68  C   UNL A   1      42.533  34.406  33.564  1.00  0.00     0.029 A 
ATOM     69  C   UNL A   1      43.417  33.337  33.701  1.00  0.00     0.049 A 
ATOM     70  H   UNL A   1      44.974  33.067  32.303  1.00  0.00     0.167 HD
ATOM     71  C   UNL A   1      44.180  31.123  34.496  1.00  0.00     0.074 A 
ATOM     72  C   UNL A   1      44.631  30.539  33.247  1.00  0.00     0.031 C 
ATOM     73  C   UNL A   1      43.691  32.374  34.744  1.00  0.00     0.037 A 
BRANCH  60  74
ATOM     74  C   UNL A   1      43.993  33.528  29.200  1.00  0.00     0.064 A 
ATOM     75  C   UNL A   1      43.426  34.443  28.304  1.00  0.00     0.173 A 
ATOM     76  C   UNL A   1      45.275  33.040  28.941  1.00  0.00     0.173 A 
ATOM     77  F   UNL A   1      42.195  34.928  28.531  1.00  0.00    -0.203 F 
ATOM     78  C   UNL A   1      44.100  34.823  27.152  1.00  0.00     0.198 A 
ATOM     79  C   UNL A   1      45.954  33.430  27.789  1.00  0.00     0.198 A 
ATOM     80  F   UNL A   1      45.850  32.165  29.780  1.00  0.00    -0.203 F 
ATOM     81  F   UNL A   1      43.515  35.663  26.288  1.00  0.00    -0.200 F 
ATOM     82  C   UNL A   1      45.359  34.308  26.889  1.00  0.00     0.200 A 
ATOM     83  F   UNL A   1      47.173  32.938  27.532  1.00  0.00    -0.200 F 
ATOM     84  F   UNL A   1      45.997  34.649  25.762  1.00  0.00    -0.200 F 
ENDBRANCH  60  74
BRANCH  61  85
ATOM     85  C   UNL A   1      43.764  26.348  34.460  1.00  0.00     0.064 A 
ATOM     86  C   UNL A   1      43.956  25.439  35.524  1.00  0.00     0.173 A 
ATOM     87  C   UNL A   1      44.074  25.868  33.181  1.00  0.00     0.173 A 
ATOM     88  F   UNL A   1      43.792  25.841  36.793  1.00  0.00    -0.203 F 
ATOM     89  C   UNL A   1      44.320  24.109  35.310  1.00  0.00     0.198 A 
ATOM     90  C   UNL A   1      44.416  24.529  32.963  1.00  0.00     0.198 A 
ATOM     91  F   UNL A   1      44.046  26.675  32.114  1.00  0.00    -0.203 F 
ATOM     92  F   UNL A   1      44.457  23.277  36.352  1.00  0.00    -0.200 F 
ATOM     93  C   UNL A   1      44.523  23.646  34.025  1.00  0.00     0.200 A 
ATOM     94  F   UNL A   1      44.624  24.094  31.713  1.00  0.00    -0.200 F 
ATOM     95  F   UNL A   1      44.824  22.359  33.807  1.00  0.00    -0.200 F 
ENDBRANCH  61  85
BRANCH  73  96
ATOM     96  C   UNL A   1      43.165  32.614  36.121  1.00  0.00     0.064 A 
ATOM     97  C   UNL A   1      44.041  32.893  37.176  1.00  0.00     0.173 A 
ATOM     98  C   UNL A   1      41.786  32.628  36.394  1.00  0.00     0.173 A 
ATOM     99  F   UNL A   1      45.368  32.892  36.972  1.00  0.00    -0.203 F 
ATOM    100  C   UNL A   1      43.557  33.207  38.444  1.00  0.00     0.198 A 
ATOM    101  C   UNL A   1      41.305  32.972  37.653  1.00  0.00     0.198 A 
ATOM    102  F   UNL A   1      40.893  32.323  35.439  1.00  0.00    -0.203 F 
ATOM    103  F   UNL A   1      44.414  33.479  39.438  1.00  0.00    -0.200 F 
ATOM    104  C   UNL A   1      42.191  33.266  38.676  1.00  0.00     0.200 A 
ATOM    105  F   UNL A   1      39.983  33.036  37.870  1.00  0.00    -0.200 F 
ATOM    106  F   UNL A   1      41.728  33.613  39.885  1.00  0.00    -0.200 F 
ENDBRANCH  73  96
ENDBRANCH  47  48
ENDBRANCH  39  42
ENDBRANCH  37  38
ENDBRANCH  36  37
ENDBRANCH  35  36
ENDBRANCH  34  35
ENDBRANCH   1  34
TORSDOF 17
ENDMDL
MODEL 3
REMARK VINA RESULT:     -10.6      3.596      9.646
REMARK SMILES Cc1c(CCC(=O)N[C@@H](C)C(=O)NCCCCCCNC(=O)c2ccc(-c3c4nc(c(-c5c(F)c(F)c(F)c(F)c5F)c5ccc([nH]5)c(-c5c(F)c(F)c(F)c(F)c5F)c5nc(c(-c6c(F)c(F)c(F)c(F)c6F)c6ccc3[nH]6)C=C5)C=C4)cc2)c(=O)oc2cc3oc4c(c3cc12)CCCC4
REMARK SMILES IDX 15 1 14 2 13 3 11 4 12 5 9 7 10 8 8 9 6 10 7 11 5 13 4 14
REMARK SMILES IDX 3 15 1 16 2 17 97 18 86 19 89 20 96 21 87 22 88 23 90 24
REMARK SMILES IDX 95 25 91 26 94 27 92 28 93 29 98 30 101 31 99 32 100 33
REMARK SMILES IDX 16 34 17 35 18 36 19 37 20 38 21 39 22 41 23 42 24 43 85 44
REMARK SMILES IDX 25 45 84 46 26 47 27 48 28 49 78 50 29 51 83 52 77 53 79 54
REMARK SMILES IDX 30 55 82 56 76 57 75 58 31 60 63 61 43 62 62 63 44 64 47 65
REMARK SMILES IDX 61 66 80 67 45 68 46 69 60 71 81 72 48 73 32 74 33 75 41 76
REMARK SMILES IDX 34 77 35 78 39 79 42 80 36 81 37 82 40 83 38 84 64 85 65 86
REMARK SMILES IDX 73 87 66 88 67 89 71 90 74 91 68 92 69 93 72 94 70 95 49 96
REMARK SMILES IDX 50 97 58 98 51 99 52 100 56 101 59 102 53 103 54 104 57 105
REMARK SMILES IDX 55 106
REMARK H PARENT 13 6 8 12 20 40 79 59 47 70
REMARK Flexibility Score: inf
ROOT
ATOM      1  C   UNL A   1      40.338  26.591  27.716  1.00  0.00     0.021 C 
ENDROOT
BRANCH   1   2
ATOM      2  C   UNL A   1      40.253  25.132  27.272  1.00  0.00     0.116 C 
BRANCH   2   3
ATOM      3  N   UNL A   1      38.860  24.745  27.072  1.00  0.00    -0.354 N 
ATOM      4  C   UNL A   1      38.223  23.790  26.339  1.00  0.00     0.242 C 
ATOM      5  O   UNL A   1      37.017  23.989  26.144  1.00  0.00    -0.273 OA
ATOM      6  H   UNL A   1      38.235  25.306  27.586  1.00  0.00     0.163 HD
BRANCH   4   7
ATOM      7  C   UNL A   1      38.866  22.459  25.859  1.00  0.00     0.168 C 
ATOM      8  C   UNL A   1      37.900  21.405  25.385  1.00  0.00     0.041 C 
BRANCH   7   9
ATOM      9  N   UNL A   1      39.694  21.805  26.875  1.00  0.00    -0.345 N 
ATOM     10  C   UNL A   1      40.951  21.311  26.624  1.00  0.00     0.220 C 
ATOM     11  O   UNL A   1      41.225  20.165  26.976  1.00  0.00    -0.275 OA
ATOM     12  H   UNL A   1      39.330  21.714  27.786  1.00  0.00     0.164 HD
BRANCH  10  13
ATOM     13  C   UNL A   1      41.986  22.230  25.991  1.00  0.00     0.105 C 
BRANCH  13  14
ATOM     14  C   UNL A   1      43.458  21.823  26.179  1.00  0.00     0.053 C 
BRANCH  14  15
ATOM     15  C   UNL A   1      44.426  22.941  25.866  1.00  0.00     0.042 A 
ATOM     16  C   UNL A   1      44.409  23.938  28.200  1.00  0.00     0.046 C 
ATOM     17  C   UNL A   1      44.928  23.771  26.796  1.00  0.00    -0.030 A 
ATOM     18  C   UNL A   1      46.195  24.404  26.439  1.00  0.00     0.022 A 
ATOM     19  C   UNL A   1      44.806  23.117  24.425  1.00  0.00     0.339 A 
ATOM     20  C   UNL A   1      46.527  24.639  25.106  1.00  0.00     0.142 A 
ATOM     21  C   UNL A   1      47.172  24.569  27.413  1.00  0.00     0.024 A 
ATOM     22  O   UNL A   1      44.314  22.414  23.549  1.00  0.00    -0.246 OA
ATOM     23  O   UNL A   1      45.666  24.166  24.105  1.00  0.00    -0.422 OA
ATOM     24  C   UNL A   1      47.722  25.262  24.707  1.00  0.00     0.095 A 
ATOM     25  C   UNL A   1      48.454  24.938  27.009  1.00  0.00     0.025 A 
ATOM     26  C   UNL A   1      48.642  25.442  25.732  1.00  0.00     0.138 A 
ATOM     27  C   UNL A   1      49.675  25.079  27.692  1.00  0.00     0.001 A 
ATOM     28  O   UNL A   1      49.779  26.213  25.734  1.00  0.00    -0.461 OA
ATOM     29  C   UNL A   1      50.250  26.134  27.015  1.00  0.00     0.108 A 
ATOM     30  C   UNL A   1      49.912  24.902  29.141  1.00  0.00     0.040 C 
ATOM     31  C   UNL A   1      50.603  27.369  27.780  1.00  0.00     0.076 C 
ATOM     32  C   UNL A   1      49.390  26.176  29.814  1.00  0.00     0.005 C 
ATOM     33  C   UNL A   1      49.522  27.459  28.917  1.00  0.00     0.008 C 
ENDBRANCH  14  15
ENDBRANCH  13  14
ENDBRANCH  10  13
ENDBRANCH   7   9
ENDBRANCH   4   7
ENDBRANCH   2   3
ENDBRANCH   1   2
BRANCH   1  34
ATOM     34  C   UNL A   1      41.741  27.172  27.517  1.00  0.00     0.002 C 
BRANCH  34  35
ATOM     35  C   UNL A   1      41.824  28.311  26.488  1.00  0.00     0.002 C 
BRANCH  35  36
ATOM     36  C   UNL A   1      42.470  27.932  25.151  1.00  0.00     0.021 C 
BRANCH  36  37
ATOM     37  C   UNL A   1      43.719  27.066  25.303  1.00  0.00     0.116 C 
BRANCH  37  38
ATOM     38  N   UNL A   1      44.885  27.650  24.661  1.00  0.00    -0.352 N 
ATOM     39  C   UNL A   1      45.838  28.470  25.219  1.00  0.00     0.251 C 
ATOM     40  H   UNL A   1      45.007  27.433  23.708  1.00  0.00     0.163 HD
ATOM     41  O   UNL A   1      46.698  29.010  24.533  1.00  0.00    -0.269 OA
BRANCH  39  42
ATOM     42  C   UNL A   1      45.765  28.737  26.665  1.00  0.00     0.039 A 
ATOM     43  C   UNL A   1      46.197  27.772  27.580  1.00  0.00     0.014 A 
ATOM     44  C   UNL A   1      45.177  29.924  27.097  1.00  0.00     0.014 A 
ATOM     45  C   UNL A   1      45.906  27.926  28.928  1.00  0.00     0.010 A 
ATOM     46  C   UNL A   1      44.940  30.103  28.455  1.00  0.00     0.010 A 
ATOM     47  C   UNL A   1      45.256  29.083  29.369  1.00  0.00    -0.014 A 
BRANCH  47  48
ATOM     48  C   UNL A   1      44.978  29.181  30.818  1.00  0.00     0.031 A 
ATOM     49  C   UNL A   1      45.118  30.583  31.320  1.00  0.00     0.074 A 
ATOM     50  C   UNL A   1      43.922  28.525  31.344  1.00  0.00     0.049 A 
ATOM     51  N   UNL A   1      44.220  31.511  31.169  1.00  0.00    -0.248 NA
ATOM     52  C   UNL A   1      46.409  31.063  31.808  1.00  0.00     0.031 C 
ATOM     53  C   UNL A   1      42.606  28.514  30.701  1.00  0.00     0.029 A 
ATOM     54  N   UNL A   1      43.685  28.117  32.648  1.00  0.00    -0.354 N 
ATOM     55  C   UNL A   1      44.833  32.706  31.479  1.00  0.00     0.074 A 
ATOM     56  C   UNL A   1      46.183  32.381  31.889  1.00  0.00     0.031 C 
ATOM     57  C   UNL A   1      41.680  28.306  31.646  1.00  0.00     0.029 A 
ATOM     58  C   UNL A   1      42.330  28.020  32.924  1.00  0.00     0.049 A 
ATOM     59  H   UNL A   1      44.395  27.919  33.301  1.00  0.00     0.167 HD
ATOM     60  C   UNL A   1      44.215  33.908  31.374  1.00  0.00     0.037 A 
ATOM     61  C   UNL A   1      41.714  28.057  34.136  1.00  0.00     0.037 A 
ATOM     62  C   UNL A   1      42.856  33.892  30.931  1.00  0.00     0.049 A 
ATOM     63  C   UNL A   1      41.255  29.490  34.148  1.00  0.00     0.074 A 
ATOM     64  C   UNL A   1      42.183  33.987  29.734  1.00  0.00     0.029 A 
ATOM     65  N   UNL A   1      41.873  33.694  31.871  1.00  0.00    -0.354 N 
ATOM     66  N   UNL A   1      40.243  29.987  33.485  1.00  0.00    -0.248 NA
ATOM     67  C   UNL A   1      42.265  30.469  34.553  1.00  0.00     0.031 C 
ATOM     68  C   UNL A   1      40.895  33.411  29.969  1.00  0.00     0.029 A 
ATOM     69  C   UNL A   1      40.892  32.940  31.281  1.00  0.00     0.049 A 
ATOM     70  H   UNL A   1      41.874  34.030  32.797  1.00  0.00     0.167 HD
ATOM     71  C   UNL A   1      40.679  31.253  33.077  1.00  0.00     0.074 A 
ATOM     72  C   UNL A   1      41.898  31.511  33.822  1.00  0.00     0.031 C 
ATOM     73  C   UNL A   1      40.175  31.900  31.985  1.00  0.00     0.037 A 
BRANCH  60  74
ATOM     74  C   UNL A   1      44.810  35.164  31.851  1.00  0.00     0.064 A 
ATOM     75  C   UNL A   1      44.646  35.497  33.201  1.00  0.00     0.173 A 
ATOM     76  C   UNL A   1      45.373  36.108  30.989  1.00  0.00     0.173 A 
ATOM     77  F   UNL A   1      44.108  34.607  34.051  1.00  0.00    -0.203 F 
ATOM     78  C   UNL A   1      44.987  36.758  33.671  1.00  0.00     0.198 A 
ATOM     79  C   UNL A   1      45.723  37.370  31.465  1.00  0.00     0.198 A 
ATOM     80  F   UNL A   1      45.549  35.821  29.691  1.00  0.00    -0.203 F 
ATOM     81  F   UNL A   1      44.775  37.066  34.957  1.00  0.00    -0.200 F 
ATOM     82  C   UNL A   1      45.515  37.698  32.800  1.00  0.00     0.200 A 
ATOM     83  F   UNL A   1      46.238  38.280  30.628  1.00  0.00    -0.200 F 
ATOM     84  F   UNL A   1      45.813  38.925  33.246  1.00  0.00    -0.200 F 
ENDBRANCH  60  74
BRANCH  61  85
ATOM     85  C   UNL A   1      42.333  27.332  35.283  1.00  0.00     0.064 A 
ATOM     86  C   UNL A   1      41.703  26.157  35.751  1.00  0.00     0.173 A 
ATOM     87  C   UNL A   1      43.481  27.730  35.980  1.00  0.00     0.173 A 
ATOM     88  F   UNL A   1      40.537  25.759  35.220  1.00  0.00    -0.203 F 
ATOM     89  C   UNL A   1      42.249  25.374  36.768  1.00  0.00     0.198 A 
ATOM     90  C   UNL A   1      44.043  26.933  36.983  1.00  0.00     0.198 A 
ATOM     91  F   UNL A   1      44.090  28.889  35.703  1.00  0.00    -0.203 F 
ATOM     92  F   UNL A   1      41.630  24.249  37.152  1.00  0.00    -0.200 F 
ATOM     93  C   UNL A   1      43.437  25.749  37.366  1.00  0.00     0.200 A 
ATOM     94  F   UNL A   1      45.188  27.313  37.566  1.00  0.00    -0.200 F 
ATOM     95  F   UNL A   1      43.994  24.976  38.307  1.00  0.00    -0.200 F 
ENDBRANCH  61  85
BRANCH  73  96
ATOM     96  C   UNL A   1      38.967  31.286  31.356  1.00  0.00     0.064 A 
ATOM     97  C   UNL A   1      37.695  31.520  31.889  1.00  0.00     0.173 A 
ATOM     98  C   UNL A   1      39.056  30.511  30.187  1.00  0.00     0.173 A 
ATOM     99  F   UNL A   1      37.552  32.253  33.004  1.00  0.00    -0.203 F 
ATOM    100  C   UNL A   1      36.554  31.027  31.259  1.00  0.00     0.198 A 
ATOM    101  C   UNL A   1      37.913  30.047  29.543  1.00  0.00     0.198 A 
ATOM    102  F   UNL A   1      40.249  30.210  29.650  1.00  0.00    -0.203 F 
ATOM    103  F   UNL A   1      35.344  31.270  31.783  1.00  0.00    -0.200 F 
ATOM    104  C   UNL A   1      36.663  30.309  30.078  1.00  0.00     0.200 A 
ATOM    105  F   UNL A   1      38.024  29.360  28.397  1.00  0.00    -0.200 F 
ATOM    106  F   UNL A   1      35.561  29.876  29.449  1.00  0.00    -0.200 F 
ENDBRANCH  73  96
ENDBRANCH  47  48
ENDBRANCH  39  42
ENDBRANCH  37  38
ENDBRANCH  36  37
ENDBRANCH  35  36
ENDBRANCH  34  35
ENDBRANCH   1  34
TORSDOF 17
ENDMDL
