MODEL 1
REMARK VINA RESULT:     -11.5      0.000      0.000
REMARK SMILES C[NH2+][C@]1(C(=O)NCCCCCCNC(=O)c2ccc(-c3c4nc(c(-c5c(F)c(F)c(F)c(F)c5F)c5ccc([nH]5)c(-c5c(F)c(F)c(F)c(F)c5F)c5nc(c(-c6c(F)c(F)c(F)c(F)c6F)c6ccc3[nH]6)C=C5)C=C4)cc2)CC[C@@H](Sc2ccc3c(c2)CCC3)C1
REMARK SMILES IDX 9 1 8 2 7 3 6 4 4 5 5 6 3 8 79 9 92 10 80 11 81 12 2 13 1 14
REMARK SMILES IDX 82 17 83 18 84 19 88 20 85 21 87 22 86 23 89 24 91 25 90 26
REMARK SMILES IDX 10 27 11 28 12 29 13 30 14 31 15 33 16 34 17 35 78 36 18 37
REMARK SMILES IDX 77 38 19 39 20 40 21 41 71 42 22 43 76 44 70 45 72 46 23 47
REMARK SMILES IDX 75 48 69 49 68 50 24 52 56 53 36 54 55 55 37 56 40 57 54 58
REMARK SMILES IDX 73 59 38 60 39 61 53 63 74 64 41 65 25 66 26 67 34 68 27 69
REMARK SMILES IDX 28 70 32 71 35 72 29 73 30 74 33 75 31 76 57 77 58 78 66 79
REMARK SMILES IDX 59 80 60 81 64 82 67 83 61 84 62 85 65 86 63 87 42 88 43 89
REMARK SMILES IDX 51 90 44 91 45 92 49 93 52 94 46 95 47 96 50 97 48 98
REMARK H PARENT 6 7 2 15 2 16 13 32 72 51 40 62
REMARK Flexibility Score: inf
ROOT
ATOM      1  C   UNL A   1      33.414  26.922  26.012  1.00  0.00     0.002 C 
ENDROOT
BRANCH   1   2
ATOM      2  C   UNL A   1      33.668  25.420  25.805  1.00  0.00     0.021 C 
BRANCH   2   3
ATOM      3  C   UNL A   1      34.766  25.044  24.805  1.00  0.00     0.116 C 
BRANCH   3   4
ATOM      4  N   UNL A   1      35.970  24.557  25.456  1.00  0.00    -0.351 N 
ATOM      5  C   UNL A   1      36.373  23.330  25.876  1.00  0.00     0.281 C 
ATOM      6  O   UNL A   1      37.491  23.303  26.419  1.00  0.00    -0.268 OA
ATOM      7  H   UNL A   1      36.632  25.265  25.629  1.00  0.00     0.163 HD
BRANCH   5   8
ATOM      8  C   UNL A   1      35.532  22.002  25.772  1.00  0.00     0.176 C 
ATOM      9  C   UNL A   1      34.316  22.045  26.711  1.00  0.00     0.080 C 
ATOM     10  C   UNL A   1      34.899  21.769  24.386  1.00  0.00     0.094 C 
ATOM     11  C   UNL A   1      33.251  21.134  26.097  1.00  0.00     0.022 C 
ATOM     12  C   UNL A   1      33.711  20.843  24.664  1.00  0.00     0.058 C 
BRANCH   8  13
ATOM     13  N   UNL A   1      36.498  20.879  25.986  1.00  0.00    -0.336 N 
ATOM     14  C   UNL A   1      37.348  20.444  24.897  1.00  0.00     0.331 C 
ATOM     15  H   UNL A   1      37.114  21.160  26.748  1.00  0.00     0.346 HD
ATOM     16  H   UNL A   1      35.892  20.074  26.152  1.00  0.00     0.346 HD
ENDBRANCH   8  13
BRANCH  12  17
ATOM     17  S   UNL A   1      32.381  20.812  23.403  1.00  0.00    -0.122 SA
BRANCH  17  18
ATOM     18  C   UNL A   1      32.131  22.540  23.053  1.00  0.00     0.008 A 
ATOM     19  C   UNL A   1      32.975  23.209  22.146  1.00  0.00     0.015 A 
ATOM     20  C   UNL A   1      31.138  23.248  23.735  1.00  0.00     0.019 A 
ATOM     21  C   UNL A   1      32.798  24.567  21.869  1.00  0.00     0.005 A 
ATOM     22  C   UNL A   1      30.980  24.598  23.467  1.00  0.00    -0.044 A 
ATOM     23  C   UNL A   1      31.795  25.247  22.538  1.00  0.00    -0.045 A 
ATOM     24  C   UNL A   1      29.960  25.527  24.040  1.00  0.00     0.036 C 
ATOM     25  C   UNL A   1      31.393  26.675  22.375  1.00  0.00     0.036 C 
ATOM     26  C   UNL A   1      30.510  26.897  23.612  1.00  0.00     0.010 C 
ENDBRANCH  17  18
ENDBRANCH  12  17
ENDBRANCH   5   8
ENDBRANCH   3   4
ENDBRANCH   2   3
ENDBRANCH   1   2
BRANCH   1  27
ATOM     27  C   UNL A   1      32.211  27.318  26.884  1.00  0.00     0.002 C 
BRANCH  27  28
ATOM     28  C   UNL A   1      31.733  28.768  26.757  1.00  0.00     0.021 C 
BRANCH  28  29
ATOM     29  C   UNL A   1      32.654  29.708  25.976  1.00  0.00     0.116 C 
BRANCH  29  30
ATOM     30  N   UNL A   1      32.527  31.092  26.393  1.00  0.00    -0.352 N 
ATOM     31  C   UNL A   1      33.266  31.908  27.215  1.00  0.00     0.251 C 
ATOM     32  H   UNL A   1      31.742  31.543  26.005  1.00  0.00     0.163 HD
ATOM     33  O   UNL A   1      32.802  33.022  27.462  1.00  0.00    -0.269 OA
BRANCH  31  34
ATOM     34  C   UNL A   1      34.572  31.537  27.838  1.00  0.00     0.039 A 
ATOM     35  C   UNL A   1      34.685  30.234  28.351  1.00  0.00     0.014 A 
ATOM     36  C   UNL A   1      35.636  32.417  28.053  1.00  0.00     0.014 A 
ATOM     37  C   UNL A   1      35.835  29.817  29.037  1.00  0.00     0.010 A 
ATOM     38  C   UNL A   1      36.820  31.978  28.675  1.00  0.00     0.010 A 
ATOM     39  C   UNL A   1      36.930  30.677  29.192  1.00  0.00    -0.014 A 
BRANCH  39  40
ATOM     40  C   UNL A   1      38.158  30.223  29.914  1.00  0.00     0.031 A 
ATOM     41  C   UNL A   1      38.452  30.684  31.320  1.00  0.00     0.074 A 
ATOM     42  C   UNL A   1      39.025  29.383  29.313  1.00  0.00     0.049 A 
ATOM     43  N   UNL A   1      39.466  30.381  32.099  1.00  0.00    -0.248 NA
ATOM     44  C   UNL A   1      37.494  31.616  31.929  1.00  0.00     0.031 C 
ATOM     45  C   UNL A   1      38.894  28.869  27.951  1.00  0.00     0.029 A 
ATOM     46  N   UNL A   1      40.190  28.812  29.772  1.00  0.00    -0.354 N 
ATOM     47  C   UNL A   1      39.272  31.093  33.276  1.00  0.00     0.074 A 
ATOM     48  C   UNL A   1      38.068  31.876  33.095  1.00  0.00     0.031 C 
ATOM     49  C   UNL A   1      39.921  28.042  27.692  1.00  0.00     0.029 A 
ATOM     50  C   UNL A   1      40.802  27.992  28.856  1.00  0.00     0.049 A 
ATOM     51  H   UNL A   1      40.551  28.976  30.674  1.00  0.00     0.167 HD
ATOM     52  C   UNL A   1      40.013  31.082  34.413  1.00  0.00     0.037 A 
ATOM     53  C   UNL A   1      41.945  27.280  28.935  1.00  0.00     0.037 A 
ATOM     54  C   UNL A   1      41.194  30.284  34.621  1.00  0.00     0.049 A 
ATOM     55  C   UNL A   1      42.756  27.296  30.203  1.00  0.00     0.074 A 
ATOM     56  C   UNL A   1      41.963  30.165  35.769  1.00  0.00     0.029 A 
ATOM     57  N   UNL A   1      41.784  29.473  33.665  1.00  0.00    -0.354 N 
ATOM     58  N   UNL A   1      42.520  27.920  31.329  1.00  0.00    -0.248 NA
ATOM     59  C   UNL A   1      43.993  26.498  30.210  1.00  0.00     0.031 C 
ATOM     60  C   UNL A   1      43.042  29.319  35.492  1.00  0.00     0.029 A 
ATOM     61  C   UNL A   1      42.920  28.874  34.187  1.00  0.00     0.049 A 
ATOM     62  H   UNL A   1      41.445  29.342  32.750  1.00  0.00     0.167 HD
ATOM     63  C   UNL A   1      43.559  27.573  32.184  1.00  0.00     0.074 A 
ATOM     64  C   UNL A   1      44.421  26.670  31.452  1.00  0.00     0.031 C 
ATOM     65  C   UNL A   1      43.776  27.971  33.461  1.00  0.00     0.037 A 
BRANCH  52  66
ATOM     66  C   UNL A   1      39.565  31.966  35.542  1.00  0.00     0.064 A 
ATOM     67  C   UNL A   1      40.052  33.273  35.689  1.00  0.00     0.173 A 
ATOM     68  C   UNL A   1      38.595  31.521  36.452  1.00  0.00     0.173 A 
ATOM     69  F   UNL A   1      40.985  33.745  34.849  1.00  0.00    -0.203 F 
ATOM     70  C   UNL A   1      39.604  34.092  36.723  1.00  0.00     0.198 A 
ATOM     71  C   UNL A   1      38.128  32.352  37.467  1.00  0.00     0.198 A 
ATOM     72  F   UNL A   1      38.087  30.283  36.349  1.00  0.00    -0.203 F 
ATOM     73  F   UNL A   1      40.115  35.322  36.870  1.00  0.00    -0.200 F 
ATOM     74  C   UNL A   1      38.638  33.634  37.606  1.00  0.00     0.200 A 
ATOM     75  F   UNL A   1      37.184  31.912  38.311  1.00  0.00    -0.200 F 
ATOM     76  F   UNL A   1      38.202  34.426  38.596  1.00  0.00    -0.200 F 
ENDBRANCH  52  66
BRANCH  53  77
ATOM     77  C   UNL A   1      42.392  26.472  27.770  1.00  0.00     0.064 A 
ATOM     78  C   UNL A   1      43.311  26.986  26.845  1.00  0.00     0.173 A 
ATOM     79  C   UNL A   1      41.898  25.177  27.552  1.00  0.00     0.173 A 
ATOM     80  F   UNL A   1      43.790  28.229  26.997  1.00  0.00    -0.203 F 
ATOM     81  C   UNL A   1      43.708  26.241  25.736  1.00  0.00     0.198 A 
ATOM     82  C   UNL A   1      42.317  24.423  26.458  1.00  0.00     0.198 A 
ATOM     83  F   UNL A   1      41.016  24.643  28.409  1.00  0.00    -0.203 F 
ATOM     84  F   UNL A   1      44.553  26.773  24.843  1.00  0.00    -0.200 F 
ATOM     85  C   UNL A   1      43.215  24.958  25.547  1.00  0.00     0.200 A 
ATOM     86  F   UNL A   1      41.847  23.181  26.285  1.00  0.00    -0.200 F 
ATOM     87  F   UNL A   1      43.599  24.241  24.483  1.00  0.00    -0.200 F 
ENDBRANCH  53  77
BRANCH  65  88
ATOM     88  C   UNL A   1      44.978  27.413  34.168  1.00  0.00     0.064 A 
ATOM     89  C   UNL A   1      44.921  26.198  34.867  1.00  0.00     0.173 A 
ATOM     90  C   UNL A   1      46.209  28.082  34.116  1.00  0.00     0.173 A 
ATOM     91  F   UNL A   1      43.764  25.526  34.960  1.00  0.00    -0.203 F 
ATOM     92  C   UNL A   1      46.048  25.686  35.505  1.00  0.00     0.198 A 
ATOM     93  C   UNL A   1      47.341  27.554  34.733  1.00  0.00     0.198 A 
ATOM     94  F   UNL A   1      46.319  29.245  33.456  1.00  0.00    -0.203 F 
ATOM     95  F   UNL A   1      45.961  24.545  36.204  1.00  0.00    -0.200 F 
ATOM     96  C   UNL A   1      47.258  26.360  35.433  1.00  0.00     0.200 A 
ATOM     97  F   UNL A   1      48.512  28.201  34.650  1.00  0.00    -0.200 F 
ATOM     98  F   UNL A   1      48.343  25.862  36.042  1.00  0.00    -0.200 F 
ENDBRANCH  65  88
ENDBRANCH  39  40
ENDBRANCH  31  34
ENDBRANCH  29  30
ENDBRANCH  28  29
ENDBRANCH  27  28
ENDBRANCH   1  27
TORSDOF 16
ENDMDL
MODEL 2
REMARK VINA RESULT:     -11.1      1.618      3.410
REMARK SMILES C[NH2+][C@]1(C(=O)NCCCCCCNC(=O)c2ccc(-c3c4nc(c(-c5c(F)c(F)c(F)c(F)c5F)c5ccc([nH]5)c(-c5c(F)c(F)c(F)c(F)c5F)c5nc(c(-c6c(F)c(F)c(F)c(F)c6F)c6ccc3[nH]6)C=C5)C=C4)cc2)CC[C@@H](Sc2ccc3c(c2)CCC3)C1
REMARK SMILES IDX 9 1 8 2 7 3 6 4 4 5 5 6 3 8 79 9 92 10 80 11 81 12 2 13 1 14
REMARK SMILES IDX 82 17 83 18 84 19 88 20 85 21 87 22 86 23 89 24 91 25 90 26
REMARK SMILES IDX 10 27 11 28 12 29 13 30 14 31 15 33 16 34 17 35 78 36 18 37
REMARK SMILES IDX 77 38 19 39 20 40 21 41 71 42 22 43 76 44 70 45 72 46 23 47
REMARK SMILES IDX 75 48 69 49 68 50 24 52 56 53 36 54 55 55 37 56 40 57 54 58
REMARK SMILES IDX 73 59 38 60 39 61 53 63 74 64 41 65 25 66 26 67 34 68 27 69
REMARK SMILES IDX 28 70 32 71 35 72 29 73 30 74 33 75 31 76 57 77 58 78 66 79
REMARK SMILES IDX 59 80 60 81 64 82 67 83 61 84 62 85 65 86 63 87 42 88 43 89
REMARK SMILES IDX 51 90 44 91 45 92 49 93 52 94 46 95 47 96 50 97 48 98
REMARK H PARENT 6 7 2 15 2 16 13 32 72 51 40 62
REMARK Flexibility Score: inf
ROOT
ATOM      1  C   UNL A   1      30.990  28.837  23.200  1.00  0.00     0.002 C 
ENDROOT
BRANCH   1   2
ATOM      2  C   UNL A   1      30.012  27.740  22.749  1.00  0.00     0.021 C 
BRANCH   2   3
ATOM      3  C   UNL A   1      29.382  26.889  23.856  1.00  0.00     0.116 C 
BRANCH   3   4
ATOM      4  N   UNL A   1      30.118  26.967  25.106  1.00  0.00    -0.351 N 
ATOM      5  C   UNL A   1      31.004  26.141  25.721  1.00  0.00     0.281 C 
ATOM      6  O   UNL A   1      31.424  26.547  26.819  1.00  0.00    -0.268 OA
ATOM      7  H   UNL A   1      29.936  27.791  25.614  1.00  0.00     0.163 HD
BRANCH   5   8
ATOM      8  C   UNL A   1      31.477  24.738  25.183  1.00  0.00     0.176 C 
ATOM      9  C   UNL A   1      32.087  24.865  23.778  1.00  0.00     0.080 C 
ATOM     10  C   UNL A   1      32.615  24.102  26.006  1.00  0.00     0.094 C 
ATOM     11  C   UNL A   1      33.082  23.712  23.624  1.00  0.00     0.022 C 
ATOM     12  C   UNL A   1      33.294  23.137  25.029  1.00  0.00     0.058 C 
BRANCH   8  13
ATOM     13  N   UNL A   1      30.300  23.823  25.316  1.00  0.00    -0.336 N 
ATOM     14  C   UNL A   1      30.152  23.011  26.507  1.00  0.00     0.331 C 
ATOM     15  H   UNL A   1      29.465  24.404  25.249  1.00  0.00     0.346 HD
ATOM     16  H   UNL A   1      30.449  23.136  24.576  1.00  0.00     0.346 HD
ENDBRANCH   8  13
BRANCH  12  17
ATOM     17  S   UNL A   1      35.014  22.644  25.426  1.00  0.00    -0.122 SA
BRANCH  17  18
ATOM     18  C   UNL A   1      35.004  20.892  25.109  1.00  0.00     0.008 A 
ATOM     19  C   UNL A   1      36.216  20.183  25.001  1.00  0.00     0.015 A 
ATOM     20  C   UNL A   1      33.789  20.233  24.898  1.00  0.00     0.019 A 
ATOM     21  C   UNL A   1      36.224  18.810  24.742  1.00  0.00     0.005 A 
ATOM     22  C   UNL A   1      33.807  18.876  24.626  1.00  0.00    -0.044 A 
ATOM     23  C   UNL A   1      35.010  18.172  24.558  1.00  0.00    -0.045 A 
ATOM     24  C   UNL A   1      32.634  17.973  24.418  1.00  0.00     0.036 C 
ATOM     25  C   UNL A   1      34.770  16.718  24.317  1.00  0.00     0.036 C 
ATOM     26  C   UNL A   1      33.306  16.714  23.848  1.00  0.00     0.010 C 
ENDBRANCH  17  18
ENDBRANCH  12  17
ENDBRANCH   5   8
ENDBRANCH   3   4
ENDBRANCH   2   3
ENDBRANCH   1   2
BRANCH   1  27
ATOM     27  C   UNL A   1      32.484  28.604  22.925  1.00  0.00     0.002 C 
BRANCH  27  28
ATOM     28  C   UNL A   1      33.463  29.312  23.868  1.00  0.00     0.021 C 
BRANCH  28  29
ATOM     29  C   UNL A   1      33.159  29.186  25.362  1.00  0.00     0.116 C 
BRANCH  29  30
ATOM     30  N   UNL A   1      32.827  30.458  25.976  1.00  0.00    -0.352 N 
ATOM     31  C   UNL A   1      33.404  31.212  26.970  1.00  0.00     0.251 C 
ATOM     32  H   UNL A   1      32.014  30.869  25.602  1.00  0.00     0.163 HD
ATOM     33  O   UNL A   1      32.783  32.206  27.350  1.00  0.00    -0.269 OA
BRANCH  31  34
ATOM     34  C   UNL A   1      34.708  30.904  27.630  1.00  0.00     0.039 A 
ATOM     35  C   UNL A   1      34.809  29.672  28.296  1.00  0.00     0.014 A 
ATOM     36  C   UNL A   1      35.783  31.791  27.732  1.00  0.00     0.014 A 
ATOM     37  C   UNL A   1      35.957  29.328  29.025  1.00  0.00     0.010 A 
ATOM     38  C   UNL A   1      36.965  31.417  28.399  1.00  0.00     0.010 A 
ATOM     39  C   UNL A   1      37.063  30.187  29.070  1.00  0.00    -0.014 A 
BRANCH  39  40
ATOM     40  C   UNL A   1      38.289  29.810  29.837  1.00  0.00     0.031 A 
ATOM     41  C   UNL A   1      38.532  30.339  31.230  1.00  0.00     0.074 A 
ATOM     42  C   UNL A   1      39.201  28.980  29.291  1.00  0.00     0.049 A 
ATOM     43  N   UNL A   1      39.538  30.107  32.042  1.00  0.00    -0.248 NA
ATOM     44  C   UNL A   1      37.526  31.258  31.778  1.00  0.00     0.031 C 
ATOM     45  C   UNL A   1      39.122  28.406  27.949  1.00  0.00     0.029 A 
ATOM     46  N   UNL A   1      40.375  28.472  29.801  1.00  0.00    -0.354 N 
ATOM     47  C   UNL A   1      39.289  30.858  33.185  1.00  0.00     0.074 A 
ATOM     48  C   UNL A   1      38.062  31.587  32.944  1.00  0.00     0.031 C 
ATOM     49  C   UNL A   1      40.184  27.609  27.748  1.00  0.00     0.029 A 
ATOM     50  C   UNL A   1      41.039  27.639  28.933  1.00  0.00     0.049 A 
ATOM     51  H   UNL A   1      40.707  28.687  30.702  1.00  0.00     0.167 HD
ATOM     52  C   UNL A   1      40.002  30.921  34.337  1.00  0.00     0.037 A 
ATOM     53  C   UNL A   1      42.205  26.975  29.067  1.00  0.00     0.037 A 
ATOM     54  C   UNL A   1      41.207  30.178  34.605  1.00  0.00     0.049 A 
ATOM     55  C   UNL A   1      42.984  27.073  30.351  1.00  0.00     0.074 A 
ATOM     56  C   UNL A   1      41.952  30.135  35.774  1.00  0.00     0.029 A 
ATOM     57  N   UNL A   1      41.849  29.352  33.697  1.00  0.00    -0.354 N 
ATOM     58  N   UNL A   1      42.698  27.734  31.445  1.00  0.00    -0.248 NA
ATOM     59  C   UNL A   1      44.249  26.324  30.419  1.00  0.00     0.031 C 
ATOM     60  C   UNL A   1      43.068  29.320  35.556  1.00  0.00     0.029 A 
ATOM     61  C   UNL A   1      42.994  28.818  34.269  1.00  0.00     0.049 A 
ATOM     62  H   UNL A   1      41.538  29.171  32.780  1.00  0.00     0.167 HD
ATOM     63  C   UNL A   1      43.729  27.462  32.337  1.00  0.00     0.074 A 
ATOM     64  C   UNL A   1      44.641  26.563  31.662  1.00  0.00     0.031 C 
ATOM     65  C   UNL A   1      43.899  27.920  33.600  1.00  0.00     0.037 A 
BRANCH  52  66
ATOM     66  C   UNL A   1      39.496  31.834  35.418  1.00  0.00     0.064 A 
ATOM     67  C   UNL A   1      39.876  33.182  35.480  1.00  0.00     0.173 A 
ATOM     68  C   UNL A   1      38.574  31.367  36.367  1.00  0.00     0.173 A 
ATOM     69  F   UNL A   1      40.759  33.676  34.599  1.00  0.00    -0.203 F 
ATOM     70  C   UNL A   1      39.373  34.023  36.470  1.00  0.00     0.198 A 
ATOM     71  C   UNL A   1      38.051  32.218  37.338  1.00  0.00     0.198 A 
ATOM     72  F   UNL A   1      38.168  30.088  36.345  1.00  0.00    -0.203 F 
ATOM     73  F   UNL A   1      39.783  35.297  36.536  1.00  0.00    -0.200 F 
ATOM     74  C   UNL A   1      38.456  33.543  37.393  1.00  0.00     0.200 A 
ATOM     75  F   UNL A   1      37.154  31.755  38.220  1.00  0.00    -0.200 F 
ATOM     76  F   UNL A   1      37.967  34.356  38.340  1.00  0.00    -0.200 F 
ENDBRANCH  52  66
BRANCH  53  77
ATOM     77  C   UNL A   1      42.709  26.138  27.948  1.00  0.00     0.064 A 
ATOM     78  C   UNL A   1      42.342  24.791  27.831  1.00  0.00     0.173 A 
ATOM     79  C   UNL A   1      43.580  26.665  26.981  1.00  0.00     0.173 A 
ATOM     80  F   UNL A   1      41.534  24.236  28.746  1.00  0.00    -0.203 F 
ATOM     81  C   UNL A   1      42.837  23.997  26.799  1.00  0.00     0.198 A 
ATOM     82  C   UNL A   1      44.052  25.877  25.934  1.00  0.00     0.198 A 
ATOM     83  F   UNL A   1      43.961  27.949  27.051  1.00  0.00    -0.203 F 
ATOM     84  F   UNL A   1      42.505  22.700  26.736  1.00  0.00    -0.200 F 
ATOM     85  C   UNL A   1      43.687  24.542  25.848  1.00  0.00     0.200 A 
ATOM     86  F   UNL A   1      44.864  26.410  25.012  1.00  0.00    -0.200 F 
ATOM     87  F   UNL A   1      44.161  23.780  24.854  1.00  0.00    -0.200 F 
ENDBRANCH  53  77
BRANCH  65  88
ATOM     88  C   UNL A   1      45.104  27.436  34.357  1.00  0.00     0.064 A 
ATOM     89  C   UNL A   1      45.059  26.281  35.152  1.00  0.00     0.173 A 
ATOM     90  C   UNL A   1      46.327  28.116  34.257  1.00  0.00     0.173 A 
ATOM     91  F   UNL A   1      43.910  25.604  35.293  1.00  0.00    -0.203 F 
ATOM     92  C   UNL A   1      46.188  25.838  35.836  1.00  0.00     0.198 A 
ATOM     93  C   UNL A   1      47.462  27.654  34.921  1.00  0.00     0.198 A 
ATOM     94  F   UNL A   1      46.427  29.223  33.506  1.00  0.00    -0.203 F 
ATOM     95  F   UNL A   1      46.111  24.756  36.624  1.00  0.00    -0.200 F 
ATOM     96  C   UNL A   1      47.390  26.520  35.715  1.00  0.00     0.200 A 
ATOM     97  F   UNL A   1      48.625  28.308  34.793  1.00  0.00    -0.200 F 
ATOM     98  F   UNL A   1      48.477  26.088  36.369  1.00  0.00    -0.200 F 
ENDBRANCH  65  88
ENDBRANCH  39  40
ENDBRANCH  31  34
ENDBRANCH  29  30
ENDBRANCH  28  29
ENDBRANCH  27  28
ENDBRANCH   1  27
TORSDOF 16
ENDMDL
MODEL 3
REMARK VINA RESULT:     -11.1      2.141      8.005
REMARK SMILES C[NH2+][C@]1(C(=O)NCCCCCCNC(=O)c2ccc(-c3c4nc(c(-c5c(F)c(F)c(F)c(F)c5F)c5ccc([nH]5)c(-c5c(F)c(F)c(F)c(F)c5F)c5nc(c(-c6c(F)c(F)c(F)c(F)c6F)c6ccc3[nH]6)C=C5)C=C4)cc2)CC[C@@H](Sc2ccc3c(c2)CCC3)C1
REMARK SMILES IDX 9 1 8 2 7 3 6 4 4 5 5 6 3 8 79 9 92 10 80 11 81 12 2 13 1 14
REMARK SMILES IDX 82 17 83 18 84 19 88 20 85 21 87 22 86 23 89 24 91 25 90 26
REMARK SMILES IDX 10 27 11 28 12 29 13 30 14 31 15 33 16 34 17 35 78 36 18 37
REMARK SMILES IDX 77 38 19 39 20 40 21 41 71 42 22 43 76 44 70 45 72 46 23 47
REMARK SMILES IDX 75 48 69 49 68 50 24 52 56 53 36 54 55 55 37 56 40 57 54 58
REMARK SMILES IDX 73 59 38 60 39 61 53 63 74 64 41 65 25 66 26 67 34 68 27 69
REMARK SMILES IDX 28 70 32 71 35 72 29 73 30 74 33 75 31 76 57 77 58 78 66 79
REMARK SMILES IDX 59 80 60 81 64 82 67 83 61 84 62 85 65 86 63 87 42 88 43 89
REMARK SMILES IDX 51 90 44 91 45 92 49 93 52 94 46 95 47 96 50 97 48 98
REMARK H PARENT 6 7 2 15 2 16 13 32 72 51 40 62
REMARK Flexibility Score: inf
ROOT
ATOM      1  C   UNL A   1      34.620  29.848  27.100  1.00  0.00     0.002 C 
ENDROOT
BRANCH   1   2
ATOM      2  C   UNL A   1      34.187  28.628  26.271  1.00  0.00     0.021 C 
BRANCH   2   3
ATOM      3  C   UNL A   1      33.200  28.894  25.130  1.00  0.00     0.116 C 
BRANCH   3   4
ATOM      4  N   UNL A   1      33.827  28.823  23.822  1.00  0.00    -0.351 N 
ATOM      5  C   UNL A   1      33.648  28.018  22.742  1.00  0.00     0.281 C 
ATOM      6  O   UNL A   1      34.402  28.254  21.782  1.00  0.00    -0.268 OA
ATOM      7  H   UNL A   1      34.530  29.500  23.691  1.00  0.00     0.163 HD
BRANCH   5   8
ATOM      8  C   UNL A   1      32.626  26.823  22.648  1.00  0.00     0.176 C 
ATOM      9  C   UNL A   1      33.265  25.604  21.964  1.00  0.00     0.080 C 
ATOM     10  C   UNL A   1      32.184  26.268  24.017  1.00  0.00     0.094 C 
ATOM     11  C   UNL A   1      32.540  24.367  22.498  1.00  0.00     0.022 C 
ATOM     12  C   UNL A   1      31.734  24.835  23.716  1.00  0.00     0.058 C 
BRANCH   8  13
ATOM     13  N   UNL A   1      31.395  27.377  22.002  1.00  0.00    -0.336 N 
ATOM     14  C   UNL A   1      30.566  28.320  22.725  1.00  0.00     0.331 C 
ATOM     15  H   UNL A   1      31.694  27.843  21.146  1.00  0.00     0.346 HD
ATOM     16  H   UNL A   1      30.792  26.560  21.900  1.00  0.00     0.346 HD
ENDBRANCH   8  13
BRANCH  12  17
ATOM     17  S   UNL A   1      31.702  23.671  25.131  1.00  0.00    -0.122 SA
BRANCH  17  18
ATOM     18  C   UNL A   1      33.294  22.878  25.025  1.00  0.00     0.008 A 
ATOM     19  C   UNL A   1      33.385  21.510  24.707  1.00  0.00     0.015 A 
ATOM     20  C   UNL A   1      34.450  23.603  25.327  1.00  0.00     0.019 A 
ATOM     21  C   UNL A   1      34.626  20.872  24.631  1.00  0.00     0.005 A 
ATOM     22  C   UNL A   1      35.674  22.959  25.264  1.00  0.00    -0.044 A 
ATOM     23  C   UNL A   1      35.761  21.611  24.912  1.00  0.00    -0.045 A 
ATOM     24  C   UNL A   1      37.027  23.550  25.498  1.00  0.00     0.036 C 
ATOM     25  C   UNL A   1      37.183  21.162  24.852  1.00  0.00     0.036 C 
ATOM     26  C   UNL A   1      37.903  22.291  25.604  1.00  0.00     0.010 C 
ENDBRANCH  17  18
ENDBRANCH  12  17
ENDBRANCH   5   8
ENDBRANCH   3   4
ENDBRANCH   2   3
ENDBRANCH   1   2
BRANCH   1  27
ATOM     27  C   UNL A   1      33.508  30.752  27.654  1.00  0.00     0.002 C 
BRANCH  27  28
ATOM     28  C   UNL A   1      33.474  32.187  27.118  1.00  0.00     0.021 C 
BRANCH  28  29
ATOM     29  C   UNL A   1      32.110  32.879  27.147  1.00  0.00     0.116 C 
BRANCH  29  30
ATOM     30  N   UNL A   1      32.184  34.247  27.624  1.00  0.00    -0.352 N 
ATOM     31  C   UNL A   1      32.915  34.872  28.607  1.00  0.00     0.251 C 
ATOM     32  H   UNL A   1      31.582  34.859  27.142  1.00  0.00     0.163 HD
ATOM     33  O   UNL A   1      32.640  36.049  28.846  1.00  0.00    -0.269 OA
BRANCH  31  34
ATOM     34  C   UNL A   1      33.995  34.226  29.411  1.00  0.00     0.039 A 
ATOM     35  C   UNL A   1      35.315  34.408  28.966  1.00  0.00     0.014 A 
ATOM     36  C   UNL A   1      33.784  33.365  30.492  1.00  0.00     0.014 A 
ATOM     37  C   UNL A   1      36.392  33.767  29.596  1.00  0.00     0.010 A 
ATOM     38  C   UNL A   1      34.870  32.782  31.172  1.00  0.00     0.010 A 
ATOM     39  C   UNL A   1      36.188  32.960  30.722  1.00  0.00    -0.014 A 
BRANCH  39  40
ATOM     40  C   UNL A   1      37.342  32.290  31.397  1.00  0.00     0.031 A 
ATOM     41  C   UNL A   1      38.077  31.149  30.737  1.00  0.00     0.074 A 
ATOM     42  C   UNL A   1      37.747  32.703  32.615  1.00  0.00     0.049 A 
ATOM     43  N   UNL A   1      39.106  30.459  31.175  1.00  0.00    -0.248 NA
ATOM     44  C   UNL A   1      37.588  30.715  29.421  1.00  0.00     0.031 C 
ATOM     45  C   UNL A   1      37.126  33.773  33.393  1.00  0.00     0.029 A 
ATOM     46  N   UNL A   1      38.783  32.271  33.414  1.00  0.00    -0.354 N 
ATOM     47  C   UNL A   1      39.375  29.509  30.198  1.00  0.00     0.074 A 
ATOM     48  C   UNL A   1      38.376  29.681  29.164  1.00  0.00     0.031 C 
ATOM     49  C   UNL A   1      37.802  33.932  34.543  1.00  0.00     0.029 A 
ATOM     50  C   UNL A   1      38.886  32.954  34.601  1.00  0.00     0.049 A 
ATOM     51  H   UNL A   1      39.392  31.542  33.157  1.00  0.00     0.167 HD
ATOM     52  C   UNL A   1      40.372  28.591  30.151  1.00  0.00     0.037 A 
ATOM     53  C   UNL A   1      39.749  32.812  35.627  1.00  0.00     0.037 A 
ATOM     54  C   UNL A   1      41.393  28.428  31.155  1.00  0.00     0.049 A 
ATOM     55  C   UNL A   1      40.839  31.776  35.557  1.00  0.00     0.074 A 
ATOM     56  C   UNL A   1      42.479  27.566  31.149  1.00  0.00     0.029 A 
ATOM     57  N   UNL A   1      41.456  29.135  32.345  1.00  0.00    -0.354 N 
ATOM     58  N   UNL A   1      41.119  30.933  34.595  1.00  0.00    -0.248 NA
ATOM     59  C   UNL A   1      41.739  31.679  36.718  1.00  0.00     0.031 C 
ATOM     60  C   UNL A   1      43.171  27.719  32.355  1.00  0.00     0.029 A 
ATOM     61  C   UNL A   1      42.545  28.709  33.091  1.00  0.00     0.049 A 
ATOM     62  H   UNL A   1      40.822  29.836  32.620  1.00  0.00     0.167 HD
ATOM     63  C   UNL A   1      42.237  30.225  35.020  1.00  0.00     0.074 A 
ATOM     64  C   UNL A   1      42.594  30.748  36.322  1.00  0.00     0.031 C 
ATOM     65  C   UNL A   1      42.904  29.231  34.385  1.00  0.00     0.037 A 
BRANCH  52  66
ATOM     66  C   UNL A   1      40.419  27.676  28.960  1.00  0.00     0.064 A 
ATOM     67  C   UNL A   1      41.231  27.953  27.851  1.00  0.00     0.173 A 
ATOM     68  C   UNL A   1      39.688  26.478  28.955  1.00  0.00     0.173 A 
ATOM     69  F   UNL A   1      41.946  29.087  27.804  1.00  0.00    -0.203 F 
ATOM     70  C   UNL A   1      41.288  27.079  26.768  1.00  0.00     0.198 A 
ATOM     71  C   UNL A   1      39.768  25.593  27.884  1.00  0.00     0.198 A 
ATOM     72  F   UNL A   1      38.904  26.159  29.997  1.00  0.00    -0.203 F 
ATOM     73  F   UNL A   1      42.037  27.385  25.701  1.00  0.00    -0.200 F 
ATOM     74  C   UNL A   1      40.563  25.896  26.789  1.00  0.00     0.200 A 
ATOM     75  F   UNL A   1      39.078  24.444  27.912  1.00  0.00    -0.200 F 
ATOM     76  F   UNL A   1      40.624  25.052  25.749  1.00  0.00    -0.200 F 
ENDBRANCH  52  66
BRANCH  53  77
ATOM     77  C   UNL A   1      39.627  33.690  36.820  1.00  0.00     0.064 A 
ATOM     78  C   UNL A   1      38.788  33.345  37.888  1.00  0.00     0.173 A 
ATOM     79  C   UNL A   1      40.335  34.898  36.909  1.00  0.00     0.173 A 
ATOM     80  F   UNL A   1      38.070  32.213  37.836  1.00  0.00    -0.203 F 
ATOM     81  C   UNL A   1      38.649  34.181  38.994  1.00  0.00     0.198 A 
ATOM     82  C   UNL A   1      40.217  35.720  38.027  1.00  0.00     0.198 A 
ATOM     83  F   UNL A   1      41.150  35.272  35.912  1.00  0.00    -0.203 F 
ATOM     84  F   UNL A   1      37.805  33.849  39.981  1.00  0.00    -0.200 F 
ATOM     85  C   UNL A   1      39.368  35.365  39.065  1.00  0.00     0.200 A 
ATOM     86  F   UNL A   1      40.921  36.857  38.097  1.00  0.00    -0.200 F 
ATOM     87  F   UNL A   1      39.237  36.168  40.129  1.00  0.00    -0.200 F 
ENDBRANCH  53  77
BRANCH  65  88
ATOM     88  C   UNL A   1      44.110  28.656  35.070  1.00  0.00     0.064 A 
ATOM     89  C   UNL A   1      44.014  27.534  35.909  1.00  0.00     0.173 A 
ATOM     90  C   UNL A   1      45.382  29.208  34.858  1.00  0.00     0.173 A 
ATOM     91  F   UNL A   1      42.819  26.977  36.157  1.00  0.00    -0.203 F 
ATOM     92  C   UNL A   1      45.144  27.003  36.526  1.00  0.00     0.198 A 
ATOM     93  C   UNL A   1      46.513  28.658  35.456  1.00  0.00     0.198 A 
ATOM     94  F   UNL A   1      45.530  30.278  34.061  1.00  0.00    -0.203 F 
ATOM     95  F   UNL A   1      45.023  25.958  37.357  1.00  0.00    -0.200 F 
ATOM     96  C   UNL A   1      46.393  27.560  36.294  1.00  0.00     0.200 A 
ATOM     97  F   UNL A   1      47.721  29.191  35.220  1.00  0.00    -0.200 F 
ATOM     98  F   UNL A   1      47.480  27.044  36.884  1.00  0.00    -0.200 F 
ENDBRANCH  65  88
ENDBRANCH  39  40
ENDBRANCH  31  34
ENDBRANCH  29  30
ENDBRANCH  28  29
ENDBRANCH  27  28
ENDBRANCH   1  27
TORSDOF 16
ENDMDL
