MODEL 1
REMARK VINA RESULT:     -12.2      0.000      0.000
REMARK SMILES CN(CC(F)(F)F)C(=O)N1CC(n2cc(C(=O)NCCCCCCNC(=O)c3ccc(-c4c5nc(c(-c6c(F)c(F)c(F)c(F)c6F)c6ccc([nH]6)c(-c6c(F)c(F)c(F)c(F)c6F)c6nc(c(-c7c(F)c(F)c(F)c(F)c7F)c7ccc4[nH]7)C=C6)C=C5)cc3)nn2)C1
REMARK SMILES IDX 20 1 19 2 18 3 16 4 17 5 15 7 13 8 14 9 92 10 91 11 12 12
REMARK SMILES IDX 8 13 9 14 10 15 11 16 93 17 2 18 1 19 3 20 4 21 5 22 6 23
REMARK SMILES IDX 7 24 21 25 22 26 23 27 24 28 25 29 26 30 27 32 28 33 29 34
REMARK SMILES IDX 90 35 30 36 89 37 31 38 32 39 33 40 83 41 34 42 88 43 82 44
REMARK SMILES IDX 84 45 35 46 87 47 81 48 80 49 36 51 68 52 48 53 67 54 49 55
REMARK SMILES IDX 52 56 66 57 85 58 50 59 51 60 65 62 86 63 53 64 37 65 38 66
REMARK SMILES IDX 46 67 39 68 40 69 44 70 47 71 41 72 42 73 45 74 43 75 69 76
REMARK SMILES IDX 70 77 78 78 71 79 72 80 76 81 79 82 73 83 74 84 77 85 75 86
REMARK SMILES IDX 54 87 55 88 63 89 56 90 57 91 61 92 64 93 58 94 59 95 62 96
REMARK SMILES IDX 60 97
REMARK H PARENT 18 6 25 31 84 50 52 61
REMARK Flexibility Score: inf
ROOT
ATOM      1  C   UNL A   1      35.751  21.849  24.422  1.00  0.00     0.021 C 
ENDROOT
BRANCH   1   2
ATOM      2  C   UNL A   1      35.187  21.404  25.772  1.00  0.00     0.116 C 
BRANCH   2   3
ATOM      3  N   UNL A   1      33.861  20.840  25.622  1.00  0.00    -0.351 N 
ATOM      4  C   UNL A   1      32.605  21.397  25.688  1.00  0.00     0.273 C 
ATOM      5  O   UNL A   1      31.663  20.666  25.388  1.00  0.00    -0.267 OA
ATOM      6  H   UNL A   1      33.859  19.873  25.437  1.00  0.00     0.163 HD
BRANCH   4   7
ATOM      7  C   UNL A   1      32.406  22.796  26.054  1.00  0.00     0.170 A 
ATOM      8  N   UNL A   1      32.299  24.960  26.214  1.00  0.00    -0.245 N 
ATOM      9  C   UNL A   1      32.957  23.959  25.552  1.00  0.00     0.145 A 
ATOM     10  N   UNL A   1      31.472  24.466  27.141  1.00  0.00    -0.066 NA
ATOM     11  N   UNL A   1      31.551  23.145  27.080  1.00  0.00    -0.125 NA
BRANCH   8  12
ATOM     12  C   UNL A   1      32.382  26.336  25.836  1.00  0.00     0.148 C 
ATOM     13  C   UNL A   1      31.054  29.041  24.695  1.00  0.00     0.320 C 
ATOM     14  O   UNL A   1      31.591  29.943  25.338  1.00  0.00    -0.248 OA
ATOM     15  N   UNL A   1      31.037  27.754  25.160  1.00  0.00    -0.320 N 
ATOM     16  C   UNL A   1      31.409  27.304  26.508  1.00  0.00     0.150 C 
ATOM     17  C   UNL A   1      31.610  26.572  24.527  1.00  0.00     0.150 C 
BRANCH  13  18
ATOM     18  N   UNL A   1      30.404  29.282  23.494  1.00  0.00    -0.319 N 
ATOM     19  C   UNL A   1      31.235  29.372  22.302  1.00  0.00     0.149 C 
BRANCH  18  20
ATOM     20  C   UNL A   1      28.973  29.608  23.344  1.00  0.00     0.236 C 
BRANCH  20  21
ATOM     21  C   UNL A   1      28.619  31.095  23.413  1.00  0.00     0.406 C 
ATOM     22  F   UNL A   1      29.419  31.779  24.262  1.00  0.00    -0.169 F 
ATOM     23  F   UNL A   1      28.759  31.668  22.195  1.00  0.00    -0.169 F 
ATOM     24  F   UNL A   1      27.342  31.291  23.809  1.00  0.00    -0.169 F 
ENDBRANCH  20  21
ENDBRANCH  18  20
ENDBRANCH  13  18
ENDBRANCH   8  12
ENDBRANCH   4   7
ENDBRANCH   2   3
ENDBRANCH   1   2
BRANCH   1  25
ATOM     25  C   UNL A   1      37.274  21.698  24.300  1.00  0.00     0.002 C 
BRANCH  25  26
ATOM     26  C   UNL A   1      38.034  21.425  25.612  1.00  0.00     0.002 C 
BRANCH  26  27
ATOM     27  C   UNL A   1      38.891  22.574  26.166  1.00  0.00     0.021 C 
BRANCH  27  28
ATOM     28  C   UNL A   1      40.136  22.110  26.901  1.00  0.00     0.116 C 
BRANCH  28  29
ATOM     29  N   UNL A   1      41.356  22.239  26.098  1.00  0.00    -0.352 N 
ATOM     30  C   UNL A   1      42.083  23.384  25.813  1.00  0.00     0.251 C 
ATOM     31  H   UNL A   1      41.705  21.404  25.710  1.00  0.00     0.163 HD
ATOM     32  O   UNL A   1      42.854  23.435  24.867  1.00  0.00    -0.269 OA
BRANCH  30  33
ATOM     33  C   UNL A   1      41.912  24.548  26.698  1.00  0.00     0.039 A 
ATOM     34  C   UNL A   1      42.563  24.666  27.930  1.00  0.00     0.014 A 
ATOM     35  C   UNL A   1      41.100  25.568  26.223  1.00  0.00     0.014 A 
ATOM     36  C   UNL A   1      42.433  25.860  28.637  1.00  0.00     0.010 A 
ATOM     37  C   UNL A   1      41.187  26.806  26.782  1.00  0.00     0.010 A 
ATOM     38  C   UNL A   1      41.749  26.931  28.043  1.00  0.00    -0.014 A 
BRANCH  38  39
ATOM     39  C   UNL A   1      41.619  28.230  28.684  1.00  0.00     0.031 A 
ATOM     40  C   UNL A   1      42.664  29.221  28.319  1.00  0.00     0.074 A 
ATOM     41  C   UNL A   1      40.495  28.573  29.356  1.00  0.00     0.049 A 
ATOM     42  N   UNL A   1      43.528  29.781  29.099  1.00  0.00    -0.248 NA
ATOM     43  C   UNL A   1      42.848  29.549  26.896  1.00  0.00     0.031 C 
ATOM     44  C   UNL A   1      39.247  27.812  29.522  1.00  0.00     0.029 A 
ATOM     45  N   UNL A   1      40.193  29.752  29.957  1.00  0.00    -0.354 N 
ATOM     46  C   UNL A   1      44.258  30.662  28.304  1.00  0.00     0.074 A 
ATOM     47  C   UNL A   1      43.906  30.360  26.941  1.00  0.00     0.031 C 
ATOM     48  C   UNL A   1      38.264  28.629  29.956  1.00  0.00     0.029 A 
ATOM     49  C   UNL A   1      38.852  29.913  30.282  1.00  0.00     0.049 A 
ATOM     50  H   UNL A   1      40.872  30.440  30.148  1.00  0.00     0.167 HD
ATOM     51  C   UNL A   1      44.928  31.713  28.853  1.00  0.00     0.037 A 
ATOM     52  C   UNL A   1      38.271  31.037  30.765  1.00  0.00     0.037 A 
ATOM     53  C   UNL A   1      45.086  31.538  30.274  1.00  0.00     0.049 A 
ATOM     54  C   UNL A   1      39.359  31.880  31.321  1.00  0.00     0.074 A 
ATOM     55  C   UNL A   1      45.729  30.607  31.068  1.00  0.00     0.029 A 
ATOM     56  N   UNL A   1      44.200  32.182  31.104  1.00  0.00    -0.354 N 
ATOM     57  N   UNL A   1      40.065  31.548  32.368  1.00  0.00    -0.248 NA
ATOM     58  C   UNL A   1      39.981  32.843  30.426  1.00  0.00     0.031 C 
ATOM     59  C   UNL A   1      44.852  30.400  32.174  1.00  0.00     0.029 A 
ATOM     60  C   UNL A   1      43.766  31.267  32.030  1.00  0.00     0.049 A 
ATOM     61  H   UNL A   1      43.928  33.125  31.046  1.00  0.00     0.167 HD
ATOM     62  C   UNL A   1      41.364  31.918  32.051  1.00  0.00     0.074 A 
ATOM     63  C   UNL A   1      41.239  32.775  30.873  1.00  0.00     0.031 C 
ATOM     64  C   UNL A   1      42.434  31.262  32.589  1.00  0.00     0.037 A 
BRANCH  51  65
ATOM     65  C   UNL A   1      45.132  33.052  28.187  1.00  0.00     0.064 A 
ATOM     66  C   UNL A   1      46.446  33.491  27.921  1.00  0.00     0.173 A 
ATOM     67  C   UNL A   1      44.129  34.039  28.077  1.00  0.00     0.173 A 
ATOM     68  F   UNL A   1      47.481  32.642  28.002  1.00  0.00    -0.203 F 
ATOM     69  C   UNL A   1      46.738  34.833  27.657  1.00  0.00     0.198 A 
ATOM     70  C   UNL A   1      44.418  35.365  27.761  1.00  0.00     0.198 A 
ATOM     71  F   UNL A   1      42.850  33.793  28.380  1.00  0.00    -0.203 F 
ATOM     72  F   UNL A   1      48.013  35.226  27.541  1.00  0.00    -0.200 F 
ATOM     73  C   UNL A   1      45.724  35.770  27.586  1.00  0.00     0.200 A 
ATOM     74  F   UNL A   1      43.423  36.262  27.712  1.00  0.00    -0.200 F 
ATOM     75  F   UNL A   1      46.006  37.066  27.399  1.00  0.00    -0.200 F 
ENDBRANCH  51  65
BRANCH  52  76
ATOM     76  C   UNL A   1      36.918  31.562  30.469  1.00  0.00     0.064 A 
ATOM     77  C   UNL A   1      36.013  31.860  31.500  1.00  0.00     0.173 A 
ATOM     78  C   UNL A   1      36.591  32.049  29.188  1.00  0.00     0.173 A 
ATOM     79  F   UNL A   1      36.274  31.472  32.757  1.00  0.00    -0.203 F 
ATOM     80  C   UNL A   1      34.863  32.623  31.269  1.00  0.00     0.198 A 
ATOM     81  C   UNL A   1      35.442  32.808  28.957  1.00  0.00     0.198 A 
ATOM     82  F   UNL A   1      37.430  31.882  28.155  1.00  0.00    -0.203 F 
ATOM     83  F   UNL A   1      34.054  32.941  32.290  1.00  0.00    -0.200 F 
ATOM     84  C   UNL A   1      34.585  33.106  30.000  1.00  0.00     0.200 A 
ATOM     85  F   UNL A   1      35.207  33.302  27.733  1.00  0.00    -0.200 F 
ATOM     86  F   UNL A   1      33.520  33.892  29.791  1.00  0.00    -0.200 F 
ENDBRANCH  52  76
BRANCH  64  87
ATOM     87  C   UNL A   1      42.170  30.283  33.703  1.00  0.00     0.064 A 
ATOM     88  C   UNL A   1      41.861  28.925  33.503  1.00  0.00     0.173 A 
ATOM     89  C   UNL A   1      42.391  30.701  35.020  1.00  0.00     0.173 A 
ATOM     90  F   UNL A   1      41.733  28.420  32.273  1.00  0.00    -0.203 F 
ATOM     91  C   UNL A   1      41.736  28.042  34.576  1.00  0.00     0.198 A 
ATOM     92  C   UNL A   1      42.302  29.810  36.088  1.00  0.00     0.198 A 
ATOM     93  F   UNL A   1      42.747  31.971  35.270  1.00  0.00    -0.203 F 
ATOM     94  F   UNL A   1      41.431  26.755  34.356  1.00  0.00    -0.200 F 
ATOM     95  C   UNL A   1      41.965  28.485  35.867  1.00  0.00     0.200 A 
ATOM     96  F   UNL A   1      42.575  30.232  37.330  1.00  0.00    -0.200 F 
ATOM     97  F   UNL A   1      41.889  27.629  36.895  1.00  0.00    -0.200 F 
ENDBRANCH  64  87
ENDBRANCH  38  39
ENDBRANCH  30  33
ENDBRANCH  28  29
ENDBRANCH  27  28
ENDBRANCH  26  27
ENDBRANCH  25  26
ENDBRANCH   1  25
TORSDOF 17
ENDMDL
MODEL 2
REMARK VINA RESULT:     -12.2      2.571      3.488
REMARK SMILES CN(CC(F)(F)F)C(=O)N1CC(n2cc(C(=O)NCCCCCCNC(=O)c3ccc(-c4c5nc(c(-c6c(F)c(F)c(F)c(F)c6F)c6ccc([nH]6)c(-c6c(F)c(F)c(F)c(F)c6F)c6nc(c(-c7c(F)c(F)c(F)c(F)c7F)c7ccc4[nH]7)C=C6)C=C5)cc3)nn2)C1
REMARK SMILES IDX 20 1 19 2 18 3 16 4 17 5 15 7 13 8 14 9 92 10 91 11 12 12
REMARK SMILES IDX 8 13 9 14 10 15 11 16 93 17 2 18 1 19 3 20 4 21 5 22 6 23
REMARK SMILES IDX 7 24 21 25 22 26 23 27 24 28 25 29 26 30 27 32 28 33 29 34
REMARK SMILES IDX 90 35 30 36 89 37 31 38 32 39 33 40 83 41 34 42 88 43 82 44
REMARK SMILES IDX 84 45 35 46 87 47 81 48 80 49 36 51 68 52 48 53 67 54 49 55
REMARK SMILES IDX 52 56 66 57 85 58 50 59 51 60 65 62 86 63 53 64 37 65 38 66
REMARK SMILES IDX 46 67 39 68 40 69 44 70 47 71 41 72 42 73 45 74 43 75 69 76
REMARK SMILES IDX 70 77 78 78 71 79 72 80 76 81 79 82 73 83 74 84 77 85 75 86
REMARK SMILES IDX 54 87 55 88 63 89 56 90 57 91 61 92 64 93 58 94 59 95 62 96
REMARK SMILES IDX 60 97
REMARK H PARENT 18 6 25 31 84 50 52 61
REMARK Flexibility Score: inf
ROOT
ATOM      1  C   UNL A   1      38.811  22.633  26.517  1.00  0.00     0.021 C 
ENDROOT
BRANCH   1   2
ATOM      2  C   UNL A   1      37.782  22.728  25.391  1.00  0.00     0.116 C 
BRANCH   2   3
ATOM      3  N   UNL A   1      37.106  21.462  25.194  1.00  0.00    -0.351 N 
ATOM      4  C   UNL A   1      35.800  21.071  25.380  1.00  0.00     0.273 C 
ATOM      5  O   UNL A   1      35.506  19.940  24.999  1.00  0.00    -0.267 OA
ATOM      6  H   UNL A   1      37.694  20.744  24.865  1.00  0.00     0.163 HD
BRANCH   4   7
ATOM      7  C   UNL A   1      34.807  21.970  25.959  1.00  0.00     0.170 A 
ATOM      8  N   UNL A   1      33.252  23.420  26.406  1.00  0.00    -0.245 N 
ATOM      9  C   UNL A   1      34.138  23.056  25.429  1.00  0.00     0.145 A 
ATOM     10  N   UNL A   1      33.422  22.686  27.511  1.00  0.00    -0.066 NA
ATOM     11  N   UNL A   1      34.392  21.819  27.266  1.00  0.00    -0.125 NA
BRANCH   8  12
ATOM     12  C   UNL A   1      32.189  24.352  26.194  1.00  0.00     0.148 C 
ATOM     13  C   UNL A   1      30.604  26.463  24.345  1.00  0.00     0.320 C 
ATOM     14  O   UNL A   1      29.420  26.297  24.634  1.00  0.00    -0.248 OA
ATOM     15  N   UNL A   1      31.537  25.493  24.598  1.00  0.00    -0.320 N 
ATOM     16  C   UNL A   1      31.272  24.104  24.997  1.00  0.00     0.150 C 
ATOM     17  C   UNL A   1      32.715  25.592  25.452  1.00  0.00     0.150 C 
BRANCH  13  18
ATOM     18  N   UNL A   1      31.052  27.615  23.716  1.00  0.00    -0.319 N 
ATOM     19  C   UNL A   1      32.148  27.465  22.771  1.00  0.00     0.149 C 
BRANCH  18  20
ATOM     20  C   UNL A   1      30.620  28.989  24.037  1.00  0.00     0.236 C 
BRANCH  20  21
ATOM     21  C   UNL A   1      29.532  29.571  23.133  1.00  0.00     0.406 C 
ATOM     22  F   UNL A   1      28.630  28.643  22.743  1.00  0.00    -0.169 F 
ATOM     23  F   UNL A   1      28.844  30.536  23.788  1.00  0.00    -0.169 F 
ATOM     24  F   UNL A   1      30.050  30.130  22.017  1.00  0.00    -0.169 F 
ENDBRANCH  20  21
ENDBRANCH  18  20
ENDBRANCH  13  18
ENDBRANCH   8  12
ENDBRANCH   4   7
ENDBRANCH   2   3
ENDBRANCH   1   2
BRANCH   1  25
ATOM     25  C   UNL A   1      40.123  21.946  26.111  1.00  0.00     0.002 C 
BRANCH  25  26
ATOM     26  C   UNL A   1      40.418  20.595  26.788  1.00  0.00     0.002 C 
BRANCH  26  27
ATOM     27  C   UNL A   1      41.352  19.634  26.037  1.00  0.00     0.021 C 
BRANCH  27  28
ATOM     28  C   UNL A   1      42.747  19.546  26.631  1.00  0.00     0.116 C 
BRANCH  28  29
ATOM     29  N   UNL A   1      43.799  19.467  25.611  1.00  0.00    -0.352 N 
ATOM     30  C   UNL A   1      44.333  20.488  24.843  1.00  0.00     0.251 C 
ATOM     31  H   UNL A   1      44.174  18.570  25.452  1.00  0.00     0.163 HD
ATOM     32  O   UNL A   1      44.931  20.262  23.802  1.00  0.00    -0.269 OA
BRANCH  30  33
ATOM     33  C   UNL A   1      44.174  21.870  25.325  1.00  0.00     0.039 A 
ATOM     34  C   UNL A   1      43.282  22.777  24.745  1.00  0.00     0.014 A 
ATOM     35  C   UNL A   1      44.925  22.225  26.436  1.00  0.00     0.014 A 
ATOM     36  C   UNL A   1      43.114  24.021  25.350  1.00  0.00     0.010 A 
ATOM     37  C   UNL A   1      44.570  23.321  27.160  1.00  0.00     0.010 A 
ATOM     38  C   UNL A   1      43.758  24.277  26.569  1.00  0.00    -0.014 A 
BRANCH  38  39
ATOM     39  C   UNL A   1      43.590  25.524  27.299  1.00  0.00     0.031 A 
ATOM     40  C   UNL A   1      44.563  26.593  26.954  1.00  0.00     0.074 A 
ATOM     41  C   UNL A   1      42.484  25.761  28.042  1.00  0.00     0.049 A 
ATOM     42  N   UNL A   1      45.433  27.149  27.729  1.00  0.00    -0.248 NA
ATOM     43  C   UNL A   1      44.661  27.019  25.549  1.00  0.00     0.031 C 
ATOM     44  C   UNL A   1      41.287  24.922  28.213  1.00  0.00     0.029 A 
ATOM     45  N   UNL A   1      42.150  26.881  28.732  1.00  0.00    -0.354 N 
ATOM     46  C   UNL A   1      46.076  28.117  26.962  1.00  0.00     0.074 A 
ATOM     47  C   UNL A   1      45.676  27.883  25.599  1.00  0.00     0.031 C 
ATOM     48  C   UNL A   1      40.284  25.655  28.744  1.00  0.00     0.029 A 
ATOM     49  C   UNL A   1      40.819  26.946  29.127  1.00  0.00     0.049 A 
ATOM     50  H   UNL A   1      42.800  27.592  28.937  1.00  0.00     0.167 HD
ATOM     51  C   UNL A   1      46.716  29.167  27.548  1.00  0.00     0.037 A 
ATOM     52  C   UNL A   1      40.204  28.003  29.707  1.00  0.00     0.037 A 
ATOM     53  C   UNL A   1      46.951  28.912  28.946  1.00  0.00     0.049 A 
ATOM     54  C   UNL A   1      41.272  28.869  30.269  1.00  0.00     0.074 A 
ATOM     55  C   UNL A   1      47.680  27.970  29.648  1.00  0.00     0.029 A 
ATOM     56  N   UNL A   1      46.074  29.452  29.856  1.00  0.00    -0.354 N 
ATOM     57  N   UNL A   1      42.044  28.511  31.259  1.00  0.00    -0.248 NA
ATOM     58  C   UNL A   1      41.799  29.919  29.411  1.00  0.00     0.031 C 
ATOM     59  C   UNL A   1      46.869  27.646  30.776  1.00  0.00     0.029 A 
ATOM     60  C   UNL A   1      45.735  28.458  30.738  1.00  0.00     0.049 A 
ATOM     61  H   UNL A   1      45.750  30.381  29.871  1.00  0.00     0.167 HD
ATOM     62  C   UNL A   1      43.305  28.971  30.909  1.00  0.00     0.074 A 
ATOM     63  C   UNL A   1      43.078  29.893  29.797  1.00  0.00     0.031 C 
ATOM     64  C   UNL A   1      44.433  28.343  31.354  1.00  0.00     0.037 A 
BRANCH  51  65
ATOM     65  C   UNL A   1      46.818  30.555  26.963  1.00  0.00     0.064 A 
ATOM     66  C   UNL A   1      48.065  31.213  26.971  1.00  0.00     0.173 A 
ATOM     67  C   UNL A   1      45.703  31.373  26.677  1.00  0.00     0.173 A 
ATOM     68  F   UNL A   1      49.193  30.537  27.239  1.00  0.00    -0.203 F 
ATOM     69  C   UNL A   1      48.174  32.596  26.797  1.00  0.00     0.198 A 
ATOM     70  C   UNL A   1      45.822  32.743  26.451  1.00  0.00     0.198 A 
ATOM     71  F   UNL A   1      44.449  30.910  26.715  1.00  0.00    -0.203 F 
ATOM     72  F   UNL A   1      49.364  33.193  26.944  1.00  0.00    -0.200 F 
ATOM     73  C   UNL A   1      47.051  33.361  26.546  1.00  0.00     0.200 A 
ATOM     74  F   UNL A   1      44.718  33.470  26.223  1.00  0.00    -0.200 F 
ATOM     75  F   UNL A   1      47.142  34.693  26.445  1.00  0.00    -0.200 F 
ENDBRANCH  51  65
BRANCH  52  76
ATOM     76  C   UNL A   1      38.812  28.470  29.508  1.00  0.00     0.064 A 
ATOM     77  C   UNL A   1      37.968  28.722  30.600  1.00  0.00     0.173 A 
ATOM     78  C   UNL A   1      38.379  28.950  28.256  1.00  0.00     0.173 A 
ATOM     79  F   UNL A   1      38.330  28.339  31.833  1.00  0.00    -0.203 F 
ATOM     80  C   UNL A   1      36.772  29.435  30.453  1.00  0.00     0.198 A 
ATOM     81  C   UNL A   1      37.185  29.658  28.109  1.00  0.00     0.198 A 
ATOM     82  F   UNL A   1      39.153  28.825  27.168  1.00  0.00    -0.203 F 
ATOM     83  F   UNL A   1      36.021  29.712  31.529  1.00  0.00    -0.200 F 
ATOM     84  C   UNL A   1      36.388  29.913  29.210  1.00  0.00     0.200 A 
ATOM     85  F   UNL A   1      36.847  30.148  26.908  1.00  0.00    -0.200 F 
ATOM     86  F   UNL A   1      35.278  30.653  29.079  1.00  0.00    -0.200 F 
ENDBRANCH  52  76
BRANCH  64  87
ATOM     87  C   UNL A   1      44.275  27.283  32.412  1.00  0.00     0.064 A 
ATOM     88  C   UNL A   1      44.191  25.905  32.142  1.00  0.00     0.173 A 
ATOM     89  C   UNL A   1      44.367  27.666  33.755  1.00  0.00     0.173 A 
ATOM     90  F   UNL A   1      44.201  25.446  30.887  1.00  0.00    -0.203 F 
ATOM     91  C   UNL A   1      44.158  24.963  33.170  1.00  0.00     0.198 A 
ATOM     92  C   UNL A   1      44.370  26.722  34.779  1.00  0.00     0.198 A 
ATOM     93  F   UNL A   1      44.508  28.962  34.075  1.00  0.00    -0.203 F 
ATOM     94  F   UNL A   1      44.069  23.656  32.882  1.00  0.00    -0.200 F 
ATOM     95  C   UNL A   1      44.255  25.373  34.488  1.00  0.00     0.200 A 
ATOM     96  F   UNL A   1      44.516  27.121  36.051  1.00  0.00    -0.200 F 
ATOM     97  F   UNL A   1      44.267  24.467  35.475  1.00  0.00    -0.200 F 
ENDBRANCH  64  87
ENDBRANCH  38  39
ENDBRANCH  30  33
ENDBRANCH  28  29
ENDBRANCH  27  28
ENDBRANCH  26  27
ENDBRANCH  25  26
ENDBRANCH   1  25
TORSDOF 17
ENDMDL
MODEL 3
REMARK VINA RESULT:     -11.9      3.916      9.153
REMARK SMILES CN(CC(F)(F)F)C(=O)N1CC(n2cc(C(=O)NCCCCCCNC(=O)c3ccc(-c4c5nc(c(-c6c(F)c(F)c(F)c(F)c6F)c6ccc([nH]6)c(-c6c(F)c(F)c(F)c(F)c6F)c6nc(c(-c7c(F)c(F)c(F)c(F)c7F)c7ccc4[nH]7)C=C6)C=C5)cc3)nn2)C1
REMARK SMILES IDX 20 1 19 2 18 3 16 4 17 5 15 7 13 8 14 9 92 10 91 11 12 12
REMARK SMILES IDX 8 13 9 14 10 15 11 16 93 17 2 18 1 19 3 20 4 21 5 22 6 23
REMARK SMILES IDX 7 24 21 25 22 26 23 27 24 28 25 29 26 30 27 32 28 33 29 34
REMARK SMILES IDX 90 35 30 36 89 37 31 38 32 39 33 40 83 41 34 42 88 43 82 44
REMARK SMILES IDX 84 45 35 46 87 47 81 48 80 49 36 51 68 52 48 53 67 54 49 55
REMARK SMILES IDX 52 56 66 57 85 58 50 59 51 60 65 62 86 63 53 64 37 65 38 66
REMARK SMILES IDX 46 67 39 68 40 69 44 70 47 71 41 72 42 73 45 74 43 75 69 76
REMARK SMILES IDX 70 77 78 78 71 79 72 80 76 81 79 82 73 83 74 84 77 85 75 86
REMARK SMILES IDX 54 87 55 88 63 89 56 90 57 91 61 92 64 93 58 94 59 95 62 96
REMARK SMILES IDX 60 97
REMARK H PARENT 18 6 25 31 84 50 52 61
REMARK Flexibility Score: inf
ROOT
ATOM      1  C   UNL A   1      33.029  29.183  24.897  1.00  0.00     0.021 C 
ENDROOT
BRANCH   1   2
ATOM      2  C   UNL A   1      31.549  29.562  24.949  1.00  0.00     0.116 C 
BRANCH   2   3
ATOM      3  N   UNL A   1      31.016  29.761  23.617  1.00  0.00    -0.351 N 
ATOM      4  C   UNL A   1      30.468  28.894  22.700  1.00  0.00     0.273 C 
ATOM      5  O   UNL A   1      29.984  29.398  21.688  1.00  0.00    -0.267 OA
ATOM      6  H   UNL A   1      31.053  30.696  23.310  1.00  0.00     0.163 HD
BRANCH   4   7
ATOM      7  C   UNL A   1      30.423  27.455  22.938  1.00  0.00     0.170 A 
ATOM      8  N   UNL A   1      30.785  25.330  23.208  1.00  0.00    -0.245 N 
ATOM      9  C   UNL A   1      31.321  26.450  22.633  1.00  0.00     0.145 A 
ATOM     10  N   UNL A   1      29.587  25.586  23.744  1.00  0.00    -0.066 NA
ATOM     11  N   UNL A   1      29.335  26.873  23.557  1.00  0.00    -0.125 NA
BRANCH   8  12
ATOM     12  C   UNL A   1      31.501  24.101  23.347  1.00  0.00     0.148 C 
ATOM     13  C   UNL A   1      33.177  21.986  25.109  1.00  0.00     0.320 C 
ATOM     14  O   UNL A   1      32.826  20.886  24.685  1.00  0.00    -0.248 OA
ATOM     15  N   UNL A   1      32.405  23.099  24.914  1.00  0.00    -0.320 N 
ATOM     16  C   UNL A   1      31.020  23.130  24.424  1.00  0.00     0.150 C 
ATOM     17  C   UNL A   1      32.763  24.318  24.199  1.00  0.00     0.150 C 
BRANCH  13  18
ATOM     18  N   UNL A   1      34.346  22.154  25.836  1.00  0.00    -0.319 N 
ATOM     19  C   UNL A   1      34.250  22.005  27.280  1.00  0.00     0.149 C 
BRANCH  18  20
ATOM     20  C   UNL A   1      35.635  22.620  25.290  1.00  0.00     0.236 C 
BRANCH  20  21
ATOM     21  C   UNL A   1      36.710  21.545  25.113  1.00  0.00     0.406 C 
ATOM     22  F   UNL A   1      37.306  21.602  23.901  1.00  0.00    -0.169 F 
ATOM     23  F   UNL A   1      37.685  21.700  26.038  1.00  0.00    -0.169 F 
ATOM     24  F   UNL A   1      36.204  20.300  25.261  1.00  0.00    -0.169 F 
ENDBRANCH  20  21
ENDBRANCH  18  20
ENDBRANCH  13  18
ENDBRANCH   8  12
ENDBRANCH   4   7
ENDBRANCH   2   3
ENDBRANCH   1   2
BRANCH   1  25
ATOM     25  C   UNL A   1      33.512  28.378  26.112  1.00  0.00     0.002 C 
BRANCH  25  26
ATOM     26  C   UNL A   1      34.316  29.161  27.167  1.00  0.00     0.002 C 
BRANCH  26  27
ATOM     27  C   UNL A   1      33.999  30.658  27.308  1.00  0.00     0.021 C 
BRANCH  27  28
ATOM     28  C   UNL A   1      35.188  31.498  27.741  1.00  0.00     0.116 C 
BRANCH  28  29
ATOM     29  N   UNL A   1      34.939  32.247  28.977  1.00  0.00    -0.352 N 
ATOM     30  C   UNL A   1      35.399  31.976  30.256  1.00  0.00     0.251 C 
ATOM     31  H   UNL A   1      34.372  33.047  28.887  1.00  0.00     0.163 HD
ATOM     32  O   UNL A   1      34.855  32.443  31.244  1.00  0.00    -0.269 OA
BRANCH  30  33
ATOM     33  C   UNL A   1      36.583  31.113  30.395  1.00  0.00     0.039 A 
ATOM     34  C   UNL A   1      36.508  29.717  30.388  1.00  0.00     0.014 A 
ATOM     35  C   UNL A   1      37.808  31.757  30.483  1.00  0.00     0.014 A 
ATOM     36  C   UNL A   1      37.696  28.988  30.401  1.00  0.00     0.010 A 
ATOM     37  C   UNL A   1      38.950  31.059  30.235  1.00  0.00     0.010 A 
ATOM     38  C   UNL A   1      38.916  29.675  30.312  1.00  0.00    -0.014 A 
BRANCH  38  39
ATOM     39  C   UNL A   1      40.199  28.992  30.259  1.00  0.00     0.031 A 
ATOM     40  C   UNL A   1      40.866  28.799  31.572  1.00  0.00     0.074 A 
ATOM     41  C   UNL A   1      40.618  28.369  29.133  1.00  0.00     0.049 A 
ATOM     42  N   UNL A   1      42.003  29.274  31.958  1.00  0.00    -0.248 NA
ATOM     43  C   UNL A   1      40.132  28.084  32.629  1.00  0.00     0.031 C 
ATOM     44  C   UNL A   1      39.913  28.200  27.852  1.00  0.00     0.029 A 
ATOM     45  N   UNL A   1      41.750  27.647  28.934  1.00  0.00    -0.354 N 
ATOM     46  C   UNL A   1      42.215  28.782  33.244  1.00  0.00     0.074 A 
ATOM     47  C   UNL A   1      40.970  28.194  33.661  1.00  0.00     0.031 C 
ATOM     48  C   UNL A   1      40.516  27.239  27.118  1.00  0.00     0.029 A 
ATOM     49  C   UNL A   1      41.749  26.867  27.784  1.00  0.00     0.049 A 
ATOM     50  H   UNL A   1      42.513  27.673  29.557  1.00  0.00     0.167 HD
ATOM     51  C   UNL A   1      43.469  28.711  33.770  1.00  0.00     0.037 A 
ATOM     52  C   UNL A   1      42.691  25.964  27.424  1.00  0.00     0.037 A 
ATOM     53  C   UNL A   1      44.390  29.528  33.022  1.00  0.00     0.049 A 
ATOM     54  C   UNL A   1      43.916  26.288  28.197  1.00  0.00     0.074 A 
ATOM     55  C   UNL A   1      44.488  30.882  32.760  1.00  0.00     0.029 A 
ATOM     56  N   UNL A   1      45.180  28.913  32.081  1.00  0.00    -0.354 N 
ATOM     57  N   UNL A   1      44.607  27.382  28.028  1.00  0.00    -0.248 NA
ATOM     58  C   UNL A   1      44.086  25.633  29.485  1.00  0.00     0.031 C 
ATOM     59  C   UNL A   1      44.906  30.963  31.399  1.00  0.00     0.029 A 
ATOM     60  C   UNL A   1      45.111  29.662  30.934  1.00  0.00     0.049 A 
ATOM     61  H   UNL A   1      45.699  28.087  32.207  1.00  0.00     0.167 HD
ATOM     62  C   UNL A   1      44.957  27.783  29.309  1.00  0.00     0.074 A 
ATOM     63  C   UNL A   1      44.670  26.628  30.159  1.00  0.00     0.031 C 
ATOM     64  C   UNL A   1      45.165  29.099  29.604  1.00  0.00     0.037 A 
BRANCH  51  65
ATOM     65  C   UNL A   1      43.946  27.647  34.730  1.00  0.00     0.064 A 
ATOM     66  C   UNL A   1      44.530  28.039  35.952  1.00  0.00     0.173 A 
ATOM     67  C   UNL A   1      44.131  26.293  34.377  1.00  0.00     0.173 A 
ATOM     68  F   UNL A   1      44.425  29.305  36.385  1.00  0.00    -0.203 F 
ATOM     69  C   UNL A   1      45.313  27.165  36.712  1.00  0.00     0.198 A 
ATOM     70  C   UNL A   1      44.868  25.410  35.165  1.00  0.00     0.198 A 
ATOM     71  F   UNL A   1      43.708  25.795  33.210  1.00  0.00    -0.203 F 
ATOM     72  F   UNL A   1      45.954  27.620  37.797  1.00  0.00    -0.200 F 
ATOM     73  C   UNL A   1      45.488  25.854  36.313  1.00  0.00     0.200 A 
ATOM     74  F   UNL A   1      45.039  24.146  34.752  1.00  0.00    -0.200 F 
ATOM     75  F   UNL A   1      46.290  25.033  37.003  1.00  0.00    -0.200 F 
ENDBRANCH  51  65
BRANCH  52  76
ATOM     76  C   UNL A   1      42.494  24.667  26.735  1.00  0.00     0.064 A 
ATOM     77  C   UNL A   1      43.182  24.363  25.550  1.00  0.00     0.173 A 
ATOM     78  C   UNL A   1      41.846  23.593  27.378  1.00  0.00     0.173 A 
ATOM     79  F   UNL A   1      43.862  25.320  24.903  1.00  0.00    -0.203 F 
ATOM     80  C   UNL A   1      43.242  23.057  25.051  1.00  0.00     0.198 A 
ATOM     81  C   UNL A   1      41.904  22.291  26.878  1.00  0.00     0.198 A 
ATOM     82  F   UNL A   1      41.228  23.769  28.554  1.00  0.00    -0.203 F 
ATOM     83  F   UNL A   1      43.960  22.793  23.951  1.00  0.00    -0.200 F 
ATOM     84  C   UNL A   1      42.612  22.020  25.722  1.00  0.00     0.200 A 
ATOM     85  F   UNL A   1      41.324  21.292  27.559  1.00  0.00    -0.200 F 
ATOM     86  F   UNL A   1      42.724  20.759  25.282  1.00  0.00    -0.200 F 
ENDBRANCH  52  76
BRANCH  64  87
ATOM     87  C   UNL A   1      45.228  30.074  28.458  1.00  0.00     0.064 A 
ATOM     88  C   UNL A   1      44.112  30.757  27.940  1.00  0.00     0.173 A 
ATOM     89  C   UNL A   1      46.487  30.446  27.970  1.00  0.00     0.173 A 
ATOM     90  F   UNL A   1      42.884  30.537  28.420  1.00  0.00    -0.203 F 
ATOM     91  C   UNL A   1      44.249  31.731  26.951  1.00  0.00     0.198 A 
ATOM     92  C   UNL A   1      46.625  31.445  27.009  1.00  0.00     0.198 A 
ATOM     93  F   UNL A   1      47.594  29.873  28.468  1.00  0.00    -0.203 F 
ATOM     94  F   UNL A   1      43.165  32.358  26.470  1.00  0.00    -0.200 F 
ATOM     95  C   UNL A   1      45.507  32.079  26.493  1.00  0.00     0.200 A 
ATOM     96  F   UNL A   1      47.849  31.813  26.606  1.00  0.00    -0.200 F 
ATOM     97  F   UNL A   1      45.646  33.045  25.574  1.00  0.00    -0.200 F 
ENDBRANCH  64  87
ENDBRANCH  38  39
ENDBRANCH  30  33
ENDBRANCH  28  29
ENDBRANCH  27  28
ENDBRANCH  26  27
ENDBRANCH  25  26
ENDBRANCH   1  25
TORSDOF 17
ENDMDL
