MODEL 1
REMARK VINA RESULT:     -12.0      0.000      0.000
REMARK SMILES CCOc1ccccc1Nc1ccc(C(=O)NCCCCCCNC(=O)c2ccc(-c3c4nc(c(-c5c(F)c(F)c(F)c(F)c5F)c5ccc([nH]5)c(-c5c(F)c(F)c(F)c(F)c5F)c5nc(c(-c6c(F)c(F)c(F)c(F)c6F)c6ccc3[nH]6)C=C5)C=C4)cc2)cc1N
REMARK SMILES IDX 19 1 18 2 17 3 15 4 16 5 14 7 11 8 12 9 91 10 13 11 90 12
REMARK SMILES IDX 10 13 9 15 4 16 5 17 6 18 8 19 7 20 3 21 2 22 1 23 92 24
REMARK SMILES IDX 20 27 21 28 22 29 23 30 24 31 25 32 26 34 27 35 28 36 89 37
REMARK SMILES IDX 29 38 88 39 30 40 31 41 32 42 82 43 33 44 87 45 81 46 83 47
REMARK SMILES IDX 34 48 86 49 80 50 79 51 35 53 67 54 47 55 66 56 48 57 51 58
REMARK SMILES IDX 65 59 84 60 49 61 50 62 64 64 85 65 52 66 36 67 37 68 45 69
REMARK SMILES IDX 38 70 39 71 43 72 46 73 40 74 41 75 44 76 42 77 68 78 69 79
REMARK SMILES IDX 77 80 70 81 71 82 75 83 78 84 72 85 73 86 76 87 74 88 53 89
REMARK SMILES IDX 54 90 62 91 55 92 56 93 60 94 63 95 57 96 58 97 61 98 59 99
REMARK H PARENT 17 6 10 14 92 25 92 26 24 33 83 52 51 63
REMARK Flexibility Score: inf
ROOT
ATOM      1  C   UNL A   1      35.546  22.416  25.795  1.00  0.00     0.021 C 
ENDROOT
BRANCH   1   2
ATOM      2  C   UNL A   1      34.624  21.664  26.758  1.00  0.00     0.116 C 
BRANCH   2   3
ATOM      3  N   UNL A   1      33.837  20.700  26.013  1.00  0.00    -0.352 N 
ATOM      4  C   UNL A   1      32.622  20.792  25.388  1.00  0.00     0.251 C 
ATOM      5  O   UNL A   1      32.151  19.777  24.878  1.00  0.00    -0.269 OA
ATOM      6  H   UNL A   1      34.256  19.812  25.942  1.00  0.00     0.163 HD
BRANCH   4   7
ATOM      7  C   UNL A   1      31.913  22.086  25.221  1.00  0.00     0.041 A 
ATOM      8  C   UNL A   1      30.852  24.674  24.913  1.00  0.00     0.062 A 
ATOM      9  C   UNL A   1      31.749  24.149  23.971  1.00  0.00     0.029 A 
ATOM     10  C   UNL A   1      30.438  23.862  25.994  1.00  0.00     0.056 A 
ATOM     11  C   UNL A   1      32.288  22.875  24.132  1.00  0.00     0.016 A 
ATOM     12  C   UNL A   1      30.920  22.550  26.084  1.00  0.00     0.041 A 
BRANCH   8  13
ATOM     13  N   UNL A   1      30.442  26.007  24.733  1.00  0.00    -0.351 N 
ATOM     14  H   UNL A   1      29.624  26.104  24.194  1.00  0.00     0.167 HD
BRANCH  13  15
ATOM     15  C   UNL A   1      30.980  27.223  25.178  1.00  0.00     0.081 A 
ATOM     16  C   UNL A   1      31.144  28.275  24.263  1.00  0.00     0.142 A 
ATOM     17  C   UNL A   1      31.660  29.507  24.664  1.00  0.00     0.048 A 
ATOM     18  C   UNL A   1      31.986  29.712  26.005  1.00  0.00     0.004 A 
ATOM     19  C   UNL A   1      31.290  27.454  26.523  1.00  0.00     0.030 A 
ATOM     20  C   UNL A   1      31.798  28.688  26.934  1.00  0.00     0.002 A 
BRANCH  16  21
ATOM     21  O   UNL A   1      30.853  28.064  22.938  1.00  0.00    -0.492 OA
BRANCH  21  22
ATOM     22  C   UNL A   1      29.866  28.985  22.452  1.00  0.00     0.226 C 
ATOM     23  C   UNL A   1      28.494  28.643  23.015  1.00  0.00     0.049 C 
ENDBRANCH  21  22
ENDBRANCH  16  21
ENDBRANCH  13  15
ENDBRANCH   8  13
BRANCH  10  24
ATOM     24  N   UNL A   1      29.426  24.251  26.876  1.00  0.00    -0.397 N 
ATOM     25  H   UNL A   1      28.976  23.578  27.437  1.00  0.00     0.156 HD
ATOM     26  H   UNL A   1      29.163  25.198  26.936  1.00  0.00     0.156 HD
ENDBRANCH  10  24
ENDBRANCH   4   7
ENDBRANCH   2   3
ENDBRANCH   1   2
BRANCH   1  27
ATOM     27  C   UNL A   1      36.910  21.732  25.633  1.00  0.00     0.002 C 
BRANCH  27  28
ATOM     28  C   UNL A   1      36.846  20.337  25.001  1.00  0.00     0.002 C 
BRANCH  28  29
ATOM     29  C   UNL A   1      38.209  19.680  24.769  1.00  0.00     0.021 C 
BRANCH  29  30
ATOM     30  C   UNL A   1      39.286  20.124  25.752  1.00  0.00     0.116 C 
BRANCH  30  31
ATOM     31  N   UNL A   1      40.282  19.083  25.958  1.00  0.00    -0.352 N 
ATOM     32  C   UNL A   1      41.634  19.209  26.134  1.00  0.00     0.251 C 
ATOM     33  H   UNL A   1      39.937  18.162  25.972  1.00  0.00     0.163 HD
ATOM     34  O   UNL A   1      42.371  18.227  26.056  1.00  0.00    -0.269 OA
BRANCH  32  35
ATOM     35  C   UNL A   1      42.211  20.540  26.408  1.00  0.00     0.039 A 
ATOM     36  C   UNL A   1      42.597  21.349  25.338  1.00  0.00     0.014 A 
ATOM     37  C   UNL A   1      42.367  20.983  27.725  1.00  0.00     0.014 A 
ATOM     38  C   UNL A   1      43.085  22.633  25.586  1.00  0.00     0.010 A 
ATOM     39  C   UNL A   1      42.789  22.285  27.968  1.00  0.00     0.010 A 
ATOM     40  C   UNL A   1      43.154  23.121  26.902  1.00  0.00    -0.014 A 
BRANCH  40  41
ATOM     41  C   UNL A   1      43.605  24.505  27.189  1.00  0.00     0.031 A 
ATOM     42  C   UNL A   1      42.626  25.519  27.711  1.00  0.00     0.074 A 
ATOM     43  C   UNL A   1      44.872  24.865  26.910  1.00  0.00     0.049 A 
ATOM     44  N   UNL A   1      42.795  26.799  27.926  1.00  0.00    -0.248 NA
ATOM     45  C   UNL A   1      41.269  25.034  28.006  1.00  0.00     0.031 C 
ATOM     46  C   UNL A   1      45.902  23.979  26.367  1.00  0.00     0.029 A 
ATOM     47  N   UNL A   1      45.506  26.076  27.031  1.00  0.00    -0.354 N 
ATOM     48  C   UNL A   1      41.567  27.272  28.372  1.00  0.00     0.074 A 
ATOM     49  C   UNL A   1      40.648  26.155  28.342  1.00  0.00     0.031 C 
ATOM     50  C   UNL A   1      47.043  24.671  26.218  1.00  0.00     0.029 A 
ATOM     51  C   UNL A   1      46.813  26.057  26.612  1.00  0.00     0.049 A 
ATOM     52  H   UNL A   1      45.065  26.882  27.384  1.00  0.00     0.167 HD
ATOM     53  C   UNL A   1      41.245  28.519  28.791  1.00  0.00     0.037 A 
ATOM     54  C   UNL A   1      47.719  27.050  26.541  1.00  0.00     0.037 A 
ATOM     55  C   UNL A   1      42.168  29.621  28.834  1.00  0.00     0.049 A 
ATOM     56  C   UNL A   1      47.323  28.434  26.982  1.00  0.00     0.074 A 
ATOM     57  C   UNL A   1      41.952  30.912  29.283  1.00  0.00     0.029 A 
ATOM     58  N   UNL A   1      43.488  29.561  28.409  1.00  0.00    -0.354 N 
ATOM     59  N   UNL A   1      46.177  28.857  27.454  1.00  0.00    -0.248 NA
ATOM     60  C   UNL A   1      48.352  29.481  26.879  1.00  0.00     0.031 C 
ATOM     61  C   UNL A   1      43.127  31.645  29.089  1.00  0.00     0.029 A 
ATOM     62  C   UNL A   1      44.091  30.799  28.566  1.00  0.00     0.049 A 
ATOM     63  H   UNL A   1      43.930  28.757  28.051  1.00  0.00     0.167 HD
ATOM     64  C   UNL A   1      46.353  30.206  27.734  1.00  0.00     0.074 A 
ATOM     65  C   UNL A   1      47.722  30.528  27.392  1.00  0.00     0.031 C 
ATOM     66  C   UNL A   1      45.460  31.098  28.230  1.00  0.00     0.037 A 
BRANCH  53  67
ATOM     67  C   UNL A   1      39.833  28.754  29.242  1.00  0.00     0.064 A 
ATOM     68  C   UNL A   1      38.837  29.179  28.347  1.00  0.00     0.173 A 
ATOM     69  C   UNL A   1      39.458  28.518  30.573  1.00  0.00     0.173 A 
ATOM     70  F   UNL A   1      39.145  29.430  27.066  1.00  0.00    -0.203 F 
ATOM     71  C   UNL A   1      37.529  29.386  28.775  1.00  0.00     0.198 A 
ATOM     72  C   UNL A   1      38.141  28.695  30.990  1.00  0.00     0.198 A 
ATOM     73  F   UNL A   1      40.368  28.105  31.468  1.00  0.00    -0.203 F 
ATOM     74  F   UNL A   1      36.608  29.838  27.913  1.00  0.00    -0.200 F 
ATOM     75  C   UNL A   1      37.181  29.137  30.093  1.00  0.00     0.200 A 
ATOM     76  F   UNL A   1      37.804  28.442  32.262  1.00  0.00    -0.200 F 
ATOM     77  F   UNL A   1      35.918  29.328  30.502  1.00  0.00    -0.200 F 
ENDBRANCH  53  67
BRANCH  54  78
ATOM     78  C   UNL A   1      49.094  26.775  26.046  1.00  0.00     0.064 A 
ATOM     79  C   UNL A   1      49.431  26.994  24.703  1.00  0.00     0.173 A 
ATOM     80  C   UNL A   1      50.091  26.272  26.896  1.00  0.00     0.173 A 
ATOM     81  F   UNL A   1      48.507  27.453  23.847  1.00  0.00    -0.203 F 
ATOM     82  C   UNL A   1      50.705  26.696  24.223  1.00  0.00     0.198 A 
ATOM     83  C   UNL A   1      51.373  26.004  26.420  1.00  0.00     0.198 A 
ATOM     84  F   UNL A   1      49.821  26.049  28.190  1.00  0.00    -0.203 F 
ATOM     85  F   UNL A   1      50.985  26.866  22.923  1.00  0.00    -0.200 F 
ATOM     86  C   UNL A   1      51.676  26.207  25.083  1.00  0.00     0.200 A 
ATOM     87  F   UNL A   1      52.312  25.545  27.258  1.00  0.00    -0.200 F 
ATOM     88  F   UNL A   1      52.902  25.921  24.621  1.00  0.00    -0.200 F 
ENDBRANCH  54  78
BRANCH  66  89
ATOM     89  C   UNL A   1      45.946  32.498  28.464  1.00  0.00     0.064 A 
ATOM     90  C   UNL A   1      45.835  33.490  27.480  1.00  0.00     0.173 A 
ATOM     91  C   UNL A   1      46.487  32.861  29.708  1.00  0.00     0.173 A 
ATOM     92  F   UNL A   1      45.340  33.189  26.269  1.00  0.00    -0.203 F 
ATOM     93  C   UNL A   1      46.272  34.790  27.722  1.00  0.00     0.198 A 
ATOM     94  C   UNL A   1      46.893  34.169  29.957  1.00  0.00     0.198 A 
ATOM     95  F   UNL A   1      46.608  31.950  30.685  1.00  0.00    -0.203 F 
ATOM     96  F   UNL A   1      46.201  35.711  26.752  1.00  0.00    -0.200 F 
ATOM     97  C   UNL A   1      46.792  35.129  28.963  1.00  0.00     0.200 A 
ATOM     98  F   UNL A   1      47.383  34.499  31.160  1.00  0.00    -0.200 F 
ATOM     99  F   UNL A   1      47.202  36.384  29.198  1.00  0.00    -0.200 F 
ENDBRANCH  66  89
ENDBRANCH  40  41
ENDBRANCH  32  35
ENDBRANCH  30  31
ENDBRANCH  29  30
ENDBRANCH  28  29
ENDBRANCH  27  28
ENDBRANCH   1  27
TORSDOF 18
ENDMDL
MODEL 2
REMARK VINA RESULT:     -11.6      0.909      7.181
REMARK SMILES CCOc1ccccc1Nc1ccc(C(=O)NCCCCCCNC(=O)c2ccc(-c3c4nc(c(-c5c(F)c(F)c(F)c(F)c5F)c5ccc([nH]5)c(-c5c(F)c(F)c(F)c(F)c5F)c5nc(c(-c6c(F)c(F)c(F)c(F)c6F)c6ccc3[nH]6)C=C5)C=C4)cc2)cc1N
REMARK SMILES IDX 19 1 18 2 17 3 15 4 16 5 14 7 11 8 12 9 91 10 13 11 90 12
REMARK SMILES IDX 10 13 9 15 4 16 5 17 6 18 8 19 7 20 3 21 2 22 1 23 92 24
REMARK SMILES IDX 20 27 21 28 22 29 23 30 24 31 25 32 26 34 27 35 28 36 89 37
REMARK SMILES IDX 29 38 88 39 30 40 31 41 32 42 82 43 33 44 87 45 81 46 83 47
REMARK SMILES IDX 34 48 86 49 80 50 79 51 35 53 67 54 47 55 66 56 48 57 51 58
REMARK SMILES IDX 65 59 84 60 49 61 50 62 64 64 85 65 52 66 36 67 37 68 45 69
REMARK SMILES IDX 38 70 39 71 43 72 46 73 40 74 41 75 44 76 42 77 68 78 69 79
REMARK SMILES IDX 77 80 70 81 71 82 75 83 78 84 72 85 73 86 76 87 74 88 53 89
REMARK SMILES IDX 54 90 62 91 55 92 56 93 60 94 63 95 57 96 58 97 61 98 59 99
REMARK H PARENT 17 6 10 14 92 25 92 26 24 33 83 52 51 63
REMARK Flexibility Score: inf
ROOT
ATOM      1  C   UNL A   1      35.540  22.033  25.108  1.00  0.00     0.021 C 
ENDROOT
BRANCH   1   2
ATOM      2  C   UNL A   1      34.717  21.455  26.261  1.00  0.00     0.116 C 
BRANCH   2   3
ATOM      3  N   UNL A   1      33.754  20.507  25.735  1.00  0.00    -0.352 N 
ATOM      4  C   UNL A   1      32.464  20.655  25.298  1.00  0.00     0.251 C 
ATOM      5  O   UNL A   1      31.845  19.647  24.959  1.00  0.00    -0.269 OA
ATOM      6  H   UNL A   1      34.090  19.584  25.681  1.00  0.00     0.163 HD
BRANCH   4   7
ATOM      7  C   UNL A   1      31.834  21.988  25.125  1.00  0.00     0.041 A 
ATOM      8  C   UNL A   1      30.929  24.632  24.795  1.00  0.00     0.062 A 
ATOM      9  C   UNL A   1      31.764  24.034  23.839  1.00  0.00     0.029 A 
ATOM     10  C   UNL A   1      30.497  23.868  25.904  1.00  0.00     0.056 A 
ATOM     11  C   UNL A   1      32.225  22.731  24.010  1.00  0.00     0.016 A 
ATOM     12  C   UNL A   1      30.898  22.530  26.007  1.00  0.00     0.041 A 
BRANCH   8  13
ATOM     13  N   UNL A   1      30.599  25.985  24.601  1.00  0.00    -0.351 N 
ATOM     14  H   UNL A   1      29.915  26.134  23.909  1.00  0.00     0.167 HD
BRANCH  13  15
ATOM     15  C   UNL A   1      31.062  27.161  25.208  1.00  0.00     0.081 A 
ATOM     16  C   UNL A   1      30.935  28.381  24.523  1.00  0.00     0.142 A 
ATOM     17  C   UNL A   1      31.367  29.578  25.094  1.00  0.00     0.048 A 
ATOM     18  C   UNL A   1      31.902  29.571  26.382  1.00  0.00     0.004 A 
ATOM     19  C   UNL A   1      31.580  27.176  26.507  1.00  0.00     0.030 A 
ATOM     20  C   UNL A   1      32.006  28.372  27.090  1.00  0.00     0.002 A 
BRANCH  16  21
ATOM     21  O   UNL A   1      30.438  28.384  23.243  1.00  0.00    -0.492 OA
BRANCH  21  22
ATOM     22  C   UNL A   1      29.327  29.282  23.101  1.00  0.00     0.226 C 
ATOM     23  C   UNL A   1      28.022  28.506  23.002  1.00  0.00     0.049 C 
ENDBRANCH  21  22
ENDBRANCH  16  21
ENDBRANCH  13  15
ENDBRANCH   8  13
BRANCH  10  24
ATOM     24  N   UNL A   1      29.539  24.336  26.806  1.00  0.00    -0.397 N 
ATOM     25  H   UNL A   1      29.761  25.069  27.425  1.00  0.00     0.156 HD
ATOM     26  H   UNL A   1      28.640  23.934  26.822  1.00  0.00     0.156 HD
ENDBRANCH  10  24
ENDBRANCH   4   7
ENDBRANCH   2   3
ENDBRANCH   1   2
BRANCH   1  27
ATOM     27  C   UNL A   1      36.931  21.395  25.002  1.00  0.00     0.002 C 
BRANCH  27  28
ATOM     28  C   UNL A   1      36.918  19.871  24.837  1.00  0.00     0.002 C 
BRANCH  28  29
ATOM     29  C   UNL A   1      38.277  19.196  25.034  1.00  0.00     0.021 C 
BRANCH  29  30
ATOM     30  C   UNL A   1      39.274  20.032  25.828  1.00  0.00     0.116 C 
BRANCH  30  31
ATOM     31  N   UNL A   1      40.442  19.252  26.208  1.00  0.00    -0.352 N 
ATOM     32  C   UNL A   1      41.701  19.686  26.528  1.00  0.00     0.251 C 
ATOM     33  H   UNL A   1      40.309  18.277  26.240  1.00  0.00     0.163 HD
ATOM     34  O   UNL A   1      42.639  18.893  26.593  1.00  0.00    -0.269 OA
BRANCH  32  35
ATOM     35  C   UNL A   1      41.932  21.121  26.782  1.00  0.00     0.039 A 
ATOM     36  C   UNL A   1      42.233  21.544  28.079  1.00  0.00     0.014 A 
ATOM     37  C   UNL A   1      41.850  22.045  25.736  1.00  0.00     0.014 A 
ATOM     38  C   UNL A   1      42.514  22.890  28.316  1.00  0.00     0.010 A 
ATOM     39  C   UNL A   1      42.197  23.373  25.961  1.00  0.00     0.010 A 
ATOM     40  C   UNL A   1      42.529  23.808  27.253  1.00  0.00    -0.014 A 
BRANCH  40  41
ATOM     41  C   UNL A   1      42.891  25.231  27.466  1.00  0.00     0.031 A 
ATOM     42  C   UNL A   1      44.274  25.712  27.128  1.00  0.00     0.074 A 
ATOM     43  C   UNL A   1      41.999  26.068  28.031  1.00  0.00     0.049 A 
ATOM     44  N   UNL A   1      44.817  26.884  27.334  1.00  0.00    -0.248 NA
ATOM     45  C   UNL A   1      45.175  24.735  26.496  1.00  0.00     0.031 C 
ATOM     46  C   UNL A   1      40.640  25.707  28.434  1.00  0.00     0.029 A 
ATOM     47  N   UNL A   1      42.109  27.391  28.377  1.00  0.00    -0.354 N 
ATOM     48  C   UNL A   1      46.121  26.784  26.868  1.00  0.00     0.074 A 
ATOM     49  C   UNL A   1      46.307  25.421  26.421  1.00  0.00     0.031 C 
ATOM     50  C   UNL A   1      40.036  26.786  28.958  1.00  0.00     0.029 A 
ATOM     51  C   UNL A   1      40.979  27.900  28.966  1.00  0.00     0.049 A 
ATOM     52  H   UNL A   1      42.921  27.924  28.218  1.00  0.00     0.167 HD
ATOM     53  C   UNL A   1      47.069  27.749  26.798  1.00  0.00     0.037 A 
ATOM     54  C   UNL A   1      40.736  29.126  29.470  1.00  0.00     0.037 A 
ATOM     55  C   UNL A   1      46.873  29.107  27.229  1.00  0.00     0.049 A 
ATOM     56  C   UNL A   1      41.820  30.169  29.409  1.00  0.00     0.074 A 
ATOM     57  C   UNL A   1      47.755  30.171  27.160  1.00  0.00     0.029 A 
ATOM     58  N   UNL A   1      45.710  29.589  27.813  1.00  0.00    -0.354 N 
ATOM     59  N   UNL A   1      43.030  30.079  28.914  1.00  0.00    -0.248 NA
ATOM     60  C   UNL A   1      41.501  31.488  29.976  1.00  0.00     0.031 C 
ATOM     61  C   UNL A   1      47.143  31.285  27.743  1.00  0.00     0.029 A 
ATOM     62  C   UNL A   1      45.861  30.930  28.129  1.00  0.00     0.049 A 
ATOM     63  H   UNL A   1      44.898  29.057  27.978  1.00  0.00     0.167 HD
ATOM     64  C   UNL A   1      43.605  31.332  29.082  1.00  0.00     0.074 A 
ATOM     65  C   UNL A   1      42.606  32.170  29.711  1.00  0.00     0.031 C 
ATOM     66  C   UNL A   1      44.850  31.751  28.745  1.00  0.00     0.037 A 
BRANCH  53  67
ATOM     67  C   UNL A   1      48.404  27.368  26.227  1.00  0.00     0.064 A 
ATOM     68  C   UNL A   1      48.662  27.448  24.849  1.00  0.00     0.173 A 
ATOM     69  C   UNL A   1      49.450  26.955  27.065  1.00  0.00     0.173 A 
ATOM     70  F   UNL A   1      47.693  27.826  24.001  1.00  0.00    -0.203 F 
ATOM     71  C   UNL A   1      49.907  27.101  24.331  1.00  0.00     0.198 A 
ATOM     72  C   UNL A   1      50.703  26.639  26.547  1.00  0.00     0.198 A 
ATOM     73  F   UNL A   1      49.258  26.867  28.391  1.00  0.00    -0.203 F 
ATOM     74  F   UNL A   1      50.114  27.138  23.008  1.00  0.00    -0.200 F 
ATOM     75  C   UNL A   1      50.927  26.705  25.181  1.00  0.00     0.200 A 
ATOM     76  F   UNL A   1      51.692  26.268  27.371  1.00  0.00    -0.200 F 
ATOM     77  F   UNL A   1      52.129  26.379  24.681  1.00  0.00    -0.200 F 
ENDBRANCH  53  67
BRANCH  54  78
ATOM     78  C   UNL A   1      39.411  29.441  30.065  1.00  0.00     0.064 A 
ATOM     79  C   UNL A   1      38.363  29.924  29.269  1.00  0.00     0.173 A 
ATOM     80  C   UNL A   1      39.168  29.283  31.437  1.00  0.00     0.173 A 
ATOM     81  F   UNL A   1      38.553  30.111  27.955  1.00  0.00    -0.203 F 
ATOM     82  C   UNL A   1      37.132  30.262  29.827  1.00  0.00     0.198 A 
ATOM     83  C   UNL A   1      37.926  29.593  31.989  1.00  0.00     0.198 A 
ATOM     84  F   UNL A   1      40.136  28.820  32.242  1.00  0.00    -0.203 F 
ATOM     85  F   UNL A   1      36.165  30.771  29.051  1.00  0.00    -0.200 F 
ATOM     86  C   UNL A   1      36.913  30.091  31.186  1.00  0.00     0.200 A 
ATOM     87  F   UNL A   1      37.715  29.413  33.299  1.00  0.00    -0.200 F 
ATOM     88  F   UNL A   1      35.728  30.416  31.722  1.00  0.00    -0.200 F 
ENDBRANCH  54  78
BRANCH  66  89
ATOM     89  C   UNL A   1      45.189  33.187  29.018  1.00  0.00     0.064 A 
ATOM     90  C   UNL A   1      44.898  34.201  28.094  1.00  0.00     0.173 A 
ATOM     91  C   UNL A   1      45.769  33.558  30.242  1.00  0.00     0.173 A 
ATOM     92  F   UNL A   1      44.358  33.895  26.904  1.00  0.00    -0.203 F 
ATOM     93  C   UNL A   1      45.199  35.531  28.374  1.00  0.00     0.198 A 
ATOM     94  C   UNL A   1      46.040  34.892  30.530  1.00  0.00     0.198 A 
ATOM     95  F   UNL A   1      46.060  32.626  31.162  1.00  0.00    -0.203 F 
ATOM     96  F   UNL A   1      44.957  36.478  27.457  1.00  0.00    -0.200 F 
ATOM     97  C   UNL A   1      45.762  35.876  29.594  1.00  0.00     0.200 A 
ATOM     98  F   UNL A   1      46.571  35.225  31.715  1.00  0.00    -0.200 F 
ATOM     99  F   UNL A   1      46.042  37.158  29.865  1.00  0.00    -0.200 F 
ENDBRANCH  66  89
ENDBRANCH  40  41
ENDBRANCH  32  35
ENDBRANCH  30  31
ENDBRANCH  29  30
ENDBRANCH  28  29
ENDBRANCH  27  28
ENDBRANCH   1  27
TORSDOF 18
ENDMDL
MODEL 3
REMARK VINA RESULT:     -11.6      5.298     11.193
REMARK SMILES CCOc1ccccc1Nc1ccc(C(=O)NCCCCCCNC(=O)c2ccc(-c3c4nc(c(-c5c(F)c(F)c(F)c(F)c5F)c5ccc([nH]5)c(-c5c(F)c(F)c(F)c(F)c5F)c5nc(c(-c6c(F)c(F)c(F)c(F)c6F)c6ccc3[nH]6)C=C5)C=C4)cc2)cc1N
REMARK SMILES IDX 19 1 18 2 17 3 15 4 16 5 14 7 11 8 12 9 91 10 13 11 90 12
REMARK SMILES IDX 10 13 9 15 4 16 5 17 6 18 8 19 7 20 3 21 2 22 1 23 92 24
REMARK SMILES IDX 20 27 21 28 22 29 23 30 24 31 25 32 26 34 27 35 28 36 89 37
REMARK SMILES IDX 29 38 88 39 30 40 31 41 32 42 82 43 33 44 87 45 81 46 83 47
REMARK SMILES IDX 34 48 86 49 80 50 79 51 35 53 67 54 47 55 66 56 48 57 51 58
REMARK SMILES IDX 65 59 84 60 49 61 50 62 64 64 85 65 52 66 36 67 37 68 45 69
REMARK SMILES IDX 38 70 39 71 43 72 46 73 40 74 41 75 44 76 42 77 68 78 69 79
REMARK SMILES IDX 77 80 70 81 71 82 75 83 78 84 72 85 73 86 76 87 74 88 53 89
REMARK SMILES IDX 54 90 62 91 55 92 56 93 60 94 63 95 57 96 58 97 61 98 59 99
REMARK H PARENT 17 6 10 14 92 25 92 26 24 33 83 52 51 63
REMARK Flexibility Score: inf
ROOT
ATOM      1  C   UNL A   1      31.551  29.214  24.066  1.00  0.00     0.021 C 
ENDROOT
BRANCH   1   2
ATOM      2  C   UNL A   1      31.983  27.749  23.985  1.00  0.00     0.116 C 
BRANCH   2   3
ATOM      3  N   UNL A   1      31.855  27.287  22.616  1.00  0.00    -0.352 N 
ATOM      4  C   UNL A   1      31.922  26.039  22.056  1.00  0.00     0.251 C 
ATOM      5  O   UNL A   1      31.842  25.944  20.833  1.00  0.00    -0.269 OA
ATOM      6  H   UNL A   1      31.687  28.007  21.966  1.00  0.00     0.163 HD
BRANCH   4   7
ATOM      7  C   UNL A   1      31.985  24.805  22.879  1.00  0.00     0.041 A 
ATOM      8  C   UNL A   1      32.050  22.308  24.175  1.00  0.00     0.062 A 
ATOM      9  C   UNL A   1      32.959  22.609  23.150  1.00  0.00     0.029 A 
ATOM     10  C   UNL A   1      31.133  23.300  24.593  1.00  0.00     0.056 A 
ATOM     11  C   UNL A   1      32.917  23.838  22.497  1.00  0.00     0.016 A 
ATOM     12  C   UNL A   1      31.170  24.561  23.986  1.00  0.00     0.041 A 
BRANCH   8  13
ATOM     13  N   UNL A   1      32.090  21.006  24.705  1.00  0.00    -0.351 N 
ATOM     14  H   UNL A   1      31.566  20.894  25.530  1.00  0.00     0.167 HD
BRANCH  13  15
ATOM     15  C   UNL A   1      32.738  19.838  24.277  1.00  0.00     0.081 A 
ATOM     16  C   UNL A   1      33.990  19.510  24.822  1.00  0.00     0.142 A 
ATOM     17  C   UNL A   1      34.663  18.350  24.439  1.00  0.00     0.048 A 
ATOM     18  C   UNL A   1      34.068  17.480  23.525  1.00  0.00     0.004 A 
ATOM     19  C   UNL A   1      32.146  18.942  23.380  1.00  0.00     0.030 A 
ATOM     20  C   UNL A   1      32.809  17.774  22.998  1.00  0.00     0.002 A 
BRANCH  16  21
ATOM     21  O   UNL A   1      34.590  20.381  25.697  1.00  0.00    -0.492 OA
BRANCH  21  22
ATOM     22  C   UNL A   1      35.754  20.997  25.127  1.00  0.00     0.226 C 
ATOM     23  C   UNL A   1      35.824  22.467  25.515  1.00  0.00     0.049 C 
ENDBRANCH  21  22
ENDBRANCH  16  21
ENDBRANCH  13  15
ENDBRANCH   8  13
BRANCH  10  24
ATOM     24  N   UNL A   1      30.312  23.134  25.711  1.00  0.00    -0.397 N 
ATOM     25  H   UNL A   1      30.559  23.550  26.569  1.00  0.00     0.156 HD
ATOM     26  H   UNL A   1      29.487  22.603  25.642  1.00  0.00     0.156 HD
ENDBRANCH  10  24
ENDBRANCH   4   7
ENDBRANCH   2   3
ENDBRANCH   1   2
BRANCH   1  27
ATOM     27  C   UNL A   1      31.750  29.808  25.468  1.00  0.00     0.002 C 
BRANCH  27  28
ATOM     28  C   UNL A   1      31.122  31.193  25.662  1.00  0.00     0.002 C 
BRANCH  28  29
ATOM     29  C   UNL A   1      31.382  31.824  27.032  1.00  0.00     0.021 C 
BRANCH  29  30
ATOM     30  C   UNL A   1      32.673  32.632  27.106  1.00  0.00     0.116 C 
BRANCH  30  31
ATOM     31  N   UNL A   1      32.413  34.023  27.444  1.00  0.00    -0.352 N 
ATOM     32  C   UNL A   1      32.951  34.779  28.452  1.00  0.00     0.251 C 
ATOM     33  H   UNL A   1      31.761  34.485  26.870  1.00  0.00     0.163 HD
ATOM     34  O   UNL A   1      32.454  35.863  28.755  1.00  0.00    -0.269 OA
BRANCH  32  35
ATOM     35  C   UNL A   1      34.129  34.279  29.186  1.00  0.00     0.039 A 
ATOM     36  C   UNL A   1      33.942  33.556  30.366  1.00  0.00     0.014 A 
ATOM     37  C   UNL A   1      35.418  34.527  28.704  1.00  0.00     0.014 A 
ATOM     38  C   UNL A   1      35.047  33.027  31.033  1.00  0.00     0.010 A 
ATOM     39  C   UNL A   1      36.513  33.942  29.331  1.00  0.00     0.010 A 
ATOM     40  C   UNL A   1      36.338  33.189  30.502  1.00  0.00    -0.014 A 
BRANCH  40  41
ATOM     41  C   UNL A   1      37.523  32.580  31.154  1.00  0.00     0.031 A 
ATOM     42  C   UNL A   1      38.248  31.447  30.483  1.00  0.00     0.074 A 
ATOM     43  C   UNL A   1      37.899  32.997  32.378  1.00  0.00     0.049 A 
ATOM     44  N   UNL A   1      39.236  30.714  30.931  1.00  0.00    -0.248 NA
ATOM     45  C   UNL A   1      37.782  31.071  29.139  1.00  0.00     0.031 C 
ATOM     46  C   UNL A   1      37.252  34.063  33.143  1.00  0.00     0.029 A 
ATOM     47  N   UNL A   1      38.908  32.563  33.200  1.00  0.00    -0.354 N 
ATOM     48  C   UNL A   1      39.502  29.789  29.931  1.00  0.00     0.074 A 
ATOM     49  C   UNL A   1      38.537  30.013  28.878  1.00  0.00     0.031 C 
ATOM     50  C   UNL A   1      37.889  34.212  34.315  1.00  0.00     0.029 A 
ATOM     51  C   UNL A   1      38.960  33.225  34.402  1.00  0.00     0.049 A 
ATOM     52  H   UNL A   1      39.534  31.846  32.952  1.00  0.00     0.167 HD
ATOM     53  C   UNL A   1      40.480  28.853  29.887  1.00  0.00     0.037 A 
ATOM     54  C   UNL A   1      39.773  33.044  35.461  1.00  0.00     0.037 A 
ATOM     55  C   UNL A   1      41.448  28.645  30.930  1.00  0.00     0.049 A 
ATOM     56  C   UNL A   1      40.829  31.974  35.397  1.00  0.00     0.074 A 
ATOM     57  C   UNL A   1      42.506  27.754  30.963  1.00  0.00     0.029 A 
ATOM     58  N   UNL A   1      41.476  29.341  32.131  1.00  0.00    -0.354 N 
ATOM     59  N   UNL A   1      41.109  31.141  34.424  1.00  0.00    -0.248 NA
ATOM     60  C   UNL A   1      41.686  31.818  36.583  1.00  0.00     0.031 C 
ATOM     61  C   UNL A   1      43.146  27.878  32.200  1.00  0.00     0.029 A 
ATOM     62  C   UNL A   1      42.519  28.883  32.919  1.00  0.00     0.049 A 
ATOM     63  H   UNL A   1      40.847  30.056  32.383  1.00  0.00     0.167 HD
ATOM     64  C   UNL A   1      42.189  30.387  34.865  1.00  0.00     0.074 A 
ATOM     65  C   UNL A   1      42.524  30.871  36.188  1.00  0.00     0.031 C 
ATOM     66  C   UNL A   1      42.844  29.384  34.230  1.00  0.00     0.037 A 
BRANCH  53  67
ATOM     67  C   UNL A   1      40.554  27.985  28.664  1.00  0.00     0.064 A 
ATOM     68  C   UNL A   1      41.322  28.354  27.547  1.00  0.00     0.173 A 
ATOM     69  C   UNL A   1      39.883  26.754  28.618  1.00  0.00     0.173 A 
ATOM     70  F   UNL A   1      41.974  29.526  27.535  1.00  0.00    -0.203 F 
ATOM     71  C   UNL A   1      41.390  27.537  26.422  1.00  0.00     0.198 A 
ATOM     72  C   UNL A   1      39.979  25.925  27.504  1.00  0.00     0.198 A 
ATOM     73  F   UNL A   1      39.140  26.350  29.661  1.00  0.00    -0.203 F 
ATOM     74  F   UNL A   1      42.089  27.933  25.350  1.00  0.00    -0.200 F 
ATOM     75  C   UNL A   1      40.725  26.321  26.405  1.00  0.00     0.200 A 
ATOM     76  F   UNL A   1      39.346  24.744  27.493  1.00  0.00    -0.200 F 
ATOM     77  F   UNL A   1      40.799  25.531  25.323  1.00  0.00    -0.200 F 
ENDBRANCH  53  67
BRANCH  54  78
ATOM     78  C   UNL A   1      39.632  33.902  36.667  1.00  0.00     0.064 A 
ATOM     79  C   UNL A   1      40.297  35.132  36.755  1.00  0.00     0.173 A 
ATOM     80  C   UNL A   1      38.846  33.504  37.759  1.00  0.00     0.173 A 
ATOM     81  F   UNL A   1      41.076  35.545  35.745  1.00  0.00    -0.203 F 
ATOM     82  C   UNL A   1      40.204  35.921  37.900  1.00  0.00     0.198 A 
ATOM     83  C   UNL A   1      38.730  34.309  38.891  1.00  0.00     0.198 A 
ATOM     84  F   UNL A   1      38.186  32.338  37.724  1.00  0.00    -0.203 F 
ATOM     85  F   UNL A   1      40.892  37.068  37.977  1.00  0.00    -0.200 F 
ATOM     86  C   UNL A   1      39.416  35.511  38.965  1.00  0.00     0.200 A 
ATOM     87  F   UNL A   1      37.957  33.915  39.912  1.00  0.00    -0.200 F 
ATOM     88  F   UNL A   1      39.326  36.270  40.066  1.00  0.00    -0.200 F 
ENDBRANCH  54  78
BRANCH  66  89
ATOM     89  C   UNL A   1      44.010  28.766  34.944  1.00  0.00     0.064 A 
ATOM     90  C   UNL A   1      45.305  29.292  34.831  1.00  0.00     0.173 A 
ATOM     91  C   UNL A   1      43.820  27.661  35.788  1.00  0.00     0.173 A 
ATOM     92  F   UNL A   1      45.542  30.338  34.024  1.00  0.00    -0.203 F 
ATOM     93  C   UNL A   1      46.372  28.719  35.518  1.00  0.00     0.198 A 
ATOM     94  C   UNL A   1      44.882  27.110  36.497  1.00  0.00     0.198 A 
ATOM     95  F   UNL A   1      42.599  27.125  35.935  1.00  0.00    -0.203 F 
ATOM     96  F   UNL A   1      47.609  29.208  35.360  1.00  0.00    -0.200 F 
ATOM     97  C   UNL A   1      46.158  27.635  36.357  1.00  0.00     0.200 A 
ATOM     98  F   UNL A   1      44.672  26.071  37.318  1.00  0.00    -0.200 F 
ATOM     99  F   UNL A   1      47.184  27.091  37.025  1.00  0.00    -0.200 F 
ENDBRANCH  66  89
ENDBRANCH  40  41
ENDBRANCH  32  35
ENDBRANCH  30  31
ENDBRANCH  29  30
ENDBRANCH  28  29
ENDBRANCH  27  28
ENDBRANCH   1  27
TORSDOF 18
ENDMDL
