MODEL 1
REMARK VINA RESULT:     -12.7      0.000      0.000
REMARK SMILES CC1(CNC(=O)N[C@H]2C=C[C@H](C(=O)NCCCCCCNC(=O)c3ccc(-c4c5nc(c(-c6c(F)c(F)c(F)c(F)c6F)c6ccc([nH]6)c(-c6c(F)c(F)c(F)c(F)c6F)c6nc(c(-c7c(F)c(F)c(F)c(F)c7F)c7ccc4[nH]7)C=C6)C=C5)cc3)C2)CCCC1
REMARK SMILES IDX 17 1 16 2 15 3 14 4 12 5 13 6 11 8 8 9 9 10 87 11 10 12 7 13
REMARK SMILES IDX 4 14 5 15 6 17 3 19 2 20 1 21 88 22 91 23 89 24 90 25 18 26
REMARK SMILES IDX 19 27 20 28 21 29 22 30 23 32 24 33 25 34 86 35 26 36 85 37
REMARK SMILES IDX 27 38 28 39 29 40 79 41 30 42 84 43 78 44 80 45 31 46 83 47
REMARK SMILES IDX 77 48 76 49 32 51 64 52 44 53 63 54 45 55 48 56 62 57 81 58
REMARK SMILES IDX 46 59 47 60 61 62 82 63 49 64 33 65 34 66 42 67 35 68 36 69
REMARK SMILES IDX 40 70 43 71 37 72 38 73 41 74 39 75 65 76 66 77 74 78 67 79
REMARK SMILES IDX 68 80 72 81 75 82 69 83 70 84 73 85 71 86 50 87 51 88 59 89
REMARK SMILES IDX 52 90 53 91 57 92 60 93 54 94 55 95 58 96 56 97
REMARK H PARENT 14 7 4 16 7 18 21 31 80 50 48 61
REMARK Flexibility Score: inf
ROOT
ATOM      1  C   UNL A   1      33.049  29.837  27.225  1.00  0.00     0.002 C 
ENDROOT
BRANCH   1   2
ATOM      2  C   UNL A   1      34.098  29.090  26.395  1.00  0.00     0.021 C 
BRANCH   2   3
ATOM      3  C   UNL A   1      33.842  27.605  26.156  1.00  0.00     0.116 C 
BRANCH   3   4
ATOM      4  N   UNL A   1      33.556  27.292  24.774  1.00  0.00    -0.356 N 
ATOM      5  C   UNL A   1      32.391  27.344  24.073  1.00  0.00     0.227 C 
ATOM      6  O   UNL A   1      32.479  27.177  22.853  1.00  0.00    -0.274 OA
ATOM      7  H   UNL A   1      34.334  26.992  24.253  1.00  0.00     0.163 HD
BRANCH   5   8
ATOM      8  C   UNL A   1      31.026  27.521  24.770  1.00  0.00     0.103 C 
ATOM      9  C   UNL A   1      30.516  25.281  25.538  1.00  0.00     0.107 C 
ATOM     10  C   UNL A   1      29.555  25.714  24.475  1.00  0.00    -0.006 C 
ATOM     11  C   UNL A   1      30.966  26.657  26.054  1.00  0.00     0.047 C 
ATOM     12  C   UNL A   1      29.850  26.940  24.032  1.00  0.00    -0.016 C 
BRANCH   9  13
ATOM     13  N   UNL A   1      29.840  24.459  26.500  1.00  0.00    -0.332 N 
ATOM     14  N   UNL A   1      30.882  22.335  26.297  1.00  0.00    -0.338 N 
ATOM     15  C   UNL A   1      30.039  23.192  26.896  1.00  0.00     0.315 C 
ATOM     16  H   UNL A   1      31.011  21.507  26.813  1.00  0.00     0.165 HD
ATOM     17  O   UNL A   1      29.403  22.784  27.871  1.00  0.00    -0.249 OA
ATOM     18  H   UNL A   1      29.091  24.907  26.955  1.00  0.00     0.165 HD
BRANCH  14  19
ATOM     19  C   UNL A   1      31.646  22.351  25.060  1.00  0.00     0.124 C 
BRANCH  19  20
ATOM     20  C   UNL A   1      33.172  22.420  25.260  1.00  0.00    -0.015 C 
ATOM     21  C   UNL A   1      33.847  21.240  24.541  1.00  0.00     0.013 C 
ATOM     22  C   UNL A   1      33.581  22.488  26.740  1.00  0.00     0.008 C 
ATOM     23  C   UNL A   1      33.722  23.761  24.734  1.00  0.00     0.008 C 
ATOM     24  C   UNL A   1      34.966  23.126  26.739  1.00  0.00     0.001 C 
ATOM     25  C   UNL A   1      35.030  23.997  25.487  1.00  0.00     0.001 C 
ENDBRANCH  19  20
ENDBRANCH  14  19
ENDBRANCH   9  13
ENDBRANCH   5   8
ENDBRANCH   3   4
ENDBRANCH   2   3
ENDBRANCH   1   2
BRANCH   1  26
ATOM     26  C   UNL A   1      31.900  30.489  26.451  1.00  0.00     0.002 C 
BRANCH  26  27
ATOM     27  C   UNL A   1      31.602  31.950  26.787  1.00  0.00     0.021 C 
BRANCH  27  28
ATOM     28  C   UNL A   1      32.776  32.759  27.328  1.00  0.00     0.116 C 
BRANCH  28  29
ATOM     29  N   UNL A   1      32.422  34.126  27.674  1.00  0.00    -0.352 N 
ATOM     30  C   UNL A   1      32.996  34.957  28.608  1.00  0.00     0.251 C 
ATOM     31  H   UNL A   1      31.668  34.510  27.171  1.00  0.00     0.163 HD
ATOM     32  O   UNL A   1      32.506  36.055  28.851  1.00  0.00    -0.269 OA
BRANCH  30  33
ATOM     33  C   UNL A   1      34.195  34.509  29.349  1.00  0.00     0.039 A 
ATOM     34  C   UNL A   1      34.031  33.895  30.595  1.00  0.00     0.014 A 
ATOM     35  C   UNL A   1      35.473  34.675  28.809  1.00  0.00     0.014 A 
ATOM     36  C   UNL A   1      35.142  33.379  31.265  1.00  0.00     0.010 A 
ATOM     37  C   UNL A   1      36.570  34.106  29.448  1.00  0.00     0.010 A 
ATOM     38  C   UNL A   1      36.415  33.447  30.679  1.00  0.00    -0.014 A 
BRANCH  38  39
ATOM     39  C   UNL A   1      37.610  32.844  31.322  1.00  0.00     0.031 A 
ATOM     40  C   UNL A   1      38.313  31.697  30.656  1.00  0.00     0.074 A 
ATOM     41  C   UNL A   1      37.993  33.252  32.546  1.00  0.00     0.049 A 
ATOM     42  N   UNL A   1      39.248  30.911  31.125  1.00  0.00    -0.248 NA
ATOM     43  C   UNL A   1      37.878  31.371  29.289  1.00  0.00     0.031 C 
ATOM     44  C   UNL A   1      37.373  34.334  33.310  1.00  0.00     0.029 A 
ATOM     45  N   UNL A   1      38.979  32.778  33.377  1.00  0.00    -0.354 N 
ATOM     46  C   UNL A   1      39.494  29.982  30.122  1.00  0.00     0.074 A 
ATOM     47  C   UNL A   1      38.583  30.278  29.037  1.00  0.00     0.031 C 
ATOM     48  C   UNL A   1      37.986  34.438  34.500  1.00  0.00     0.029 A 
ATOM     49  C   UNL A   1      39.013  33.405  34.599  1.00  0.00     0.049 A 
ATOM     50  H   UNL A   1      39.601  32.060  33.122  1.00  0.00     0.167 HD
ATOM     51  C   UNL A   1      40.408  28.982  30.105  1.00  0.00     0.037 A 
ATOM     52  C   UNL A   1      39.770  33.156  35.686  1.00  0.00     0.037 A 
ATOM     53  C   UNL A   1      41.330  28.711  31.174  1.00  0.00     0.049 A 
ATOM     54  C   UNL A   1      40.781  32.044  35.644  1.00  0.00     0.074 A 
ATOM     55  C   UNL A   1      42.329  27.753  31.231  1.00  0.00     0.029 A 
ATOM     56  N   UNL A   1      41.368  29.401  32.376  1.00  0.00    -0.354 N 
ATOM     57  N   UNL A   1      41.035  31.197  34.677  1.00  0.00    -0.248 NA
ATOM     58  C   UNL A   1      41.612  31.854  36.841  1.00  0.00     0.031 C 
ATOM     59  C   UNL A   1      42.948  27.842  32.483  1.00  0.00     0.029 A 
ATOM     60  C   UNL A   1      42.364  28.883  33.188  1.00  0.00     0.049 A 
ATOM     61  H   UNL A   1      40.775  30.149  32.617  1.00  0.00     0.167 HD
ATOM     62  C   UNL A   1      42.070  30.393  35.135  1.00  0.00     0.074 A 
ATOM     63  C   UNL A   1      42.401  30.855  36.467  1.00  0.00     0.031 C 
ATOM     64  C   UNL A   1      42.690  29.367  34.505  1.00  0.00     0.037 A 
BRANCH  51  65
ATOM     65  C   UNL A   1      40.446  28.108  28.886  1.00  0.00     0.064 A 
ATOM     66  C   UNL A   1      39.726  26.906  28.820  1.00  0.00     0.173 A 
ATOM     67  C   UNL A   1      41.204  28.483  27.766  1.00  0.00     0.173 A 
ATOM     68  F   UNL A   1      38.998  26.498  29.870  1.00  0.00    -0.203 F 
ATOM     69  C   UNL A   1      39.793  26.092  27.692  1.00  0.00     0.198 A 
ATOM     70  C   UNL A   1      41.243  27.682  26.628  1.00  0.00     0.198 A 
ATOM     71  F   UNL A   1      41.906  29.626  27.774  1.00  0.00    -0.203 F 
ATOM     72  F   UNL A   1      39.143  24.920  27.675  1.00  0.00    -0.200 F 
ATOM     73  C   UNL A   1      40.547  26.482  26.596  1.00  0.00     0.200 A 
ATOM     74  F   UNL A   1      41.963  28.065  25.565  1.00  0.00    -0.200 F 
ATOM     75  F   UNL A   1      40.611  25.697  25.511  1.00  0.00    -0.200 F 
ENDBRANCH  51  65
BRANCH  52  76
ATOM     76  C   UNL A   1      39.596  33.989  36.904  1.00  0.00     0.064 A 
ATOM     77  C   UNL A   1      40.205  35.246  37.009  1.00  0.00     0.173 A 
ATOM     78  C   UNL A   1      38.798  33.557  37.974  1.00  0.00     0.173 A 
ATOM     79  F   UNL A   1      40.993  35.692  36.020  1.00  0.00    -0.203 F 
ATOM     80  C   UNL A   1      40.030  36.038  38.142  1.00  0.00     0.198 A 
ATOM     81  C   UNL A   1      38.604  34.359  39.096  1.00  0.00     0.198 A 
ATOM     82  F   UNL A   1      38.190  32.363  37.919  1.00  0.00    -0.203 F 
ATOM     83  F   UNL A   1      40.647  37.224  38.230  1.00  0.00    -0.200 F 
ATOM     84  C   UNL A   1      39.224  35.597  39.181  1.00  0.00     0.200 A 
ATOM     85  F   UNL A   1      37.814  33.936  40.092  1.00  0.00    -0.200 F 
ATOM     86  F   UNL A   1      39.047  36.364  40.266  1.00  0.00    -0.200 F 
ENDBRANCH  52  76
BRANCH  64  87
ATOM     87  C   UNL A   1      43.820  28.691  35.226  1.00  0.00     0.064 A 
ATOM     88  C   UNL A   1      45.144  29.125  35.084  1.00  0.00     0.173 A 
ATOM     89  C   UNL A   1      43.557  27.650  36.128  1.00  0.00     0.173 A 
ATOM     90  F   UNL A   1      45.444  30.108  34.221  1.00  0.00    -0.203 F 
ATOM     91  C   UNL A   1      46.171  28.534  35.816  1.00  0.00     0.198 A 
ATOM     92  C   UNL A   1      44.582  27.077  36.876  1.00  0.00     0.198 A 
ATOM     93  F   UNL A   1      42.304  27.205  36.301  1.00  0.00    -0.203 F 
ATOM     94  F   UNL A   1      47.435  28.947  35.650  1.00  0.00    -0.200 F 
ATOM     95  C   UNL A   1      45.887  27.519  36.718  1.00  0.00     0.200 A 
ATOM     96  F   UNL A   1      44.306  26.104  37.754  1.00  0.00    -0.200 F 
ATOM     97  F   UNL A   1      46.874  26.963  37.434  1.00  0.00    -0.200 F 
ENDBRANCH  64  87
ENDBRANCH  38  39
ENDBRANCH  30  33
ENDBRANCH  28  29
ENDBRANCH  27  28
ENDBRANCH  26  27
ENDBRANCH   1  26
TORSDOF 16
ENDMDL
MODEL 2
REMARK VINA RESULT:     -12.7      0.449      1.706
REMARK SMILES CC1(CNC(=O)N[C@H]2C=C[C@H](C(=O)NCCCCCCNC(=O)c3ccc(-c4c5nc(c(-c6c(F)c(F)c(F)c(F)c6F)c6ccc([nH]6)c(-c6c(F)c(F)c(F)c(F)c6F)c6nc(c(-c7c(F)c(F)c(F)c(F)c7F)c7ccc4[nH]7)C=C6)C=C5)cc3)C2)CCCC1
REMARK SMILES IDX 17 1 16 2 15 3 14 4 12 5 13 6 11 8 8 9 9 10 87 11 10 12 7 13
REMARK SMILES IDX 4 14 5 15 6 17 3 19 2 20 1 21 88 22 91 23 89 24 90 25 18 26
REMARK SMILES IDX 19 27 20 28 21 29 22 30 23 32 24 33 25 34 86 35 26 36 85 37
REMARK SMILES IDX 27 38 28 39 29 40 79 41 30 42 84 43 78 44 80 45 31 46 83 47
REMARK SMILES IDX 77 48 76 49 32 51 64 52 44 53 63 54 45 55 48 56 62 57 81 58
REMARK SMILES IDX 46 59 47 60 61 62 82 63 49 64 33 65 34 66 42 67 35 68 36 69
REMARK SMILES IDX 40 70 43 71 37 72 38 73 41 74 39 75 65 76 66 77 74 78 67 79
REMARK SMILES IDX 68 80 72 81 75 82 69 83 70 84 73 85 71 86 50 87 51 88 59 89
REMARK SMILES IDX 52 90 53 91 57 92 60 93 54 94 55 95 58 96 56 97
REMARK H PARENT 14 7 4 16 7 18 21 31 80 50 48 61
REMARK Flexibility Score: inf
ROOT
ATOM      1  C   UNL A   1      33.250  29.648  27.284  1.00  0.00     0.002 C 
ENDROOT
BRANCH   1   2
ATOM      2  C   UNL A   1      33.960  28.773  26.247  1.00  0.00     0.021 C 
BRANCH   2   3
ATOM      3  C   UNL A   1      33.640  29.063  24.783  1.00  0.00     0.116 C 
BRANCH   3   4
ATOM      4  N   UNL A   1      33.459  27.865  23.993  1.00  0.00    -0.356 N 
ATOM      5  C   UNL A   1      32.338  27.146  23.713  1.00  0.00     0.227 C 
ATOM      6  O   UNL A   1      32.457  26.254  22.868  1.00  0.00    -0.274 OA
ATOM      7  H   UNL A   1      34.284  27.510  23.591  1.00  0.00     0.163 HD
BRANCH   5   8
ATOM      8  C   UNL A   1      31.011  27.377  24.465  1.00  0.00     0.103 C 
ATOM      9  C   UNL A   1      30.461  25.163  25.282  1.00  0.00     0.107 C 
ATOM     10  C   UNL A   1      29.470  25.617  24.256  1.00  0.00    -0.006 C 
ATOM     11  C   UNL A   1      30.978  26.529  25.762  1.00  0.00     0.047 C 
ATOM     12  C   UNL A   1      29.786  26.827  23.785  1.00  0.00    -0.016 C 
BRANCH   9  13
ATOM     13  N   UNL A   1      29.800  24.375  26.283  1.00  0.00    -0.332 N 
ATOM     14  N   UNL A   1      31.220  22.496  26.585  1.00  0.00    -0.338 N 
ATOM     15  C   UNL A   1      30.157  23.247  26.916  1.00  0.00     0.315 C 
ATOM     16  H   UNL A   1      31.412  21.796  27.250  1.00  0.00     0.165 HD
ATOM     17  O   UNL A   1      29.459  22.869  27.861  1.00  0.00    -0.249 OA
ATOM     18  H   UNL A   1      28.923  24.727  26.556  1.00  0.00     0.165 HD
BRANCH  14  19
ATOM     19  C   UNL A   1      32.152  22.481  25.469  1.00  0.00     0.124 C 
BRANCH  19  20
ATOM     20  C   UNL A   1      33.597  22.854  25.847  1.00  0.00    -0.015 C 
ATOM     21  C   UNL A   1      33.819  22.628  27.352  1.00  0.00     0.013 C 
ATOM     22  C   UNL A   1      33.979  24.282  25.428  1.00  0.00     0.008 C 
ATOM     23  C   UNL A   1      34.600  22.021  25.021  1.00  0.00     0.008 C 
ATOM     24  C   UNL A   1      35.500  24.272  25.323  1.00  0.00     0.001 C 
ATOM     25  C   UNL A   1      35.892  22.834  24.995  1.00  0.00     0.001 C 
ENDBRANCH  19  20
ENDBRANCH  14  19
ENDBRANCH   9  13
ENDBRANCH   5   8
ENDBRANCH   3   4
ENDBRANCH   2   3
ENDBRANCH   1   2
BRANCH   1  26
ATOM     26  C   UNL A   1      31.844  30.135  26.923  1.00  0.00     0.002 C 
BRANCH  26  27
ATOM     27  C   UNL A   1      31.673  31.645  26.756  1.00  0.00     0.021 C 
BRANCH  27  28
ATOM     28  C   UNL A   1      32.846  32.501  27.221  1.00  0.00     0.116 C 
BRANCH  28  29
ATOM     29  N   UNL A   1      32.465  33.860  27.569  1.00  0.00    -0.352 N 
ATOM     30  C   UNL A   1      33.024  34.702  28.502  1.00  0.00     0.251 C 
ATOM     31  H   UNL A   1      31.702  34.228  27.068  1.00  0.00     0.163 HD
ATOM     32  O   UNL A   1      32.511  35.789  28.747  1.00  0.00    -0.269 OA
BRANCH  30  33
ATOM     33  C   UNL A   1      34.233  34.278  29.240  1.00  0.00     0.039 A 
ATOM     34  C   UNL A   1      34.083  33.616  30.463  1.00  0.00     0.014 A 
ATOM     35  C   UNL A   1      35.508  34.514  28.719  1.00  0.00     0.014 A 
ATOM     36  C   UNL A   1      35.209  33.123  31.127  1.00  0.00     0.010 A 
ATOM     37  C   UNL A   1      36.622  33.970  29.350  1.00  0.00     0.010 A 
ATOM     38  C   UNL A   1      36.483  33.263  30.556  1.00  0.00    -0.014 A 
BRANCH  38  39
ATOM     39  C   UNL A   1      37.696  32.688  31.191  1.00  0.00     0.031 A 
ATOM     40  C   UNL A   1      38.417  31.553  30.523  1.00  0.00     0.074 A 
ATOM     41  C   UNL A   1      38.081  33.109  32.410  1.00  0.00     0.049 A 
ATOM     42  N   UNL A   1      39.372  30.788  30.987  1.00  0.00    -0.248 NA
ATOM     43  C   UNL A   1      37.977  31.212  29.161  1.00  0.00     0.031 C 
ATOM     44  C   UNL A   1      37.446  34.181  33.175  1.00  0.00     0.029 A 
ATOM     45  N   UNL A   1      39.085  32.659  33.234  1.00  0.00    -0.354 N 
ATOM     46  C   UNL A   1      39.629  29.861  29.986  1.00  0.00     0.074 A 
ATOM     47  C   UNL A   1      38.702  30.133  28.908  1.00  0.00     0.031 C 
ATOM     48  C   UNL A   1      38.067  34.303  34.359  1.00  0.00     0.029 A 
ATOM     49  C   UNL A   1      39.117  33.292  34.453  1.00  0.00     0.049 A 
ATOM     50  H   UNL A   1      39.719  31.953  32.976  1.00  0.00     0.167 HD
ATOM     51  C   UNL A   1      40.563  28.880  29.965  1.00  0.00     0.037 A 
ATOM     52  C   UNL A   1      39.888  33.064  35.534  1.00  0.00     0.037 A 
ATOM     53  C   UNL A   1      41.501  28.632  31.027  1.00  0.00     0.049 A 
ATOM     54  C   UNL A   1      40.922  31.973  35.488  1.00  0.00     0.074 A 
ATOM     55  C   UNL A   1      42.519  27.696  31.079  1.00  0.00     0.029 A 
ATOM     56  N   UNL A   1      41.535  29.329  32.225  1.00  0.00    -0.354 N 
ATOM     57  N   UNL A   1      41.185  31.127  34.522  1.00  0.00    -0.248 NA
ATOM     58  C   UNL A   1      41.767  31.806  36.678  1.00  0.00     0.031 C 
ATOM     59  C   UNL A   1      43.147  27.803  32.324  1.00  0.00     0.029 A 
ATOM     60  C   UNL A   1      42.549  28.835  33.030  1.00  0.00     0.049 A 
ATOM     61  H   UNL A   1      40.928  30.065  32.469  1.00  0.00     0.167 HD
ATOM     62  C   UNL A   1      42.240  30.346  34.974  1.00  0.00     0.074 A 
ATOM     63  C   UNL A   1      42.573  30.821  36.301  1.00  0.00     0.031 C 
ATOM     64  C   UNL A   1      42.876  29.331  34.342  1.00  0.00     0.037 A 
BRANCH  51  65
ATOM     65  C   UNL A   1      40.609  28.002  28.749  1.00  0.00     0.064 A 
ATOM     66  C   UNL A   1      41.384  28.337  27.629  1.00  0.00     0.173 A 
ATOM     67  C   UNL A   1      39.878  26.805  28.709  1.00  0.00     0.173 A 
ATOM     68  F   UNL A   1      42.090  29.477  27.613  1.00  0.00    -0.203 F 
ATOM     69  C   UNL A   1      41.396  27.524  26.497  1.00  0.00     0.198 A 
ATOM     70  C   UNL A   1      39.917  25.980  27.588  1.00  0.00     0.198 A 
ATOM     71  F   UNL A   1      39.126  26.434  29.756  1.00  0.00    -0.203 F 
ATOM     72  F   UNL A   1      42.098  27.894  25.418  1.00  0.00    -0.200 F 
ATOM     73  C   UNL A   1      40.666  26.345  26.479  1.00  0.00     0.200 A 
ATOM     74  F   UNL A   1      39.221  24.835  27.576  1.00  0.00    -0.200 F 
ATOM     75  F   UNL A   1      40.679  25.565  25.390  1.00  0.00    -0.200 F 
ENDBRANCH  51  65
BRANCH  52  76
ATOM     76  C   UNL A   1      39.708  33.898  36.750  1.00  0.00     0.064 A 
ATOM     77  C   UNL A   1      40.342  35.141  36.870  1.00  0.00     0.173 A 
ATOM     78  C   UNL A   1      38.878  33.482  37.802  1.00  0.00     0.173 A 
ATOM     79  F   UNL A   1      41.160  35.571  35.899  1.00  0.00    -0.203 F 
ATOM     80  C   UNL A   1      40.161  35.934  38.001  1.00  0.00     0.198 A 
ATOM     81  C   UNL A   1      38.679  34.286  38.922  1.00  0.00     0.198 A 
ATOM     82  F   UNL A   1      38.244  32.302  37.732  1.00  0.00    -0.203 F 
ATOM     83  F   UNL A   1      40.802  37.106  38.105  1.00  0.00    -0.200 F 
ATOM     84  C   UNL A   1      39.324  35.510  39.023  1.00  0.00     0.200 A 
ATOM     85  F   UNL A   1      37.859  33.879  39.901  1.00  0.00    -0.200 F 
ATOM     86  F   UNL A   1      39.142  36.278  40.105  1.00  0.00    -0.200 F 
ENDBRANCH  52  76
BRANCH  64  87
ATOM     87  C   UNL A   1      44.026  28.683  35.056  1.00  0.00     0.064 A 
ATOM     88  C   UNL A   1      43.837  27.581  35.901  1.00  0.00     0.173 A 
ATOM     89  C   UNL A   1      45.337  29.123  34.826  1.00  0.00     0.173 A 
ATOM     90  F   UNL A   1      42.599  27.134  36.162  1.00  0.00    -0.203 F 
ATOM     91  C   UNL A   1      44.923  26.946  36.498  1.00  0.00     0.198 A 
ATOM     92  C   UNL A   1      46.422  28.472  35.406  1.00  0.00     0.198 A 
ATOM     93  F   UNL A   1      45.567  30.171  34.020  1.00  0.00    -0.203 F 
ATOM     94  F   UNL A   1      44.721  25.908  37.322  1.00  0.00    -0.200 F 
ATOM     95  C   UNL A   1      46.214  27.385  36.241  1.00  0.00     0.200 A 
ATOM     96  F   UNL A   1      47.668  28.891  35.149  1.00  0.00    -0.200 F 
ATOM     97  F   UNL A   1      47.259  26.762  36.803  1.00  0.00    -0.200 F 
ENDBRANCH  64  87
ENDBRANCH  38  39
ENDBRANCH  30  33
ENDBRANCH  28  29
ENDBRANCH  27  28
ENDBRANCH  26  27
ENDBRANCH   1  26
TORSDOF 16
ENDMDL
MODEL 3
REMARK VINA RESULT:     -12.5      1.573      7.580
REMARK SMILES CC1(CNC(=O)N[C@H]2C=C[C@H](C(=O)NCCCCCCNC(=O)c3ccc(-c4c5nc(c(-c6c(F)c(F)c(F)c(F)c6F)c6ccc([nH]6)c(-c6c(F)c(F)c(F)c(F)c6F)c6nc(c(-c7c(F)c(F)c(F)c(F)c7F)c7ccc4[nH]7)C=C6)C=C5)cc3)C2)CCCC1
REMARK SMILES IDX 17 1 16 2 15 3 14 4 12 5 13 6 11 8 8 9 9 10 87 11 10 12 7 13
REMARK SMILES IDX 4 14 5 15 6 17 3 19 2 20 1 21 88 22 91 23 89 24 90 25 18 26
REMARK SMILES IDX 19 27 20 28 21 29 22 30 23 32 24 33 25 34 86 35 26 36 85 37
REMARK SMILES IDX 27 38 28 39 29 40 79 41 30 42 84 43 78 44 80 45 31 46 83 47
REMARK SMILES IDX 77 48 76 49 32 51 64 52 44 53 63 54 45 55 48 56 62 57 81 58
REMARK SMILES IDX 46 59 47 60 61 62 82 63 49 64 33 65 34 66 42 67 35 68 36 69
REMARK SMILES IDX 40 70 43 71 37 72 38 73 41 74 39 75 65 76 66 77 74 78 67 79
REMARK SMILES IDX 68 80 72 81 75 82 69 83 70 84 73 85 71 86 50 87 51 88 59 89
REMARK SMILES IDX 52 90 53 91 57 92 60 93 54 94 55 95 58 96 56 97
REMARK H PARENT 14 7 4 16 7 18 21 31 80 50 48 61
REMARK Flexibility Score: inf
ROOT
ATOM      1  C   UNL A   1      34.600  32.107  29.124  1.00  0.00     0.002 C 
ENDROOT
BRANCH   1   2
ATOM      2  C   UNL A   1      34.806  31.391  27.785  1.00  0.00     0.021 C 
BRANCH   2   3
ATOM      3  C   UNL A   1      33.635  30.558  27.274  1.00  0.00     0.116 C 
BRANCH   3   4
ATOM      4  N   UNL A   1      34.030  29.551  26.315  1.00  0.00    -0.356 N 
ATOM      5  C   UNL A   1      33.282  28.752  25.506  1.00  0.00     0.227 C 
ATOM      6  O   UNL A   1      33.901  28.096  24.662  1.00  0.00    -0.274 OA
ATOM      7  H   UNL A   1      35.001  29.420  26.234  1.00  0.00     0.163 HD
BRANCH   5   8
ATOM      8  C   UNL A   1      31.756  28.610  25.682  1.00  0.00     0.103 C 
ATOM      9  C   UNL A   1      31.470  26.230  26.025  1.00  0.00     0.107 C 
ATOM     10  C   UNL A   1      30.856  26.661  24.729  1.00  0.00    -0.006 C 
ATOM     11  C   UNL A   1      31.440  27.567  26.782  1.00  0.00     0.047 C 
ATOM     12  C   UNL A   1      31.035  27.970  24.526  1.00  0.00    -0.016 C 
BRANCH   9  13
ATOM     13  N   UNL A   1      30.686  25.179  26.609  1.00  0.00    -0.332 N 
ATOM     14  N   UNL A   1      31.877  23.193  26.086  1.00  0.00    -0.338 N 
ATOM     15  C   UNL A   1      30.890  23.857  26.710  1.00  0.00     0.315 C 
ATOM     16  H   UNL A   1      31.964  22.263  26.395  1.00  0.00     0.165 HD
ATOM     17  O   UNL A   1      30.118  23.204  27.417  1.00  0.00    -0.249 OA
ATOM     18  H   UNL A   1      29.842  25.486  27.012  1.00  0.00     0.165 HD
BRANCH  14  19
ATOM     19  C   UNL A   1      32.847  23.536  25.058  1.00  0.00     0.124 C 
BRANCH  19  20
ATOM     20  C   UNL A   1      34.309  23.253  25.448  1.00  0.00    -0.015 C 
ATOM     21  C   UNL A   1      34.388  22.863  26.934  1.00  0.00     0.013 C 
ATOM     22  C   UNL A   1      35.255  24.418  25.119  1.00  0.00     0.008 C 
ATOM     23  C   UNL A   1      34.894  22.132  24.563  1.00  0.00     0.008 C 
ATOM     24  C   UNL A   1      36.638  23.785  25.003  1.00  0.00     0.001 C 
ATOM     25  C   UNL A   1      36.407  22.337  24.579  1.00  0.00     0.001 C 
ENDBRANCH  19  20
ENDBRANCH  14  19
ENDBRANCH   9  13
ENDBRANCH   5   8
ENDBRANCH   3   4
ENDBRANCH   2   3
ENDBRANCH   1   2
BRANCH   1  26
ATOM     26  C   UNL A   1      34.753  33.630  29.117  1.00  0.00     0.002 C 
BRANCH  26  27
ATOM     27  C   UNL A   1      33.459  34.440  29.040  1.00  0.00     0.021 C 
BRANCH  27  28
ATOM     28  C   UNL A   1      33.558  35.895  29.484  1.00  0.00     0.116 C 
BRANCH  28  29
ATOM     29  N   UNL A   1      32.599  36.248  30.517  1.00  0.00    -0.352 N 
ATOM     30  C   UNL A   1      32.601  35.907  31.850  1.00  0.00     0.251 C 
ATOM     31  H   UNL A   1      31.845  36.809  30.224  1.00  0.00     0.163 HD
ATOM     32  O   UNL A   1      31.653  36.202  32.571  1.00  0.00    -0.269 OA
BRANCH  30  33
ATOM     33  C   UNL A   1      33.739  35.147  32.410  1.00  0.00     0.039 A 
ATOM     34  C   UNL A   1      33.520  33.850  32.886  1.00  0.00     0.014 A 
ATOM     35  C   UNL A   1      35.020  35.704  32.448  1.00  0.00     0.014 A 
ATOM     36  C   UNL A   1      34.600  33.083  33.329  1.00  0.00     0.010 A 
ATOM     37  C   UNL A   1      36.102  34.917  32.832  1.00  0.00     0.010 A 
ATOM     38  C   UNL A   1      35.904  33.597  33.269  1.00  0.00    -0.014 A 
BRANCH  38  39
ATOM     39  C   UNL A   1      37.087  32.788  33.659  1.00  0.00     0.031 A 
ATOM     40  C   UNL A   1      37.807  33.096  34.940  1.00  0.00     0.074 A 
ATOM     41  C   UNL A   1      37.575  31.861  32.815  1.00  0.00     0.049 A 
ATOM     42  N   UNL A   1      38.956  32.645  35.375  1.00  0.00    -0.248 NA
ATOM     43  C   UNL A   1      37.159  34.066  35.836  1.00  0.00     0.031 C 
ATOM     44  C   UNL A   1      36.986  31.494  31.528  1.00  0.00     0.029 A 
ATOM     45  N   UNL A   1      38.702  31.080  32.901  1.00  0.00    -0.354 N 
ATOM     46  C   UNL A   1      39.181  33.297  36.581  1.00  0.00     0.074 A 
ATOM     47  C   UNL A   1      38.071  34.202  36.787  1.00  0.00     0.031 C 
ATOM     48  C   UNL A   1      37.757  30.565  30.940  1.00  0.00     0.029 A 
ATOM     49  C   UNL A   1      38.917  30.303  31.789  1.00  0.00     0.049 A 
ATOM     50  H   UNL A   1      39.298  31.078  33.684  1.00  0.00     0.167 HD
ATOM     51  C   UNL A   1      40.215  33.143  37.441  1.00  0.00     0.037 A 
ATOM     52  C   UNL A   1      39.945  29.490  31.478  1.00  0.00     0.037 A 
ATOM     53  C   UNL A   1      41.302  32.222  37.245  1.00  0.00     0.049 A 
ATOM     54  C   UNL A   1      41.082  29.330  32.451  1.00  0.00     0.074 A 
ATOM     55  C   UNL A   1      42.370  31.954  38.084  1.00  0.00     0.029 A 
ATOM     56  N   UNL A   1      41.456  31.413  36.129  1.00  0.00    -0.354 N 
ATOM     57  N   UNL A   1      41.266  29.920  33.606  1.00  0.00    -0.248 NA
ATOM     58  C   UNL A   1      42.149  28.391  32.079  1.00  0.00     0.031 C 
ATOM     59  C   UNL A   1      43.190  31.009  37.459  1.00  0.00     0.029 A 
ATOM     60  C   UNL A   1      42.610  30.655  36.251  1.00  0.00     0.049 A 
ATOM     61  H   UNL A   1      40.839  31.382  35.363  1.00  0.00     0.167 HD
ATOM     62  C   UNL A   1      42.453  29.407  34.112  1.00  0.00     0.074 A 
ATOM     63  C   UNL A   1      42.945  28.454  33.139  1.00  0.00     0.031 C 
ATOM     64  C   UNL A   1      43.075  29.699  35.279  1.00  0.00     0.037 A 
BRANCH  51  65
ATOM     65  C   UNL A   1      40.216  33.998  38.675  1.00  0.00     0.064 A 
ATOM     66  C   UNL A   1      40.866  35.241  38.708  1.00  0.00     0.173 A 
ATOM     67  C   UNL A   1      39.547  33.575  39.833  1.00  0.00     0.173 A 
ATOM     68  F   UNL A   1      41.530  35.684  37.630  1.00  0.00    -0.203 F 
ATOM     69  C   UNL A   1      40.879  36.011  39.868  1.00  0.00     0.198 A 
ATOM     70  C   UNL A   1      39.537  34.362  40.982  1.00  0.00     0.198 A 
ATOM     71  F   UNL A   1      38.904  32.398  39.854  1.00  0.00    -0.203 F 
ATOM     72  F   UNL A   1      41.556  37.168  39.893  1.00  0.00    -0.200 F 
ATOM     73  C   UNL A   1      40.212  35.574  41.002  1.00  0.00     0.200 A 
ATOM     74  F   UNL A   1      38.882  33.944  42.074  1.00  0.00    -0.200 F 
ATOM     75  F   UNL A   1      40.227  36.316  42.118  1.00  0.00    -0.200 F 
ENDBRANCH  51  65
BRANCH  52  76
ATOM     76  C   UNL A   1      39.937  28.762  30.183  1.00  0.00     0.064 A 
ATOM     77  C   UNL A   1      40.518  29.322  29.039  1.00  0.00     0.173 A 
ATOM     78  C   UNL A   1      39.373  27.482  30.072  1.00  0.00     0.173 A 
ATOM     79  F   UNL A   1      41.052  30.550  29.093  1.00  0.00    -0.203 F 
ATOM     80  C   UNL A   1      40.529  28.634  27.828  1.00  0.00     0.198 A 
ATOM     81  C   UNL A   1      39.405  26.785  28.866  1.00  0.00     0.198 A 
ATOM     82  F   UNL A   1      38.809  26.901  31.141  1.00  0.00    -0.203 F 
ATOM     83  F   UNL A   1      41.066  29.203  26.740  1.00  0.00    -0.200 F 
ATOM     84  C   UNL A   1      39.979  27.363  27.744  1.00  0.00     0.200 A 
ATOM     85  F   UNL A   1      38.885  25.552  28.793  1.00  0.00    -0.200 F 
ATOM     86  F   UNL A   1      39.999  26.697  26.581  1.00  0.00    -0.200 F 
ENDBRANCH  52  76
BRANCH  64  87
ATOM     87  C   UNL A   1      44.338  28.955  35.597  1.00  0.00     0.064 A 
ATOM     88  C   UNL A   1      44.318  27.740  36.294  1.00  0.00     0.173 A 
ATOM     89  C   UNL A   1      45.572  29.427  35.127  1.00  0.00     0.173 A 
ATOM     90  F   UNL A   1      43.163  27.256  36.775  1.00  0.00    -0.203 F 
ATOM     91  C   UNL A   1      45.493  27.025  36.517  1.00  0.00     0.198 A 
ATOM     92  C   UNL A   1      46.742  28.700  35.331  1.00  0.00     0.198 A 
ATOM     93  F   UNL A   1      45.640  30.583  34.449  1.00  0.00    -0.203 F 
ATOM     94  F   UNL A   1      45.457  25.877  37.206  1.00  0.00    -0.200 F 
ATOM     95  C   UNL A   1      46.700  27.501  36.026  1.00  0.00     0.200 A 
ATOM     96  F   UNL A   1      47.905  29.155  34.847  1.00  0.00    -0.200 F 
ATOM     97  F   UNL A   1      47.827  26.804  36.226  1.00  0.00    -0.200 F 
ENDBRANCH  64  87
ENDBRANCH  38  39
ENDBRANCH  30  33
ENDBRANCH  28  29
ENDBRANCH  27  28
ENDBRANCH  26  27
ENDBRANCH   1  26
TORSDOF 16
ENDMDL
