MODEL 1
REMARK VINA RESULT:     -12.6      0.000      0.000
REMARK SMILES [NH3+]Cc1c(-c2ccccc2)c(C(=O)NCCCCCCNC(=O)c2ccc(-c3c4nc(c(-c5c(F)c(F)c(F)c(F)c5F)c5ccc([nH]5)c(-c5c(F)c(F)c(F)c(F)c5F)c5nc(c(-c6c(F)c(F)c(F)c(F)c6F)c6ccc3[nH]6)C=C5)C=C4)cc2)c2ccccn12
REMARK SMILES IDX 17 1 16 2 15 3 14 4 12 5 13 6 11 8 3 9 4 10 92 11 87 12
REMARK SMILES IDX 91 13 88 14 90 15 89 16 2 17 1 18 5 22 6 23 10 24 7 25 9 26
REMARK SMILES IDX 8 27 18 28 19 29 20 30 21 31 22 32 23 34 24 35 25 36 86 37
REMARK SMILES IDX 26 38 85 39 27 40 28 41 29 42 79 43 30 44 84 45 78 46 80 47
REMARK SMILES IDX 31 48 83 49 77 50 76 51 32 53 64 54 44 55 63 56 45 57 48 58
REMARK SMILES IDX 62 59 81 60 46 61 47 62 61 64 82 65 49 66 33 67 34 68 42 69
REMARK SMILES IDX 35 70 36 71 40 72 43 73 37 74 38 75 41 76 39 77 65 78 66 79
REMARK SMILES IDX 74 80 67 81 68 82 72 83 75 84 69 85 70 86 73 87 71 88 50 89
REMARK SMILES IDX 51 90 59 91 52 92 53 93 57 94 60 95 54 96 55 97 58 98 56 99
REMARK H PARENT 14 7 1 19 1 20 1 21 21 33 80 52 48 63
REMARK Flexibility Score: inf
ROOT
ATOM      1  C   UNL A   1      31.764  29.584  26.829  1.00  0.00     0.002 C 
ENDROOT
BRANCH   1   2
ATOM      2  C   UNL A   1      33.187  29.231  27.268  1.00  0.00     0.021 C 
BRANCH   2   3
ATOM      3  C   UNL A   1      33.894  28.118  26.503  1.00  0.00     0.116 C 
BRANCH   3   4
ATOM      4  N   UNL A   1      34.283  28.443  25.153  1.00  0.00    -0.352 N 
ATOM      5  C   UNL A   1      33.653  28.196  23.951  1.00  0.00     0.254 C 
ATOM      6  O   UNL A   1      34.185  28.693  22.957  1.00  0.00    -0.269 OA
ATOM      7  H   UNL A   1      35.140  28.921  25.076  1.00  0.00     0.163 HD
BRANCH   5   8
ATOM      8  C   UNL A   1      32.473  27.326  23.845  1.00  0.00     0.073 A 
ATOM      9  C   UNL A   1      31.186  25.407  23.907  1.00  0.00     0.086 A 
ATOM     10  C   UNL A   1      32.490  25.887  24.001  1.00  0.00     0.022 A 
ATOM     11  N   UNL A   1      30.368  26.512  23.755  1.00  0.00    -0.314 N 
ATOM     12  C   UNL A   1      31.164  27.625  23.478  1.00  0.00     0.059 A 
ATOM     13  C   UNL A   1      28.971  26.589  23.822  1.00  0.00     0.092 A 
ATOM     14  C   UNL A   1      30.483  28.769  22.959  1.00  0.00     0.027 A 
ATOM     15  C   UNL A   1      28.347  27.734  23.505  1.00  0.00     0.018 A 
ATOM     16  C   UNL A   1      29.140  28.837  23.003  1.00  0.00     0.004 A 
BRANCH   9  17
ATOM     17  C   UNL A   1      30.661  24.009  23.982  1.00  0.00     0.315 C 
BRANCH  17  18
ATOM     18  N   UNL A   1      30.479  23.580  25.365  1.00  0.00    -0.353 N 
ATOM     19  H   UNL A   1      29.831  22.792  25.395  1.00  0.00     0.344 HD
ATOM     20  H   UNL A   1      30.101  24.352  25.913  1.00  0.00     0.344 HD
ATOM     21  H   UNL A   1      31.378  23.296  25.754  1.00  0.00     0.344 HD
ENDBRANCH  17  18
ENDBRANCH   9  17
BRANCH  10  22
ATOM     22  C   UNL A   1      33.637  25.015  24.216  1.00  0.00    -0.016 A 
ATOM     23  C   UNL A   1      34.235  24.345  23.143  1.00  0.00     0.009 A 
ATOM     24  C   UNL A   1      34.126  24.809  25.513  1.00  0.00     0.009 A 
ATOM     25  C   UNL A   1      35.306  23.477  23.368  1.00  0.00     0.001 A 
ATOM     26  C   UNL A   1      35.200  23.944  25.734  1.00  0.00     0.001 A 
ATOM     27  C   UNL A   1      35.786  23.276  24.662  1.00  0.00     0.000 A 
ENDBRANCH  10  22
ENDBRANCH   5   8
ENDBRANCH   3   4
ENDBRANCH   2   3
ENDBRANCH   1   2
BRANCH   1  28
ATOM     28  C   UNL A   1      31.598  30.778  25.884  1.00  0.00     0.002 C 
BRANCH  28  29
ATOM     29  C   UNL A   1      31.350  32.143  26.528  1.00  0.00     0.021 C 
BRANCH  29  30
ATOM     30  C   UNL A   1      32.534  32.771  27.254  1.00  0.00     0.116 C 
BRANCH  30  31
ATOM     31  N   UNL A   1      32.317  34.164  27.600  1.00  0.00    -0.352 N 
ATOM     32  C   UNL A   1      32.951  34.951  28.532  1.00  0.00     0.251 C 
ATOM     33  H   UNL A   1      31.608  34.615  27.088  1.00  0.00     0.163 HD
ATOM     34  O   UNL A   1      32.529  36.076  28.773  1.00  0.00    -0.269 OA
BRANCH  32  35
ATOM     35  C   UNL A   1      34.125  34.436  29.271  1.00  0.00     0.039 A 
ATOM     36  C   UNL A   1      33.920  33.830  30.514  1.00  0.00     0.014 A 
ATOM     37  C   UNL A   1      35.421  34.558  28.760  1.00  0.00     0.014 A 
ATOM     38  C   UNL A   1      35.001  33.285  31.210  1.00  0.00     0.010 A 
ATOM     39  C   UNL A   1      36.488  33.952  29.420  1.00  0.00     0.010 A 
ATOM     40  C   UNL A   1      36.289  33.305  30.650  1.00  0.00    -0.014 A 
BRANCH  40  41
ATOM     41  C   UNL A   1      37.431  32.637  31.325  1.00  0.00     0.031 A 
ATOM     42  C   UNL A   1      38.136  31.482  30.670  1.00  0.00     0.074 A 
ATOM     43  C   UNL A   1      37.792  33.031  32.562  1.00  0.00     0.049 A 
ATOM     44  N   UNL A   1      39.103  30.730  31.133  1.00  0.00    -0.248 NA
ATOM     45  C   UNL A   1      37.677  31.108  29.323  1.00  0.00     0.031 C 
ATOM     46  C   UNL A   1      37.159  34.112  33.321  1.00  0.00     0.029 A 
ATOM     47  N   UNL A   1      38.769  32.563  33.405  1.00  0.00    -0.354 N 
ATOM     48  C   UNL A   1      39.359  29.791  30.143  1.00  0.00     0.074 A 
ATOM     49  C   UNL A   1      38.412  30.032  29.077  1.00  0.00     0.031 C 
ATOM     50  C   UNL A   1      37.777  34.237  34.506  1.00  0.00     0.029 A 
ATOM     51  C   UNL A   1      38.817  33.219  34.611  1.00  0.00     0.049 A 
ATOM     52  H   UNL A   1      39.379  31.827  33.167  1.00  0.00     0.167 HD
ATOM     53  C   UNL A   1      40.314  28.830  30.117  1.00  0.00     0.037 A 
ATOM     54  C   UNL A   1      39.602  33.014  35.687  1.00  0.00     0.037 A 
ATOM     55  C   UNL A   1      41.264  28.603  31.176  1.00  0.00     0.049 A 
ATOM     56  C   UNL A   1      40.634  31.920  35.642  1.00  0.00     0.074 A 
ATOM     57  C   UNL A   1      42.304  27.690  31.222  1.00  0.00     0.029 A 
ATOM     58  N   UNL A   1      41.283  29.289  32.382  1.00  0.00    -0.354 N 
ATOM     59  N   UNL A   1      40.914  31.083  34.673  1.00  0.00    -0.248 NA
ATOM     60  C   UNL A   1      41.465  31.745  36.843  1.00  0.00     0.031 C 
ATOM     61  C   UNL A   1      42.915  27.784  32.476  1.00  0.00     0.029 A 
ATOM     62  C   UNL A   1      42.297  28.798  33.190  1.00  0.00     0.049 A 
ATOM     63  H   UNL A   1      40.668  30.017  32.627  1.00  0.00     0.167 HD
ATOM     64  C   UNL A   1      41.967  30.303  35.133  1.00  0.00     0.074 A 
ATOM     65  C   UNL A   1      42.289  30.781  36.462  1.00  0.00     0.031 C 
ATOM     66  C   UNL A   1      42.609  29.284  34.512  1.00  0.00     0.037 A 
BRANCH  53  67
ATOM     67  C   UNL A   1      40.378  27.942  28.906  1.00  0.00     0.064 A 
ATOM     68  C   UNL A   1      39.657  26.741  28.832  1.00  0.00     0.173 A 
ATOM     69  C   UNL A   1      41.136  28.320  27.786  1.00  0.00     0.173 A 
ATOM     70  F   UNL A   1      38.923  26.328  29.876  1.00  0.00    -0.203 F 
ATOM     71  C   UNL A   1      39.718  25.936  27.697  1.00  0.00     0.198 A 
ATOM     72  C   UNL A   1      41.168  27.529  26.641  1.00  0.00     0.198 A 
ATOM     73  F   UNL A   1      41.840  29.462  27.799  1.00  0.00    -0.203 F 
ATOM     74  F   UNL A   1      39.062  24.767  27.671  1.00  0.00    -0.200 F 
ATOM     75  C   UNL A   1      40.466  26.334  26.600  1.00  0.00     0.200 A 
ATOM     76  F   UNL A   1      41.879  27.924  25.575  1.00  0.00    -0.200 F 
ATOM     77  F   UNL A   1      40.517  25.563  25.505  1.00  0.00    -0.200 F 
ENDBRANCH  53  67
BRANCH  54  78
ATOM     78  C   UNL A   1      39.449  33.870  36.893  1.00  0.00     0.064 A 
ATOM     79  C   UNL A   1      40.074  35.122  36.973  1.00  0.00     0.173 A 
ATOM     80  C   UNL A   1      38.684  33.452  37.993  1.00  0.00     0.173 A 
ATOM     81  F   UNL A   1      40.832  35.557  35.956  1.00  0.00    -0.203 F 
ATOM     82  C   UNL A   1      39.960  35.913  38.114  1.00  0.00     0.198 A 
ATOM     83  C   UNL A   1      38.544  34.258  39.121  1.00  0.00     0.198 A 
ATOM     84  F   UNL A   1      38.061  32.265  37.967  1.00  0.00    -0.203 F 
ATOM     85  F   UNL A   1      40.611  37.082  38.184  1.00  0.00    -0.200 F 
ATOM     86  C   UNL A   1      39.190  35.483  39.185  1.00  0.00     0.200 A 
ATOM     87  F   UNL A   1      37.786  33.846  40.145  1.00  0.00    -0.200 F 
ATOM     88  F   UNL A   1      39.078  36.246  40.281  1.00  0.00    -0.200 F 
ENDBRANCH  54  78
BRANCH  66  89
ATOM     89  C   UNL A   1      43.746  28.635  35.247  1.00  0.00     0.064 A 
ATOM     90  C   UNL A   1      45.068  29.088  35.112  1.00  0.00     0.173 A 
ATOM     91  C   UNL A   1      43.507  27.565  36.124  1.00  0.00     0.173 A 
ATOM     92  F   UNL A   1      45.353  30.096  34.274  1.00  0.00    -0.203 F 
ATOM     93  C   UNL A   1      46.109  28.476  35.804  1.00  0.00     0.198 A 
ATOM     94  C   UNL A   1      44.546  26.979  36.841  1.00  0.00     0.198 A 
ATOM     95  F   UNL A   1      42.262  27.097  36.295  1.00  0.00    -0.203 F 
ATOM     96  F   UNL A   1      47.370  28.890  35.617  1.00  0.00    -0.200 F 
ATOM     97  C   UNL A   1      45.848  27.428  36.674  1.00  0.00     0.200 A 
ATOM     98  F   UNL A   1      44.288  25.977  37.694  1.00  0.00    -0.200 F 
ATOM     99  F   UNL A   1      46.850  26.846  37.346  1.00  0.00    -0.200 F 
ENDBRANCH  66  89
ENDBRANCH  40  41
ENDBRANCH  32  35
ENDBRANCH  30  31
ENDBRANCH  29  30
ENDBRANCH  28  29
ENDBRANCH   1  28
TORSDOF 16
ENDMDL
MODEL 2
REMARK VINA RESULT:     -12.5      5.684     11.093
REMARK SMILES [NH3+]Cc1c(-c2ccccc2)c(C(=O)NCCCCCCNC(=O)c2ccc(-c3c4nc(c(-c5c(F)c(F)c(F)c(F)c5F)c5ccc([nH]5)c(-c5c(F)c(F)c(F)c(F)c5F)c5nc(c(-c6c(F)c(F)c(F)c(F)c6F)c6ccc3[nH]6)C=C5)C=C4)cc2)c2ccccn12
REMARK SMILES IDX 17 1 16 2 15 3 14 4 12 5 13 6 11 8 3 9 4 10 92 11 87 12
REMARK SMILES IDX 91 13 88 14 90 15 89 16 2 17 1 18 5 22 6 23 10 24 7 25 9 26
REMARK SMILES IDX 8 27 18 28 19 29 20 30 21 31 22 32 23 34 24 35 25 36 86 37
REMARK SMILES IDX 26 38 85 39 27 40 28 41 29 42 79 43 30 44 84 45 78 46 80 47
REMARK SMILES IDX 31 48 83 49 77 50 76 51 32 53 64 54 44 55 63 56 45 57 48 58
REMARK SMILES IDX 62 59 81 60 46 61 47 62 61 64 82 65 49 66 33 67 34 68 42 69
REMARK SMILES IDX 35 70 36 71 40 72 43 73 37 74 38 75 41 76 39 77 65 78 66 79
REMARK SMILES IDX 74 80 67 81 68 82 72 83 75 84 69 85 70 86 73 87 71 88 50 89
REMARK SMILES IDX 51 90 59 91 52 92 53 93 57 94 60 95 54 96 55 97 58 98 56 99
REMARK H PARENT 14 7 1 19 1 20 1 21 21 33 80 52 48 63
REMARK Flexibility Score: inf
ROOT
ATOM      1  C   UNL A   1      36.928  21.831  24.339  1.00  0.00     0.002 C 
ENDROOT
BRANCH   1   2
ATOM      2  C   UNL A   1      37.429  22.980  25.218  1.00  0.00     0.021 C 
BRANCH   2   3
ATOM      3  C   UNL A   1      36.383  23.952  25.751  1.00  0.00     0.116 C 
BRANCH   3   4
ATOM      4  N   UNL A   1      35.593  23.469  26.857  1.00  0.00    -0.352 N 
ATOM      5  C   UNL A   1      34.320  22.938  26.890  1.00  0.00     0.254 C 
ATOM      6  O   UNL A   1      33.946  22.512  27.983  1.00  0.00    -0.269 OA
ATOM      7  H   UNL A   1      36.036  23.527  27.734  1.00  0.00     0.163 HD
BRANCH   5   8
ATOM      8  C   UNL A   1      33.429  22.956  25.720  1.00  0.00     0.073 A 
ATOM      9  C   UNL A   1      32.082  23.790  24.038  1.00  0.00     0.086 A 
ATOM     10  C   UNL A   1      32.790  24.139  25.185  1.00  0.00     0.022 A 
ATOM     11  N   UNL A   1      32.316  22.444  23.822  1.00  0.00    -0.314 N 
ATOM     12  C   UNL A   1      32.919  21.906  24.961  1.00  0.00     0.059 A 
ATOM     13  C   UNL A   1      32.006  21.665  22.700  1.00  0.00     0.092 A 
ATOM     14  C   UNL A   1      32.922  20.480  25.055  1.00  0.00     0.027 A 
ATOM     15  C   UNL A   1      32.185  20.335  22.738  1.00  0.00     0.018 A 
ATOM     16  C   UNL A   1      32.605  19.729  23.984  1.00  0.00     0.004 A 
BRANCH   9  17
ATOM     17  C   UNL A   1      31.243  24.628  23.126  1.00  0.00     0.315 C 
BRANCH  17  18
ATOM     18  N   UNL A   1      29.903  24.828  23.665  1.00  0.00    -0.353 N 
ATOM     19  H   UNL A   1      29.949  25.449  24.473  1.00  0.00     0.344 HD
ATOM     20  H   UNL A   1      29.513  23.930  23.949  1.00  0.00     0.344 HD
ATOM     21  H   UNL A   1      29.307  25.245  22.949  1.00  0.00     0.344 HD
ENDBRANCH  17  18
ENDBRANCH   9  17
BRANCH  10  22
ATOM     22  C   UNL A   1      32.826  25.499  25.705  1.00  0.00    -0.016 A 
ATOM     23  C   UNL A   1      31.784  25.987  26.501  1.00  0.00     0.009 A 
ATOM     24  C   UNL A   1      33.895  26.345  25.378  1.00  0.00     0.009 A 
ATOM     25  C   UNL A   1      31.808  27.307  26.957  1.00  0.00     0.001 A 
ATOM     26  C   UNL A   1      33.919  27.663  25.840  1.00  0.00     0.001 A 
ATOM     27  C   UNL A   1      32.874  28.144  26.625  1.00  0.00     0.000 A 
ENDBRANCH  10  22
ENDBRANCH   5   8
ENDBRANCH   3   4
ENDBRANCH   2   3
ENDBRANCH   1   2
BRANCH   1  28
ATOM     28  C   UNL A   1      36.769  20.459  25.001  1.00  0.00     0.002 C 
BRANCH  28  29
ATOM     29  C   UNL A   1      37.986  19.532  24.977  1.00  0.00     0.021 C 
BRANCH  29  30
ATOM     30  C   UNL A   1      39.210  20.007  25.751  1.00  0.00     0.116 C 
BRANCH  30  31
ATOM     31  N   UNL A   1      40.234  18.985  25.881  1.00  0.00    -0.352 N 
ATOM     32  C   UNL A   1      41.581  19.111  26.124  1.00  0.00     0.251 C 
ATOM     33  H   UNL A   1      39.915  18.060  25.779  1.00  0.00     0.163 HD
ATOM     34  O   UNL A   1      42.310  18.128  26.063  1.00  0.00    -0.269 OA
BRANCH  32  35
ATOM     35  C   UNL A   1      42.164  20.437  26.430  1.00  0.00     0.039 A 
ATOM     36  C   UNL A   1      42.656  21.211  25.376  1.00  0.00     0.014 A 
ATOM     37  C   UNL A   1      42.244  20.913  27.742  1.00  0.00     0.014 A 
ATOM     38  C   UNL A   1      43.162  22.489  25.627  1.00  0.00     0.010 A 
ATOM     39  C   UNL A   1      42.682  22.214  27.983  1.00  0.00     0.010 A 
ATOM     40  C   UNL A   1      43.141  23.017  26.928  1.00  0.00    -0.014 A 
BRANCH  40  41
ATOM     41  C   UNL A   1      43.575  24.412  27.198  1.00  0.00     0.031 A 
ATOM     42  C   UNL A   1      42.598  25.428  27.720  1.00  0.00     0.074 A 
ATOM     43  C   UNL A   1      44.839  24.780  26.908  1.00  0.00     0.049 A 
ATOM     44  N   UNL A   1      42.773  26.706  27.948  1.00  0.00    -0.248 NA
ATOM     45  C   UNL A   1      41.237  24.949  28.003  1.00  0.00     0.031 C 
ATOM     46  C   UNL A   1      45.870  23.898  26.358  1.00  0.00     0.029 A 
ATOM     47  N   UNL A   1      45.470  25.994  27.024  1.00  0.00    -0.354 N 
ATOM     48  C   UNL A   1      41.546  27.183  28.389  1.00  0.00     0.074 A 
ATOM     49  C   UNL A   1      40.621  26.072  28.346  1.00  0.00     0.031 C 
ATOM     50  C   UNL A   1      47.008  24.593  26.204  1.00  0.00     0.029 A 
ATOM     51  C   UNL A   1      46.777  25.978  26.600  1.00  0.00     0.049 A 
ATOM     52  H   UNL A   1      45.028  26.800  27.378  1.00  0.00     0.167 HD
ATOM     53  C   UNL A   1      41.227  28.430  28.812  1.00  0.00     0.037 A 
ATOM     54  C   UNL A   1      47.683  26.972  26.527  1.00  0.00     0.037 A 
ATOM     55  C   UNL A   1      42.156  29.530  28.866  1.00  0.00     0.049 A 
ATOM     56  C   UNL A   1      47.294  28.354  26.976  1.00  0.00     0.074 A 
ATOM     57  C   UNL A   1      41.944  30.817  29.330  1.00  0.00     0.029 A 
ATOM     58  N   UNL A   1      43.472  29.475  28.430  1.00  0.00    -0.354 N 
ATOM     59  N   UNL A   1      46.150  28.778  27.456  1.00  0.00    -0.248 NA
ATOM     60  C   UNL A   1      48.325  29.397  26.877  1.00  0.00     0.031 C 
ATOM     61  C   UNL A   1      43.113  31.556  29.122  1.00  0.00     0.029 A 
ATOM     62  C   UNL A   1      44.074  30.714  28.587  1.00  0.00     0.049 A 
ATOM     63  H   UNL A   1      43.914  28.675  28.065  1.00  0.00     0.167 HD
ATOM     64  C   UNL A   1      46.331  30.125  27.742  1.00  0.00     0.074 A 
ATOM     65  C   UNL A   1      47.701  30.443  27.399  1.00  0.00     0.031 C 
ATOM     66  C   UNL A   1      45.442  31.018  28.243  1.00  0.00     0.037 A 
BRANCH  53  67
ATOM     67  C   UNL A   1      39.810  28.678  29.248  1.00  0.00     0.064 A 
ATOM     68  C   UNL A   1      39.406  28.502  30.579  1.00  0.00     0.173 A 
ATOM     69  C   UNL A   1      38.853  29.136  28.329  1.00  0.00     0.173 A 
ATOM     70  F   UNL A   1      40.278  28.057  31.497  1.00  0.00    -0.203 F 
ATOM     71  C   UNL A   1      38.091  28.746  30.969  1.00  0.00     0.198 A 
ATOM     72  C   UNL A   1      37.548  29.412  28.729  1.00  0.00     0.198 A 
ATOM     73  F   UNL A   1      39.185  29.328  27.043  1.00  0.00    -0.203 F 
ATOM     74  F   UNL A   1      37.717  28.521  32.236  1.00  0.00    -0.200 F 
ATOM     75  C   UNL A   1      37.165  29.208  30.046  1.00  0.00     0.200 A 
ATOM     76  F   UNL A   1      36.659  29.873  27.838  1.00  0.00    -0.200 F 
ATOM     77  F   UNL A   1      35.903  29.452  30.424  1.00  0.00    -0.200 F 
ENDBRANCH  53  67
BRANCH  54  78
ATOM     78  C   UNL A   1      49.052  26.694  26.016  1.00  0.00     0.064 A 
ATOM     79  C   UNL A   1      50.043  26.167  26.857  1.00  0.00     0.173 A 
ATOM     80  C   UNL A   1      49.402  26.956  24.682  1.00  0.00     0.173 A 
ATOM     81  F   UNL A   1      49.763  25.919  28.145  1.00  0.00    -0.203 F 
ATOM     82  C   UNL A   1      51.335  25.935  26.391  1.00  0.00     0.198 A 
ATOM     83  C   UNL A   1      50.685  26.694  24.209  1.00  0.00     0.198 A 
ATOM     84  F   UNL A   1      48.491  27.455  23.834  1.00  0.00    -0.203 F 
ATOM     85  F   UNL A   1      52.275  25.481  27.230  1.00  0.00    -0.200 F 
ATOM     86  C   UNL A   1      51.654  26.193  25.066  1.00  0.00     0.200 A 
ATOM     87  F   UNL A   1      50.984  26.928  22.924  1.00  0.00    -0.200 F 
ATOM     88  F   UNL A   1      52.896  25.966  24.618  1.00  0.00    -0.200 F 
ENDBRANCH  54  78
BRANCH  66  89
ATOM     89  C   UNL A   1      45.931  32.418  28.481  1.00  0.00     0.064 A 
ATOM     90  C   UNL A   1      45.828  33.414  27.498  1.00  0.00     0.173 A 
ATOM     91  C   UNL A   1      46.480  32.776  29.722  1.00  0.00     0.173 A 
ATOM     92  F   UNL A   1      45.325  33.119  26.290  1.00  0.00    -0.203 F 
ATOM     93  C   UNL A   1      46.283  34.708  27.739  1.00  0.00     0.198 A 
ATOM     94  C   UNL A   1      46.902  34.079  29.971  1.00  0.00     0.198 A 
ATOM     95  F   UNL A   1      46.597  31.865  30.699  1.00  0.00    -0.203 F 
ATOM     96  F   UNL A   1      46.225  35.628  26.767  1.00  0.00    -0.200 F 
ATOM     97  C   UNL A   1      46.812  35.041  28.976  1.00  0.00     0.200 A 
ATOM     98  F   UNL A   1      47.398  34.403  31.173  1.00  0.00    -0.200 F 
ATOM     99  F   UNL A   1      47.242  36.289  29.209  1.00  0.00    -0.200 F 
ENDBRANCH  66  89
ENDBRANCH  40  41
ENDBRANCH  32  35
ENDBRANCH  30  31
ENDBRANCH  29  30
ENDBRANCH  28  29
ENDBRANCH   1  28
TORSDOF 16
ENDMDL
MODEL 3
REMARK VINA RESULT:     -12.4      5.714     11.084
REMARK SMILES [NH3+]Cc1c(-c2ccccc2)c(C(=O)NCCCCCCNC(=O)c2ccc(-c3c4nc(c(-c5c(F)c(F)c(F)c(F)c5F)c5ccc([nH]5)c(-c5c(F)c(F)c(F)c(F)c5F)c5nc(c(-c6c(F)c(F)c(F)c(F)c6F)c6ccc3[nH]6)C=C5)C=C4)cc2)c2ccccn12
REMARK SMILES IDX 17 1 16 2 15 3 14 4 12 5 13 6 11 8 3 9 4 10 92 11 87 12
REMARK SMILES IDX 91 13 88 14 90 15 89 16 2 17 1 18 5 22 6 23 10 24 7 25 9 26
REMARK SMILES IDX 8 27 18 28 19 29 20 30 21 31 22 32 23 34 24 35 25 36 86 37
REMARK SMILES IDX 26 38 85 39 27 40 28 41 29 42 79 43 30 44 84 45 78 46 80 47
REMARK SMILES IDX 31 48 83 49 77 50 76 51 32 53 64 54 44 55 63 56 45 57 48 58
REMARK SMILES IDX 62 59 81 60 46 61 47 62 61 64 82 65 49 66 33 67 34 68 42 69
REMARK SMILES IDX 35 70 36 71 40 72 43 73 37 74 38 75 41 76 39 77 65 78 66 79
REMARK SMILES IDX 74 80 67 81 68 82 72 83 75 84 69 85 70 86 73 87 71 88 50 89
REMARK SMILES IDX 51 90 59 91 52 92 53 93 57 94 60 95 54 96 55 97 58 98 56 99
REMARK H PARENT 14 7 1 19 1 20 1 21 21 33 80 52 48 63
REMARK Flexibility Score: inf
ROOT
ATOM      1  C   UNL A   1      36.987  21.822  24.362  1.00  0.00     0.002 C 
ENDROOT
BRANCH   1   2
ATOM      2  C   UNL A   1      37.455  22.971  25.259  1.00  0.00     0.021 C 
BRANCH   2   3
ATOM      3  C   UNL A   1      36.387  23.924  25.780  1.00  0.00     0.116 C 
BRANCH   3   4
ATOM      4  N   UNL A   1      35.575  23.416  26.859  1.00  0.00    -0.352 N 
ATOM      5  C   UNL A   1      34.309  22.868  26.852  1.00  0.00     0.254 C 
ATOM      6  O   UNL A   1      33.913  22.423  27.929  1.00  0.00    -0.269 OA
ATOM      7  H   UNL A   1      35.994  23.468  27.748  1.00  0.00     0.163 HD
BRANCH   5   8
ATOM      8  C   UNL A   1      33.449  22.889  25.659  1.00  0.00     0.073 A 
ATOM      9  C   UNL A   1      32.142  23.728  23.948  1.00  0.00     0.086 A 
ATOM     10  C   UNL A   1      32.817  24.073  25.116  1.00  0.00     0.022 A 
ATOM     11  N   UNL A   1      32.387  22.384  23.730  1.00  0.00    -0.314 N 
ATOM     12  C   UNL A   1      32.964  21.842  24.880  1.00  0.00     0.059 A 
ATOM     13  C   UNL A   1      32.110  21.611  22.596  1.00  0.00     0.092 A 
ATOM     14  C   UNL A   1      32.971  20.416  24.966  1.00  0.00     0.027 A 
ATOM     15  C   UNL A   1      32.295  20.282  22.629  1.00  0.00     0.018 A 
ATOM     16  C   UNL A   1      32.686  19.670  23.882  1.00  0.00     0.004 A 
BRANCH   9  17
ATOM     17  C   UNL A   1      31.323  24.568  23.020  1.00  0.00     0.315 C 
BRANCH  17  18
ATOM     18  N   UNL A   1      29.900  24.266  23.140  1.00  0.00    -0.353 N 
ATOM     19  H   UNL A   1      29.781  23.365  23.602  1.00  0.00     0.344 HD
ATOM     20  H   UNL A   1      29.481  24.230  22.211  1.00  0.00     0.344 HD
ATOM     21  H   UNL A   1      29.443  24.994  23.690  1.00  0.00     0.344 HD
ENDBRANCH  17  18
ENDBRANCH   9  17
BRANCH  10  22
ATOM     22  C   UNL A   1      32.834  25.430  25.645  1.00  0.00    -0.016 A 
ATOM     23  C   UNL A   1      31.785  25.896  26.445  1.00  0.00     0.009 A 
ATOM     24  C   UNL A   1      33.889  26.294  25.323  1.00  0.00     0.009 A 
ATOM     25  C   UNL A   1      31.790  27.214  26.911  1.00  0.00     0.001 A 
ATOM     26  C   UNL A   1      33.894  27.609  25.794  1.00  0.00     0.001 A 
ATOM     27  C   UNL A   1      32.842  28.069  26.583  1.00  0.00     0.000 A 
ENDBRANCH  10  22
ENDBRANCH   5   8
ENDBRANCH   3   4
ENDBRANCH   2   3
ENDBRANCH   1   2
BRANCH   1  28
ATOM     28  C   UNL A   1      36.837  20.442  25.011  1.00  0.00     0.002 C 
BRANCH  28  29
ATOM     29  C   UNL A   1      38.054  19.517  24.963  1.00  0.00     0.021 C 
BRANCH  29  30
ATOM     30  C   UNL A   1      39.282  19.979  25.740  1.00  0.00     0.116 C 
BRANCH  30  31
ATOM     31  N   UNL A   1      40.312  18.960  25.836  1.00  0.00    -0.352 N 
ATOM     32  C   UNL A   1      41.661  19.088  26.067  1.00  0.00     0.251 C 
ATOM     33  H   UNL A   1      39.996  18.035  25.717  1.00  0.00     0.163 HD
ATOM     34  O   UNL A   1      42.394  18.110  25.976  1.00  0.00    -0.269 OA
BRANCH  32  35
ATOM     35  C   UNL A   1      42.241  20.409  26.397  1.00  0.00     0.039 A 
ATOM     36  C   UNL A   1      42.754  21.192  25.359  1.00  0.00     0.014 A 
ATOM     37  C   UNL A   1      42.298  20.872  27.714  1.00  0.00     0.014 A 
ATOM     38  C   UNL A   1      43.257  22.466  25.632  1.00  0.00     0.010 A 
ATOM     39  C   UNL A   1      42.733  22.170  27.976  1.00  0.00     0.010 A 
ATOM     40  C   UNL A   1      43.213  22.982  26.937  1.00  0.00    -0.014 A 
BRANCH  40  41
ATOM     41  C   UNL A   1      43.645  24.373  27.228  1.00  0.00     0.031 A 
ATOM     42  C   UNL A   1      42.660  25.387  27.741  1.00  0.00     0.074 A 
ATOM     43  C   UNL A   1      44.915  24.742  26.967  1.00  0.00     0.049 A 
ATOM     44  N   UNL A   1      42.833  26.662  27.984  1.00  0.00    -0.248 NA
ATOM     45  C   UNL A   1      41.293  24.908  27.993  1.00  0.00     0.031 C 
ATOM     46  C   UNL A   1      45.954  23.862  26.428  1.00  0.00     0.029 A 
ATOM     47  N   UNL A   1      45.546  25.953  27.106  1.00  0.00    -0.354 N 
ATOM     48  C   UNL A   1      41.599  27.138  28.406  1.00  0.00     0.074 A 
ATOM     49  C   UNL A   1      40.673  26.029  28.335  1.00  0.00     0.031 C 
ATOM     50  C   UNL A   1      47.096  24.556  26.303  1.00  0.00     0.029 A 
ATOM     51  C   UNL A   1      46.861  25.938  26.708  1.00  0.00     0.049 A 
ATOM     52  H   UNL A   1      45.099  26.756  27.459  1.00  0.00     0.167 HD
ATOM     53  C   UNL A   1      41.275  28.382  28.834  1.00  0.00     0.037 A 
ATOM     54  C   UNL A   1      47.771  26.931  26.661  1.00  0.00     0.037 A 
ATOM     55  C   UNL A   1      42.204  29.479  28.916  1.00  0.00     0.049 A 
ATOM     56  C   UNL A   1      47.375  28.309  27.115  1.00  0.00     0.074 A 
ATOM     57  C   UNL A   1      41.986  30.762  29.389  1.00  0.00     0.029 A 
ATOM     58  N   UNL A   1      43.529  29.425  28.506  1.00  0.00    -0.354 N 
ATOM     59  N   UNL A   1      46.223  28.731  27.578  1.00  0.00    -0.248 NA
ATOM     60  C   UNL A   1      48.410  29.351  27.046  1.00  0.00     0.031 C 
ATOM     61  C   UNL A   1      43.161  31.500  29.210  1.00  0.00     0.029 A 
ATOM     62  C   UNL A   1      44.130  30.661  28.686  1.00  0.00     0.049 A 
ATOM     63  H   UNL A   1      43.975  28.627  28.142  1.00  0.00     0.167 HD
ATOM     64  C   UNL A   1      46.401  30.075  27.879  1.00  0.00     0.074 A 
ATOM     65  C   UNL A   1      47.779  30.393  27.566  1.00  0.00     0.031 C 
ATOM     66  C   UNL A   1      45.505  30.965  28.371  1.00  0.00     0.037 A 
BRANCH  53  67
ATOM     67  C   UNL A   1      39.850  28.628  29.245  1.00  0.00     0.064 A 
ATOM     68  C   UNL A   1      39.410  28.401  30.558  1.00  0.00     0.173 A 
ATOM     69  C   UNL A   1      38.922  29.138  28.324  1.00  0.00     0.173 A 
ATOM     70  F   UNL A   1      40.253  27.905  31.476  1.00  0.00    -0.203 F 
ATOM     71  C   UNL A   1      38.089  28.644  30.925  1.00  0.00     0.198 A 
ATOM     72  C   UNL A   1      37.610  29.413  28.702  1.00  0.00     0.198 A 
ATOM     73  F   UNL A   1      39.289  29.381  27.056  1.00  0.00    -0.203 F 
ATOM     74  F   UNL A   1      37.680  28.370  32.171  1.00  0.00    -0.200 F 
ATOM     75  C   UNL A   1      37.192  29.158  29.999  1.00  0.00     0.200 A 
ATOM     76  F   UNL A   1      36.750  29.924  27.811  1.00  0.00    -0.200 F 
ATOM     77  F   UNL A   1      35.924  29.401  30.356  1.00  0.00    -0.200 F 
ENDBRANCH  53  67
BRANCH  54  78
ATOM     78  C   UNL A   1      49.148  26.654  26.174  1.00  0.00     0.064 A 
ATOM     79  C   UNL A   1      49.509  26.913  24.843  1.00  0.00     0.173 A 
ATOM     80  C   UNL A   1      50.130  26.118  27.021  1.00  0.00     0.173 A 
ATOM     81  F   UNL A   1      48.600  27.407  23.989  1.00  0.00    -0.203 F 
ATOM     82  C   UNL A   1      50.788  26.625  24.374  1.00  0.00     0.198 A 
ATOM     83  C   UNL A   1      51.418  25.860  26.560  1.00  0.00     0.198 A 
ATOM     84  F   UNL A   1      49.839  25.856  28.304  1.00  0.00    -0.203 F 
ATOM     85  F   UNL A   1      51.089  26.834  23.086  1.00  0.00    -0.200 F 
ATOM     86  C   UNL A   1      51.744  26.105  25.234  1.00  0.00     0.200 A 
ATOM     87  F   UNL A   1      52.343  25.374  27.398  1.00  0.00    -0.200 F 
ATOM     88  F   UNL A   1      52.976  25.832  24.783  1.00  0.00    -0.200 F 
ENDBRANCH  54  78
BRANCH  66  89
ATOM     89  C   UNL A   1      45.992  32.361  28.632  1.00  0.00     0.064 A 
ATOM     90  C   UNL A   1      46.568  32.726  29.859  1.00  0.00     0.173 A 
ATOM     91  C   UNL A   1      45.911  33.341  27.630  1.00  0.00     0.173 A 
ATOM     92  F   UNL A   1      46.654  31.831  30.855  1.00  0.00    -0.203 F 
ATOM     93  C   UNL A   1      47.017  34.025  30.082  1.00  0.00     0.198 A 
ATOM     94  C   UNL A   1      46.393  34.629  27.844  1.00  0.00     0.198 A 
ATOM     95  F   UNL A   1      45.375  33.045  26.437  1.00  0.00    -0.203 F 
ATOM     96  F   UNL A   1      47.513  34.363  31.279  1.00  0.00    -0.200 F 
ATOM     97  C   UNL A   1      46.937  34.973  29.073  1.00  0.00     0.200 A 
ATOM     98  F   UNL A   1      46.329  35.539  26.862  1.00  0.00    -0.200 F 
ATOM     99  F   UNL A   1      47.377  36.220  29.286  1.00  0.00    -0.200 F 
ENDBRANCH  66  89
ENDBRANCH  40  41
ENDBRANCH  32  35
ENDBRANCH  30  31
ENDBRANCH  29  30
ENDBRANCH  28  29
ENDBRANCH   1  28
TORSDOF 16
ENDMDL
