MODEL 1
REMARK VINA RESULT:     -11.9      0.000      0.000
REMARK SMILES CCCOc1ccc(Nc2snc(C)c2C(=O)NCCCCCCNC(=O)c2ccc(-c3c4nc(c(-c5c(F)c(F)c(F)c(F)c5F)c5ccc([nH]5)c(-c5c(F)c(F)c(F)c(F)c5F)c5nc(c(-c6c(F)c(F)c(F)c(F)c6F)c6ccc3[nH]6)C=C5)C=C4)cc2)cc1
REMARK SMILES IDX 20 1 19 2 18 3 16 4 17 5 15 7 10 8 11 9 12 10 13 11 14 12
REMARK SMILES IDX 9 13 8 15 5 16 6 17 92 18 7 19 91 20 4 21 3 22 2 23 1 24
REMARK SMILES IDX 21 25 22 26 23 27 24 28 25 29 26 30 27 32 28 33 29 34 90 35
REMARK SMILES IDX 30 36 89 37 31 38 32 39 33 40 83 41 34 42 88 43 82 44 84 45
REMARK SMILES IDX 35 46 87 47 81 48 80 49 36 51 68 52 48 53 67 54 49 55 52 56
REMARK SMILES IDX 66 57 85 58 50 59 51 60 65 62 86 63 53 64 37 65 38 66 46 67
REMARK SMILES IDX 39 68 40 69 44 70 47 71 41 72 42 73 45 74 43 75 69 76 70 77
REMARK SMILES IDX 78 78 71 79 72 80 76 81 79 82 73 83 74 84 77 85 75 86 54 87
REMARK SMILES IDX 55 88 63 89 56 90 57 91 61 92 64 93 58 94 59 95 62 96 60 97
REMARK H PARENT 18 6 9 14 25 31 84 50 52 61
REMARK Flexibility Score: inf
ROOT
ATOM      1  C   UNL A   1      31.825  27.742  26.702  1.00  0.00     0.021 C 
ENDROOT
BRANCH   1   2
ATOM      2  C   UNL A   1      32.060  26.272  26.375  1.00  0.00     0.116 C 
BRANCH   2   3
ATOM      3  N   UNL A   1      31.081  25.335  26.875  1.00  0.00    -0.352 N 
ATOM      4  C   UNL A   1      30.960  23.980  26.640  1.00  0.00     0.256 C 
ATOM      5  O   UNL A   1      30.194  23.364  27.382  1.00  0.00    -0.269 OA
ATOM      6  H   UNL A   1      30.399  25.720  27.472  1.00  0.00     0.163 HD
BRANCH   4   7
ATOM      7  C   UNL A   1      31.599  23.318  25.499  1.00  0.00     0.097 A 
ATOM      8  C   UNL A   1      31.261  23.384  24.147  1.00  0.00     0.127 A 
ATOM      9  S   UNL A   1      32.192  22.203  23.303  1.00  0.00    -0.018 S 
ATOM     10  N   UNL A   1      33.205  21.849  24.543  1.00  0.00    -0.195 NA
ATOM     11  C   UNL A   1      32.814  22.519  25.628  1.00  0.00     0.066 A 
ATOM     12  C   UNL A   1      33.675  22.358  26.838  1.00  0.00     0.069 C 
BRANCH   8  13
ATOM     13  N   UNL A   1      30.367  24.123  23.444  1.00  0.00    -0.345 N 
ATOM     14  H   UNL A   1      29.670  23.621  22.963  1.00  0.00     0.167 HD
BRANCH  13  15
ATOM     15  C   UNL A   1      30.319  25.521  23.318  1.00  0.00     0.039 A 
ATOM     16  C   UNL A   1      30.276  28.297  22.786  1.00  0.00     0.119 A 
ATOM     17  C   UNL A   1      29.225  27.689  23.472  1.00  0.00     0.048 A 
ATOM     18  C   UNL A   1      31.344  27.512  22.384  1.00  0.00     0.048 A 
ATOM     19  C   UNL A   1      29.230  26.305  23.708  1.00  0.00     0.030 A 
ATOM     20  C   UNL A   1      31.387  26.151  22.677  1.00  0.00     0.030 A 
BRANCH  16  21
ATOM     21  O   UNL A   1      30.228  29.653  22.642  1.00  0.00    -0.494 OA
BRANCH  21  22
ATOM     22  C   UNL A   1      29.142  30.205  21.885  1.00  0.00     0.229 C 
BRANCH  22  23
ATOM     23  C   UNL A   1      28.603  31.529  22.452  1.00  0.00     0.038 C 
ATOM     24  C   UNL A   1      27.654  31.376  23.639  1.00  0.00     0.007 C 
ENDBRANCH  22  23
ENDBRANCH  21  22
ENDBRANCH  16  21
ENDBRANCH  13  15
ENDBRANCH   8  13
ENDBRANCH   4   7
ENDBRANCH   2   3
ENDBRANCH   1   2
BRANCH   1  25
ATOM     25  C   UNL A   1      32.748  28.747  26.002  1.00  0.00     0.002 C 
BRANCH  25  26
ATOM     26  C   UNL A   1      33.120  30.023  26.775  1.00  0.00     0.002 C 
BRANCH  26  27
ATOM     27  C   UNL A   1      34.403  29.984  27.610  1.00  0.00     0.021 C 
BRANCH  27  28
ATOM     28  C   UNL A   1      35.212  31.264  27.600  1.00  0.00     0.116 C 
BRANCH  28  29
ATOM     29  N   UNL A   1      34.993  32.122  28.772  1.00  0.00    -0.352 N 
ATOM     30  C   UNL A   1      35.447  31.948  30.082  1.00  0.00     0.251 C 
ATOM     31  H   UNL A   1      34.455  32.931  28.612  1.00  0.00     0.163 HD
ATOM     32  O   UNL A   1      34.944  32.535  31.017  1.00  0.00    -0.269 OA
BRANCH  30  33
ATOM     33  C   UNL A   1      36.601  31.051  30.300  1.00  0.00     0.039 A 
ATOM     34  C   UNL A   1      36.521  29.666  30.508  1.00  0.00     0.014 A 
ATOM     35  C   UNL A   1      37.829  31.655  30.206  1.00  0.00     0.014 A 
ATOM     36  C   UNL A   1      37.716  28.940  30.599  1.00  0.00     0.010 A 
ATOM     37  C   UNL A   1      38.818  30.864  29.739  1.00  0.00     0.010 A 
ATOM     38  C   UNL A   1      38.894  29.590  30.243  1.00  0.00    -0.014 A 
BRANCH  38  39
ATOM     39  C   UNL A   1      40.232  29.023  30.188  1.00  0.00     0.031 A 
ATOM     40  C   UNL A   1      40.847  28.900  31.529  1.00  0.00     0.074 A 
ATOM     41  C   UNL A   1      40.656  28.365  29.078  1.00  0.00     0.049 A 
ATOM     42  N   UNL A   1      41.768  29.645  32.043  1.00  0.00    -0.248 NA
ATOM     43  C   UNL A   1      40.199  28.005  32.509  1.00  0.00     0.031 C 
ATOM     44  C   UNL A   1      39.925  28.121  27.822  1.00  0.00     0.029 A 
ATOM     45  N   UNL A   1      41.816  27.676  28.869  1.00  0.00    -0.354 N 
ATOM     46  C   UNL A   1      41.992  29.117  33.312  1.00  0.00     0.074 A 
ATOM     47  C   UNL A   1      40.812  28.370  33.636  1.00  0.00     0.031 C 
ATOM     48  C   UNL A   1      40.559  27.177  27.087  1.00  0.00     0.029 A 
ATOM     49  C   UNL A   1      41.816  26.859  27.731  1.00  0.00     0.049 A 
ATOM     50  H   UNL A   1      42.592  27.749  29.470  1.00  0.00     0.167 HD
ATOM     51  C   UNL A   1      43.261  29.016  33.801  1.00  0.00     0.037 A 
ATOM     52  C   UNL A   1      42.787  25.967  27.391  1.00  0.00     0.037 A 
ATOM     53  C   UNL A   1      44.159  29.808  32.989  1.00  0.00     0.049 A 
ATOM     54  C   UNL A   1      43.993  26.335  28.178  1.00  0.00     0.074 A 
ATOM     55  C   UNL A   1      44.263  31.142  32.655  1.00  0.00     0.029 A 
ATOM     56  N   UNL A   1      44.882  29.123  32.043  1.00  0.00    -0.354 N 
ATOM     57  N   UNL A   1      44.643  27.456  28.016  1.00  0.00    -0.248 NA
ATOM     58  C   UNL A   1      44.146  25.702  29.478  1.00  0.00     0.031 C 
ATOM     59  C   UNL A   1      44.665  31.154  31.286  1.00  0.00     0.029 A 
ATOM     60  C   UNL A   1      44.886  29.837  30.877  1.00  0.00     0.049 A 
ATOM     61  H   UNL A   1      45.327  28.256  32.182  1.00  0.00     0.167 HD
ATOM     62  C   UNL A   1      44.917  27.893  29.306  1.00  0.00     0.074 A 
ATOM     63  C   UNL A   1      44.640  26.739  30.162  1.00  0.00     0.031 C 
ATOM     64  C   UNL A   1      45.033  29.228  29.574  1.00  0.00     0.037 A 
BRANCH  51  65
ATOM     65  C   UNL A   1      43.783  27.869  34.657  1.00  0.00     0.064 A 
ATOM     66  C   UNL A   1      43.647  26.557  34.150  1.00  0.00     0.173 A 
ATOM     67  C   UNL A   1      44.111  27.943  36.029  1.00  0.00     0.173 A 
ATOM     68  F   UNL A   1      43.364  26.351  32.855  1.00  0.00    -0.203 F 
ATOM     69  C   UNL A   1      43.692  25.431  34.976  1.00  0.00     0.198 A 
ATOM     70  C   UNL A   1      44.198  26.813  36.842  1.00  0.00     0.198 A 
ATOM     71  F   UNL A   1      44.270  29.096  36.683  1.00  0.00    -0.203 F 
ATOM     72  F   UNL A   1      43.408  24.225  34.469  1.00  0.00    -0.200 F 
ATOM     73  C   UNL A   1      43.949  25.562  36.326  1.00  0.00     0.200 A 
ATOM     74  F   UNL A   1      44.446  26.965  38.151  1.00  0.00    -0.200 F 
ATOM     75  F   UNL A   1      43.919  24.496  37.135  1.00  0.00    -0.200 F 
ENDBRANCH  51  65
BRANCH  52  76
ATOM     76  C   UNL A   1      42.653  24.641  26.731  1.00  0.00     0.064 A 
ATOM     77  C   UNL A   1      43.259  24.368  25.493  1.00  0.00     0.173 A 
ATOM     78  C   UNL A   1      42.174  23.527  27.446  1.00  0.00     0.173 A 
ATOM     79  F   UNL A   1      43.795  25.364  24.771  1.00  0.00    -0.203 F 
ATOM     80  C   UNL A   1      43.389  23.060  25.006  1.00  0.00     0.198 A 
ATOM     81  C   UNL A   1      42.304  22.222  26.962  1.00  0.00     0.198 A 
ATOM     82  F   UNL A   1      41.662  23.675  28.677  1.00  0.00    -0.203 F 
ATOM     83  F   UNL A   1      44.022  22.834  23.846  1.00  0.00    -0.200 F 
ATOM     84  C   UNL A   1      42.920  21.987  25.747  1.00  0.00     0.200 A 
ATOM     85  F   UNL A   1      41.889  21.191  27.712  1.00  0.00    -0.200 F 
ATOM     86  F   UNL A   1      43.099  20.731  25.314  1.00  0.00    -0.200 F 
ENDBRANCH  52  76
BRANCH  64  87
ATOM     87  C   UNL A   1      45.144  30.172  28.407  1.00  0.00     0.064 A 
ATOM     88  C   UNL A   1      44.059  30.845  27.816  1.00  0.00     0.173 A 
ATOM     89  C   UNL A   1      46.429  30.528  27.982  1.00  0.00     0.173 A 
ATOM     90  F   UNL A   1      42.805  30.624  28.226  1.00  0.00    -0.203 F 
ATOM     91  C   UNL A   1      44.259  31.809  26.828  1.00  0.00     0.198 A 
ATOM     92  C   UNL A   1      46.627  31.515  27.023  1.00  0.00     0.198 A 
ATOM     93  F   UNL A   1      47.503  29.954  28.549  1.00  0.00    -0.203 F 
ATOM     94  F   UNL A   1      43.208  32.438  26.280  1.00  0.00    -0.200 F 
ATOM     95  C   UNL A   1      45.544  32.151  26.440  1.00  0.00     0.200 A 
ATOM     96  F   UNL A   1      47.875  31.874  26.689  1.00  0.00    -0.200 F 
ATOM     97  F   UNL A   1      45.740  33.111  25.525  1.00  0.00    -0.200 F 
ENDBRANCH  64  87
ENDBRANCH  38  39
ENDBRANCH  30  33
ENDBRANCH  28  29
ENDBRANCH  27  28
ENDBRANCH  26  27
ENDBRANCH  25  26
ENDBRANCH   1  25
TORSDOF 18
ENDMDL
MODEL 2
REMARK VINA RESULT:     -11.7      3.377      8.941
REMARK SMILES CCCOc1ccc(Nc2snc(C)c2C(=O)NCCCCCCNC(=O)c2ccc(-c3c4nc(c(-c5c(F)c(F)c(F)c(F)c5F)c5ccc([nH]5)c(-c5c(F)c(F)c(F)c(F)c5F)c5nc(c(-c6c(F)c(F)c(F)c(F)c6F)c6ccc3[nH]6)C=C5)C=C4)cc2)cc1
REMARK SMILES IDX 20 1 19 2 18 3 16 4 17 5 15 7 10 8 11 9 12 10 13 11 14 12
REMARK SMILES IDX 9 13 8 15 5 16 6 17 92 18 7 19 91 20 4 21 3 22 2 23 1 24
REMARK SMILES IDX 21 25 22 26 23 27 24 28 25 29 26 30 27 32 28 33 29 34 90 35
REMARK SMILES IDX 30 36 89 37 31 38 32 39 33 40 83 41 34 42 88 43 82 44 84 45
REMARK SMILES IDX 35 46 87 47 81 48 80 49 36 51 68 52 48 53 67 54 49 55 52 56
REMARK SMILES IDX 66 57 85 58 50 59 51 60 65 62 86 63 53 64 37 65 38 66 46 67
REMARK SMILES IDX 39 68 40 69 44 70 47 71 41 72 42 73 45 74 43 75 69 76 70 77
REMARK SMILES IDX 78 78 71 79 72 80 76 81 79 82 73 83 74 84 77 85 75 86 54 87
REMARK SMILES IDX 55 88 63 89 56 90 57 91 61 92 64 93 58 94 59 95 62 96 60 97
REMARK H PARENT 18 6 9 14 25 31 84 50 52 61
REMARK Flexibility Score: inf
ROOT
ATOM      1  C   UNL A   1      35.018  23.942  25.724  1.00  0.00     0.021 C 
ENDROOT
BRANCH   1   2
ATOM      2  C   UNL A   1      34.258  25.107  25.098  1.00  0.00     0.116 C 
BRANCH   2   3
ATOM      3  N   UNL A   1      34.196  25.136  23.656  1.00  0.00    -0.352 N 
ATOM      4  C   UNL A   1      33.338  25.830  22.826  1.00  0.00     0.256 C 
ATOM      5  O   UNL A   1      33.653  25.884  21.636  1.00  0.00    -0.269 OA
ATOM      6  H   UNL A   1      34.866  24.580  23.196  1.00  0.00     0.163 HD
BRANCH   4   7
ATOM      7  C   UNL A   1      32.057  26.369  23.292  1.00  0.00     0.097 A 
ATOM      8  C   UNL A   1      30.839  25.709  23.458  1.00  0.00     0.127 A 
ATOM      9  S   UNL A   1      29.627  26.894  23.778  1.00  0.00    -0.018 S 
ATOM     10  N   UNL A   1      30.656  28.149  24.011  1.00  0.00    -0.195 NA
ATOM     11  C   UNL A   1      31.901  27.743  23.760  1.00  0.00     0.066 A 
ATOM     12  C   UNL A   1      32.975  28.754  23.990  1.00  0.00     0.069 C 
BRANCH   8  13
ATOM     13  N   UNL A   1      30.463  24.408  23.374  1.00  0.00    -0.345 N 
ATOM     14  H   UNL A   1      29.641  24.225  22.863  1.00  0.00     0.167 HD
BRANCH  13  15
ATOM     15  C   UNL A   1      31.106  23.292  23.932  1.00  0.00     0.039 A 
ATOM     16  C   UNL A   1      32.645  21.150  24.949  1.00  0.00     0.119 A 
ATOM     17  C   UNL A   1      31.779  21.859  25.780  1.00  0.00     0.048 A 
ATOM     18  C   UNL A   1      32.724  21.512  23.614  1.00  0.00     0.048 A 
ATOM     19  C   UNL A   1      31.039  22.944  25.284  1.00  0.00     0.030 A 
ATOM     20  C   UNL A   1      31.939  22.542  23.101  1.00  0.00     0.030 A 
BRANCH  16  21
ATOM     21  O   UNL A   1      33.290  20.075  25.488  1.00  0.00    -0.494 OA
BRANCH  21  22
ATOM     22  C   UNL A   1      34.097  19.273  24.613  1.00  0.00     0.229 C 
BRANCH  22  23
ATOM     23  C   UNL A   1      33.731  17.780  24.630  1.00  0.00     0.038 C 
ATOM     24  C   UNL A   1      32.560  17.419  25.542  1.00  0.00     0.007 C 
ENDBRANCH  22  23
ENDBRANCH  21  22
ENDBRANCH  16  21
ENDBRANCH  13  15
ENDBRANCH   8  13
ENDBRANCH   4   7
ENDBRANCH   2   3
ENDBRANCH   1   2
BRANCH   1  25
ATOM     25  C   UNL A   1      36.361  23.585  25.077  1.00  0.00     0.002 C 
BRANCH  25  26
ATOM     26  C   UNL A   1      37.622  23.715  25.948  1.00  0.00     0.002 C 
BRANCH  26  27
ATOM     27  C   UNL A   1      38.557  22.503  26.008  1.00  0.00     0.021 C 
BRANCH  27  28
ATOM     28  C   UNL A   1      39.622  22.570  27.081  1.00  0.00     0.116 C 
BRANCH  28  29
ATOM     29  N   UNL A   1      40.984  22.308  26.595  1.00  0.00    -0.352 N 
ATOM     30  C   UNL A   1      41.950  23.220  26.163  1.00  0.00     0.251 C 
ATOM     31  H   UNL A   1      41.252  21.361  26.571  1.00  0.00     0.163 HD
ATOM     32  O   UNL A   1      42.899  22.877  25.491  1.00  0.00    -0.269 OA
BRANCH  30  33
ATOM     33  C   UNL A   1      41.810  24.629  26.588  1.00  0.00     0.039 A 
ATOM     34  C   UNL A   1      40.906  25.553  26.042  1.00  0.00     0.014 A 
ATOM     35  C   UNL A   1      42.593  24.992  27.655  1.00  0.00     0.014 A 
ATOM     36  C   UNL A   1      40.826  26.824  26.624  1.00  0.00     0.010 A 
ATOM     37  C   UNL A   1      42.060  25.938  28.455  1.00  0.00     0.010 A 
ATOM     38  C   UNL A   1      41.468  27.016  27.845  1.00  0.00    -0.014 A 
BRANCH  38  39
ATOM     39  C   UNL A   1      41.461  28.216  28.665  1.00  0.00     0.031 A 
ATOM     40  C   UNL A   1      42.582  29.126  28.340  1.00  0.00     0.074 A 
ATOM     41  C   UNL A   1      40.344  28.577  29.349  1.00  0.00     0.049 A 
ATOM     42  N   UNL A   1      43.662  29.317  29.022  1.00  0.00    -0.248 NA
ATOM     43  C   UNL A   1      42.632  29.709  26.985  1.00  0.00     0.031 C 
ATOM     44  C   UNL A   1      39.042  27.890  29.404  1.00  0.00     0.029 A 
ATOM     45  N   UNL A   1      40.100  29.706  30.076  1.00  0.00    -0.354 N 
ATOM     46  C   UNL A   1      44.386  30.259  28.295  1.00  0.00     0.074 A 
ATOM     47  C   UNL A   1      43.875  30.193  26.957  1.00  0.00     0.031 C 
ATOM     48  C   UNL A   1      38.103  28.710  29.933  1.00  0.00     0.029 A 
ATOM     49  C   UNL A   1      38.753  29.916  30.400  1.00  0.00     0.049 A 
ATOM     50  H   UNL A   1      40.815  30.324  30.353  1.00  0.00     0.167 HD
ATOM     51  C   UNL A   1      45.048  31.263  28.937  1.00  0.00     0.037 A 
ATOM     52  C   UNL A   1      38.239  31.034  30.983  1.00  0.00     0.037 A 
ATOM     53  C   UNL A   1      45.135  30.962  30.349  1.00  0.00     0.049 A 
ATOM     54  C   UNL A   1      39.385  31.761  31.588  1.00  0.00     0.074 A 
ATOM     55  C   UNL A   1      45.688  29.950  31.106  1.00  0.00     0.029 A 
ATOM     56  N   UNL A   1      44.211  31.578  31.157  1.00  0.00    -0.354 N 
ATOM     57  N   UNL A   1      40.094  31.290  32.579  1.00  0.00    -0.248 NA
ATOM     58  C   UNL A   1      40.052  32.746  30.751  1.00  0.00     0.031 C 
ATOM     59  C   UNL A   1      44.757  29.726  32.165  1.00  0.00     0.029 A 
ATOM     60  C   UNL A   1      43.737  30.674  32.068  1.00  0.00     0.049 A 
ATOM     61  H   UNL A   1      43.933  32.520  31.092  1.00  0.00     0.167 HD
ATOM     62  C   UNL A   1      41.410  31.572  32.234  1.00  0.00     0.074 A 
ATOM     63  C   UNL A   1      41.315  32.525  31.129  1.00  0.00     0.031 C 
ATOM     64  C   UNL A   1      42.426  30.768  32.669  1.00  0.00     0.037 A 
BRANCH  51  65
ATOM     65  C   UNL A   1      45.177  32.694  28.431  1.00  0.00     0.064 A 
ATOM     66  C   UNL A   1      43.985  33.405  28.164  1.00  0.00     0.173 A 
ATOM     67  C   UNL A   1      46.349  33.285  27.909  1.00  0.00     0.173 A 
ATOM     68  F   UNL A   1      42.807  32.962  28.628  1.00  0.00    -0.203 F 
ATOM     69  C   UNL A   1      43.957  34.525  27.329  1.00  0.00     0.198 A 
ATOM     70  C   UNL A   1      46.321  34.430  27.112  1.00  0.00     0.198 A 
ATOM     71  F   UNL A   1      47.565  32.753  28.053  1.00  0.00    -0.203 F 
ATOM     72  F   UNL A   1      42.782  35.070  26.990  1.00  0.00    -0.200 F 
ATOM     73  C   UNL A   1      45.124  35.026  26.788  1.00  0.00     0.200 A 
ATOM     74  F   UNL A   1      47.468  34.895  26.595  1.00  0.00    -0.200 F 
ATOM     75  F   UNL A   1      45.095  36.051  25.928  1.00  0.00    -0.200 F 
ENDBRANCH  51  65
BRANCH  52  76
ATOM     76  C   UNL A   1      36.924  31.690  30.754  1.00  0.00     0.064 A 
ATOM     77  C   UNL A   1      36.005  31.886  31.800  1.00  0.00     0.173 A 
ATOM     78  C   UNL A   1      36.672  32.401  29.566  1.00  0.00     0.173 A 
ATOM     79  F   UNL A   1      36.200  31.293  32.987  1.00  0.00    -0.203 F 
ATOM     80  C   UNL A   1      34.909  32.749  31.668  1.00  0.00     0.198 A 
ATOM     81  C   UNL A   1      35.579  33.263  29.434  1.00  0.00     0.198 A 
ATOM     82  F   UNL A   1      37.539  32.352  28.544  1.00  0.00    -0.203 F 
ATOM     83  F   UNL A   1      34.084  32.953  32.705  1.00  0.00    -0.200 F 
ATOM     84  C   UNL A   1      34.703  33.445  30.487  1.00  0.00     0.200 A 
ATOM     85  F   UNL A   1      35.421  33.966  28.304  1.00  0.00    -0.200 F 
ATOM     86  F   UNL A   1      33.692  34.318  30.380  1.00  0.00    -0.200 F 
ENDBRANCH  52  76
BRANCH  64  87
ATOM     87  C   UNL A   1      42.115  29.762  33.745  1.00  0.00     0.064 A 
ATOM     88  C   UNL A   1      41.692  28.441  33.508  1.00  0.00     0.173 A 
ATOM     89  C   UNL A   1      42.418  30.112  35.066  1.00  0.00     0.173 A 
ATOM     90  F   UNL A   1      41.465  28.002  32.264  1.00  0.00    -0.203 F 
ATOM     91  C   UNL A   1      41.558  27.527  34.553  1.00  0.00     0.198 A 
ATOM     92  C   UNL A   1      42.317  29.189  36.101  1.00  0.00     0.198 A 
ATOM     93  F   UNL A   1      42.874  31.345  35.342  1.00  0.00    -0.203 F 
ATOM     94  F   UNL A   1      41.153  26.272  34.302  1.00  0.00    -0.200 F 
ATOM     95  C   UNL A   1      41.880  27.900  35.848  1.00  0.00     0.200 A 
ATOM     96  F   UNL A   1      42.678  29.543  37.342  1.00  0.00    -0.200 F 
ATOM     97  F   UNL A   1      41.796  27.010  36.847  1.00  0.00    -0.200 F 
ENDBRANCH  64  87
ENDBRANCH  38  39
ENDBRANCH  30  33
ENDBRANCH  28  29
ENDBRANCH  27  28
ENDBRANCH  26  27
ENDBRANCH  25  26
ENDBRANCH   1  25
TORSDOF 18
ENDMDL
MODEL 3
REMARK VINA RESULT:     -11.4      1.664      3.780
REMARK SMILES CCCOc1ccc(Nc2snc(C)c2C(=O)NCCCCCCNC(=O)c2ccc(-c3c4nc(c(-c5c(F)c(F)c(F)c(F)c5F)c5ccc([nH]5)c(-c5c(F)c(F)c(F)c(F)c5F)c5nc(c(-c6c(F)c(F)c(F)c(F)c6F)c6ccc3[nH]6)C=C5)C=C4)cc2)cc1
REMARK SMILES IDX 20 1 19 2 18 3 16 4 17 5 15 7 10 8 11 9 12 10 13 11 14 12
REMARK SMILES IDX 9 13 8 15 5 16 6 17 92 18 7 19 91 20 4 21 3 22 2 23 1 24
REMARK SMILES IDX 21 25 22 26 23 27 24 28 25 29 26 30 27 32 28 33 29 34 90 35
REMARK SMILES IDX 30 36 89 37 31 38 32 39 33 40 83 41 34 42 88 43 82 44 84 45
REMARK SMILES IDX 35 46 87 47 81 48 80 49 36 51 68 52 48 53 67 54 49 55 52 56
REMARK SMILES IDX 66 57 85 58 50 59 51 60 65 62 86 63 53 64 37 65 38 66 46 67
REMARK SMILES IDX 39 68 40 69 44 70 47 71 41 72 42 73 45 74 43 75 69 76 70 77
REMARK SMILES IDX 78 78 71 79 72 80 76 81 79 82 73 83 74 84 77 85 75 86 54 87
REMARK SMILES IDX 55 88 63 89 56 90 57 91 61 92 64 93 58 94 59 95 62 96 60 97
REMARK H PARENT 18 6 9 14 25 31 84 50 52 61
REMARK Flexibility Score: inf
ROOT
ATOM      1  C   UNL A   1      32.259  26.911  26.654  1.00  0.00     0.021 C 
ENDROOT
BRANCH   1   2
ATOM      2  C   UNL A   1      31.399  25.698  26.317  1.00  0.00     0.116 C 
BRANCH   2   3
ATOM      3  N   UNL A   1      30.194  25.950  25.563  1.00  0.00    -0.352 N 
ATOM      4  C   UNL A   1      30.040  26.238  24.221  1.00  0.00     0.256 C 
ATOM      5  O   UNL A   1      28.895  26.161  23.774  1.00  0.00    -0.269 OA
ATOM      6  H   UNL A   1      29.359  25.911  26.082  1.00  0.00     0.163 HD
BRANCH   4   7
ATOM      7  C   UNL A   1      31.142  26.731  23.390  1.00  0.00     0.097 A 
ATOM      8  C   UNL A   1      31.975  26.017  22.527  1.00  0.00     0.127 A 
ATOM      9  S   UNL A   1      33.248  27.066  22.022  1.00  0.00    -0.018 S 
ATOM     10  N   UNL A   1      32.593  28.447  22.616  1.00  0.00    -0.195 NA
ATOM     11  C   UNL A   1      31.478  28.147  23.282  1.00  0.00     0.066 A 
ATOM     12  C   UNL A   1      30.718  29.308  23.835  1.00  0.00     0.069 C 
BRANCH   8  13
ATOM     13  N   UNL A   1      31.984  24.734  22.087  1.00  0.00    -0.345 N 
ATOM     14  H   UNL A   1      31.553  24.570  21.217  1.00  0.00     0.167 HD
BRANCH  13  15
ATOM     15  C   UNL A   1      32.533  23.611  22.727  1.00  0.00     0.039 A 
ATOM     16  C   UNL A   1      33.720  21.529  24.225  1.00  0.00     0.119 A 
ATOM     17  C   UNL A   1      32.410  21.412  23.761  1.00  0.00     0.048 A 
ATOM     18  C   UNL A   1      34.427  22.681  23.924  1.00  0.00     0.048 A 
ATOM     19  C   UNL A   1      31.808  22.460  23.046  1.00  0.00     0.030 A 
ATOM     20  C   UNL A   1      33.859  23.693  23.154  1.00  0.00     0.030 A 
BRANCH  16  21
ATOM     21  O   UNL A   1      34.255  20.450  24.865  1.00  0.00    -0.494 OA
BRANCH  21  22
ATOM     22  C   UNL A   1      33.443  19.273  24.982  1.00  0.00     0.229 C 
BRANCH  22  23
ATOM     23  C   UNL A   1      34.023  18.047  24.255  1.00  0.00     0.038 C 
ATOM     24  C   UNL A   1      33.195  17.558  23.068  1.00  0.00     0.007 C 
ENDBRANCH  22  23
ENDBRANCH  21  22
ENDBRANCH  16  21
ENDBRANCH  13  15
ENDBRANCH   8  13
ENDBRANCH   4   7
ENDBRANCH   2   3
ENDBRANCH   1   2
BRANCH   1  25
ATOM     25  C   UNL A   1      31.549  28.065  27.372  1.00  0.00     0.002 C 
BRANCH  25  26
ATOM     26  C   UNL A   1      32.185  29.461  27.265  1.00  0.00     0.002 C 
BRANCH  26  27
ATOM     27  C   UNL A   1      33.707  29.548  27.411  1.00  0.00     0.021 C 
BRANCH  27  28
ATOM     28  C   UNL A   1      34.279  30.947  27.317  1.00  0.00     0.116 C 
BRANCH  28  29
ATOM     29  N   UNL A   1      34.038  31.776  28.506  1.00  0.00    -0.352 N 
ATOM     30  C   UNL A   1      34.837  31.933  29.640  1.00  0.00     0.251 C 
ATOM     31  H   UNL A   1      33.199  32.292  28.502  1.00  0.00     0.163 HD
ATOM     32  O   UNL A   1      34.395  32.378  30.679  1.00  0.00    -0.269 OA
BRANCH  30  33
ATOM     33  C   UNL A   1      36.269  31.580  29.532  1.00  0.00     0.039 A 
ATOM     34  C   UNL A   1      37.330  32.498  29.522  1.00  0.00     0.014 A 
ATOM     35  C   UNL A   1      36.533  30.234  29.520  1.00  0.00     0.014 A 
ATOM     36  C   UNL A   1      38.638  31.997  29.515  1.00  0.00     0.010 A 
ATOM     37  C   UNL A   1      37.709  29.880  30.078  1.00  0.00     0.010 A 
ATOM     38  C   UNL A   1      38.809  30.636  29.756  1.00  0.00    -0.014 A 
BRANCH  38  39
ATOM     39  C   UNL A   1      40.064  29.912  29.869  1.00  0.00     0.031 A 
ATOM     40  C   UNL A   1      40.495  29.747  31.276  1.00  0.00     0.074 A 
ATOM     41  C   UNL A   1      40.535  29.183  28.824  1.00  0.00     0.049 A 
ATOM     42  N   UNL A   1      41.432  30.388  31.892  1.00  0.00    -0.248 NA
ATOM     43  C   UNL A   1      39.631  28.959  32.176  1.00  0.00     0.031 C 
ATOM     44  C   UNL A   1      39.936  29.000  27.491  1.00  0.00     0.029 A 
ATOM     45  N   UNL A   1      41.620  28.356  28.764  1.00  0.00    -0.354 N 
ATOM     46  C   UNL A   1      41.437  29.867  33.183  1.00  0.00     0.074 A 
ATOM     47  C   UNL A   1      40.144  29.274  33.367  1.00  0.00     0.031 C 
ATOM     48  C   UNL A   1      40.534  27.970  26.846  1.00  0.00     0.029 A 
ATOM     49  C   UNL A   1      41.657  27.519  27.641  1.00  0.00     0.049 A 
ATOM     50  H   UNL A   1      42.322  28.350  29.453  1.00  0.00     0.167 HD
ATOM     51  C   UNL A   1      42.616  29.626  33.823  1.00  0.00     0.037 A 
ATOM     52  C   UNL A   1      42.546  26.510  27.428  1.00  0.00     0.037 A 
ATOM     53  C   UNL A   1      43.694  30.286  33.120  1.00  0.00     0.049 A 
ATOM     54  C   UNL A   1      43.686  26.749  28.353  1.00  0.00     0.074 A 
ATOM     55  C   UNL A   1      43.999  31.591  32.790  1.00  0.00     0.029 A 
ATOM     56  N   UNL A   1      44.437  29.499  32.274  1.00  0.00    -0.354 N 
ATOM     57  N   UNL A   1      44.482  27.780  28.262  1.00  0.00    -0.248 NA
ATOM     58  C   UNL A   1      43.604  26.132  29.667  1.00  0.00     0.031 C 
ATOM     59  C   UNL A   1      44.560  31.523  31.480  1.00  0.00     0.029 A 
ATOM     60  C   UNL A   1      44.667  30.181  31.111  1.00  0.00     0.049 A 
ATOM     61  H   UNL A   1      44.754  28.588  32.473  1.00  0.00     0.167 HD
ATOM     62  C   UNL A   1      44.649  28.211  29.572  1.00  0.00     0.074 A 
ATOM     63  C   UNL A   1      44.135  27.118  30.398  1.00  0.00     0.031 C 
ATOM     64  C   UNL A   1      44.894  29.528  29.842  1.00  0.00     0.037 A 
BRANCH  51  65
ATOM     65  C   UNL A   1      42.890  28.445  34.745  1.00  0.00     0.064 A 
ATOM     66  C   UNL A   1      43.444  28.720  36.016  1.00  0.00     0.173 A 
ATOM     67  C   UNL A   1      42.938  27.087  34.359  1.00  0.00     0.173 A 
ATOM     68  F   UNL A   1      43.435  29.967  36.510  1.00  0.00    -0.203 F 
ATOM     69  C   UNL A   1      44.112  27.747  36.764  1.00  0.00     0.198 A 
ATOM     70  C   UNL A   1      43.568  26.110  35.130  1.00  0.00     0.198 A 
ATOM     71  F   UNL A   1      42.473  26.641  33.190  1.00  0.00    -0.203 F 
ATOM     72  F   UNL A   1      44.747  28.096  37.890  1.00  0.00    -0.200 F 
ATOM     73  C   UNL A   1      44.190  26.445  36.310  1.00  0.00     0.200 A 
ATOM     74  F   UNL A   1      43.635  24.853  34.667  1.00  0.00    -0.200 F 
ATOM     75  F   UNL A   1      44.893  25.527  36.984  1.00  0.00    -0.200 F 
ENDBRANCH  51  65
BRANCH  52  76
ATOM     76  C   UNL A   1      42.333  25.195  26.768  1.00  0.00     0.064 A 
ATOM     77  C   UNL A   1      43.093  24.794  25.655  1.00  0.00     0.173 A 
ATOM     78  C   UNL A   1      41.581  24.186  27.400  1.00  0.00     0.173 A 
ATOM     79  F   UNL A   1      43.884  25.678  25.028  1.00  0.00    -0.203 F 
ATOM     80  C   UNL A   1      43.110  23.465  25.211  1.00  0.00     0.198 A 
ATOM     81  C   UNL A   1      41.598  22.860  26.959  1.00  0.00     0.198 A 
ATOM     82  F   UNL A   1      40.896  24.448  28.523  1.00  0.00    -0.203 F 
ATOM     83  F   UNL A   1      43.890  23.110  24.180  1.00  0.00    -0.200 F 
ATOM     84  C   UNL A   1      42.369  22.497  25.870  1.00  0.00     0.200 A 
ATOM     85  F   UNL A   1      40.916  21.926  27.635  1.00  0.00    -0.200 F 
ATOM     86  F   UNL A   1      42.432  21.214  25.487  1.00  0.00    -0.200 F 
ENDBRANCH  52  76
BRANCH  64  87
ATOM     87  C   UNL A   1      45.257  30.425  28.689  1.00  0.00     0.064 A 
ATOM     88  C   UNL A   1      44.334  31.166  27.929  1.00  0.00     0.173 A 
ATOM     89  C   UNL A   1      46.617  30.663  28.458  1.00  0.00     0.173 A 
ATOM     90  F   UNL A   1      43.018  31.059  28.148  1.00  0.00    -0.203 F 
ATOM     91  C   UNL A   1      44.760  32.082  26.967  1.00  0.00     0.198 A 
ATOM     92  C   UNL A   1      47.039  31.603  27.523  1.00  0.00     0.198 A 
ATOM     93  F   UNL A   1      47.542  30.021  29.190  1.00  0.00    -0.203 F 
ATOM     94  F   UNL A   1      43.859  32.777  26.254  1.00  0.00    -0.200 F 
ATOM     95  C   UNL A   1      46.113  32.307  26.772  1.00  0.00     0.200 A 
ATOM     96  F   UNL A   1      48.348  31.850  27.376  1.00  0.00    -0.200 F 
ATOM     97  F   UNL A   1      46.523  33.220  25.881  1.00  0.00    -0.200 F 
ENDBRANCH  64  87
ENDBRANCH  38  39
ENDBRANCH  30  33
ENDBRANCH  28  29
ENDBRANCH  27  28
ENDBRANCH  26  27
ENDBRANCH  25  26
ENDBRANCH   1  25
TORSDOF 18
ENDMDL
