MODEL 1
REMARK VINA RESULT:     -12.4      0.000      0.000
REMARK SMILES CC1(C)[C@H](C(=O)NCCCCCCNC(=O)c2ccc(-c3c4nc(c(-c5c(F)c(F)c(F)c(F)c5F)c5ccc([nH]5)c(-c5c(F)c(F)c(F)c(F)c5F)c5nc(c(-c6c(F)c(F)c(F)c(F)c6F)c6ccc3[nH]6)C=C5)C=C4)cc2)[C@@H]1C(=O)Nc1ccc(NC(=O)C2CCC2)cc1
REMARK SMILES IDX 9 1 8 2 7 3 5 4 6 5 4 7 1 8 2 9 3 10 80 11 81 12 82 13 83 14
REMARK SMILES IDX 84 16 85 17 96 18 86 19 95 20 87 21 88 22 89 23 90 25 91 26
REMARK SMILES IDX 92 27 94 28 93 29 10 30 11 31 12 32 13 33 14 34 15 35 16 37
REMARK SMILES IDX 17 38 18 39 79 40 19 41 78 42 20 43 21 44 22 45 72 46 23 47
REMARK SMILES IDX 77 48 71 49 73 50 24 51 76 52 70 53 69 54 25 56 57 57 37 58
REMARK SMILES IDX 56 59 38 60 41 61 55 62 74 63 39 64 40 65 54 67 75 68 42 69
REMARK SMILES IDX 26 70 27 71 35 72 28 73 29 74 33 75 36 76 30 77 31 78 34 79
REMARK SMILES IDX 32 80 58 81 59 82 67 83 60 84 61 85 65 86 68 87 62 88 63 89
REMARK SMILES IDX 66 90 64 91 43 92 44 93 52 94 45 95 46 96 50 97 53 98 47 99
REMARK SMILES IDX 48 100 51 101 49 102
REMARK H PARENT 7 6 83 15 88 24 14 36 73 55 41 66
REMARK Flexibility Score: inf
ROOT
ATOM      1  C   UNL A   1      31.789  28.767  27.309  1.00  0.00     0.021 C 
ENDROOT
BRANCH   1   2
ATOM      2  C   UNL A   1      32.237  27.734  26.284  1.00  0.00     0.116 C 
BRANCH   2   3
ATOM      3  N   UNL A   1      31.261  26.675  26.180  1.00  0.00    -0.356 N 
ATOM      4  C   UNL A   1      31.280  25.320  26.299  1.00  0.00     0.224 C 
ATOM      5  O   UNL A   1      30.200  24.764  26.086  1.00  0.00    -0.275 OA
ATOM      6  H   UNL A   1      30.361  27.018  25.972  1.00  0.00     0.163 HD
BRANCH   4   7
ATOM      7  C   UNL A   1      32.417  24.442  26.654  1.00  0.00     0.098 C 
ATOM      8  C   UNL A   1      32.865  22.021  27.336  1.00  0.00     0.013 C 
ATOM      9  C   UNL A   1      32.624  23.003  26.211  1.00  0.00    -0.011 C 
ATOM     10  C   UNL A   1      31.786  22.396  25.113  1.00  0.00     0.013 C 
ATOM     11  C   UNL A   1      33.697  24.090  25.963  1.00  0.00     0.098 C 
BRANCH  11  12
ATOM     12  C   UNL A   1      34.163  24.569  24.646  1.00  0.00     0.228 C 
ATOM     13  O   UNL A   1      33.565  25.470  24.066  1.00  0.00    -0.274 OA
ATOM     14  N   UNL A   1      35.230  23.956  24.018  1.00  0.00    -0.326 N 
ATOM     15  H   UNL A   1      35.292  24.051  23.040  1.00  0.00     0.169 HD
BRANCH  14  16
ATOM     16  C   UNL A   1      36.226  23.211  24.655  1.00  0.00     0.041 A 
ATOM     17  C   UNL A   1      36.221  21.857  24.373  1.00  0.00     0.028 A 
ATOM     18  C   UNL A   1      37.263  23.753  25.409  1.00  0.00     0.028 A 
ATOM     19  C   UNL A   1      37.361  21.115  24.624  1.00  0.00     0.028 A 
ATOM     20  C   UNL A   1      38.293  22.911  25.872  1.00  0.00     0.028 A 
ATOM     21  C   UNL A   1      38.337  21.567  25.481  1.00  0.00     0.041 A 
BRANCH  21  22
ATOM     22  N   UNL A   1      39.351  20.729  25.953  1.00  0.00    -0.326 N 
ATOM     23  C   UNL A   1      40.565  20.966  26.575  1.00  0.00     0.227 C 
ATOM     24  H   UNL A   1      39.163  19.772  25.815  1.00  0.00     0.169 HD
ATOM     25  O   UNL A   1      41.192  19.931  26.873  1.00  0.00    -0.274 OA
BRANCH  23  26
ATOM     26  C   UNL A   1      41.180  22.356  26.909  1.00  0.00     0.079 C 
ATOM     27  C   UNL A   1      41.889  22.406  28.314  1.00  0.00     0.013 C 
ATOM     28  C   UNL A   1      42.529  22.951  26.388  1.00  0.00     0.013 C 
ATOM     29  C   UNL A   1      42.752  23.553  27.776  1.00  0.00     0.002 C 
ENDBRANCH  23  26
ENDBRANCH  21  22
ENDBRANCH  14  16
ENDBRANCH  11  12
ENDBRANCH   4   7
ENDBRANCH   2   3
ENDBRANCH   1   2
BRANCH   1  30
ATOM     30  C   UNL A   1      32.375  30.165  27.055  1.00  0.00     0.002 C 
BRANCH  30  31
ATOM     31  C   UNL A   1      31.554  31.059  26.117  1.00  0.00     0.002 C 
BRANCH  31  32
ATOM     32  C   UNL A   1      31.373  32.502  26.594  1.00  0.00     0.021 C 
BRANCH  32  33
ATOM     33  C   UNL A   1      32.525  33.036  27.435  1.00  0.00     0.116 C 
BRANCH  33  34
ATOM     34  N   UNL A   1      32.340  34.433  27.792  1.00  0.00    -0.352 N 
ATOM     35  C   UNL A   1      32.970  35.161  28.766  1.00  0.00     0.251 C 
ATOM     36  H   UNL A   1      31.672  34.922  27.261  1.00  0.00     0.163 HD
ATOM     37  O   UNL A   1      32.566  36.283  29.064  1.00  0.00    -0.269 OA
BRANCH  35  38
ATOM     38  C   UNL A   1      34.127  34.580  29.476  1.00  0.00     0.039 A 
ATOM     39  C   UNL A   1      33.939  34.062  30.759  1.00  0.00     0.014 A 
ATOM     40  C   UNL A   1      35.390  34.544  28.877  1.00  0.00     0.014 A 
ATOM     41  C   UNL A   1      35.010  33.467  31.424  1.00  0.00     0.010 A 
ATOM     42  C   UNL A   1      36.436  33.878  29.507  1.00  0.00     0.010 A 
ATOM     43  C   UNL A   1      36.259  33.344  30.792  1.00  0.00    -0.014 A 
BRANCH  43  44
ATOM     44  C   UNL A   1      37.394  32.673  31.473  1.00  0.00     0.031 A 
ATOM     45  C   UNL A   1      38.090  31.514  30.817  1.00  0.00     0.074 A 
ATOM     46  C   UNL A   1      37.766  33.082  32.703  1.00  0.00     0.049 A 
ATOM     47  N   UNL A   1      39.074  30.776  31.267  1.00  0.00    -0.248 NA
ATOM     48  C   UNL A   1      37.599  31.111  29.490  1.00  0.00     0.031 C 
ATOM     49  C   UNL A   1      37.136  34.162  33.461  1.00  0.00     0.029 A 
ATOM     50  N   UNL A   1      38.762  32.631  33.532  1.00  0.00    -0.354 N 
ATOM     51  C   UNL A   1      39.309  29.821  30.286  1.00  0.00     0.074 A 
ATOM     52  C   UNL A   1      38.328  30.031  29.246  1.00  0.00     0.031 C 
ATOM     53  C   UNL A   1      37.776  34.311  34.631  1.00  0.00     0.029 A 
ATOM     54  C   UNL A   1      38.835  33.309  34.724  1.00  0.00     0.049 A 
ATOM     55  H   UNL A   1      39.367  31.891  33.296  1.00  0.00     0.167 HD
ATOM     56  C   UNL A   1      40.274  28.871  30.246  1.00  0.00     0.037 A 
ATOM     57  C   UNL A   1      39.659  33.139  35.775  1.00  0.00     0.037 A 
ATOM     58  C   UNL A   1      41.261  28.679  31.277  1.00  0.00     0.049 A 
ATOM     59  C   UNL A   1      40.715  32.068  35.708  1.00  0.00     0.074 A 
ATOM     60  C   UNL A   1      42.314  27.782  31.308  1.00  0.00     0.029 A 
ATOM     61  N   UNL A   1      41.310  29.395  32.466  1.00  0.00    -0.354 N 
ATOM     62  N   UNL A   1      40.975  31.219  34.743  1.00  0.00    -0.248 NA
ATOM     63  C   UNL A   1      41.599  31.939  36.874  1.00  0.00     0.031 C 
ATOM     64  C   UNL A   1      42.965  27.915  32.538  1.00  0.00     0.029 A 
ATOM     65  C   UNL A   1      42.361  28.941  33.247  1.00  0.00     0.049 A 
ATOM     66  H   UNL A   1      40.690  30.118  32.716  1.00  0.00     0.167 HD
ATOM     67  C   UNL A   1      42.072  30.481  35.169  1.00  0.00     0.074 A 
ATOM     68  C   UNL A   1      42.438  30.995  36.473  1.00  0.00     0.031 C 
ATOM     69  C   UNL A   1      42.718  29.469  34.539  1.00  0.00     0.037 A 
BRANCH  56  70
ATOM     70  C   UNL A   1      40.311  27.965  29.048  1.00  0.00     0.064 A 
ATOM     71  C   UNL A   1      41.034  28.299  27.892  1.00  0.00     0.173 A 
ATOM     72  C   UNL A   1      39.649  26.728  29.071  1.00  0.00     0.173 A 
ATOM     73  F   UNL A   1      41.675  29.474  27.811  1.00  0.00    -0.203 F 
ATOM     74  C   UNL A   1      41.067  27.441  26.794  1.00  0.00     0.198 A 
ATOM     75  C   UNL A   1      39.716  25.858  27.986  1.00  0.00     0.198 A 
ATOM     76  F   UNL A   1      38.948  26.355  30.152  1.00  0.00    -0.203 F 
ATOM     77  F   UNL A   1      41.722  27.806  25.682  1.00  0.00    -0.200 F 
ATOM     78  C   UNL A   1      40.416  26.219  26.846  1.00  0.00     0.200 A 
ATOM     79  F   UNL A   1      39.097  24.669  28.043  1.00  0.00    -0.200 F 
ATOM     80  F   UNL A   1      40.460  25.391  25.793  1.00  0.00    -0.200 F 
ENDBRANCH  56  70
BRANCH  57  81
ATOM     81  C   UNL A   1      39.533  34.012  36.972  1.00  0.00     0.064 A 
ATOM     82  C   UNL A   1      38.789  33.607  38.088  1.00  0.00     0.173 A 
ATOM     83  C   UNL A   1      40.142  35.276  37.019  1.00  0.00     0.173 A 
ATOM     84  F   UNL A   1      38.173  32.415  38.085  1.00  0.00    -0.203 F 
ATOM     85  C   UNL A   1      38.632  34.442  39.193  1.00  0.00     0.198 A 
ATOM     86  C   UNL A   1      40.012  36.096  38.138  1.00  0.00     0.198 A 
ATOM     87  F   UNL A   1      40.872  35.710  35.981  1.00  0.00    -0.203 F 
ATOM     88  F   UNL A   1      37.867  34.051  40.222  1.00  0.00    -0.200 F 
ATOM     89  C   UNL A   1      39.247  35.684  39.218  1.00  0.00     0.200 A 
ATOM     90  F   UNL A   1      40.623  37.288  38.166  1.00  0.00    -0.200 F 
ATOM     91  F   UNL A   1      39.097  36.486  40.281  1.00  0.00    -0.200 F 
ENDBRANCH  57  81
BRANCH  69  92
ATOM     92  C   UNL A   1      43.917  28.883  35.228  1.00  0.00     0.064 A 
ATOM     93  C   UNL A   1      43.804  27.817  36.134  1.00  0.00     0.173 A 
ATOM     94  C   UNL A   1      45.202  29.378  34.955  1.00  0.00     0.173 A 
ATOM     95  F   UNL A   1      42.599  27.315  36.440  1.00  0.00    -0.203 F 
ATOM     96  C   UNL A   1      44.929  27.293  36.767  1.00  0.00     0.198 A 
ATOM     97  C   UNL A   1      46.327  28.827  35.561  1.00  0.00     0.198 A 
ATOM     98  F   UNL A   1      45.368  30.390  34.091  1.00  0.00    -0.203 F 
ATOM     99  F   UNL A   1      44.791  26.317  37.673  1.00  0.00    -0.200 F 
ATOM    100  C   UNL A   1      46.190  27.794  36.475  1.00  0.00     0.200 A 
ATOM    101  F   UNL A   1      47.545  29.300  35.264  1.00  0.00    -0.200 F 
ATOM    102  F   UNL A   1      47.271  27.284  37.081  1.00  0.00    -0.200 F 
ENDBRANCH  69  92
ENDBRANCH  43  44
ENDBRANCH  35  38
ENDBRANCH  33  34
ENDBRANCH  32  33
ENDBRANCH  31  32
ENDBRANCH  30  31
ENDBRANCH   1  30
TORSDOF 17
ENDMDL
MODEL 2
REMARK VINA RESULT:     -12.4      5.796     11.379
REMARK SMILES CC1(C)[C@H](C(=O)NCCCCCCNC(=O)c2ccc(-c3c4nc(c(-c5c(F)c(F)c(F)c(F)c5F)c5ccc([nH]5)c(-c5c(F)c(F)c(F)c(F)c5F)c5nc(c(-c6c(F)c(F)c(F)c(F)c6F)c6ccc3[nH]6)C=C5)C=C4)cc2)[C@@H]1C(=O)Nc1ccc(NC(=O)C2CCC2)cc1
REMARK SMILES IDX 9 1 8 2 7 3 5 4 6 5 4 7 1 8 2 9 3 10 80 11 81 12 82 13 83 14
REMARK SMILES IDX 84 16 85 17 96 18 86 19 95 20 87 21 88 22 89 23 90 25 91 26
REMARK SMILES IDX 92 27 94 28 93 29 10 30 11 31 12 32 13 33 14 34 15 35 16 37
REMARK SMILES IDX 17 38 18 39 79 40 19 41 78 42 20 43 21 44 22 45 72 46 23 47
REMARK SMILES IDX 77 48 71 49 73 50 24 51 76 52 70 53 69 54 25 56 57 57 37 58
REMARK SMILES IDX 56 59 38 60 41 61 55 62 74 63 39 64 40 65 54 67 75 68 42 69
REMARK SMILES IDX 26 70 27 71 35 72 28 73 29 74 33 75 36 76 30 77 31 78 34 79
REMARK SMILES IDX 32 80 58 81 59 82 67 83 60 84 61 85 65 86 68 87 62 88 63 89
REMARK SMILES IDX 66 90 64 91 43 92 44 93 52 94 45 95 46 96 50 97 53 98 47 99
REMARK SMILES IDX 48 100 51 101 49 102
REMARK H PARENT 7 6 83 15 88 24 14 36 73 55 41 66
REMARK Flexibility Score: inf
ROOT
ATOM      1  C   UNL A   1      40.110  22.919  27.226  1.00  0.00     0.021 C 
ENDROOT
BRANCH   1   2
ATOM      2  C   UNL A   1      38.902  23.433  26.453  1.00  0.00     0.116 C 
BRANCH   2   3
ATOM      3  N   UNL A   1      37.952  22.367  26.242  1.00  0.00    -0.356 N 
ATOM      4  C   UNL A   1      36.659  22.284  25.826  1.00  0.00     0.224 C 
ATOM      5  O   UNL A   1      36.184  21.146  25.825  1.00  0.00    -0.275 OA
ATOM      6  H   UNL A   1      38.333  21.483  26.451  1.00  0.00     0.163 HD
BRANCH   4   7
ATOM      7  C   UNL A   1      35.765  23.374  25.374  1.00  0.00     0.098 C 
ATOM      8  C   UNL A   1      34.665  24.224  23.230  1.00  0.00     0.013 C 
ATOM      9  C   UNL A   1      34.614  23.253  24.389  1.00  0.00    -0.011 C 
ATOM     10  C   UNL A   1      34.091  21.903  23.961  1.00  0.00     0.013 C 
ATOM     11  C   UNL A   1      34.409  23.836  25.808  1.00  0.00     0.098 C 
BRANCH  11  12
ATOM     12  C   UNL A   1      33.567  23.258  26.874  1.00  0.00     0.228 C 
ATOM     13  O   UNL A   1      34.081  22.720  27.849  1.00  0.00    -0.274 OA
ATOM     14  N   UNL A   1      32.191  23.248  26.747  1.00  0.00    -0.326 N 
ATOM     15  H   UNL A   1      31.696  22.576  27.269  1.00  0.00     0.169 HD
BRANCH  14  16
ATOM     16  C   UNL A   1      31.445  24.110  25.938  1.00  0.00     0.041 A 
ATOM     17  C   UNL A   1      31.269  25.386  26.442  1.00  0.00     0.028 A 
ATOM     18  C   UNL A   1      31.011  23.813  24.650  1.00  0.00     0.028 A 
ATOM     19  C   UNL A   1      30.900  26.402  25.581  1.00  0.00     0.028 A 
ATOM     20  C   UNL A   1      30.400  24.821  23.878  1.00  0.00     0.028 A 
ATOM     21  C   UNL A   1      30.335  26.136  24.357  1.00  0.00     0.041 A 
BRANCH  21  22
ATOM     22  N   UNL A   1      29.714  27.131  23.596  1.00  0.00    -0.326 N 
ATOM     23  C   UNL A   1      30.194  28.117  22.751  1.00  0.00     0.227 C 
ATOM     24  H   UNL A   1      28.733  27.132  23.680  1.00  0.00     0.169 HD
ATOM     25  O   UNL A   1      29.302  28.811  22.225  1.00  0.00    -0.274 OA
BRANCH  23  26
ATOM     26  C   UNL A   1      31.687  28.414  22.425  1.00  0.00     0.079 C 
ATOM     27  C   UNL A   1      32.478  29.040  23.633  1.00  0.00     0.013 C 
ATOM     28  C   UNL A   1      32.874  27.397  22.384  1.00  0.00     0.013 C 
ATOM     29  C   UNL A   1      33.761  28.471  23.016  1.00  0.00     0.002 C 
ENDBRANCH  23  26
ENDBRANCH  21  22
ENDBRANCH  14  16
ENDBRANCH  11  12
ENDBRANCH   4   7
ENDBRANCH   2   3
ENDBRANCH   1   2
BRANCH   1  30
ATOM     30  C   UNL A   1      40.364  21.418  27.022  1.00  0.00     0.002 C 
BRANCH  30  31
ATOM     31  C   UNL A   1      41.620  21.070  26.212  1.00  0.00     0.002 C 
BRANCH  31  32
ATOM     32  C   UNL A   1      41.792  19.584  25.891  1.00  0.00     0.021 C 
BRANCH  32  33
ATOM     33  C   UNL A   1      43.177  19.029  26.201  1.00  0.00     0.116 C 
BRANCH  33  34
ATOM     34  N   UNL A   1      43.925  18.720  24.995  1.00  0.00    -0.352 N 
ATOM     35  C   UNL A   1      44.651  19.562  24.195  1.00  0.00     0.251 C 
ATOM     36  H   UNL A   1      43.908  17.777  24.713  1.00  0.00     0.163 HD
ATOM     37  O   UNL A   1      45.073  19.177  23.106  1.00  0.00    -0.269 OA
BRANCH  35  38
ATOM     38  C   UNL A   1      44.909  20.947  24.639  1.00  0.00     0.039 A 
ATOM     39  C   UNL A   1      44.486  22.003  23.829  1.00  0.00     0.014 A 
ATOM     40  C   UNL A   1      45.560  21.201  25.851  1.00  0.00     0.014 A 
ATOM     41  C   UNL A   1      44.677  23.316  24.256  1.00  0.00     0.010 A 
ATOM     42  C   UNL A   1      45.676  22.508  26.312  1.00  0.00     0.010 A 
ATOM     43  C   UNL A   1      45.247  23.579  25.514  1.00  0.00    -0.014 A 
BRANCH  43  44
ATOM     44  C   UNL A   1      45.416  24.972  25.997  1.00  0.00     0.031 A 
ATOM     45  C   UNL A   1      46.765  25.631  25.946  1.00  0.00     0.074 A 
ATOM     46  C   UNL A   1      44.361  25.623  26.525  1.00  0.00     0.049 A 
ATOM     47  N   UNL A   1      47.121  26.824  26.353  1.00  0.00    -0.248 NA
ATOM     48  C   UNL A   1      47.870  24.837  25.386  1.00  0.00     0.031 C 
ATOM     49  C   UNL A   1      43.014  25.071  26.674  1.00  0.00     0.029 A 
ATOM     50  N   UNL A   1      44.258  26.892  27.038  1.00  0.00    -0.354 N 
ATOM     51  C   UNL A   1      48.485  26.914  26.110  1.00  0.00     0.074 A 
ATOM     52  C   UNL A   1      48.908  25.639  25.577  1.00  0.00     0.031 C 
ATOM     53  C   UNL A   1      42.214  26.003  27.214  1.00  0.00     0.029 A 
ATOM     54  C   UNL A   1      42.998  27.203  27.487  1.00  0.00     0.049 A 
ATOM     55  H   UNL A   1      45.016  27.519  27.081  1.00  0.00     0.167 HD
ATOM     56  C   UNL A   1      49.306  27.977  26.291  1.00  0.00     0.037 A 
ATOM     57  C   UNL A   1      42.531  28.328  28.061  1.00  0.00     0.037 A 
ATOM     58  C   UNL A   1      48.875  29.252  26.804  1.00  0.00     0.049 A 
ATOM     59  C   UNL A   1      43.468  29.490  28.260  1.00  0.00     0.074 A 
ATOM     60  C   UNL A   1      49.615  30.408  26.973  1.00  0.00     0.029 A 
ATOM     61  N   UNL A   1      47.587  29.534  27.237  1.00  0.00    -0.354 N 
ATOM     62  N   UNL A   1      44.740  29.590  27.957  1.00  0.00    -0.248 NA
ATOM     63  C   UNL A   1      42.901  30.699  28.872  1.00  0.00     0.031 C 
ATOM     64  C   UNL A   1      48.791  31.372  27.563  1.00  0.00     0.029 A 
ATOM     65  C   UNL A   1      47.519  30.839  27.698  1.00  0.00     0.049 A 
ATOM     66  H   UNL A   1      46.834  28.900  27.220  1.00  0.00     0.167 HD
ATOM     67  C   UNL A   1      45.115  30.881  28.307  1.00  0.00     0.074 A 
ATOM     68  C   UNL A   1      43.931  31.531  28.830  1.00  0.00     0.031 C 
ATOM     69  C   UNL A   1      46.330  31.475  28.206  1.00  0.00     0.037 A 
BRANCH  56  70
ATOM     70  C   UNL A   1      50.755  27.808  25.930  1.00  0.00     0.064 A 
ATOM     71  C   UNL A   1      51.723  27.484  26.894  1.00  0.00     0.173 A 
ATOM     72  C   UNL A   1      51.176  27.930  24.597  1.00  0.00     0.173 A 
ATOM     73  F   UNL A   1      51.378  27.366  28.186  1.00  0.00    -0.203 F 
ATOM     74  C   UNL A   1      53.060  27.319  26.541  1.00  0.00     0.198 A 
ATOM     75  C   UNL A   1      52.507  27.729  24.243  1.00  0.00     0.198 A 
ATOM     76  F   UNL A   1      50.293  28.233  23.634  1.00  0.00    -0.203 F 
ATOM     77  F   UNL A   1      53.974  27.061  27.488  1.00  0.00    -0.200 F 
ATOM     78  C   UNL A   1      53.449  27.433  25.216  1.00  0.00     0.200 A 
ATOM     79  F   UNL A   1      52.879  27.825  22.959  1.00  0.00    -0.200 F 
ATOM     80  F   UNL A   1      54.735  27.262  24.877  1.00  0.00    -0.200 F 
ENDBRANCH  56  70
BRANCH  57  81
ATOM     81  C   UNL A   1      41.104  28.421  28.471  1.00  0.00     0.064 A 
ATOM     82  C   UNL A   1      40.135  28.938  27.601  1.00  0.00     0.173 A 
ATOM     83  C   UNL A   1      40.683  28.009  29.745  1.00  0.00     0.173 A 
ATOM     84  F   UNL A   1      40.489  29.362  26.379  1.00  0.00    -0.203 F 
ATOM     85  C   UNL A   1      38.805  29.069  27.998  1.00  0.00     0.198 A 
ATOM     86  C   UNL A   1      39.348  28.110  30.129  1.00  0.00     0.198 A 
ATOM     87  F   UNL A   1      41.569  27.500  30.613  1.00  0.00    -0.203 F 
ATOM     88  F   UNL A   1      37.911  29.620  27.166  1.00  0.00    -0.200 F 
ATOM     89  C   UNL A   1      38.412  28.650  29.261  1.00  0.00     0.200 A 
ATOM     90  F   UNL A   1      38.969  27.687  31.343  1.00  0.00    -0.200 F 
ATOM     91  F   UNL A   1      37.134  28.775  29.642  1.00  0.00    -0.200 F 
ENDBRANCH  57  81
BRANCH  69  92
ATOM     92  C   UNL A   1      46.430  32.914  28.624  1.00  0.00     0.064 A 
ATOM     93  C   UNL A   1      46.192  33.965  27.725  1.00  0.00     0.173 A 
ATOM     94  C   UNL A   1      46.741  33.246  29.952  1.00  0.00     0.173 A 
ATOM     95  F   UNL A   1      45.904  33.704  26.441  1.00  0.00    -0.203 F 
ATOM     96  C   UNL A   1      46.297  35.293  28.132  1.00  0.00     0.198 A 
ATOM     97  C   UNL A   1      46.808  34.573  30.364  1.00  0.00     0.198 A 
ATOM     98  F   UNL A   1      46.970  32.280  30.855  1.00  0.00    -0.203 F 
ATOM     99  F   UNL A   1      46.126  36.279  27.242  1.00  0.00    -0.200 F 
ATOM    100  C   UNL A   1      46.598  35.596  29.452  1.00  0.00     0.200 A 
ATOM    101  F   UNL A   1      47.082  34.863  31.644  1.00  0.00    -0.200 F 
ATOM    102  F   UNL A   1      46.693  36.874  29.842  1.00  0.00    -0.200 F 
ENDBRANCH  69  92
ENDBRANCH  43  44
ENDBRANCH  35  38
ENDBRANCH  33  34
ENDBRANCH  32  33
ENDBRANCH  31  32
ENDBRANCH  30  31
ENDBRANCH   1  30
TORSDOF 17
ENDMDL
MODEL 3
REMARK VINA RESULT:     -12.4      0.621      7.066
REMARK SMILES CC1(C)[C@H](C(=O)NCCCCCCNC(=O)c2ccc(-c3c4nc(c(-c5c(F)c(F)c(F)c(F)c5F)c5ccc([nH]5)c(-c5c(F)c(F)c(F)c(F)c5F)c5nc(c(-c6c(F)c(F)c(F)c(F)c6F)c6ccc3[nH]6)C=C5)C=C4)cc2)[C@@H]1C(=O)Nc1ccc(NC(=O)C2CCC2)cc1
REMARK SMILES IDX 9 1 8 2 7 3 5 4 6 5 4 7 1 8 2 9 3 10 80 11 81 12 82 13 83 14
REMARK SMILES IDX 84 16 85 17 96 18 86 19 95 20 87 21 88 22 89 23 90 25 91 26
REMARK SMILES IDX 92 27 94 28 93 29 10 30 11 31 12 32 13 33 14 34 15 35 16 37
REMARK SMILES IDX 17 38 18 39 79 40 19 41 78 42 20 43 21 44 22 45 72 46 23 47
REMARK SMILES IDX 77 48 71 49 73 50 24 51 76 52 70 53 69 54 25 56 57 57 37 58
REMARK SMILES IDX 56 59 38 60 41 61 55 62 74 63 39 64 40 65 54 67 75 68 42 69
REMARK SMILES IDX 26 70 27 71 35 72 28 73 29 74 33 75 36 76 30 77 31 78 34 79
REMARK SMILES IDX 32 80 58 81 59 82 67 83 60 84 61 85 65 86 68 87 62 88 63 89
REMARK SMILES IDX 66 90 64 91 43 92 44 93 52 94 45 95 46 96 50 97 53 98 47 99
REMARK SMILES IDX 48 100 51 101 49 102
REMARK H PARENT 7 6 83 15 88 24 14 36 73 55 41 66
REMARK Flexibility Score: inf
ROOT
ATOM      1  C   UNL A   1      31.628  28.565  27.332  1.00  0.00     0.021 C 
ENDROOT
BRANCH   1   2
ATOM      2  C   UNL A   1      32.107  27.485  26.372  1.00  0.00     0.116 C 
BRANCH   2   3
ATOM      3  N   UNL A   1      31.209  26.354  26.401  1.00  0.00    -0.356 N 
ATOM      4  C   UNL A   1      31.334  25.018  26.621  1.00  0.00     0.224 C 
ATOM      5  O   UNL A   1      30.290  24.372  26.509  1.00  0.00    -0.275 OA
ATOM      6  H   UNL A   1      30.278  26.616  26.216  1.00  0.00     0.163 HD
BRANCH   4   7
ATOM      7  C   UNL A   1      32.550  24.253  26.981  1.00  0.00     0.098 C 
ATOM      8  C   UNL A   1      33.221  21.895  27.700  1.00  0.00     0.013 C 
ATOM      9  C   UNL A   1      32.884  22.831  26.561  1.00  0.00    -0.011 C 
ATOM     10  C   UNL A   1      32.096  22.131  25.480  1.00  0.00     0.013 C 
ATOM     11  C   UNL A   1      33.851  24.007  26.284  1.00  0.00     0.098 C 
BRANCH  11  12
ATOM     12  C   UNL A   1      34.262  24.503  24.956  1.00  0.00     0.228 C 
ATOM     13  O   UNL A   1      33.649  25.420  24.419  1.00  0.00    -0.274 OA
ATOM     14  N   UNL A   1      35.292  23.889  24.270  1.00  0.00    -0.326 N 
ATOM     15  H   UNL A   1      35.310  24.000  23.292  1.00  0.00     0.169 HD
BRANCH  14  16
ATOM     16  C   UNL A   1      36.308  23.122  24.848  1.00  0.00     0.041 A 
ATOM     17  C   UNL A   1      36.310  21.785  24.495  1.00  0.00     0.028 A 
ATOM     18  C   UNL A   1      37.354  23.635  25.609  1.00  0.00     0.028 A 
ATOM     19  C   UNL A   1      37.461  21.043  24.686  1.00  0.00     0.028 A 
ATOM     20  C   UNL A   1      38.400  22.781  26.007  1.00  0.00     0.028 A 
ATOM     21  C   UNL A   1      38.449  21.460  25.546  1.00  0.00     0.041 A 
BRANCH  21  22
ATOM     22  N   UNL A   1      39.480  20.609  25.954  1.00  0.00    -0.326 N 
ATOM     23  C   UNL A   1      40.823  20.809  26.231  1.00  0.00     0.227 C 
ATOM     24  H   UNL A   1      39.193  19.674  26.069  1.00  0.00     0.169 HD
ATOM     25  O   UNL A   1      41.422  19.781  26.600  1.00  0.00    -0.274 OA
BRANCH  23  26
ATOM     26  C   UNL A   1      41.603  22.150  26.116  1.00  0.00     0.079 C 
ATOM     27  C   UNL A   1      42.392  22.529  27.424  1.00  0.00     0.013 C 
ATOM     28  C   UNL A   1      42.977  22.396  25.410  1.00  0.00     0.013 C 
ATOM     29  C   UNL A   1      43.342  23.353  26.546  1.00  0.00     0.002 C 
ENDBRANCH  23  26
ENDBRANCH  21  22
ENDBRANCH  14  16
ENDBRANCH  11  12
ENDBRANCH   4   7
ENDBRANCH   2   3
ENDBRANCH   1   2
BRANCH   1  30
ATOM     30  C   UNL A   1      32.269  29.936  27.067  1.00  0.00     0.002 C 
BRANCH  30  31
ATOM     31  C   UNL A   1      31.494  30.848  26.106  1.00  0.00     0.002 C 
BRANCH  31  32
ATOM     32  C   UNL A   1      31.365  32.304  26.558  1.00  0.00     0.021 C 
BRANCH  32  33
ATOM     33  C   UNL A   1      32.584  32.843  27.297  1.00  0.00     0.116 C 
BRANCH  33  34
ATOM     34  N   UNL A   1      32.403  34.223  27.716  1.00  0.00    -0.352 N 
ATOM     35  C   UNL A   1      33.049  34.909  28.710  1.00  0.00     0.251 C 
ATOM     36  H   UNL A   1      31.725  34.733  27.219  1.00  0.00     0.163 HD
ATOM     37  O   UNL A   1      32.648  36.017  29.063  1.00  0.00    -0.269 OA
BRANCH  35  38
ATOM     38  C   UNL A   1      34.219  34.302  29.375  1.00  0.00     0.039 A 
ATOM     39  C   UNL A   1      34.010  33.456  30.466  1.00  0.00     0.014 A 
ATOM     40  C   UNL A   1      35.516  34.563  28.920  1.00  0.00     0.014 A 
ATOM     41  C   UNL A   1      35.100  32.836  31.074  1.00  0.00     0.010 A 
ATOM     42  C   UNL A   1      36.593  33.880  29.475  1.00  0.00     0.010 A 
ATOM     43  C   UNL A   1      36.397  33.020  30.566  1.00  0.00    -0.014 A 
BRANCH  43  44
ATOM     44  C   UNL A   1      37.560  32.330  31.178  1.00  0.00     0.031 A 
ATOM     45  C   UNL A   1      38.031  32.719  32.551  1.00  0.00     0.074 A 
ATOM     46  C   UNL A   1      38.218  31.387  30.475  1.00  0.00     0.049 A 
ATOM     47  N   UNL A   1      39.047  32.260  33.238  1.00  0.00    -0.248 NA
ATOM     48  C   UNL A   1      37.278  33.782  33.234  1.00  0.00     0.031 C 
ATOM     49  C   UNL A   1      37.885  30.960  29.116  1.00  0.00     0.029 A 
ATOM     50  N   UNL A   1      39.306  30.620  30.807  1.00  0.00    -0.354 N 
ATOM     51  C   UNL A   1      39.059  32.985  34.423  1.00  0.00     0.074 A 
ATOM     52  C   UNL A   1      37.989  33.954  34.339  1.00  0.00     0.031 C 
ATOM     53  C   UNL A   1      38.732  29.989  28.740  1.00  0.00     0.029 A 
ATOM     54  C   UNL A   1      39.693  29.754  29.814  1.00  0.00     0.049 A 
ATOM     55  H   UNL A   1      39.767  30.685  31.675  1.00  0.00     0.167 HD
ATOM     56  C   UNL A   1      39.873  32.837  35.496  1.00  0.00     0.037 A 
ATOM     57  C   UNL A   1      40.711  28.875  29.772  1.00  0.00     0.037 A 
ATOM     58  C   UNL A   1      40.924  31.856  35.582  1.00  0.00     0.049 A 
ATOM     59  C   UNL A   1      41.607  28.738  30.975  1.00  0.00     0.074 A 
ATOM     60  C   UNL A   1      41.769  31.588  36.644  1.00  0.00     0.029 A 
ATOM     61  N   UNL A   1      41.278  30.987  34.559  1.00  0.00    -0.354 N 
ATOM     62  N   UNL A   1      41.563  29.377  32.119  1.00  0.00    -0.248 NA
ATOM     63  C   UNL A   1      42.690  27.749  30.883  1.00  0.00     0.031 C 
ATOM     64  C   UNL A   1      42.671  30.597  36.244  1.00  0.00     0.029 A 
ATOM     65  C   UNL A   1      42.347  30.200  34.958  1.00  0.00     0.049 A 
ATOM     66  H   UNL A   1      40.837  30.938  33.681  1.00  0.00     0.167 HD
ATOM     67  C   UNL A   1      42.584  28.845  32.894  1.00  0.00     0.074 A 
ATOM     68  C   UNL A   1      43.221  27.818  32.095  1.00  0.00     0.031 C 
ATOM     69  C   UNL A   1      42.963  29.175  34.154  1.00  0.00     0.037 A 
BRANCH  56  70
ATOM     70  C   UNL A   1      39.659  33.755  36.666  1.00  0.00     0.064 A 
ATOM     71  C   UNL A   1      40.227  35.039  36.710  1.00  0.00     0.173 A 
ATOM     72  C   UNL A   1      38.843  33.364  37.737  1.00  0.00     0.173 A 
ATOM     73  F   UNL A   1      41.026  35.460  35.718  1.00  0.00    -0.203 F 
ATOM     74  C   UNL A   1      40.009  35.882  37.797  1.00  0.00     0.198 A 
ATOM     75  C   UNL A   1      38.598  34.225  38.805  1.00  0.00     0.198 A 
ATOM     76  F   UNL A   1      38.270  32.151  37.745  1.00  0.00    -0.203 F 
ATOM     77  F   UNL A   1      40.605  37.083  37.840  1.00  0.00    -0.200 F 
ATOM     78  C   UNL A   1      39.188  35.478  38.838  1.00  0.00     0.200 A 
ATOM     79  F   UNL A   1      37.792  33.838  39.804  1.00  0.00    -0.200 F 
ATOM     80  F   UNL A   1      38.971  36.296  39.877  1.00  0.00    -0.200 F 
ENDBRANCH  56  70
BRANCH  57  81
ATOM     81  C   UNL A   1      40.929  28.040  28.561  1.00  0.00     0.064 A 
ATOM     82  C   UNL A   1      41.699  28.510  27.488  1.00  0.00     0.173 A 
ATOM     83  C   UNL A   1      40.360  26.763  28.444  1.00  0.00     0.173 A 
ATOM     84  F   UNL A   1      42.249  29.732  27.543  1.00  0.00    -0.203 F 
ATOM     85  C   UNL A   1      41.866  27.750  26.332  1.00  0.00     0.198 A 
ATOM     86  C   UNL A   1      40.557  25.989  27.302  1.00  0.00     0.198 A 
ATOM     87  F   UNL A   1      39.622  26.262  29.444  1.00  0.00    -0.203 F 
ATOM     88  F   UNL A   1      42.559  28.248  25.299  1.00  0.00    -0.200 F 
ATOM     89  C   UNL A   1      41.299  26.488  26.242  1.00  0.00     0.200 A 
ATOM     90  F   UNL A   1      40.022  24.763  27.226  1.00  0.00    -0.200 F 
ATOM     91  F   UNL A   1      41.462  25.756  25.132  1.00  0.00    -0.200 F 
ENDBRANCH  57  81
BRANCH  69  92
ATOM     92  C   UNL A   1      44.087  28.387  34.764  1.00  0.00     0.064 A 
ATOM     93  C   UNL A   1      43.856  27.212  35.496  1.00  0.00     0.173 A 
ATOM     94  C   UNL A   1      45.417  28.800  34.591  1.00  0.00     0.173 A 
ATOM     95  F   UNL A   1      42.603  26.779  35.703  1.00  0.00    -0.203 F 
ATOM     96  C   UNL A   1      44.912  26.500  36.059  1.00  0.00     0.198 A 
ATOM     97  C   UNL A   1      46.472  28.066  35.124  1.00  0.00     0.198 A 
ATOM     98  F   UNL A   1      45.695  29.912  33.893  1.00  0.00    -0.203 F 
ATOM     99  F   UNL A   1      44.664  25.415  36.804  1.00  0.00    -0.200 F 
ATOM    100  C   UNL A   1      46.219  26.924  35.867  1.00  0.00     0.200 A 
ATOM    101  F   UNL A   1      47.735  28.468  34.922  1.00  0.00    -0.200 F 
ATOM    102  F   UNL A   1      47.234  26.235  36.406  1.00  0.00    -0.200 F 
ENDBRANCH  69  92
ENDBRANCH  43  44
ENDBRANCH  35  38
ENDBRANCH  33  34
ENDBRANCH  32  33
ENDBRANCH  31  32
ENDBRANCH  30  31
ENDBRANCH   1  30
TORSDOF 17
ENDMDL
