MODEL 1
REMARK VINA RESULT:      -9.9      0.000      0.000
REMARK SMILES C#CCN(CC(=O)NCCCCCCNC(=O)c1ccc(-c2c3nc(c(-c4c(F)c(F)c(F)c(F)c4F)c4ccc([nH]4)c(-c4c(F)c(F)c(F)c(F)c4F)c4nc(c(-c5c(F)c(F)c(F)c(F)c5F)c5ccc2[nH]5)C=C4)C=C3)cc1)C(=O)N[C@@H](C)CCCC
REMARK SMILES IDX 9 1 8 2 6 3 7 4 5 6 4 7 3 8 2 9 1 10 81 11 82 12 83 13 84 15
REMARK SMILES IDX 85 16 86 17 87 18 88 19 89 20 10 21 11 22 12 23 13 24 14 25
REMARK SMILES IDX 15 26 16 27 17 29 18 30 19 31 80 32 20 33 79 34 21 35 22 36
REMARK SMILES IDX 23 37 73 38 24 39 78 40 72 41 74 42 25 43 77 44 71 45 70 46
REMARK SMILES IDX 26 48 58 49 38 50 57 51 39 52 42 53 56 54 75 55 40 56 41 57
REMARK SMILES IDX 55 59 76 60 43 61 27 62 28 63 36 64 29 65 30 66 34 67 37 68
REMARK SMILES IDX 31 69 32 70 35 71 33 72 59 73 60 74 68 75 61 76 62 77 66 78
REMARK SMILES IDX 69 79 63 80 64 81 67 82 65 83 44 84 45 85 53 86 46 87 47 88
REMARK SMILES IDX 51 89 54 90 48 91 49 92 52 93 50 94
REMARK H PARENT 8 5 83 14 15 28 74 47 42 58
REMARK Flexibility Score: inf
ROOT
ATOM      1  C   UNL A   1      33.963  28.093  25.854  1.00  0.00     0.116 C 
ENDROOT
BRANCH   1   2
ATOM      2  N   UNL A   1      33.080  26.964  26.000  1.00  0.00    -0.355 N 
ATOM      3  C   UNL A   1      33.085  25.783  25.329  1.00  0.00     0.239 C 
ATOM      4  O   UNL A   1      32.450  24.850  25.835  1.00  0.00    -0.273 OA
ATOM      5  H   UNL A   1      32.376  27.062  26.680  1.00  0.00     0.163 HD
BRANCH   3   6
ATOM      6  C   UNL A   1      33.972  25.555  24.093  1.00  0.00     0.222 C 
BRANCH   6   7
ATOM      7  N   UNL A   1      33.329  24.988  22.903  1.00  0.00    -0.304 N 
BRANCH   7   8
ATOM      8  C   UNL A   1      33.081  23.550  22.931  1.00  0.00     0.211 C 
BRANCH   8   9
ATOM      9  C   UNL A   1      34.186  22.728  23.576  1.00  0.00    -0.085 C 
ATOM     10  C   UNL A   1      35.133  22.024  24.129  1.00  0.00     0.006 C 
ENDBRANCH   8   9
ENDBRANCH   7   8
BRANCH   7  11
ATOM     11  C   UNL A   1      32.939  25.635  21.765  1.00  0.00     0.318 C 
ATOM     12  O   UNL A   1      33.194  25.174  20.645  1.00  0.00    -0.249 OA
ATOM     13  N   UNL A   1      32.266  26.794  21.741  1.00  0.00    -0.336 N 
ATOM     14  H   UNL A   1      32.021  27.039  20.820  1.00  0.00     0.165 HD
BRANCH  13  15
ATOM     15  C   UNL A   1      31.794  27.794  22.689  1.00  0.00     0.080 C 
ATOM     16  C   UNL A   1      32.762  28.981  22.666  1.00  0.00     0.031 C 
BRANCH  15  17
ATOM     17  C   UNL A   1      30.368  28.271  22.368  1.00  0.00     0.024 C 
BRANCH  17  18
ATOM     18  C   UNL A   1      29.744  29.288  23.334  1.00  0.00     0.002 C 
BRANCH  18  19
ATOM     19  C   UNL A   1      28.972  30.463  22.734  1.00  0.00    -0.003 C 
ATOM     20  C   UNL A   1      28.644  31.585  23.707  1.00  0.00     0.004 C 
ENDBRANCH  18  19
ENDBRANCH  17  18
ENDBRANCH  15  17
ENDBRANCH  13  15
ENDBRANCH   7  11
ENDBRANCH   6   7
ENDBRANCH   3   6
ENDBRANCH   1   2
BRANCH   1  21
ATOM     21  C   UNL A   1      33.446  29.332  26.577  1.00  0.00     0.021 C 
BRANCH  21  22
ATOM     22  C   UNL A   1      32.215  29.973  25.925  1.00  0.00     0.002 C 
BRANCH  22  23
ATOM     23  C   UNL A   1      31.339  30.816  26.860  1.00  0.00     0.002 C 
BRANCH  23  24
ATOM     24  C   UNL A   1      31.416  32.330  26.645  1.00  0.00     0.021 C 
BRANCH  24  25
ATOM     25  C   UNL A   1      32.705  32.975  27.129  1.00  0.00     0.116 C 
BRANCH  25  26
ATOM     26  N   UNL A   1      32.484  34.322  27.618  1.00  0.00    -0.352 N 
ATOM     27  C   UNL A   1      33.016  34.944  28.717  1.00  0.00     0.251 C 
ATOM     28  H   UNL A   1      31.862  34.868  27.083  1.00  0.00     0.163 HD
ATOM     29  O   UNL A   1      32.555  36.014  29.100  1.00  0.00    -0.269 OA
BRANCH  27  30
ATOM     30  C   UNL A   1      34.140  34.323  29.452  1.00  0.00     0.039 A 
ATOM     31  C   UNL A   1      35.443  34.570  29.013  1.00  0.00     0.014 A 
ATOM     32  C   UNL A   1      33.915  33.462  30.532  1.00  0.00     0.014 A 
ATOM     33  C   UNL A   1      36.520  33.968  29.665  1.00  0.00     0.010 A 
ATOM     34  C   UNL A   1      34.994  32.920  31.227  1.00  0.00     0.010 A 
ATOM     35  C   UNL A   1      36.304  33.144  30.782  1.00  0.00    -0.014 A 
BRANCH  35  36
ATOM     36  C   UNL A   1      37.440  32.463  31.454  1.00  0.00     0.031 A 
ATOM     37  C   UNL A   1      38.149  31.330  30.761  1.00  0.00     0.074 A 
ATOM     38  C   UNL A   1      37.812  32.840  32.692  1.00  0.00     0.049 A 
ATOM     39  N   UNL A   1      39.144  30.591  31.186  1.00  0.00    -0.248 NA
ATOM     40  C   UNL A   1      37.656  30.954  29.425  1.00  0.00     0.031 C 
ATOM     41  C   UNL A   1      37.167  33.886  33.487  1.00  0.00     0.029 A 
ATOM     42  N   UNL A   1      38.819  32.381  33.502  1.00  0.00    -0.354 N 
ATOM     43  C   UNL A   1      39.376  29.657  30.185  1.00  0.00     0.074 A 
ATOM     44  C   UNL A   1      38.393  29.888  29.151  1.00  0.00     0.031 C 
ATOM     45  C   UNL A   1      37.806  34.001  34.663  1.00  0.00     0.029 A 
ATOM     46  C   UNL A   1      38.888  33.023  34.714  1.00  0.00     0.049 A 
ATOM     47  H   UNL A   1      39.434  31.658  33.240  1.00  0.00     0.167 HD
ATOM     48  C   UNL A   1      40.338  28.705  30.125  1.00  0.00     0.037 A 
ATOM     49  C   UNL A   1      39.734  32.841  35.746  1.00  0.00     0.037 A 
ATOM     50  C   UNL A   1      41.349  28.514  31.131  1.00  0.00     0.049 A 
ATOM     51  C   UNL A   1      40.828  31.814  35.624  1.00  0.00     0.074 A 
ATOM     52  C   UNL A   1      42.414  27.629  31.127  1.00  0.00     0.029 A 
ATOM     53  N   UNL A   1      41.424  29.227  32.316  1.00  0.00    -0.354 N 
ATOM     54  N   UNL A   1      41.090  30.993  34.635  1.00  0.00    -0.248 NA
ATOM     55  C   UNL A   1      41.760  31.702  36.756  1.00  0.00     0.031 C 
ATOM     56  C   UNL A   1      43.113  27.782  32.328  1.00  0.00     0.029 A 
ATOM     57  C   UNL A   1      42.511  28.794  33.058  1.00  0.00     0.049 A 
ATOM     58  H   UNL A   1      40.797  29.935  32.592  1.00  0.00     0.167 HD
ATOM     59  C   UNL A   1      42.234  30.301  35.006  1.00  0.00     0.074 A 
ATOM     60  C   UNL A   1      42.626  30.807  36.304  1.00  0.00     0.031 C 
ATOM     61  C   UNL A   1      42.902  29.331  34.334  1.00  0.00     0.037 A 
BRANCH  48  62
ATOM     62  C   UNL A   1      40.358  27.800  28.929  1.00  0.00     0.064 A 
ATOM     63  C   UNL A   1      41.123  28.100  27.791  1.00  0.00     0.173 A 
ATOM     64  C   UNL A   1      39.659  26.584  28.948  1.00  0.00     0.173 A 
ATOM     65  F   UNL A   1      41.800  29.256  27.719  1.00  0.00    -0.203 F 
ATOM     66  C   UNL A   1      41.175  27.222  26.711  1.00  0.00     0.198 A 
ATOM     67  C   UNL A   1      39.735  25.696  27.877  1.00  0.00     0.198 A 
ATOM     68  F   UNL A   1      38.916  26.247  30.013  1.00  0.00    -0.203 F 
ATOM     69  F   UNL A   1      41.885  27.545  25.622  1.00  0.00    -0.200 F 
ATOM     70  C   UNL A   1      40.489  26.017  26.760  1.00  0.00     0.200 A 
ATOM     71  F   UNL A   1      39.083  24.527  27.931  1.00  0.00    -0.200 F 
ATOM     72  F   UNL A   1      40.555  25.166  25.726  1.00  0.00    -0.200 F 
ENDBRANCH  48  62
BRANCH  49  73
ATOM     73  C   UNL A   1      39.608  33.667  36.976  1.00  0.00     0.064 A 
ATOM     74  C   UNL A   1      38.823  33.238  38.057  1.00  0.00     0.173 A 
ATOM     75  C   UNL A   1      40.231  34.919  37.080  1.00  0.00     0.173 A 
ATOM     76  F   UNL A   1      38.193  32.055  37.998  1.00  0.00    -0.203 F 
ATOM     77  C   UNL A   1      38.634  34.046  39.176  1.00  0.00     0.198 A 
ATOM     78  C   UNL A   1      40.066  35.713  38.213  1.00  0.00     0.198 A 
ATOM     79  F   UNL A   1      40.999  35.373  36.078  1.00  0.00    -0.203 F 
ATOM     80  F   UNL A   1      37.827  33.639  40.164  1.00  0.00    -0.200 F 
ATOM     81  C   UNL A   1      39.257  35.282  39.254  1.00  0.00     0.200 A 
ATOM     82  F   UNL A   1      40.681  36.901  38.291  1.00  0.00    -0.200 F 
ATOM     83  F   UNL A   1      39.068  36.063  40.326  1.00  0.00    -0.200 F 
ENDBRANCH  49  73
BRANCH  61  84
ATOM     84  C   UNL A   1      44.159  28.804  34.960  1.00  0.00     0.064 A 
ATOM     85  C   UNL A   1      44.149  27.696  35.821  1.00  0.00     0.173 A 
ATOM     86  C   UNL A   1      45.395  29.406  34.678  1.00  0.00     0.173 A 
ATOM     87  F   UNL A   1      42.991  27.093  36.131  1.00  0.00    -0.203 F 
ATOM     88  C   UNL A   1      45.325  27.234  36.405  1.00  0.00     0.198 A 
ATOM     89  C   UNL A   1      46.572  28.921  35.238  1.00  0.00     0.198 A 
ATOM     90  F   UNL A   1      45.460  30.462  33.854  1.00  0.00    -0.203 F 
ATOM     91  F   UNL A   1      45.283  26.210  37.269  1.00  0.00    -0.200 F 
ATOM     92  C   UNL A   1      46.535  27.842  36.109  1.00  0.00     0.200 A 
ATOM     93  F   UNL A   1      47.743  29.502  34.941  1.00  0.00    -0.200 F 
ATOM     94  F   UNL A   1      47.666  27.396  36.672  1.00  0.00    -0.200 F 
ENDBRANCH  61  84
ENDBRANCH  35  36
ENDBRANCH  27  30
ENDBRANCH  25  26
ENDBRANCH  24  25
ENDBRANCH  23  24
ENDBRANCH  22  23
ENDBRANCH  21  22
ENDBRANCH   1  21
TORSDOF 21
ENDMDL
MODEL 2
REMARK VINA RESULT:      -9.9      1.329      3.316
REMARK SMILES C#CCN(CC(=O)NCCCCCCNC(=O)c1ccc(-c2c3nc(c(-c4c(F)c(F)c(F)c(F)c4F)c4ccc([nH]4)c(-c4c(F)c(F)c(F)c(F)c4F)c4nc(c(-c5c(F)c(F)c(F)c(F)c5F)c5ccc2[nH]5)C=C4)C=C3)cc1)C(=O)N[C@@H](C)CCCC
REMARK SMILES IDX 9 1 8 2 6 3 7 4 5 6 4 7 3 8 2 9 1 10 81 11 82 12 83 13 84 15
REMARK SMILES IDX 85 16 86 17 87 18 88 19 89 20 10 21 11 22 12 23 13 24 14 25
REMARK SMILES IDX 15 26 16 27 17 29 18 30 19 31 80 32 20 33 79 34 21 35 22 36
REMARK SMILES IDX 23 37 73 38 24 39 78 40 72 41 74 42 25 43 77 44 71 45 70 46
REMARK SMILES IDX 26 48 58 49 38 50 57 51 39 52 42 53 56 54 75 55 40 56 41 57
REMARK SMILES IDX 55 59 76 60 43 61 27 62 28 63 36 64 29 65 30 66 34 67 37 68
REMARK SMILES IDX 31 69 32 70 35 71 33 72 59 73 60 74 68 75 61 76 62 77 66 78
REMARK SMILES IDX 69 79 63 80 64 81 67 82 65 83 44 84 45 85 53 86 46 87 47 88
REMARK SMILES IDX 51 89 54 90 48 91 49 92 52 93 50 94
REMARK H PARENT 8 5 83 14 15 28 74 47 42 58
REMARK Flexibility Score: inf
ROOT
ATOM      1  C   UNL A   1      33.186  27.981  25.660  1.00  0.00     0.116 C 
ENDROOT
BRANCH   1   2
ATOM      2  N   UNL A   1      32.590  26.700  25.942  1.00  0.00    -0.355 N 
ATOM      3  C   UNL A   1      33.131  25.460  25.820  1.00  0.00     0.239 C 
ATOM      4  O   UNL A   1      32.560  24.541  26.417  1.00  0.00    -0.273 OA
ATOM      5  H   UNL A   1      31.662  26.728  26.268  1.00  0.00     0.163 HD
BRANCH   3   6
ATOM      6  C   UNL A   1      34.481  25.229  25.122  1.00  0.00     0.222 C 
BRANCH   6   7
ATOM      7  N   UNL A   1      34.933  23.840  24.979  1.00  0.00    -0.304 N 
BRANCH   7   8
ATOM      8  C   UNL A   1      35.682  23.290  26.105  1.00  0.00     0.211 C 
BRANCH   8   9
ATOM      9  C   UNL A   1      36.990  22.615  25.727  1.00  0.00    -0.085 C 
ATOM     10  C   UNL A   1      38.113  22.036  25.403  1.00  0.00     0.006 C 
ENDBRANCH   8   9
ENDBRANCH   7   8
BRANCH   7  11
ATOM     11  C   UNL A   1      34.748  22.997  23.922  1.00  0.00     0.318 C 
ATOM     12  O   UNL A   1      35.158  23.286  22.790  1.00  0.00    -0.249 OA
ATOM     13  N   UNL A   1      34.124  21.812  23.993  1.00  0.00    -0.336 N 
ATOM     14  H   UNL A   1      34.172  21.337  23.132  1.00  0.00     0.165 HD
BRANCH  13  15
ATOM     15  C   UNL A   1      33.397  21.027  24.980  1.00  0.00     0.080 C 
ATOM     16  C   UNL A   1      31.929  21.463  24.963  1.00  0.00     0.031 C 
BRANCH  15  17
ATOM     17  C   UNL A   1      33.501  19.516  24.712  1.00  0.00     0.024 C 
BRANCH  17  18
ATOM     18  C   UNL A   1      32.512  18.924  23.699  1.00  0.00     0.002 C 
BRANCH  18  19
ATOM     19  C   UNL A   1      32.958  17.703  22.894  1.00  0.00    -0.003 C 
ATOM     20  C   UNL A   1      34.097  16.904  23.508  1.00  0.00     0.004 C 
ENDBRANCH  18  19
ENDBRANCH  17  18
ENDBRANCH  15  17
ENDBRANCH  13  15
ENDBRANCH   7  11
ENDBRANCH   6   7
ENDBRANCH   3   6
ENDBRANCH   1   2
BRANCH   1  21
ATOM     21  C   UNL A   1      33.139  28.921  26.859  1.00  0.00     0.021 C 
BRANCH  21  22
ATOM     22  C   UNL A   1      31.802  29.651  27.034  1.00  0.00     0.002 C 
BRANCH  22  23
ATOM     23  C   UNL A   1      31.537  30.786  26.039  1.00  0.00     0.002 C 
BRANCH  23  24
ATOM     24  C   UNL A   1      31.366  32.177  26.657  1.00  0.00     0.021 C 
BRANCH  24  25
ATOM     25  C   UNL A   1      32.651  32.801  27.179  1.00  0.00     0.116 C 
BRANCH  25  26
ATOM     26  N   UNL A   1      32.453  34.179  27.588  1.00  0.00    -0.352 N 
ATOM     27  C   UNL A   1      33.023  34.863  28.630  1.00  0.00     0.251 C 
ATOM     28  H   UNL A   1      31.819  34.695  27.040  1.00  0.00     0.163 HD
ATOM     29  O   UNL A   1      32.582  35.959  28.959  1.00  0.00    -0.269 OA
BRANCH  27  30
ATOM     30  C   UNL A   1      34.166  34.280  29.367  1.00  0.00     0.039 A 
ATOM     31  C   UNL A   1      35.450  34.431  28.837  1.00  0.00     0.014 A 
ATOM     32  C   UNL A   1      33.975  33.545  30.542  1.00  0.00     0.014 A 
ATOM     33  C   UNL A   1      36.543  33.860  29.492  1.00  0.00     0.010 A 
ATOM     34  C   UNL A   1      35.073  33.038  31.233  1.00  0.00     0.010 A 
ATOM     35  C   UNL A   1      36.363  33.165  30.700  1.00  0.00    -0.014 A 
BRANCH  35  36
ATOM     36  C   UNL A   1      37.512  32.516  31.379  1.00  0.00     0.031 A 
ATOM     37  C   UNL A   1      38.218  31.361  30.719  1.00  0.00     0.074 A 
ATOM     38  C   UNL A   1      37.899  32.940  32.598  1.00  0.00     0.049 A 
ATOM     39  N   UNL A   1      39.223  30.644  31.157  1.00  0.00    -0.248 NA
ATOM     40  C   UNL A   1      37.708  30.933  29.405  1.00  0.00     0.031 C 
ATOM     41  C   UNL A   1      37.260  34.012  33.363  1.00  0.00     0.029 A 
ATOM     42  N   UNL A   1      38.921  32.516  33.410  1.00  0.00    -0.354 N 
ATOM     43  C   UNL A   1      39.446  29.674  30.188  1.00  0.00     0.074 A 
ATOM     44  C   UNL A   1      38.447  29.861  29.160  1.00  0.00     0.031 C 
ATOM     45  C   UNL A   1      37.915  34.173  34.524  1.00  0.00     0.029 A 
ATOM     46  C   UNL A   1      39.003  33.203  34.596  1.00  0.00     0.049 A 
ATOM     47  H   UNL A   1      39.536  31.787  33.165  1.00  0.00     0.167 HD
ATOM     48  C   UNL A   1      40.412  28.726  30.149  1.00  0.00     0.037 A 
ATOM     49  C   UNL A   1      39.865  33.065  35.622  1.00  0.00     0.037 A 
ATOM     50  C   UNL A   1      41.439  28.577  31.146  1.00  0.00     0.049 A 
ATOM     51  C   UNL A   1      40.963  32.039  35.522  1.00  0.00     0.074 A 
ATOM     52  C   UNL A   1      42.508  27.699  31.160  1.00  0.00     0.029 A 
ATOM     53  N   UNL A   1      41.526  29.334  32.304  1.00  0.00    -0.354 N 
ATOM     54  N   UNL A   1      41.215  31.183  34.560  1.00  0.00    -0.248 NA
ATOM     55  C   UNL A   1      41.911  31.974  36.643  1.00  0.00     0.031 C 
ATOM     56  C   UNL A   1      43.224  27.900  32.344  1.00  0.00     0.029 A 
ATOM     57  C   UNL A   1      42.626  28.935  33.045  1.00  0.00     0.049 A 
ATOM     58  H   UNL A   1      40.900  30.049  32.562  1.00  0.00     0.167 HD
ATOM     59  C   UNL A   1      42.369  30.512  34.940  1.00  0.00     0.074 A 
ATOM     60  C   UNL A   1      42.775  31.067  36.213  1.00  0.00     0.031 C 
ATOM     61  C   UNL A   1      43.032  29.521  34.294  1.00  0.00     0.037 A 
BRANCH  48  62
ATOM     62  C   UNL A   1      40.420  27.777  28.987  1.00  0.00     0.064 A 
ATOM     63  C   UNL A   1      41.229  27.999  27.862  1.00  0.00     0.173 A 
ATOM     64  C   UNL A   1      39.663  26.597  29.029  1.00  0.00     0.173 A 
ATOM     65  F   UNL A   1      41.963  29.117  27.767  1.00  0.00    -0.203 F 
ATOM     66  C   UNL A   1      41.267  27.080  26.815  1.00  0.00     0.198 A 
ATOM     67  C   UNL A   1      39.724  25.668  27.994  1.00  0.00     0.198 A 
ATOM     68  F   UNL A   1      38.876  26.336  30.084  1.00  0.00    -0.203 F 
ATOM     69  F   UNL A   1      42.021  27.328  25.736  1.00  0.00    -0.200 F 
ATOM     70  C   UNL A   1      40.523  25.911  26.887  1.00  0.00     0.200 A 
ATOM     71  F   UNL A   1      39.015  24.533  28.071  1.00  0.00    -0.200 F 
ATOM     72  F   UNL A   1      40.575  25.020  25.887  1.00  0.00    -0.200 F 
ENDBRANCH  48  62
BRANCH  49  73
ATOM     73  C   UNL A   1      39.752  33.935  36.821  1.00  0.00     0.064 A 
ATOM     74  C   UNL A   1      38.962  33.555  37.917  1.00  0.00     0.173 A 
ATOM     75  C   UNL A   1      40.392  35.180  36.881  1.00  0.00     0.173 A 
ATOM     76  F   UNL A   1      38.314  32.381  37.900  1.00  0.00    -0.203 F 
ATOM     77  C   UNL A   1      38.785  34.404  39.007  1.00  0.00     0.198 A 
ATOM     78  C   UNL A   1      40.240  36.016  37.986  1.00  0.00     0.198 A 
ATOM     79  F   UNL A   1      41.166  35.587  35.864  1.00  0.00    -0.203 F 
ATOM     80  F   UNL A   1      37.972  34.044  40.009  1.00  0.00    -0.200 F 
ATOM     81  C   UNL A   1      39.426  35.633  39.041  1.00  0.00     0.200 A 
ATOM     82  F   UNL A   1      40.872  37.197  38.021  1.00  0.00    -0.200 F 
ATOM     83  F   UNL A   1      39.249  36.454  40.085  1.00  0.00    -0.200 F 
ENDBRANCH  49  73
BRANCH  61  84
ATOM     84  C   UNL A   1      44.301  29.024  34.922  1.00  0.00     0.064 A 
ATOM     85  C   UNL A   1      45.550  29.579  34.606  1.00  0.00     0.173 A 
ATOM     86  C   UNL A   1      44.262  27.989  35.868  1.00  0.00     0.173 A 
ATOM     87  F   UNL A   1      45.641  30.563  33.698  1.00  0.00    -0.203 F 
ATOM     88  C   UNL A   1      46.717  29.091  35.187  1.00  0.00     0.198 A 
ATOM     89  C   UNL A   1      45.426  27.525  36.471  1.00  0.00     0.198 A 
ATOM     90  F   UNL A   1      43.091  27.430  36.212  1.00  0.00    -0.203 F 
ATOM     91  F   UNL A   1      47.904  29.598  34.827  1.00  0.00    -0.200 F 
ATOM     92  C   UNL A   1      46.654  28.069  36.122  1.00  0.00     0.200 A 
ATOM     93  F   UNL A   1      45.363  26.547  37.385  1.00  0.00    -0.200 F 
ATOM     94  F   UNL A   1      47.778  27.600  36.681  1.00  0.00    -0.200 F 
ENDBRANCH  61  84
ENDBRANCH  35  36
ENDBRANCH  27  30
ENDBRANCH  25  26
ENDBRANCH  24  25
ENDBRANCH  23  24
ENDBRANCH  22  23
ENDBRANCH  21  22
ENDBRANCH   1  21
TORSDOF 21
ENDMDL
MODEL 3
REMARK VINA RESULT:      -9.8      6.444     11.150
REMARK SMILES C#CCN(CC(=O)NCCCCCCNC(=O)c1ccc(-c2c3nc(c(-c4c(F)c(F)c(F)c(F)c4F)c4ccc([nH]4)c(-c4c(F)c(F)c(F)c(F)c4F)c4nc(c(-c5c(F)c(F)c(F)c(F)c5F)c5ccc2[nH]5)C=C4)C=C3)cc1)C(=O)N[C@@H](C)CCCC
REMARK SMILES IDX 9 1 8 2 6 3 7 4 5 6 4 7 3 8 2 9 1 10 81 11 82 12 83 13 84 15
REMARK SMILES IDX 85 16 86 17 87 18 88 19 89 20 10 21 11 22 12 23 13 24 14 25
REMARK SMILES IDX 15 26 16 27 17 29 18 30 19 31 80 32 20 33 79 34 21 35 22 36
REMARK SMILES IDX 23 37 73 38 24 39 78 40 72 41 74 42 25 43 77 44 71 45 70 46
REMARK SMILES IDX 26 48 58 49 38 50 57 51 39 52 42 53 56 54 75 55 40 56 41 57
REMARK SMILES IDX 55 59 76 60 43 61 27 62 28 63 36 64 29 65 30 66 34 67 37 68
REMARK SMILES IDX 31 69 32 70 35 71 33 72 59 73 60 74 68 75 61 76 62 77 66 78
REMARK SMILES IDX 69 79 63 80 64 81 67 82 65 83 44 84 45 85 53 86 46 87 47 88
REMARK SMILES IDX 51 89 54 90 48 91 49 92 52 93 50 94
REMARK H PARENT 8 5 83 14 15 28 74 47 42 58
REMARK Flexibility Score: inf
ROOT
ATOM      1  C   UNL A   1      39.231  21.607  26.280  1.00  0.00     0.116 C 
ENDROOT
BRANCH   1   2
ATOM      2  N   UNL A   1      38.603  21.872  25.011  1.00  0.00    -0.355 N 
ATOM      3  C   UNL A   1      37.291  21.782  24.671  1.00  0.00     0.239 C 
ATOM      4  O   UNL A   1      36.942  22.359  23.635  1.00  0.00    -0.273 OA
ATOM      5  H   UNL A   1      39.209  22.158  24.291  1.00  0.00     0.163 HD
BRANCH   3   6
ATOM      6  C   UNL A   1      36.252  21.143  25.607  1.00  0.00     0.222 C 
BRANCH   6   7
ATOM      7  N   UNL A   1      35.197  22.016  26.133  1.00  0.00    -0.304 N 
BRANCH   7   8
ATOM      8  C   UNL A   1      35.598  23.382  26.460  1.00  0.00     0.211 C 
BRANCH   8   9
ATOM      9  C   UNL A   1      34.880  24.461  25.666  1.00  0.00    -0.085 C 
ATOM     10  C   UNL A   1      34.263  25.387  24.986  1.00  0.00     0.006 C 
ENDBRANCH   8   9
ENDBRANCH   7   8
BRANCH   7  11
ATOM     11  C   UNL A   1      33.886  21.713  26.362  1.00  0.00     0.318 C 
ATOM     12  O   UNL A   1      33.430  21.666  27.512  1.00  0.00    -0.249 OA
ATOM     13  N   UNL A   1      32.988  21.442  25.404  1.00  0.00    -0.336 N 
ATOM     14  H   UNL A   1      32.089  21.327  25.788  1.00  0.00     0.165 HD
BRANCH  13  15
ATOM     15  C   UNL A   1      32.963  21.269  23.958  1.00  0.00     0.080 C 
ATOM     16  C   UNL A   1      32.387  19.885  23.644  1.00  0.00     0.031 C 
BRANCH  15  17
ATOM     17  C   UNL A   1      32.133  22.357  23.257  1.00  0.00     0.024 C 
BRANCH  17  18
ATOM     18  C   UNL A   1      31.132  23.131  24.126  1.00  0.00     0.002 C 
BRANCH  18  19
ATOM     19  C   UNL A   1      30.753  24.547  23.692  1.00  0.00    -0.003 C 
ATOM     20  C   UNL A   1      31.586  25.120  22.555  1.00  0.00     0.004 C 
ENDBRANCH  18  19
ENDBRANCH  17  18
ENDBRANCH  15  17
ENDBRANCH  13  15
ENDBRANCH   7  11
ENDBRANCH   6   7
ENDBRANCH   3   6
ENDBRANCH   1   2
BRANCH   1  21
ATOM     21  C   UNL A   1      40.483  22.450  26.497  1.00  0.00     0.021 C 
BRANCH  21  22
ATOM     22  C   UNL A   1      41.563  21.766  27.343  1.00  0.00     0.002 C 
BRANCH  22  23
ATOM     23  C   UNL A   1      41.373  20.260  27.560  1.00  0.00     0.002 C 
BRANCH  23  24
ATOM     24  C   UNL A   1      42.389  19.360  26.851  1.00  0.00     0.021 C 
BRANCH  24  25
ATOM     25  C   UNL A   1      42.409  19.496  25.337  1.00  0.00     0.116 C 
BRANCH  25  26
ATOM     26  N   UNL A   1      43.640  18.984  24.765  1.00  0.00    -0.352 N 
ATOM     27  C   UNL A   1      44.779  19.660  24.416  1.00  0.00     0.251 C 
ATOM     28  H   UNL A   1      43.658  18.012  24.606  1.00  0.00     0.163 HD
ATOM     29  O   UNL A   1      45.645  19.101  23.750  1.00  0.00    -0.269 OA
BRANCH  27  30
ATOM     30  C   UNL A   1      44.967  21.067  24.832  1.00  0.00     0.039 A 
ATOM     31  C   UNL A   1      45.507  21.324  26.095  1.00  0.00     0.014 A 
ATOM     32  C   UNL A   1      44.568  22.128  24.012  1.00  0.00     0.014 A 
ATOM     33  C   UNL A   1      45.662  22.642  26.528  1.00  0.00     0.010 A 
ATOM     34  C   UNL A   1      44.790  23.442  24.415  1.00  0.00     0.010 A 
ATOM     35  C   UNL A   1      45.311  23.712  25.688  1.00  0.00    -0.014 A 
BRANCH  35  36
ATOM     36  C   UNL A   1      45.429  25.115  26.157  1.00  0.00     0.031 A 
ATOM     37  C   UNL A   1      46.761  25.816  26.098  1.00  0.00     0.074 A 
ATOM     38  C   UNL A   1      44.353  25.746  26.664  1.00  0.00     0.049 A 
ATOM     39  N   UNL A   1      47.078  27.028  26.481  1.00  0.00    -0.248 NA
ATOM     40  C   UNL A   1      47.896  25.043  25.567  1.00  0.00     0.031 C 
ATOM     41  C   UNL A   1      43.023  25.155  26.825  1.00  0.00     0.029 A 
ATOM     42  N   UNL A   1      44.208  27.024  27.144  1.00  0.00    -0.354 N 
ATOM     43  C   UNL A   1      48.443  27.150  26.259  1.00  0.00     0.074 A 
ATOM     44  C   UNL A   1      48.907  25.879  25.751  1.00  0.00     0.031 C 
ATOM     45  C   UNL A   1      42.195  26.073  27.349  1.00  0.00     0.029 A 
ATOM     46  C   UNL A   1      42.938  27.308  27.582  1.00  0.00     0.049 A 
ATOM     47  H   UNL A   1      44.946  27.675  27.173  1.00  0.00     0.167 HD
ATOM     48  C   UNL A   1      49.234  28.234  26.441  1.00  0.00     0.037 A 
ATOM     49  C   UNL A   1      42.434  28.440  28.109  1.00  0.00     0.037 A 
ATOM     50  C   UNL A   1      48.759  29.514  26.895  1.00  0.00     0.049 A 
ATOM     51  C   UNL A   1      43.327  29.645  28.245  1.00  0.00     0.074 A 
ATOM     52  C   UNL A   1      49.466  30.695  27.039  1.00  0.00     0.029 A 
ATOM     53  N   UNL A   1      47.452  29.780  27.269  1.00  0.00    -0.354 N 
ATOM     54  N   UNL A   1      44.599  29.773  27.952  1.00  0.00    -0.248 NA
ATOM     55  C   UNL A   1      42.708  30.871  28.768  1.00  0.00     0.031 C 
ATOM     56  C   UNL A   1      48.594  31.669  27.535  1.00  0.00     0.029 A 
ATOM     57  C   UNL A   1      47.334  31.105  27.655  1.00  0.00     0.049 A 
ATOM     58  H   UNL A   1      46.716  29.125  27.263  1.00  0.00     0.167 HD
ATOM     59  C   UNL A   1      44.919  31.098  28.213  1.00  0.00     0.074 A 
ATOM     60  C   UNL A   1      43.706  31.737  28.676  1.00  0.00     0.031 C 
ATOM     61  C   UNL A   1      46.111  31.731  28.084  1.00  0.00     0.037 A 
BRANCH  48  62
ATOM     62  C   UNL A   1      50.698  28.095  26.142  1.00  0.00     0.064 A 
ATOM     63  C   UNL A   1      51.194  28.197  24.833  1.00  0.00     0.173 A 
ATOM     64  C   UNL A   1      51.622  27.926  27.183  1.00  0.00     0.173 A 
ATOM     65  F   UNL A   1      50.351  28.346  23.801  1.00  0.00    -0.203 F 
ATOM     66  C   UNL A   1      52.562  28.121  24.578  1.00  0.00     0.198 A 
ATOM     67  C   UNL A   1      52.991  27.878  26.927  1.00  0.00     0.198 A 
ATOM     68  F   UNL A   1      51.200  27.827  28.453  1.00  0.00    -0.203 F 
ATOM     69  F   UNL A   1      53.010  28.188  23.317  1.00  0.00    -0.200 F 
ATOM     70  C   UNL A   1      53.458  27.972  25.626  1.00  0.00     0.200 A 
ATOM     71  F   UNL A   1      53.856  27.747  27.942  1.00  0.00    -0.200 F 
ATOM     72  F   UNL A   1      54.775  27.916  25.380  1.00  0.00    -0.200 F 
ENDBRANCH  48  62
BRANCH  49  73
ATOM     73  C   UNL A   1      41.007  28.508  28.519  1.00  0.00     0.064 A 
ATOM     74  C   UNL A   1      40.025  28.992  27.641  1.00  0.00     0.173 A 
ATOM     75  C   UNL A   1      40.601  28.134  29.808  1.00  0.00     0.173 A 
ATOM     76  F   UNL A   1      40.367  29.380  26.403  1.00  0.00    -0.203 F 
ATOM     77  C   UNL A   1      38.701  29.137  28.050  1.00  0.00     0.198 A 
ATOM     78  C   UNL A   1      39.270  28.250  30.205  1.00  0.00     0.198 A 
ATOM     79  F   UNL A   1      41.498  27.657  30.683  1.00  0.00    -0.203 F 
ATOM     80  F   UNL A   1      37.798  29.664  27.212  1.00  0.00    -0.200 F 
ATOM     81  C   UNL A   1      38.324  28.764  29.331  1.00  0.00     0.200 A 
ATOM     82  F   UNL A   1      38.907  27.876  31.439  1.00  0.00    -0.200 F 
ATOM     83  F   UNL A   1      37.053  28.912  29.727  1.00  0.00    -0.200 F 
ENDBRANCH  49  73
BRANCH  61  84
ATOM     84  C   UNL A   1      46.144  33.200  28.384  1.00  0.00     0.064 A 
ATOM     85  C   UNL A   1      45.900  34.164  27.394  1.00  0.00     0.173 A 
ATOM     86  C   UNL A   1      46.403  33.648  29.688  1.00  0.00     0.173 A 
ATOM     87  F   UNL A   1      45.660  33.785  26.129  1.00  0.00    -0.203 F 
ATOM     88  C   UNL A   1      45.953  35.522  27.690  1.00  0.00     0.198 A 
ATOM     89  C   UNL A   1      46.423  35.007  29.988  1.00  0.00     0.198 A 
ATOM     90  F   UNL A   1      46.633  32.767  30.673  1.00  0.00    -0.203 F 
ATOM     91  F   UNL A   1      45.774  36.425  26.716  1.00  0.00    -0.200 F 
ATOM     92  C   UNL A   1      46.208  35.942  28.987  1.00  0.00     0.200 A 
ATOM     93  F   UNL A   1      46.656  35.411  31.244  1.00  0.00    -0.200 F 
ATOM     94  F   UNL A   1      46.258  37.251  29.271  1.00  0.00    -0.200 F 
ENDBRANCH  61  84
ENDBRANCH  35  36
ENDBRANCH  27  30
ENDBRANCH  25  26
ENDBRANCH  24  25
ENDBRANCH  23  24
ENDBRANCH  22  23
ENDBRANCH  21  22
ENDBRANCH   1  21
TORSDOF 21
ENDMDL
