MODEL 1
REMARK VINA RESULT:     -12.9      0.000      0.000
REMARK SMILES O=C(NCCCCCCNC(=O)c1ccccc1[C@H](O)c1ccc(F)c(F)c1)c1ccc(-c2c3nc(c(-c4c(F)c(F)c(F)c(F)c4F)c4ccc([nH]4)c(-c4c(F)c(F)c(F)c(F)c4F)c4nc(c(-c5c(F)c(F)c(F)c(F)c5F)c5ccc2[nH]5)C=C4)C=C3)cc1
REMARK SMILES IDX 6 1 5 2 4 3 3 4 1 5 2 6 29 8 30 9 91 10 31 11 90 12 32 13
REMARK SMILES IDX 33 14 34 15 84 16 35 17 89 18 83 19 85 20 36 21 88 22 82 23
REMARK SMILES IDX 81 24 37 26 69 27 49 28 68 29 50 30 53 31 67 32 86 33 51 34
REMARK SMILES IDX 52 35 66 37 87 38 54 39 38 40 39 41 47 42 40 43 41 44 45 45
REMARK SMILES IDX 48 46 42 47 43 48 46 49 44 50 70 51 71 52 79 53 72 54 73 55
REMARK SMILES IDX 77 56 80 57 74 58 75 59 78 60 76 61 55 62 56 63 64 64 57 65
REMARK SMILES IDX 58 66 62 67 65 68 59 69 60 70 63 71 61 72 7 73 8 74 9 75
REMARK SMILES IDX 10 76 11 77 12 79 13 80 14 81 18 82 15 83 17 84 16 85 19 86
REMARK SMILES IDX 21 87 22 88 28 89 23 90 26 91 24 92 27 93 25 94 20 95
REMARK H PARENT 3 7 85 25 53 36 10 78 20 96
REMARK Flexibility Score: inf
ROOT
ATOM      1  C   UNL A   1      31.682  30.724  26.081  1.00  0.00     0.002 C 
ENDROOT
BRANCH   1   2
ATOM      2  C   UNL A   1      31.441  32.153  26.565  1.00  0.00     0.021 C 
BRANCH   2   3
ATOM      3  C   UNL A   1      32.583  32.771  27.356  1.00  0.00     0.116 C 
BRANCH   3   4
ATOM      4  N   UNL A   1      32.364  34.173  27.667  1.00  0.00    -0.352 N 
ATOM      5  O   UNL A   1      32.626  36.093  28.826  1.00  0.00    -0.269 OA
ATOM      6  C   UNL A   1      33.011  34.956  28.592  1.00  0.00     0.251 C 
ATOM      7  H   UNL A   1      31.660  34.621  27.145  1.00  0.00     0.163 HD
BRANCH   6   8
ATOM      8  C   UNL A   1      34.174  34.404  29.319  1.00  0.00     0.039 A 
ATOM      9  C   UNL A   1      34.000  33.712  30.522  1.00  0.00     0.014 A 
ATOM     10  C   UNL A   1      35.452  34.564  28.777  1.00  0.00     0.014 A 
ATOM     11  C   UNL A   1      35.108  33.267  31.231  1.00  0.00     0.010 A 
ATOM     12  C   UNL A   1      36.560  34.041  29.449  1.00  0.00     0.010 A 
ATOM     13  C   UNL A   1      36.394  33.391  30.682  1.00  0.00    -0.014 A 
BRANCH  13  14
ATOM     14  C   UNL A   1      37.530  32.700  31.338  1.00  0.00     0.031 A 
ATOM     15  C   UNL A   1      38.217  31.532  30.696  1.00  0.00     0.074 A 
ATOM     16  C   UNL A   1      37.919  33.145  32.550  1.00  0.00     0.049 A 
ATOM     17  N   UNL A   1      39.191  30.795  31.166  1.00  0.00    -0.248 NA
ATOM     18  C   UNL A   1      37.750  31.129  29.361  1.00  0.00     0.031 C 
ATOM     19  C   UNL A   1      37.302  34.262  33.272  1.00  0.00     0.029 A 
ATOM     20  N   UNL A   1      38.912  32.717  33.392  1.00  0.00    -0.354 N 
ATOM     21  C   UNL A   1      39.440  29.831  30.198  1.00  0.00     0.074 A 
ATOM     22  C   UNL A   1      38.507  30.067  29.117  1.00  0.00     0.031 C 
ATOM     23  C   UNL A   1      37.942  34.443  34.435  1.00  0.00     0.029 A 
ATOM     24  C   UNL A   1      38.963  33.414  34.574  1.00  0.00     0.049 A 
ATOM     25  H   UNL A   1      39.531  31.984  33.170  1.00  0.00     0.167 HD
ATOM     26  C   UNL A   1      40.368  28.844  30.223  1.00  0.00     0.037 A 
ATOM     27  C   UNL A   1      39.717  33.220  35.672  1.00  0.00     0.037 A 
ATOM     28  C   UNL A   1      41.305  28.640  31.298  1.00  0.00     0.049 A 
ATOM     29  C   UNL A   1      40.710  32.092  35.674  1.00  0.00     0.074 A 
ATOM     30  C   UNL A   1      42.340  27.723  31.374  1.00  0.00     0.029 A 
ATOM     31  N   UNL A   1      41.314  29.350  32.489  1.00  0.00    -0.354 N 
ATOM     32  N   UNL A   1      40.990  31.238  34.722  1.00  0.00    -0.248 NA
ATOM     33  C   UNL A   1      41.483  31.897  36.907  1.00  0.00     0.031 C 
ATOM     34  C   UNL A   1      42.931  27.834  32.636  1.00  0.00     0.029 A 
ATOM     35  C   UNL A   1      42.303  28.858  33.327  1.00  0.00     0.049 A 
ATOM     36  H   UNL A   1      40.707  30.094  32.708  1.00  0.00     0.167 HD
ATOM     37  C   UNL A   1      41.976  30.409  35.234  1.00  0.00     0.074 A 
ATOM     38  C   UNL A   1      42.270  30.884  36.570  1.00  0.00     0.031 C 
ATOM     39  C   UNL A   1      42.575  29.341  34.656  1.00  0.00     0.037 A 
BRANCH  26  40
ATOM     40  C   UNL A   1      40.420  27.883  29.072  1.00  0.00     0.064 A 
ATOM     41  C   UNL A   1      39.652  26.711  29.052  1.00  0.00     0.173 A 
ATOM     42  C   UNL A   1      41.162  28.201  27.923  1.00  0.00     0.173 A 
ATOM     43  F   UNL A   1      38.926  26.359  30.124  1.00  0.00    -0.203 F 
ATOM     44  C   UNL A   1      39.627  25.890  27.925  1.00  0.00     0.198 A 
ATOM     45  C   UNL A   1      41.116  27.393  26.790  1.00  0.00     0.198 A 
ATOM     46  F   UNL A   1      41.905  29.318  27.887  1.00  0.00    -0.203 F 
ATOM     47  F   UNL A   1      38.898  24.767  27.931  1.00  0.00    -0.200 F 
ATOM     48  C   UNL A   1      40.349  26.238  26.793  1.00  0.00     0.200 A 
ATOM     49  F   UNL A   1      41.800  27.741  25.691  1.00  0.00    -0.200 F 
ATOM     50  F   UNL A   1      40.303  25.462  25.701  1.00  0.00    -0.200 F 
ENDBRANCH  26  40
BRANCH  27  51
ATOM     51  C   UNL A   1      39.525  34.077  36.870  1.00  0.00     0.064 A 
ATOM     52  C   UNL A   1      40.133  35.335  36.969  1.00  0.00     0.173 A 
ATOM     53  C   UNL A   1      38.741  33.644  37.952  1.00  0.00     0.173 A 
ATOM     54  F   UNL A   1      40.905  35.785  35.969  1.00  0.00    -0.203 F 
ATOM     55  C   UNL A   1      39.992  36.114  38.116  1.00  0.00     0.198 A 
ATOM     56  C   UNL A   1      38.571  34.440  39.083  1.00  0.00     0.198 A 
ATOM     57  F   UNL A   1      38.132  32.450  37.907  1.00  0.00    -0.203 F 
ATOM     58  F   UNL A   1      40.634  37.286  38.209  1.00  0.00    -0.200 F 
ATOM     59  C   UNL A   1      39.206  35.668  39.169  1.00  0.00     0.200 A 
ATOM     60  F   UNL A   1      37.796  34.013  40.088  1.00  0.00    -0.200 F 
ATOM     61  F   UNL A   1      39.072  36.417  40.271  1.00  0.00    -0.200 F 
ENDBRANCH  27  51
BRANCH  39  62
ATOM     62  C   UNL A   1      43.611  28.620  35.466  1.00  0.00     0.064 A 
ATOM     63  C   UNL A   1      44.973  28.943  35.362  1.00  0.00     0.173 A 
ATOM     64  C   UNL A   1      43.239  27.624  36.380  1.00  0.00     0.173 A 
ATOM     65  F   UNL A   1      45.381  29.873  34.485  1.00  0.00    -0.203 F 
ATOM     66  C   UNL A   1      45.926  28.278  36.127  1.00  0.00     0.198 A 
ATOM     67  C   UNL A   1      44.192  26.983  37.168  1.00  0.00     0.198 A 
ATOM     68  F   UNL A   1      41.950  27.282  36.521  1.00  0.00    -0.203 F 
ATOM     69  F   UNL A   1      47.225  28.567  35.975  1.00  0.00    -0.200 F 
ATOM     70  C   UNL A   1      45.534  27.306  37.035  1.00  0.00     0.200 A 
ATOM     71  F   UNL A   1      43.810  26.055  38.055  1.00  0.00    -0.200 F 
ATOM     72  F   UNL A   1      46.451  26.674  37.780  1.00  0.00    -0.200 F 
ENDBRANCH  39  62
ENDBRANCH  13  14
ENDBRANCH   6   8
ENDBRANCH   3   4
ENDBRANCH   2   3
ENDBRANCH   1   2
BRANCH   1  73
ATOM     73  C   UNL A   1      32.356  29.783  27.086  1.00  0.00     0.002 C 
BRANCH  73  74
ATOM     74  C   UNL A   1      31.546  28.556  27.526  1.00  0.00     0.021 C 
BRANCH  74  75
ATOM     75  C   UNL A   1      32.128  27.211  27.117  1.00  0.00     0.116 C 
BRANCH  75  76
ATOM     76  N   UNL A   1      31.165  26.339  26.490  1.00  0.00    -0.352 N 
ATOM     77  C   UNL A   1      30.918  26.168  25.158  1.00  0.00     0.251 C 
ATOM     78  H   UNL A   1      30.615  25.797  27.101  1.00  0.00     0.163 HD
ATOM     79  O   UNL A   1      30.169  25.271  24.779  1.00  0.00    -0.269 OA
BRANCH  77  80
ATOM     80  C   UNL A   1      31.509  27.061  24.139  1.00  0.00     0.045 A 
ATOM     81  C   UNL A   1      32.866  26.806  23.865  1.00  0.00     0.014 A 
ATOM     82  C   UNL A   1      30.871  28.193  23.593  1.00  0.00    -0.002 A 
ATOM     83  C   UNL A   1      33.599  27.654  23.036  1.00  0.00     0.001 A 
ATOM     84  C   UNL A   1      31.656  29.057  22.790  1.00  0.00     0.007 A 
ATOM     85  C   UNL A   1      32.995  28.786  22.505  1.00  0.00     0.000 A 
BRANCH  82  86
ATOM     86  C   UNL A   1      29.397  28.559  23.736  1.00  0.00     0.175 C 
BRANCH  86  87
ATOM     87  C   UNL A   1      28.945  29.802  22.954  1.00  0.00    -0.012 A 
ATOM     88  C   UNL A   1      28.424  29.746  21.642  1.00  0.00     0.010 A 
ATOM     89  C   UNL A   1      29.071  31.074  23.548  1.00  0.00     0.049 A 
ATOM     90  C   UNL A   1      28.028  30.904  20.964  1.00  0.00     0.043 A 
ATOM     91  C   UNL A   1      28.666  32.224  22.870  1.00  0.00     0.159 A 
ATOM     92  C   UNL A   1      28.146  32.138  21.586  1.00  0.00     0.158 A 
ATOM     93  F   UNL A   1      28.764  33.415  23.475  1.00  0.00    -0.204 F 
ATOM     94  F   UNL A   1      27.745  33.241  20.941  1.00  0.00    -0.204 F 
ENDBRANCH  86  87
BRANCH  86  95
ATOM     95  O   UNL A   1      28.511  27.482  23.452  1.00  0.00    -0.384 OA
ATOM     96  H   UNL A   1      27.594  27.793  23.514  1.00  0.00     0.211 HD
ENDBRANCH  86  95
ENDBRANCH  82  86
ENDBRANCH  77  80
ENDBRANCH  75  76
ENDBRANCH  74  75
ENDBRANCH  73  74
ENDBRANCH   1  73
TORSDOF 16
ENDMDL
MODEL 2
REMARK VINA RESULT:     -12.6      2.594      3.936
REMARK SMILES O=C(NCCCCCCNC(=O)c1ccccc1[C@H](O)c1ccc(F)c(F)c1)c1ccc(-c2c3nc(c(-c4c(F)c(F)c(F)c(F)c4F)c4ccc([nH]4)c(-c4c(F)c(F)c(F)c(F)c4F)c4nc(c(-c5c(F)c(F)c(F)c(F)c5F)c5ccc2[nH]5)C=C4)C=C3)cc1
REMARK SMILES IDX 6 1 5 2 4 3 3 4 1 5 2 6 29 8 30 9 91 10 31 11 90 12 32 13
REMARK SMILES IDX 33 14 34 15 84 16 35 17 89 18 83 19 85 20 36 21 88 22 82 23
REMARK SMILES IDX 81 24 37 26 69 27 49 28 68 29 50 30 53 31 67 32 86 33 51 34
REMARK SMILES IDX 52 35 66 37 87 38 54 39 38 40 39 41 47 42 40 43 41 44 45 45
REMARK SMILES IDX 48 46 42 47 43 48 46 49 44 50 70 51 71 52 79 53 72 54 73 55
REMARK SMILES IDX 77 56 80 57 74 58 75 59 78 60 76 61 55 62 56 63 64 64 57 65
REMARK SMILES IDX 58 66 62 67 65 68 59 69 60 70 63 71 61 72 7 73 8 74 9 75
REMARK SMILES IDX 10 76 11 77 12 79 13 80 14 81 18 82 15 83 17 84 16 85 19 86
REMARK SMILES IDX 21 87 22 88 28 89 23 90 26 91 24 92 27 93 25 94 20 95
REMARK H PARENT 3 7 85 25 53 36 10 78 20 96
REMARK Flexibility Score: inf
ROOT
ATOM      1  C   UNL A   1      31.740  30.654  26.232  1.00  0.00     0.002 C 
ENDROOT
BRANCH   1   2
ATOM      2  C   UNL A   1      31.506  32.102  26.659  1.00  0.00     0.021 C 
BRANCH   2   3
ATOM      3  C   UNL A   1      32.709  32.801  27.273  1.00  0.00     0.116 C 
BRANCH   3   4
ATOM      4  N   UNL A   1      32.429  34.169  27.668  1.00  0.00    -0.352 N 
ATOM      5  O   UNL A   1      32.594  36.020  28.952  1.00  0.00    -0.269 OA
ATOM      6  C   UNL A   1      33.028  34.916  28.654  1.00  0.00     0.251 C 
ATOM      7  H   UNL A   1      31.717  34.623  27.161  1.00  0.00     0.163 HD
BRANCH   6   8
ATOM      8  C   UNL A   1      34.199  34.363  29.368  1.00  0.00     0.039 A 
ATOM      9  C   UNL A   1      34.035  33.644  30.556  1.00  0.00     0.014 A 
ATOM     10  C   UNL A   1      35.474  34.549  28.827  1.00  0.00     0.014 A 
ATOM     11  C   UNL A   1      35.149  33.198  31.254  1.00  0.00     0.010 A 
ATOM     12  C   UNL A   1      36.589  34.026  29.487  1.00  0.00     0.010 A 
ATOM     13  C   UNL A   1      36.433  33.349  30.706  1.00  0.00    -0.014 A 
BRANCH  13  14
ATOM     14  C   UNL A   1      37.579  32.659  31.346  1.00  0.00     0.031 A 
ATOM     15  C   UNL A   1      38.263  31.497  30.691  1.00  0.00     0.074 A 
ATOM     16  C   UNL A   1      37.979  33.098  32.557  1.00  0.00     0.049 A 
ATOM     17  N   UNL A   1      39.244  30.761  31.146  1.00  0.00    -0.248 NA
ATOM     18  C   UNL A   1      37.783  31.099  29.358  1.00  0.00     0.031 C 
ATOM     19  C   UNL A   1      37.365  34.209  33.291  1.00  0.00     0.029 A 
ATOM     20  N   UNL A   1      38.983  32.670  33.385  1.00  0.00    -0.354 N 
ATOM     21  C   UNL A   1      39.487  29.802  30.171  1.00  0.00     0.074 A 
ATOM     22  C   UNL A   1      38.542  30.041  29.100  1.00  0.00     0.031 C 
ATOM     23  C   UNL A   1      38.017  34.386  34.448  1.00  0.00     0.029 A 
ATOM     24  C   UNL A   1      39.043  33.359  34.571  1.00  0.00     0.049 A 
ATOM     25  H   UNL A   1      39.601  31.939  33.153  1.00  0.00     0.167 HD
ATOM     26  C   UNL A   1      40.418  28.819  30.180  1.00  0.00     0.037 A 
ATOM     27  C   UNL A   1      39.810  33.162  35.659  1.00  0.00     0.037 A 
ATOM     28  C   UNL A   1      41.368  28.612  31.244  1.00  0.00     0.049 A 
ATOM     29  C   UNL A   1      40.806  32.038  35.645  1.00  0.00     0.074 A 
ATOM     30  C   UNL A   1      42.407  27.699  31.304  1.00  0.00     0.029 A 
ATOM     31  N   UNL A   1      41.386  29.316  32.439  1.00  0.00    -0.354 N 
ATOM     32  N   UNL A   1      41.079  31.190  34.685  1.00  0.00    -0.248 NA
ATOM     33  C   UNL A   1      41.594  31.839  36.868  1.00  0.00     0.031 C 
ATOM     34  C   UNL A   1      43.011  27.805  32.560  1.00  0.00     0.029 A 
ATOM     35  C   UNL A   1      42.386  28.822  33.263  1.00  0.00     0.049 A 
ATOM     36  H   UNL A   1      40.779  30.056  32.668  1.00  0.00     0.167 HD
ATOM     37  C   UNL A   1      42.073  30.362  35.182  1.00  0.00     0.074 A 
ATOM     38  C   UNL A   1      42.380  30.831  36.517  1.00  0.00     0.031 C 
ATOM     39  C   UNL A   1      42.671  29.299  34.592  1.00  0.00     0.037 A 
BRANCH  26  40
ATOM     40  C   UNL A   1      40.461  27.864  29.022  1.00  0.00     0.064 A 
ATOM     41  C   UNL A   1      39.684  26.698  28.997  1.00  0.00     0.173 A 
ATOM     42  C   UNL A   1      41.204  28.184  27.875  1.00  0.00     0.173 A 
ATOM     43  F   UNL A   1      38.957  26.346  30.067  1.00  0.00    -0.203 F 
ATOM     44  C   UNL A   1      39.652  25.885  27.865  1.00  0.00     0.198 A 
ATOM     45  C   UNL A   1      41.151  27.382  26.737  1.00  0.00     0.198 A 
ATOM     46  F   UNL A   1      41.956  29.295  27.845  1.00  0.00    -0.203 F 
ATOM     47  F   UNL A   1      38.913  24.767  27.866  1.00  0.00    -0.200 F 
ATOM     48  C   UNL A   1      40.375  26.234  26.734  1.00  0.00     0.200 A 
ATOM     49  F   UNL A   1      41.836  27.732  25.640  1.00  0.00    -0.200 F 
ATOM     50  F   UNL A   1      40.321  25.465  25.638  1.00  0.00    -0.200 F 
ENDBRANCH  26  40
BRANCH  27  51
ATOM     51  C   UNL A   1      39.627  34.012  36.864  1.00  0.00     0.064 A 
ATOM     52  C   UNL A   1      38.840  33.587  37.941  1.00  0.00     0.173 A 
ATOM     53  C   UNL A   1      40.223  35.281  36.953  1.00  0.00     0.173 A 
ATOM     54  F   UNL A   1      38.235  32.390  37.897  1.00  0.00    -0.203 F 
ATOM     55  C   UNL A   1      38.629  34.408  39.047  1.00  0.00     0.198 A 
ATOM     56  C   UNL A   1      40.042  36.086  38.075  1.00  0.00     0.198 A 
ATOM     57  F   UNL A   1      40.991  35.736  35.951  1.00  0.00    -0.203 F 
ATOM     58  F   UNL A   1      37.824  34.000  40.036  1.00  0.00    -0.200 F 
ATOM     59  C   UNL A   1      39.235  35.654  39.115  1.00  0.00     0.200 A 
ATOM     60  F   UNL A   1      40.644  37.280  38.144  1.00  0.00    -0.200 F 
ATOM     61  F   UNL A   1      39.032  36.443  40.179  1.00  0.00    -0.200 F 
ENDBRANCH  27  51
BRANCH  39  62
ATOM     62  C   UNL A   1      43.718  28.578  35.387  1.00  0.00     0.064 A 
ATOM     63  C   UNL A   1      45.075  28.919  35.285  1.00  0.00     0.173 A 
ATOM     64  C   UNL A   1      43.360  27.562  36.285  1.00  0.00     0.173 A 
ATOM     65  F   UNL A   1      45.469  29.869  34.423  1.00  0.00    -0.203 F 
ATOM     66  C   UNL A   1      46.038  28.253  36.036  1.00  0.00     0.198 A 
ATOM     67  C   UNL A   1      44.323  26.920  37.059  1.00  0.00     0.198 A 
ATOM     68  F   UNL A   1      42.076  27.201  36.423  1.00  0.00    -0.203 F 
ATOM     69  F   UNL A   1      47.334  28.561  35.885  1.00  0.00    -0.200 F 
ATOM     70  C   UNL A   1      45.661  27.261  36.928  1.00  0.00     0.200 A 
ATOM     71  F   UNL A   1      43.955  25.971  37.931  1.00  0.00    -0.200 F 
ATOM     72  F   UNL A   1      46.588  26.628  37.659  1.00  0.00    -0.200 F 
ENDBRANCH  39  62
ENDBRANCH  13  14
ENDBRANCH   6   8
ENDBRANCH   3   4
ENDBRANCH   2   3
ENDBRANCH   1   2
BRANCH   1  73
ATOM     73  C   UNL A   1      32.383  29.742  27.283  1.00  0.00     0.002 C 
BRANCH  73  74
ATOM     74  C   UNL A   1      33.780  29.199  26.959  1.00  0.00     0.021 C 
BRANCH  74  75
ATOM     75  C   UNL A   1      33.819  28.073  25.936  1.00  0.00     0.116 C 
BRANCH  75  76
ATOM     76  N   UNL A   1      34.100  28.529  24.596  1.00  0.00    -0.352 N 
ATOM     77  C   UNL A   1      33.368  28.325  23.461  1.00  0.00     0.251 C 
ATOM     78  H   UNL A   1      34.925  29.055  24.485  1.00  0.00     0.163 HD
ATOM     79  O   UNL A   1      33.664  28.910  22.423  1.00  0.00    -0.269 OA
BRANCH  77  80
ATOM     80  C   UNL A   1      32.231  27.381  23.431  1.00  0.00     0.045 A 
ATOM     81  C   UNL A   1      30.995  27.957  23.783  1.00  0.00     0.014 A 
ATOM     82  C   UNL A   1      32.344  25.988  23.251  1.00  0.00    -0.002 A 
ATOM     83  C   UNL A   1      29.858  27.167  23.941  1.00  0.00     0.001 A 
ATOM     84  C   UNL A   1      31.179  25.210  23.461  1.00  0.00     0.007 A 
ATOM     85  C   UNL A   1      29.952  25.790  23.788  1.00  0.00     0.000 A 
BRANCH  82  86
ATOM     86  C   UNL A   1      33.588  25.232  22.798  1.00  0.00     0.175 C 
BRANCH  86  87
ATOM     87  C   UNL A   1      34.162  24.232  23.815  1.00  0.00    -0.012 A 
ATOM     88  C   UNL A   1      34.847  24.624  24.985  1.00  0.00     0.010 A 
ATOM     89  C   UNL A   1      34.029  22.850  23.573  1.00  0.00     0.049 A 
ATOM     90  C   UNL A   1      35.358  23.680  25.883  1.00  0.00     0.043 A 
ATOM     91  C   UNL A   1      34.533  21.914  24.476  1.00  0.00     0.159 A 
ATOM     92  C   UNL A   1      35.192  22.328  25.624  1.00  0.00     0.158 A 
ATOM     93  F   UNL A   1      34.359  20.608  24.236  1.00  0.00    -0.204 F 
ATOM     94  F   UNL A   1      35.664  21.428  26.498  1.00  0.00    -0.204 F 
ENDBRANCH  86  87
BRANCH  86  95
ATOM     95  O   UNL A   1      33.435  24.581  21.541  1.00  0.00    -0.384 OA
ATOM     96  H   UNL A   1      34.024  23.811  21.502  1.00  0.00     0.211 HD
ENDBRANCH  86  95
ENDBRANCH  82  86
ENDBRANCH  77  80
ENDBRANCH  75  76
ENDBRANCH  74  75
ENDBRANCH  73  74
ENDBRANCH   1  73
TORSDOF 16
ENDMDL
MODEL 3
REMARK VINA RESULT:     -12.6      1.366      2.355
REMARK SMILES O=C(NCCCCCCNC(=O)c1ccccc1[C@H](O)c1ccc(F)c(F)c1)c1ccc(-c2c3nc(c(-c4c(F)c(F)c(F)c(F)c4F)c4ccc([nH]4)c(-c4c(F)c(F)c(F)c(F)c4F)c4nc(c(-c5c(F)c(F)c(F)c(F)c5F)c5ccc2[nH]5)C=C4)C=C3)cc1
REMARK SMILES IDX 6 1 5 2 4 3 3 4 1 5 2 6 29 8 30 9 91 10 31 11 90 12 32 13
REMARK SMILES IDX 33 14 34 15 84 16 35 17 89 18 83 19 85 20 36 21 88 22 82 23
REMARK SMILES IDX 81 24 37 26 69 27 49 28 68 29 50 30 53 31 67 32 86 33 51 34
REMARK SMILES IDX 52 35 66 37 87 38 54 39 38 40 39 41 47 42 40 43 41 44 45 45
REMARK SMILES IDX 48 46 42 47 43 48 46 49 44 50 70 51 71 52 79 53 72 54 73 55
REMARK SMILES IDX 77 56 80 57 74 58 75 59 78 60 76 61 55 62 56 63 64 64 57 65
REMARK SMILES IDX 58 66 62 67 65 68 59 69 60 70 63 71 61 72 7 73 8 74 9 75
REMARK SMILES IDX 10 76 11 77 12 79 13 80 14 81 18 82 15 83 17 84 16 85 19 86
REMARK SMILES IDX 21 87 22 88 28 89 23 90 26 91 24 92 27 93 25 94 20 95
REMARK H PARENT 3 7 85 25 53 36 10 78 20 96
REMARK Flexibility Score: inf
ROOT
ATOM      1  C   UNL A   1      31.685  30.515  26.022  1.00  0.00     0.002 C 
ENDROOT
BRANCH   1   2
ATOM      2  C   UNL A   1      31.436  31.929  26.541  1.00  0.00     0.021 C 
BRANCH   2   3
ATOM      3  C   UNL A   1      32.622  32.588  27.227  1.00  0.00     0.116 C 
BRANCH   3   4
ATOM      4  N   UNL A   1      32.389  33.985  27.546  1.00  0.00    -0.352 N 
ATOM      5  O   UNL A   1      32.638  35.903  28.712  1.00  0.00    -0.269 OA
ATOM      6  C   UNL A   1      33.035  34.772  28.469  1.00  0.00     0.251 C 
ATOM      7  H   UNL A   1      31.674  34.427  27.033  1.00  0.00     0.163 HD
BRANCH   6   8
ATOM      8  C   UNL A   1      34.212  34.231  29.183  1.00  0.00     0.039 A 
ATOM      9  C   UNL A   1      34.053  33.496  30.362  1.00  0.00     0.014 A 
ATOM     10  C   UNL A   1      35.485  34.445  28.651  1.00  0.00     0.014 A 
ATOM     11  C   UNL A   1      35.172  33.061  31.061  1.00  0.00     0.010 A 
ATOM     12  C   UNL A   1      36.606  33.933  29.311  1.00  0.00     0.010 A 
ATOM     13  C   UNL A   1      36.455  33.240  30.522  1.00  0.00    -0.014 A 
BRANCH  13  14
ATOM     14  C   UNL A   1      37.609  32.562  31.160  1.00  0.00     0.031 A 
ATOM     15  C   UNL A   1      38.321  31.425  30.491  1.00  0.00     0.074 A 
ATOM     16  C   UNL A   1      37.991  32.989  32.381  1.00  0.00     0.049 A 
ATOM     17  N   UNL A   1      39.314  30.701  30.943  1.00  0.00    -0.248 NA
ATOM     18  C   UNL A   1      37.860  31.040  29.149  1.00  0.00     0.031 C 
ATOM     19  C   UNL A   1      37.349  34.075  33.128  1.00  0.00     0.029 A 
ATOM     20  N   UNL A   1      38.996  32.567  33.211  1.00  0.00    -0.354 N 
ATOM     21  C   UNL A   1      39.583  29.763  29.954  1.00  0.00     0.074 A 
ATOM     22  C   UNL A   1      38.642  30.001  28.880  1.00  0.00     0.031 C 
ATOM     23  C   UNL A   1      37.988  34.246  34.293  1.00  0.00     0.029 A 
ATOM     24  C   UNL A   1      39.033  33.238  34.408  1.00  0.00     0.049 A 
ATOM     25  H   UNL A   1      39.631  31.853  32.972  1.00  0.00     0.167 HD
ATOM     26  C   UNL A   1      40.533  28.798  29.955  1.00  0.00     0.037 A 
ATOM     27  C   UNL A   1      39.795  33.038  35.499  1.00  0.00     0.037 A 
ATOM     28  C   UNL A   1      41.478  28.593  31.024  1.00  0.00     0.049 A 
ATOM     29  C   UNL A   1      40.813  31.935  35.475  1.00  0.00     0.074 A 
ATOM     30  C   UNL A   1      42.535  27.700  31.077  1.00  0.00     0.029 A 
ATOM     31  N   UNL A   1      41.473  29.277  32.230  1.00  0.00    -0.354 N 
ATOM     32  N   UNL A   1      41.111  31.108  34.504  1.00  0.00    -0.248 NA
ATOM     33  C   UNL A   1      41.595  31.730  36.701  1.00  0.00     0.031 C 
ATOM     34  C   UNL A   1      43.126  27.797  32.340  1.00  0.00     0.029 A 
ATOM     35  C   UNL A   1      42.476  28.790  33.054  1.00  0.00     0.049 A 
ATOM     36  H   UNL A   1      40.849  30.001  32.466  1.00  0.00     0.167 HD
ATOM     37  C   UNL A   1      42.117  30.291  34.996  1.00  0.00     0.074 A 
ATOM     38  C   UNL A   1      42.404  30.744  36.341  1.00  0.00     0.031 C 
ATOM     39  C   UNL A   1      42.741  29.250  34.393  1.00  0.00     0.037 A 
BRANCH  26  40
ATOM     40  C   UNL A   1      40.605  27.864  28.783  1.00  0.00     0.064 A 
ATOM     41  C   UNL A   1      39.841  26.691  28.725  1.00  0.00     0.173 A 
ATOM     42  C   UNL A   1      41.362  28.211  27.652  1.00  0.00     0.173 A 
ATOM     43  F   UNL A   1      39.102  26.313  29.779  1.00  0.00    -0.203 F 
ATOM     44  C   UNL A   1      39.835  25.896  27.580  1.00  0.00     0.198 A 
ATOM     45  C   UNL A   1      41.335  27.428  26.501  1.00  0.00     0.198 A 
ATOM     46  F   UNL A   1      42.101  29.331  27.653  1.00  0.00    -0.203 F 
ATOM     47  F   UNL A   1      39.109  24.771  27.550  1.00  0.00    -0.200 F 
ATOM     48  C   UNL A   1      40.572  26.272  26.466  1.00  0.00     0.200 A 
ATOM     49  F   UNL A   1      42.033  27.804  25.420  1.00  0.00    -0.200 F 
ATOM     50  F   UNL A   1      40.544  25.521  25.357  1.00  0.00    -0.200 F 
ENDBRANCH  26  40
BRANCH  27  51
ATOM     51  C   UNL A   1      39.586  33.865  36.717  1.00  0.00     0.064 A 
ATOM     52  C   UNL A   1      38.788  33.411  37.775  1.00  0.00     0.173 A 
ATOM     53  C   UNL A   1      40.165  35.138  36.836  1.00  0.00     0.173 A 
ATOM     54  F   UNL A   1      38.198  32.209  37.700  1.00  0.00    -0.203 F 
ATOM     55  C   UNL A   1      38.553  34.210  38.892  1.00  0.00     0.198 A 
ATOM     56  C   UNL A   1      39.960  35.921  37.969  1.00  0.00     0.198 A 
ATOM     57  F   UNL A   1      40.943  35.619  35.854  1.00  0.00    -0.203 F 
ATOM     58  F   UNL A   1      37.738  33.776  39.862  1.00  0.00    -0.200 F 
ATOM     59  C   UNL A   1      39.143  35.461  38.990  1.00  0.00     0.200 A 
ATOM     60  F   UNL A   1      40.548  37.120  38.068  1.00  0.00    -0.200 F 
ATOM     61  F   UNL A   1      38.916  36.229  40.064  1.00  0.00    -0.200 F 
ENDBRANCH  27  51
BRANCH  39  62
ATOM     62  C   UNL A   1      43.795  28.537  35.185  1.00  0.00     0.064 A 
ATOM     63  C   UNL A   1      45.132  28.964  35.172  1.00  0.00     0.173 A 
ATOM     64  C   UNL A   1      43.463  27.439  35.992  1.00  0.00     0.173 A 
ATOM     65  F   UNL A   1      45.502  29.997  34.399  1.00  0.00    -0.203 F 
ATOM     66  C   UNL A   1      46.101  28.304  35.920  1.00  0.00     0.198 A 
ATOM     67  C   UNL A   1      44.430  26.801  36.764  1.00  0.00     0.198 A 
ATOM     68  F   UNL A   1      42.199  26.993  36.042  1.00  0.00    -0.203 F 
ATOM     69  F   UNL A   1      47.380  28.699  35.854  1.00  0.00    -0.200 F 
ATOM     70  C   UNL A   1      45.748  27.230  36.722  1.00  0.00     0.200 A 
ATOM     71  F   UNL A   1      44.085  25.771  37.550  1.00  0.00    -0.200 F 
ATOM     72  F   UNL A   1      46.681  26.601  37.451  1.00  0.00    -0.200 F 
ENDBRANCH  39  62
ENDBRANCH  13  14
ENDBRANCH   6   8
ENDBRANCH   3   4
ENDBRANCH   2   3
ENDBRANCH   1   2
BRANCH   1  73
ATOM     73  C   UNL A   1      32.399  29.564  26.990  1.00  0.00     0.002 C 
BRANCH  73  74
ATOM     74  C   UNL A   1      31.683  28.244  27.307  1.00  0.00     0.021 C 
BRANCH  74  75
ATOM     75  C   UNL A   1      32.269  27.009  26.637  1.00  0.00     0.116 C 
BRANCH  75  76
ATOM     76  N   UNL A   1      31.436  25.839  26.770  1.00  0.00    -0.352 N 
ATOM     77  C   UNL A   1      31.719  24.553  26.409  1.00  0.00     0.251 C 
ATOM     78  H   UNL A   1      30.550  25.986  27.173  1.00  0.00     0.163 HD
ATOM     79  O   UNL A   1      30.961  23.641  26.731  1.00  0.00    -0.269 OA
BRANCH  77  80
ATOM     80  C   UNL A   1      32.913  24.218  25.604  1.00  0.00     0.045 A 
ATOM     81  C   UNL A   1      34.062  23.936  26.366  1.00  0.00     0.014 A 
ATOM     82  C   UNL A   1      32.996  24.331  24.201  1.00  0.00    -0.002 A 
ATOM     83  C   UNL A   1      35.298  23.745  25.751  1.00  0.00     0.001 A 
ATOM     84  C   UNL A   1      34.274  24.174  23.612  1.00  0.00     0.007 A 
ATOM     85  C   UNL A   1      35.406  23.873  24.372  1.00  0.00     0.000 A 
BRANCH  82  86
ATOM     86  C   UNL A   1      31.833  24.556  23.240  1.00  0.00     0.175 C 
BRANCH  86  87
ATOM     87  C   UNL A   1      31.271  25.985  23.205  1.00  0.00    -0.012 A 
ATOM     88  C   UNL A   1      32.067  27.127  22.966  1.00  0.00     0.010 A 
ATOM     89  C   UNL A   1      29.897  26.192  23.445  1.00  0.00     0.049 A 
ATOM     90  C   UNL A   1      31.514  28.412  22.947  1.00  0.00     0.043 A 
ATOM     91  C   UNL A   1      29.350  27.474  23.416  1.00  0.00     0.159 A 
ATOM     92  C   UNL A   1      30.155  28.577  23.166  1.00  0.00     0.158 A 
ATOM     93  F   UNL A   1      28.035  27.634  23.612  1.00  0.00    -0.204 F 
ATOM     94  F   UNL A   1      29.626  29.807  23.125  1.00  0.00    -0.204 F 
ENDBRANCH  86  87
BRANCH  86  95
ATOM     95  O   UNL A   1      32.102  24.128  21.909  1.00  0.00    -0.384 OA
ATOM     96  H   UNL A   1      33.060  24.125  21.758  1.00  0.00     0.211 HD
ENDBRANCH  86  95
ENDBRANCH  82  86
ENDBRANCH  77  80
ENDBRANCH  75  76
ENDBRANCH  74  75
ENDBRANCH  73  74
ENDBRANCH   1  73
TORSDOF 16
ENDMDL
