MODEL 1
REMARK VINA RESULT:     -11.7      0.000      0.000
REMARK SMILES CO[C@@H]1C[C@H](C(=O)NCCCCCCNC(=O)c2ccc(-c3c4nc(c(-c5c(F)c(F)c(F)c(F)c5F)c5ccc([nH]5)c(-c5c(F)c(F)c(F)c(F)c5F)c5nc(c(-c6c(F)c(F)c(F)c(F)c6F)c6ccc3[nH]6)C=C5)C=C4)cc2)N(C(=O)c2ccn(C)c(=O)c2)C1
REMARK SMILES IDX 11 1 10 2 9 3 8 4 6 5 7 6 5 8 3 9 4 10 92 11 81 12 2 13 1 14
REMARK SMILES IDX 82 15 83 16 84 17 85 18 91 19 86 20 89 21 87 22 90 23 88 24
REMARK SMILES IDX 12 25 13 26 14 27 15 28 16 29 17 31 18 32 19 33 80 34 20 35
REMARK SMILES IDX 79 36 21 37 22 38 23 39 73 40 24 41 78 42 72 43 74 44 25 45
REMARK SMILES IDX 77 46 71 47 70 48 26 50 58 51 38 52 57 53 39 54 42 55 56 56
REMARK SMILES IDX 75 57 40 58 41 59 55 61 76 62 43 63 27 64 28 65 36 66 29 67
REMARK SMILES IDX 30 68 34 69 37 70 31 71 32 72 35 73 33 74 59 75 60 76 68 77
REMARK SMILES IDX 61 78 62 79 66 80 69 81 63 82 64 83 67 84 65 85 44 86 45 87
REMARK SMILES IDX 53 88 46 89 47 90 51 91 54 92 48 93 49 94 52 95 50 96
REMARK H PARENT 8 7 15 30 74 49 42 60
REMARK Flexibility Score: inf
ROOT
ATOM      1  C   UNL A   1      31.975  29.817  26.425  1.00  0.00     0.002 C 
ENDROOT
BRANCH   1   2
ATOM      2  C   UNL A   1      33.324  29.438  25.803  1.00  0.00     0.021 C 
BRANCH   2   3
ATOM      3  C   UNL A   1      34.066  28.314  26.531  1.00  0.00     0.116 C 
BRANCH   3   4
ATOM      4  N   UNL A   1      33.269  27.107  26.594  1.00  0.00    -0.354 N 
ATOM      5  C   UNL A   1      33.156  26.054  25.742  1.00  0.00     0.242 C 
ATOM      6  O   UNL A   1      32.276  25.226  26.015  1.00  0.00    -0.273 OA
ATOM      7  H   UNL A   1      32.708  27.035  27.400  1.00  0.00     0.163 HD
BRANCH   5   8
ATOM      8  C   UNL A   1      33.954  25.896  24.424  1.00  0.00     0.177 C 
ATOM      9  C   UNL A   1      33.880  23.942  22.927  1.00  0.00     0.139 C 
ATOM     10  C   UNL A   1      34.505  24.486  24.217  1.00  0.00     0.069 C 
ATOM     11  C   UNL A   1      33.157  25.122  22.276  1.00  0.00     0.152 C 
ATOM     12  N   UNL A   1      33.260  26.246  23.190  1.00  0.00    -0.324 N 
BRANCH   9  13
ATOM     13  O   UNL A   1      32.957  22.891  23.217  1.00  0.00    -0.380 OA
ATOM     14  C   UNL A   1      33.309  22.156  24.384  1.00  0.00     0.195 C 
ENDBRANCH   9  13
BRANCH  12  15
ATOM     15  C   UNL A   1      32.906  27.501  22.741  1.00  0.00     0.254 C 
ATOM     16  O   UNL A   1      33.727  28.281  22.261  1.00  0.00    -0.269 OA
BRANCH  15  17
ATOM     17  C   UNL A   1      31.494  27.947  22.906  1.00  0.00     0.046 A 
ATOM     18  C   UNL A   1      30.500  27.078  23.486  1.00  0.00     0.032 A 
ATOM     19  C   UNL A   1      31.129  29.096  22.318  1.00  0.00     0.085 A 
ATOM     20  C   UNL A   1      29.211  27.446  23.484  1.00  0.00     0.089 A 
ATOM     21  C   UNL A   1      29.714  29.539  22.354  1.00  0.00     0.251 A 
ATOM     22  N   UNL A   1      28.812  28.655  22.942  1.00  0.00    -0.319 N 
ATOM     23  O   UNL A   1      29.424  30.623  21.858  1.00  0.00    -0.269 OA
ATOM     24  C   UNL A   1      27.400  29.001  22.967  1.00  0.00     0.153 C 
ENDBRANCH  15  17
ENDBRANCH  12  15
ENDBRANCH   5   8
ENDBRANCH   3   4
ENDBRANCH   2   3
ENDBRANCH   1   2
BRANCH   1  25
ATOM     25  C   UNL A   1      31.217  30.943  25.707  1.00  0.00     0.002 C 
BRANCH  25  26
ATOM     26  C   UNL A   1      31.082  32.262  26.478  1.00  0.00     0.021 C 
BRANCH  26  27
ATOM     27  C   UNL A   1      32.363  32.769  27.141  1.00  0.00     0.116 C 
BRANCH  27  28
ATOM     28  N   UNL A   1      32.258  34.162  27.544  1.00  0.00    -0.352 N 
ATOM     29  C   UNL A   1      32.949  34.862  28.501  1.00  0.00     0.251 C 
ATOM     30  H   UNL A   1      31.585  34.686  27.052  1.00  0.00     0.163 HD
ATOM     31  O   UNL A   1      32.574  35.986  28.823  1.00  0.00    -0.269 OA
BRANCH  29  32
ATOM     32  C   UNL A   1      34.139  34.279  29.160  1.00  0.00     0.039 A 
ATOM     33  C   UNL A   1      33.954  33.493  30.302  1.00  0.00     0.014 A 
ATOM     34  C   UNL A   1      35.432  34.549  28.702  1.00  0.00     0.014 A 
ATOM     35  C   UNL A   1      35.058  32.937  30.955  1.00  0.00     0.010 A 
ATOM     36  C   UNL A   1      36.529  33.950  29.321  1.00  0.00     0.010 A 
ATOM     37  C   UNL A   1      36.354  33.141  30.455  1.00  0.00    -0.014 A 
BRANCH  37  38
ATOM     38  C   UNL A   1      37.535  32.523  31.109  1.00  0.00     0.031 A 
ATOM     39  C   UNL A   1      38.279  31.406  30.433  1.00  0.00     0.074 A 
ATOM     40  C   UNL A   1      37.904  32.928  32.340  1.00  0.00     0.049 A 
ATOM     41  N   UNL A   1      39.276  30.684  30.879  1.00  0.00    -0.248 NA
ATOM     42  C   UNL A   1      37.828  31.038  29.082  1.00  0.00     0.031 C 
ATOM     43  C   UNL A   1      37.242  33.976  33.117  1.00  0.00     0.029 A 
ATOM     44  N   UNL A   1      38.916  32.494  33.159  1.00  0.00    -0.354 N 
ATOM     45  C   UNL A   1      39.563  29.772  29.872  1.00  0.00     0.074 A 
ATOM     46  C   UNL A   1      38.607  30.001  28.809  1.00  0.00     0.031 C 
ATOM     47  C   UNL A   1      37.868  34.108  34.298  1.00  0.00     0.029 A 
ATOM     48  C   UNL A   1      38.953  33.135  34.373  1.00  0.00     0.049 A 
ATOM     49  H   UNL A   1      39.554  31.791  32.900  1.00  0.00     0.167 HD
ATOM     50  C   UNL A   1      40.547  28.841  29.829  1.00  0.00     0.037 A 
ATOM     51  C   UNL A   1      39.765  32.951  35.431  1.00  0.00     0.037 A 
ATOM     52  C   UNL A   1      41.511  28.626  30.877  1.00  0.00     0.049 A 
ATOM     53  C   UNL A   1      40.852  31.913  35.357  1.00  0.00     0.074 A 
ATOM     54  C   UNL A   1      42.565  27.730  30.911  1.00  0.00     0.029 A 
ATOM     55  N   UNL A   1      41.538  29.320  32.077  1.00  0.00    -0.354 N 
ATOM     56  N   UNL A   1      41.141  31.088  34.382  1.00  0.00    -0.248 NA
ATOM     57  C   UNL A   1      41.730  31.789  36.529  1.00  0.00     0.031 C 
ATOM     58  C   UNL A   1      43.213  27.862  32.144  1.00  0.00     0.029 A 
ATOM     59  C   UNL A   1      42.585  28.866  32.863  1.00  0.00     0.049 A 
ATOM     60  H   UNL A   1      40.905  30.031  32.334  1.00  0.00     0.167 HD
ATOM     61  C   UNL A   1      42.244  30.363  34.810  1.00  0.00     0.074 A 
ATOM     62  C   UNL A   1      42.584  30.857  36.128  1.00  0.00     0.031 C 
ATOM     63  C   UNL A   1      42.915  29.375  34.168  1.00  0.00     0.037 A 
BRANCH  50  64
ATOM     64  C   UNL A   1      40.637  27.987  28.599  1.00  0.00     0.064 A 
ATOM     65  C   UNL A   1      41.401  28.382  27.490  1.00  0.00     0.173 A 
ATOM     66  C   UNL A   1      39.988  26.745  28.541  1.00  0.00     0.173 A 
ATOM     67  F   UNL A   1      42.032  29.566  27.493  1.00  0.00    -0.203 F 
ATOM     68  C   UNL A   1      41.491  27.576  26.359  1.00  0.00     0.198 A 
ATOM     69  C   UNL A   1      40.102  25.929  27.418  1.00  0.00     0.198 A 
ATOM     70  F   UNL A   1      39.250  26.318  29.576  1.00  0.00    -0.203 F 
ATOM     71  F   UNL A   1      42.192  27.992  25.295  1.00  0.00    -0.200 F 
ATOM     72  C   UNL A   1      40.848  26.348  26.326  1.00  0.00     0.200 A 
ATOM     73  F   UNL A   1      39.487  24.738  27.392  1.00  0.00    -0.200 F 
ATOM     74  F   UNL A   1      40.940  25.570  25.239  1.00  0.00    -0.200 F 
ENDBRANCH  50  64
BRANCH  51  75
ATOM     75  C   UNL A   1      39.590  33.781  36.651  1.00  0.00     0.064 A 
ATOM     76  C   UNL A   1      38.822  33.321  37.729  1.00  0.00     0.173 A 
ATOM     77  C   UNL A   1      40.179  35.048  36.760  1.00  0.00     0.173 A 
ATOM     78  F   UNL A   1      38.221  32.124  37.659  1.00  0.00    -0.203 F 
ATOM     79  C   UNL A   1      38.633  34.106  38.864  1.00  0.00     0.198 A 
ATOM     80  C   UNL A   1      40.011  35.822  37.907  1.00  0.00     0.198 A 
ATOM     81  F   UNL A   1      40.926  35.531  35.756  1.00  0.00    -0.203 F 
ATOM     82  F   UNL A   1      37.858  33.661  39.862  1.00  0.00    -0.200 F 
ATOM     83  C   UNL A   1      39.231  35.354  38.954  1.00  0.00     0.200 A 
ATOM     84  F   UNL A   1      40.601  37.022  37.994  1.00  0.00    -0.200 F 
ATOM     85  F   UNL A   1      39.051  36.109  40.046  1.00  0.00    -0.200 F 
ENDBRANCH  51  75
BRANCH  63  86
ATOM     86  C   UNL A   1      44.101  28.784  34.870  1.00  0.00     0.064 A 
ATOM     87  C   UNL A   1      43.980  27.651  35.688  1.00  0.00     0.173 A 
ATOM     88  C   UNL A   1      45.378  29.337  34.694  1.00  0.00     0.173 A 
ATOM     89  F   UNL A   1      42.777  27.096  35.899  1.00  0.00    -0.203 F 
ATOM     90  C   UNL A   1      45.093  27.105  36.320  1.00  0.00     0.198 A 
ATOM     91  C   UNL A   1      46.493  28.774  35.309  1.00  0.00     0.198 A 
ATOM     92  F   UNL A   1      45.545  30.419  33.919  1.00  0.00    -0.203 F 
ATOM     93  F   UNL A   1      44.950  26.046  37.130  1.00  0.00    -0.200 F 
ATOM     94  C   UNL A   1      46.349  27.663  36.125  1.00  0.00     0.200 A 
ATOM     95  F   UNL A   1      47.706  29.309  35.112  1.00  0.00    -0.200 F 
ATOM     96  F   UNL A   1      47.420  27.132  36.733  1.00  0.00    -0.200 F 
ENDBRANCH  63  86
ENDBRANCH  37  38
ENDBRANCH  29  32
ENDBRANCH  27  28
ENDBRANCH  26  27
ENDBRANCH  25  26
ENDBRANCH   1  25
TORSDOF 16
ENDMDL
MODEL 2
REMARK VINA RESULT:     -11.7      1.720      7.886
REMARK SMILES CO[C@@H]1C[C@H](C(=O)NCCCCCCNC(=O)c2ccc(-c3c4nc(c(-c5c(F)c(F)c(F)c(F)c5F)c5ccc([nH]5)c(-c5c(F)c(F)c(F)c(F)c5F)c5nc(c(-c6c(F)c(F)c(F)c(F)c6F)c6ccc3[nH]6)C=C5)C=C4)cc2)N(C(=O)c2ccn(C)c(=O)c2)C1
REMARK SMILES IDX 11 1 10 2 9 3 8 4 6 5 7 6 5 8 3 9 4 10 92 11 81 12 2 13 1 14
REMARK SMILES IDX 82 15 83 16 84 17 85 18 91 19 86 20 89 21 87 22 90 23 88 24
REMARK SMILES IDX 12 25 13 26 14 27 15 28 16 29 17 31 18 32 19 33 80 34 20 35
REMARK SMILES IDX 79 36 21 37 22 38 23 39 73 40 24 41 78 42 72 43 74 44 25 45
REMARK SMILES IDX 77 46 71 47 70 48 26 50 58 51 38 52 57 53 39 54 42 55 56 56
REMARK SMILES IDX 75 57 40 58 41 59 55 61 76 62 43 63 27 64 28 65 36 66 29 67
REMARK SMILES IDX 30 68 34 69 37 70 31 71 32 72 35 73 33 74 59 75 60 76 68 77
REMARK SMILES IDX 61 78 62 79 66 80 69 81 63 82 64 83 67 84 65 85 44 86 45 87
REMARK SMILES IDX 53 88 46 89 47 90 51 91 54 92 48 93 49 94 52 95 50 96
REMARK H PARENT 8 7 15 30 74 49 42 60
REMARK Flexibility Score: inf
ROOT
ATOM      1  C   UNL A   1      34.356  32.173  28.559  1.00  0.00     0.002 C 
ENDROOT
BRANCH   1   2
ATOM      2  C   UNL A   1      33.385  31.660  27.489  1.00  0.00     0.021 C 
BRANCH   2   3
ATOM      3  C   UNL A   1      33.485  30.159  27.207  1.00  0.00     0.116 C 
BRANCH   3   4
ATOM      4  N   UNL A   1      33.713  29.897  25.801  1.00  0.00    -0.354 N 
ATOM      5  C   UNL A   1      32.899  29.406  24.831  1.00  0.00     0.242 C 
ATOM      6  O   UNL A   1      33.436  29.168  23.740  1.00  0.00    -0.273 OA
ATOM      7  H   UNL A   1      34.623  30.114  25.493  1.00  0.00     0.163 HD
BRANCH   5   8
ATOM      8  C   UNL A   1      31.413  29.021  25.036  1.00  0.00     0.177 C 
ATOM      9  C   UNL A   1      29.901  28.152  23.297  1.00  0.00     0.139 C 
ATOM     10  C   UNL A   1      30.515  29.434  23.870  1.00  0.00     0.069 C 
ATOM     11  C   UNL A   1      30.262  27.035  24.277  1.00  0.00     0.152 C 
ATOM     12  N   UNL A   1      31.127  27.614  25.289  1.00  0.00    -0.324 N 
BRANCH   9  13
ATOM     13  O   UNL A   1      30.436  27.871  22.003  1.00  0.00    -0.380 OA
ATOM     14  C   UNL A   1      31.329  26.762  22.006  1.00  0.00     0.195 C 
ENDBRANCH   9  13
BRANCH  12  15
ATOM     15  C   UNL A   1      31.399  26.883  26.427  1.00  0.00     0.254 C 
ATOM     16  O   UNL A   1      31.239  27.344  27.556  1.00  0.00    -0.269 OA
BRANCH  15  17
ATOM     17  C   UNL A   1      31.969  25.514  26.279  1.00  0.00     0.046 A 
ATOM     18  C   UNL A   1      31.167  24.341  26.529  1.00  0.00     0.032 A 
ATOM     19  C   UNL A   1      33.295  25.404  26.108  1.00  0.00     0.085 A 
ATOM     20  C   UNL A   1      31.742  23.131  26.537  1.00  0.00     0.089 A 
ATOM     21  C   UNL A   1      33.936  24.067  26.063  1.00  0.00     0.251 A 
ATOM     22  N   UNL A   1      33.097  22.980  26.299  1.00  0.00    -0.319 N 
ATOM     23  O   UNL A   1      35.141  23.999  25.846  1.00  0.00    -0.269 OA
ATOM     24  C   UNL A   1      33.667  21.642  26.322  1.00  0.00     0.153 C 
ENDBRANCH  15  17
ENDBRANCH  12  15
ENDBRANCH   5   8
ENDBRANCH   3   4
ENDBRANCH   2   3
ENDBRANCH   1   2
BRANCH   1  25
ATOM     25  C   UNL A   1      34.498  33.700  28.637  1.00  0.00     0.002 C 
BRANCH  25  26
ATOM     26  C   UNL A   1      33.189  34.497  28.673  1.00  0.00     0.021 C 
BRANCH  26  27
ATOM     27  C   UNL A   1      33.323  35.962  29.090  1.00  0.00     0.116 C 
BRANCH  27  28
ATOM     28  N   UNL A   1      32.523  36.274  30.263  1.00  0.00    -0.352 N 
ATOM     29  C   UNL A   1      32.639  35.836  31.558  1.00  0.00     0.251 C 
ATOM     30  H   UNL A   1      31.781  36.901  30.103  1.00  0.00     0.163 HD
ATOM     31  O   UNL A   1      31.741  36.068  32.362  1.00  0.00    -0.269 OA
BRANCH  29  32
ATOM     32  C   UNL A   1      33.830  35.077  32.001  1.00  0.00     0.039 A 
ATOM     33  C   UNL A   1      33.675  33.734  32.357  1.00  0.00     0.014 A 
ATOM     34  C   UNL A   1      35.080  35.691  32.126  1.00  0.00     0.014 A 
ATOM     35  C   UNL A   1      34.779  32.993  32.790  1.00  0.00     0.010 A 
ATOM     36  C   UNL A   1      36.191  34.938  32.506  1.00  0.00     0.010 A 
ATOM     37  C   UNL A   1      36.051  33.583  32.845  1.00  0.00    -0.014 A 
BRANCH  37  38
ATOM     38  C   UNL A   1      37.242  32.801  33.261  1.00  0.00     0.031 A 
ATOM     39  C   UNL A   1      37.936  33.107  34.559  1.00  0.00     0.074 A 
ATOM     40  C   UNL A   1      37.736  31.851  32.443  1.00  0.00     0.049 A 
ATOM     41  N   UNL A   1      39.036  32.595  35.053  1.00  0.00    -0.248 NA
ATOM     42  C   UNL A   1      37.322  34.142  35.405  1.00  0.00     0.031 C 
ATOM     43  C   UNL A   1      37.176  31.484  31.142  1.00  0.00     0.029 A 
ATOM     44  N   UNL A   1      38.829  31.032  32.579  1.00  0.00    -0.354 N 
ATOM     45  C   UNL A   1      39.251  33.251  36.257  1.00  0.00     0.074 A 
ATOM     46  C   UNL A   1      38.193  34.230  36.400  1.00  0.00     0.031 C 
ATOM     47  C   UNL A   1      37.926  30.511  30.601  1.00  0.00     0.029 A 
ATOM     48  C   UNL A   1      39.034  30.207  31.500  1.00  0.00     0.049 A 
ATOM     49  H   UNL A   1      39.410  31.037  33.373  1.00  0.00     0.167 HD
ATOM     50  C   UNL A   1      40.230  33.043  37.170  1.00  0.00     0.037 A 
ATOM     51  C   UNL A   1      40.012  29.313  31.261  1.00  0.00     0.037 A 
ATOM     52  C   UNL A   1      41.271  32.057  37.038  1.00  0.00     0.049 A 
ATOM     53  C   UNL A   1      41.087  29.099  32.293  1.00  0.00     0.074 A 
ATOM     54  C   UNL A   1      42.287  31.748  37.926  1.00  0.00     0.029 A 
ATOM     55  N   UNL A   1      41.424  31.215  35.948  1.00  0.00    -0.354 N 
ATOM     56  N   UNL A   1      41.254  29.695  33.447  1.00  0.00    -0.248 NA
ATOM     57  C   UNL A   1      42.103  28.081  31.990  1.00  0.00     0.031 C 
ATOM     58  C   UNL A   1      43.073  30.740  37.359  1.00  0.00     0.029 A 
ATOM     59  C   UNL A   1      42.524  30.394  36.136  1.00  0.00     0.049 A 
ATOM     60  H   UNL A   1      40.838  31.203  35.156  1.00  0.00     0.167 HD
ATOM     61  C   UNL A   1      42.376  29.111  34.019  1.00  0.00     0.074 A 
ATOM     62  C   UNL A   1      42.841  28.102  33.091  1.00  0.00     0.031 C 
ATOM     63  C   UNL A   1      42.969  29.388  35.206  1.00  0.00     0.037 A 
BRANCH  50  64
ATOM     64  C   UNL A   1      40.217  33.897  38.405  1.00  0.00     0.064 A 
ATOM     65  C   UNL A   1      40.970  35.077  38.485  1.00  0.00     0.173 A 
ATOM     66  C   UNL A   1      39.413  33.554  39.502  1.00  0.00     0.173 A 
ATOM     67  F   UNL A   1      41.762  35.442  37.466  1.00  0.00    -0.203 F 
ATOM     68  C   UNL A   1      40.939  35.871  39.629  1.00  0.00     0.198 A 
ATOM     69  C   UNL A   1      39.364  34.363  40.634  1.00  0.00     0.198 A 
ATOM     70  F   UNL A   1      38.669  32.438  39.474  1.00  0.00    -0.203 F 
ATOM     71  F   UNL A   1      41.700  36.972  39.700  1.00  0.00    -0.200 F 
ATOM     72  C   UNL A   1      40.132  35.517  40.699  1.00  0.00     0.200 A 
ATOM     73  F   UNL A   1      38.575  34.025  41.664  1.00  0.00    -0.200 F 
ATOM     74  F   UNL A   1      40.097  36.284  41.797  1.00  0.00    -0.200 F 
ENDBRANCH  50  64
BRANCH  51  75
ATOM     75  C   UNL A   1      40.014  28.541  29.992  1.00  0.00     0.064 A 
ATOM     76  C   UNL A   1      39.412  27.278  29.918  1.00  0.00     0.173 A 
ATOM     77  C   UNL A   1      40.621  29.046  28.833  1.00  0.00     0.173 A 
ATOM     78  F   UNL A   1      38.839  26.745  31.007  1.00  0.00    -0.203 F 
ATOM     79  C   UNL A   1      39.434  26.539  28.737  1.00  0.00     0.198 A 
ATOM     80  C   UNL A   1      40.620  28.317  27.646  1.00  0.00     0.198 A 
ATOM     81  F   UNL A   1      41.208  30.252  28.854  1.00  0.00    -0.203 F 
ATOM     82  F   UNL A   1      38.889  25.316  28.705  1.00  0.00    -0.200 F 
ATOM     83  C   UNL A   1      40.033  27.061  27.601  1.00  0.00     0.200 A 
ATOM     84  F   UNL A   1      41.190  28.831  26.547  1.00  0.00    -0.200 F 
ATOM     85  F   UNL A   1      40.053  26.352  26.464  1.00  0.00    -0.200 F 
ENDBRANCH  51  75
BRANCH  63  86
ATOM     86  C   UNL A   1      44.167  28.569  35.581  1.00  0.00     0.064 A 
ATOM     87  C   UNL A   1      45.466  28.971  35.239  1.00  0.00     0.173 A 
ATOM     88  C   UNL A   1      44.015  27.388  36.322  1.00  0.00     0.173 A 
ATOM     89  F   UNL A   1      45.660  30.085  34.518  1.00  0.00    -0.203 F 
ATOM     90  C   UNL A   1      46.570  28.207  35.609  1.00  0.00     0.198 A 
ATOM     91  C   UNL A   1      45.123  26.639  36.710  1.00  0.00     0.198 A 
ATOM     92  F   UNL A   1      42.793  26.964  36.677  1.00  0.00    -0.203 F 
ATOM     93  F   UNL A   1      47.801  28.587  35.236  1.00  0.00    -0.200 F 
ATOM     94  C   UNL A   1      46.397  27.046  36.349  1.00  0.00     0.200 A 
ATOM     95  F   UNL A   1      44.955  25.523  37.433  1.00  0.00    -0.200 F 
ATOM     96  F   UNL A   1      47.463  26.315  36.707  1.00  0.00    -0.200 F 
ENDBRANCH  63  86
ENDBRANCH  37  38
ENDBRANCH  29  32
ENDBRANCH  27  28
ENDBRANCH  26  27
ENDBRANCH  25  26
ENDBRANCH   1  25
TORSDOF 16
ENDMDL
MODEL 3
REMARK VINA RESULT:     -11.5      0.596      2.027
REMARK SMILES CO[C@@H]1C[C@H](C(=O)NCCCCCCNC(=O)c2ccc(-c3c4nc(c(-c5c(F)c(F)c(F)c(F)c5F)c5ccc([nH]5)c(-c5c(F)c(F)c(F)c(F)c5F)c5nc(c(-c6c(F)c(F)c(F)c(F)c6F)c6ccc3[nH]6)C=C5)C=C4)cc2)N(C(=O)c2ccn(C)c(=O)c2)C1
REMARK SMILES IDX 11 1 10 2 9 3 8 4 6 5 7 6 5 8 3 9 4 10 92 11 81 12 2 13 1 14
REMARK SMILES IDX 82 15 83 16 84 17 85 18 91 19 86 20 89 21 87 22 90 23 88 24
REMARK SMILES IDX 12 25 13 26 14 27 15 28 16 29 17 31 18 32 19 33 80 34 20 35
REMARK SMILES IDX 79 36 21 37 22 38 23 39 73 40 24 41 78 42 72 43 74 44 25 45
REMARK SMILES IDX 77 46 71 47 70 48 26 50 58 51 38 52 57 53 39 54 42 55 56 56
REMARK SMILES IDX 75 57 40 58 41 59 55 61 76 62 43 63 27 64 28 65 36 66 29 67
REMARK SMILES IDX 30 68 34 69 37 70 31 71 32 72 35 73 33 74 59 75 60 76 68 77
REMARK SMILES IDX 61 78 62 79 66 80 69 81 63 82 64 83 67 84 65 85 44 86 45 87
REMARK SMILES IDX 53 88 46 89 47 90 51 91 54 92 48 93 49 94 52 95 50 96
REMARK H PARENT 8 7 15 30 74 49 42 60
REMARK Flexibility Score: inf
ROOT
ATOM      1  C   UNL A   1      31.595  29.795  25.542  1.00  0.00     0.002 C 
ENDROOT
BRANCH   1   2
ATOM      2  C   UNL A   1      33.017  29.585  25.009  1.00  0.00     0.021 C 
BRANCH   2   3
ATOM      3  C   UNL A   1      33.901  28.699  25.891  1.00  0.00     0.116 C 
BRANCH   3   4
ATOM      4  N   UNL A   1      33.180  27.537  26.367  1.00  0.00    -0.354 N 
ATOM      5  C   UNL A   1      33.230  26.229  26.000  1.00  0.00     0.242 C 
ATOM      6  O   UNL A   1      32.379  25.488  26.510  1.00  0.00    -0.273 OA
ATOM      7  H   UNL A   1      32.536  27.728  27.088  1.00  0.00     0.163 HD
BRANCH   5   8
ATOM      8  C   UNL A   1      34.181  25.652  24.922  1.00  0.00     0.177 C 
ATOM      9  C   UNL A   1      34.591  23.260  24.502  1.00  0.00     0.139 C 
ATOM     10  C   UNL A   1      34.975  24.438  25.404  1.00  0.00     0.069 C 
ATOM     11  C   UNL A   1      33.759  23.851  23.364  1.00  0.00     0.152 C 
ATOM     12  N   UNL A   1      33.577  25.262  23.653  1.00  0.00    -0.324 N 
BRANCH   9  13
ATOM     13  O   UNL A   1      33.827  22.296  25.229  1.00  0.00    -0.380 OA
ATOM     14  C   UNL A   1      33.966  20.979  24.708  1.00  0.00     0.195 C 
ENDBRANCH   9  13
BRANCH  12  15
ATOM     15  C   UNL A   1      33.072  26.082  22.666  1.00  0.00     0.254 C 
ATOM     16  O   UNL A   1      33.697  26.329  21.635  1.00  0.00    -0.269 OA
BRANCH  15  17
ATOM     17  C   UNL A   1      31.754  26.742  22.888  1.00  0.00     0.046 A 
ATOM     18  C   UNL A   1      30.702  26.079  23.620  1.00  0.00     0.032 A 
ATOM     19  C   UNL A   1      31.503  27.877  22.219  1.00  0.00     0.085 A 
ATOM     20  C   UNL A   1      29.482  26.629  23.675  1.00  0.00     0.089 A 
ATOM     21  C   UNL A   1      30.170  28.522  22.314  1.00  0.00     0.251 A 
ATOM     22  N   UNL A   1      29.209  27.833  23.049  1.00  0.00    -0.319 N 
ATOM     23  O   UNL A   1      29.991  29.591  21.737  1.00  0.00    -0.269 OA
ATOM     24  C   UNL A   1      27.865  28.381  23.141  1.00  0.00     0.153 C 
ENDBRANCH  15  17
ENDBRANCH  12  15
ENDBRANCH   5   8
ENDBRANCH   3   4
ENDBRANCH   2   3
ENDBRANCH   1   2
BRANCH   1  25
ATOM     25  C   UNL A   1      31.496  30.604  26.843  1.00  0.00     0.002 C 
BRANCH  25  26
ATOM     26  C   UNL A   1      31.405  32.126  26.685  1.00  0.00     0.021 C 
BRANCH  26  27
ATOM     27  C   UNL A   1      32.697  32.894  26.961  1.00  0.00     0.116 C 
BRANCH  27  28
ATOM     28  N   UNL A   1      32.445  34.207  27.533  1.00  0.00    -0.352 N 
ATOM     29  C   UNL A   1      33.011  34.825  28.619  1.00  0.00     0.251 C 
ATOM     30  H   UNL A   1      31.759  34.737  27.066  1.00  0.00     0.163 HD
ATOM     31  O   UNL A   1      32.519  35.861  29.056  1.00  0.00    -0.269 OA
BRANCH  29  32
ATOM     32  C   UNL A   1      34.206  34.255  29.281  1.00  0.00     0.039 A 
ATOM     33  C   UNL A   1      34.025  33.410  30.381  1.00  0.00     0.014 A 
ATOM     34  C   UNL A   1      35.498  34.593  28.869  1.00  0.00     0.014 A 
ATOM     35  C   UNL A   1      35.133  32.865  31.035  1.00  0.00     0.010 A 
ATOM     36  C   UNL A   1      36.603  34.006  29.487  1.00  0.00     0.010 A 
ATOM     37  C   UNL A   1      36.432  33.140  30.578  1.00  0.00    -0.014 A 
BRANCH  37  38
ATOM     38  C   UNL A   1      37.619  32.536  31.233  1.00  0.00     0.031 A 
ATOM     39  C   UNL A   1      38.364  31.413  30.566  1.00  0.00     0.074 A 
ATOM     40  C   UNL A   1      37.994  32.958  32.456  1.00  0.00     0.049 A 
ATOM     41  N   UNL A   1      39.367  30.701  31.016  1.00  0.00    -0.248 NA
ATOM     42  C   UNL A   1      37.906  31.025  29.223  1.00  0.00     0.031 C 
ATOM     43  C   UNL A   1      37.333  34.013  33.224  1.00  0.00     0.029 A 
ATOM     44  N   UNL A   1      39.013  32.539  33.274  1.00  0.00    -0.354 N 
ATOM     45  C   UNL A   1      39.652  29.777  30.018  1.00  0.00     0.074 A 
ATOM     46  C   UNL A   1      38.688  29.989  28.959  1.00  0.00     0.031 C 
ATOM     47  C   UNL A   1      37.965  34.163  34.398  1.00  0.00     0.029 A 
ATOM     48  C   UNL A   1      39.055  33.196  34.480  1.00  0.00     0.049 A 
ATOM     49  H   UNL A   1      39.653  31.835  33.021  1.00  0.00     0.167 HD
ATOM     50  C   UNL A   1      40.639  28.850  29.982  1.00  0.00     0.037 A 
ATOM     51  C   UNL A   1      39.875  33.029  35.535  1.00  0.00     0.037 A 
ATOM     52  C   UNL A   1      41.611  28.653  31.026  1.00  0.00     0.049 A 
ATOM     53  C   UNL A   1      40.965  31.995  35.467  1.00  0.00     0.074 A 
ATOM     54  C   UNL A   1      42.669  27.762  31.065  1.00  0.00     0.029 A 
ATOM     55  N   UNL A   1      41.642  29.362  32.217  1.00  0.00    -0.354 N 
ATOM     56  N   UNL A   1      41.251  31.158  34.501  1.00  0.00    -0.248 NA
ATOM     57  C   UNL A   1      41.851  31.889  36.635  1.00  0.00     0.031 C 
ATOM     58  C   UNL A   1      43.324  27.912  32.292  1.00  0.00     0.029 A 
ATOM     59  C   UNL A   1      42.696  28.923  33.002  1.00  0.00     0.049 A 
ATOM     60  H   UNL A   1      41.008  30.073  32.468  1.00  0.00     0.167 HD
ATOM     61  C   UNL A   1      42.361  30.443  34.931  1.00  0.00     0.074 A 
ATOM     62  C   UNL A   1      42.706  30.956  36.241  1.00  0.00     0.031 C 
ATOM     63  C   UNL A   1      43.032  29.450  34.299  1.00  0.00     0.037 A 
BRANCH  50  64
ATOM     64  C   UNL A   1      40.726  27.981  28.762  1.00  0.00     0.064 A 
ATOM     65  C   UNL A   1      39.998  26.786  28.663  1.00  0.00     0.173 A 
ATOM     66  C   UNL A   1      41.512  28.364  27.665  1.00  0.00     0.173 A 
ATOM     67  F   UNL A   1      39.241  26.370  29.690  1.00  0.00    -0.203 F 
ATOM     68  C   UNL A   1      40.073  25.993  27.521  1.00  0.00     0.198 A 
ATOM     69  C   UNL A   1      41.564  27.583  26.513  1.00  0.00     0.198 A 
ATOM     70  F   UNL A   1      42.223  29.501  27.706  1.00  0.00    -0.203 F 
ATOM     71  F   UNL A   1      39.402  24.834  27.465  1.00  0.00    -0.200 F 
ATOM     72  C   UNL A   1      40.850  26.395  26.445  1.00  0.00     0.200 A 
ATOM     73  F   UNL A   1      42.307  27.978  25.470  1.00  0.00    -0.200 F 
ATOM     74  F   UNL A   1      40.917  25.635  25.344  1.00  0.00    -0.200 F 
ENDBRANCH  50  64
BRANCH  51  75
ATOM     75  C   UNL A   1      39.703  33.873  36.745  1.00  0.00     0.064 A 
ATOM     76  C   UNL A   1      40.329  35.123  36.845  1.00  0.00     0.173 A 
ATOM     77  C   UNL A   1      38.917  33.447  37.825  1.00  0.00     0.173 A 
ATOM     78  F   UNL A   1      41.109  35.562  35.845  1.00  0.00    -0.203 F 
ATOM     79  C   UNL A   1      40.192  35.906  37.988  1.00  0.00     0.198 A 
ATOM     80  C   UNL A   1      38.760  34.243  38.957  1.00  0.00     0.198 A 
ATOM     81  F   UNL A   1      38.295  32.259  37.775  1.00  0.00    -0.203 F 
ATOM     82  F   UNL A   1      40.837  37.077  38.076  1.00  0.00    -0.200 F 
ATOM     83  C   UNL A   1      39.404  35.468  39.041  1.00  0.00     0.200 A 
ATOM     84  F   UNL A   1      37.987  33.820  39.968  1.00  0.00    -0.200 F 
ATOM     85  F   UNL A   1      39.270  36.222  40.141  1.00  0.00    -0.200 F 
ENDBRANCH  51  75
BRANCH  63  86
ATOM     86  C   UNL A   1      44.225  28.873  35.001  1.00  0.00     0.064 A 
ATOM     87  C   UNL A   1      45.502  29.435  34.858  1.00  0.00     0.173 A 
ATOM     88  C   UNL A   1      44.081  27.769  35.854  1.00  0.00     0.173 A 
ATOM     89  F   UNL A   1      45.691  30.482  34.042  1.00  0.00    -0.203 F 
ATOM     90  C   UNL A   1      46.597  28.898  35.529  1.00  0.00     0.198 A 
ATOM     91  C   UNL A   1      45.174  27.249  36.541  1.00  0.00     0.198 A 
ATOM     92  F   UNL A   1      42.879  27.199  36.026  1.00  0.00    -0.203 F 
ATOM     93  F   UNL A   1      47.816  29.424  35.347  1.00  0.00    -0.200 F 
ATOM     94  C   UNL A   1      46.431  27.810  36.374  1.00  0.00     0.200 A 
ATOM     95  F   UNL A   1      45.011  26.204  37.365  1.00  0.00    -0.200 F 
ATOM     96  F   UNL A   1      47.487  27.297  37.022  1.00  0.00    -0.200 F 
ENDBRANCH  63  86
ENDBRANCH  37  38
ENDBRANCH  29  32
ENDBRANCH  27  28
ENDBRANCH  26  27
ENDBRANCH  25  26
ENDBRANCH   1  25
TORSDOF 16
ENDMDL
