MODEL 1
REMARK VINA RESULT:     -12.4      0.000      0.000
REMARK SMILES Nc1cc(C(=O)NCCCCCCNC(=O)c2ccc(-c3c4nc(c(-c5c(F)c(F)c(F)c(F)c5F)c5ccc([nH]5)c(-c5c(F)c(F)c(F)c(F)c5F)c5nc(c(-c6c(F)c(F)c(F)c(F)c6F)c6ccc3[nH]6)C=C5)C=C4)cc2)c(-c2ccc(F)cc2O)cn1
REMARK SMILES IDX 10 1 9 2 8 3 7 4 5 5 6 6 4 8 2 9 3 10 90 11 89 12 80 13 1 14
REMARK SMILES IDX 81 17 82 18 87 19 83 20 86 21 84 22 85 23 88 24 11 26 12 27
REMARK SMILES IDX 13 28 14 29 15 30 16 32 17 33 18 34 79 35 19 36 78 37 20 38
REMARK SMILES IDX 21 39 22 40 72 41 23 42 77 43 71 44 73 45 24 46 76 47 70 48
REMARK SMILES IDX 69 49 25 51 57 52 37 53 56 54 38 55 41 56 55 57 74 58 39 59
REMARK SMILES IDX 40 60 54 62 75 63 42 64 26 65 27 66 35 67 28 68 29 69 33 70
REMARK SMILES IDX 36 71 30 72 31 73 34 74 32 75 58 76 59 77 67 78 60 79 61 80
REMARK SMILES IDX 65 81 68 82 62 83 63 84 66 85 64 86 43 87 44 88 52 89 45 90
REMARK SMILES IDX 46 91 50 92 53 93 47 94 48 95 51 96 49 97
REMARK H PARENT 7 7 1 15 1 16 88 25 14 31 73 50 41 61
REMARK Flexibility Score: inf
ROOT
ATOM      1  C   UNL A   1      32.436  29.913  26.867  1.00  0.00     0.002 C 
ENDROOT
BRANCH   1   2
ATOM      2  C   UNL A   1      33.651  29.310  26.140  1.00  0.00     0.021 C 
BRANCH   2   3
ATOM      3  C   UNL A   1      33.539  27.795  25.932  1.00  0.00     0.116 C 
BRANCH   3   4
ATOM      4  N   UNL A   1      33.811  27.482  24.544  1.00  0.00    -0.352 N 
ATOM      5  C   UNL A   1      33.044  27.314  23.423  1.00  0.00     0.252 C 
ATOM      6  O   UNL A   1      33.603  26.685  22.523  1.00  0.00    -0.269 OA
ATOM      7  H   UNL A   1      34.772  27.362  24.366  1.00  0.00     0.163 HD
BRANCH   5   8
ATOM      8  C   UNL A   1      31.651  27.839  23.225  1.00  0.00     0.052 A 
ATOM      9  C   UNL A   1      30.134  29.506  22.352  1.00  0.00     0.124 A 
ATOM     10  C   UNL A   1      31.419  29.106  22.676  1.00  0.00     0.061 A 
ATOM     11  N   UNL A   1      29.061  28.766  22.633  1.00  0.00    -0.239 NA
ATOM     12  C   UNL A   1      29.276  27.591  23.266  1.00  0.00     0.123 A 
ATOM     13  C   UNL A   1      30.528  27.059  23.595  1.00  0.00     0.017 A 
BRANCH   9  14
ATOM     14  N   UNL A   1      29.903  30.731  21.758  1.00  0.00    -0.384 N 
ATOM     15  H   UNL A   1      30.586  31.437  21.805  1.00  0.00     0.158 HD
ATOM     16  H   UNL A   1      29.055  30.897  21.286  1.00  0.00     0.158 HD
ENDBRANCH   9  14
BRANCH  13  17
ATOM     17  C   UNL A   1      30.547  25.775  24.329  1.00  0.00     0.026 A 
ATOM     18  C   UNL A   1      30.232  25.727  25.699  1.00  0.00     0.015 A 
ATOM     19  C   UNL A   1      30.953  24.568  23.722  1.00  0.00     0.126 A 
ATOM     20  C   UNL A   1      30.304  24.524  26.410  1.00  0.00     0.040 A 
ATOM     21  C   UNL A   1      31.032  23.368  24.419  1.00  0.00     0.086 A 
ATOM     22  C   UNL A   1      30.699  23.358  25.764  1.00  0.00     0.126 A 
ATOM     23  F   UNL A   1      30.749  22.207  26.447  1.00  0.00    -0.207 F 
BRANCH  19  24
ATOM     24  O   UNL A   1      31.206  24.513  22.377  1.00  0.00    -0.507 OA
ATOM     25  H   UNL A   1      30.587  24.867  21.769  1.00  0.00     0.293 HD
ENDBRANCH  19  24
ENDBRANCH  13  17
ENDBRANCH   5   8
ENDBRANCH   3   4
ENDBRANCH   2   3
ENDBRANCH   1   2
BRANCH   1  26
ATOM     26  C   UNL A   1      31.555  30.825  26.004  1.00  0.00     0.002 C 
BRANCH  26  27
ATOM     27  C   UNL A   1      31.357  32.238  26.561  1.00  0.00     0.021 C 
BRANCH  27  28
ATOM     28  C   UNL A   1      32.586  32.807  27.258  1.00  0.00     0.116 C 
BRANCH  28  29
ATOM     29  N   UNL A   1      32.397  34.202  27.622  1.00  0.00    -0.352 N 
ATOM     30  C   UNL A   1      32.973  34.917  28.641  1.00  0.00     0.251 C 
ATOM     31  H   UNL A   1      31.766  34.704  27.056  1.00  0.00     0.163 HD
ATOM     32  O   UNL A   1      32.531  36.016  28.956  1.00  0.00    -0.269 OA
BRANCH  30  33
ATOM     33  C   UNL A   1      34.128  34.351  29.370  1.00  0.00     0.039 A 
ATOM     34  C   UNL A   1      33.898  33.632  30.546  1.00  0.00     0.014 A 
ATOM     35  C   UNL A   1      35.431  34.544  28.904  1.00  0.00     0.014 A 
ATOM     36  C   UNL A   1      34.975  33.064  31.228  1.00  0.00     0.010 A 
ATOM     37  C   UNL A   1      36.495  33.918  29.546  1.00  0.00     0.010 A 
ATOM     38  C   UNL A   1      36.279  33.180  30.719  1.00  0.00    -0.014 A 
BRANCH  38  39
ATOM     39  C   UNL A   1      37.431  32.544  31.404  1.00  0.00     0.031 A 
ATOM     40  C   UNL A   1      38.147  31.390  30.760  1.00  0.00     0.074 A 
ATOM     41  C   UNL A   1      37.790  32.964  32.632  1.00  0.00     0.049 A 
ATOM     42  N   UNL A   1      39.128  30.659  31.226  1.00  0.00    -0.248 NA
ATOM     43  C   UNL A   1      37.680  30.985  29.424  1.00  0.00     0.031 C 
ATOM     44  C   UNL A   1      37.143  34.044  33.378  1.00  0.00     0.029 A 
ATOM     45  N   UNL A   1      38.782  32.528  33.473  1.00  0.00    -0.354 N 
ATOM     46  C   UNL A   1      39.385  29.704  30.251  1.00  0.00     0.074 A 
ATOM     47  C   UNL A   1      38.422  29.912  29.191  1.00  0.00     0.031 C 
ATOM     48  C   UNL A   1      37.767  34.200  34.557  1.00  0.00     0.029 A 
ATOM     49  C   UNL A   1      38.832  33.208  34.665  1.00  0.00     0.049 A 
ATOM     50  H   UNL A   1      39.400  31.795  33.244  1.00  0.00     0.167 HD
ATOM     51  C   UNL A   1      40.351  28.756  30.231  1.00  0.00     0.037 A 
ATOM     52  C   UNL A   1      39.643  33.044  35.728  1.00  0.00     0.037 A 
ATOM     53  C   UNL A   1      41.322  28.571  31.277  1.00  0.00     0.049 A 
ATOM     54  C   UNL A   1      40.705  31.979  35.681  1.00  0.00     0.074 A 
ATOM     55  C   UNL A   1      42.381  27.680  31.324  1.00  0.00     0.029 A 
ATOM     56  N   UNL A   1      41.354  29.291  32.462  1.00  0.00    -0.354 N 
ATOM     57  N   UNL A   1      40.983  31.127  34.725  1.00  0.00    -0.248 NA
ATOM     58  C   UNL A   1      41.572  31.857  36.862  1.00  0.00     0.031 C 
ATOM     59  C   UNL A   1      43.022  27.827  32.558  1.00  0.00     0.029 A 
ATOM     60  C   UNL A   1      42.397  28.848  33.258  1.00  0.00     0.049 A 
ATOM     61  H   UNL A   1      40.726  30.010  32.703  1.00  0.00     0.167 HD
ATOM     62  C   UNL A   1      42.071  30.390  35.173  1.00  0.00     0.074 A 
ATOM     63  C   UNL A   1      42.411  30.905  36.483  1.00  0.00     0.031 C 
ATOM     64  C   UNL A   1      42.727  29.378  34.556  1.00  0.00     0.037 A 
BRANCH  51  65
ATOM     65  C   UNL A   1      40.406  27.844  29.039  1.00  0.00     0.064 A 
ATOM     66  C   UNL A   1      39.659  26.658  28.985  1.00  0.00     0.173 A 
ATOM     67  C   UNL A   1      41.188  28.177  27.923  1.00  0.00     0.173 A 
ATOM     68  F   UNL A   1      38.904  26.287  30.030  1.00  0.00    -0.203 F 
ATOM     69  C   UNL A   1      39.716  25.825  27.870  1.00  0.00     0.198 A 
ATOM     70  C   UNL A   1      41.218  27.358  26.797  1.00  0.00     0.198 A 
ATOM     71  F   UNL A   1      41.918  29.302  27.919  1.00  0.00    -0.203 F 
ATOM     72  F   UNL A   1      39.032  24.672  27.862  1.00  0.00    -0.200 F 
ATOM     73  C   UNL A   1      40.488  26.179  26.775  1.00  0.00     0.200 A 
ATOM     74  F   UNL A   1      41.955  27.708  25.734  1.00  0.00    -0.200 F 
ATOM     75  F   UNL A   1      40.536  25.380  25.699  1.00  0.00    -0.200 F 
ENDBRANCH  51  65
BRANCH  52  76
ATOM     76  C   UNL A   1      39.498  33.927  36.915  1.00  0.00     0.064 A 
ATOM     77  C   UNL A   1      38.729  33.528  38.017  1.00  0.00     0.173 A 
ATOM     78  C   UNL A   1      40.119  35.183  36.973  1.00  0.00     0.173 A 
ATOM     79  F   UNL A   1      38.100  32.344  38.001  1.00  0.00    -0.203 F 
ATOM     80  C   UNL A   1      38.569  34.361  39.122  1.00  0.00     0.198 A 
ATOM     81  C   UNL A   1      39.981  36.003  38.090  1.00  0.00     0.198 A 
ATOM     82  F   UNL A   1      40.871  35.609  35.946  1.00  0.00    -0.203 F 
ATOM     83  F   UNL A   1      37.790  33.974  40.143  1.00  0.00    -0.200 F 
ATOM     84  C   UNL A   1      39.199  35.596  39.161  1.00  0.00     0.200 A 
ATOM     85  F   UNL A   1      40.606  37.187  38.130  1.00  0.00    -0.200 F 
ATOM     86  F   UNL A   1      39.048  36.395  40.225  1.00  0.00    -0.200 F 
ENDBRANCH  52  76
BRANCH  64  87
ATOM     87  C   UNL A   1      43.905  28.784  35.274  1.00  0.00     0.064 A 
ATOM     88  C   UNL A   1      43.766  27.686  36.135  1.00  0.00     0.173 A 
ATOM     89  C   UNL A   1      45.195  29.296  35.064  1.00  0.00     0.173 A 
ATOM     90  F   UNL A   1      42.552  27.170  36.380  1.00  0.00    -0.203 F 
ATOM     91  C   UNL A   1      44.872  27.140  36.780  1.00  0.00     0.198 A 
ATOM     92  C   UNL A   1      46.302  28.728  35.686  1.00  0.00     0.198 A 
ATOM     93  F   UNL A   1      45.382  30.342  34.245  1.00  0.00    -0.203 F 
ATOM     94  F   UNL A   1      44.710  26.122  37.637  1.00  0.00    -0.200 F 
ATOM     95  C   UNL A   1      46.139  27.655  36.550  1.00  0.00     0.200 A 
ATOM     96  F   UNL A   1      47.526  29.219  35.451  1.00  0.00    -0.200 F 
ATOM     97  F   UNL A   1      47.203  27.122  37.166  1.00  0.00    -0.200 F 
ENDBRANCH  64  87
ENDBRANCH  38  39
ENDBRANCH  30  33
ENDBRANCH  28  29
ENDBRANCH  27  28
ENDBRANCH  26  27
ENDBRANCH   1  26
TORSDOF 16
ENDMDL
MODEL 2
REMARK VINA RESULT:     -12.2      5.956     11.250
REMARK SMILES Nc1cc(C(=O)NCCCCCCNC(=O)c2ccc(-c3c4nc(c(-c5c(F)c(F)c(F)c(F)c5F)c5ccc([nH]5)c(-c5c(F)c(F)c(F)c(F)c5F)c5nc(c(-c6c(F)c(F)c(F)c(F)c6F)c6ccc3[nH]6)C=C5)C=C4)cc2)c(-c2ccc(F)cc2O)cn1
REMARK SMILES IDX 10 1 9 2 8 3 7 4 5 5 6 6 4 8 2 9 3 10 90 11 89 12 80 13 1 14
REMARK SMILES IDX 81 17 82 18 87 19 83 20 86 21 84 22 85 23 88 24 11 26 12 27
REMARK SMILES IDX 13 28 14 29 15 30 16 32 17 33 18 34 79 35 19 36 78 37 20 38
REMARK SMILES IDX 21 39 22 40 72 41 23 42 77 43 71 44 73 45 24 46 76 47 70 48
REMARK SMILES IDX 69 49 25 51 57 52 37 53 56 54 38 55 41 56 55 57 74 58 39 59
REMARK SMILES IDX 40 60 54 62 75 63 42 64 26 65 27 66 35 67 28 68 29 69 33 70
REMARK SMILES IDX 36 71 30 72 31 73 34 74 32 75 58 76 59 77 67 78 60 79 61 80
REMARK SMILES IDX 65 81 68 82 62 83 63 84 66 85 64 86 43 87 44 88 52 89 45 90
REMARK SMILES IDX 46 91 50 92 53 93 47 94 48 95 51 96 49 97
REMARK H PARENT 7 7 1 15 1 16 88 25 14 31 73 50 41 61
REMARK Flexibility Score: inf
ROOT
ATOM      1  C   UNL A   1      36.835  21.866  24.584  1.00  0.00     0.002 C 
ENDROOT
BRANCH   1   2
ATOM      2  C   UNL A   1      36.558  22.883  25.705  1.00  0.00     0.021 C 
BRANCH   2   3
ATOM      3  C   UNL A   1      35.392  23.828  25.388  1.00  0.00     0.116 C 
BRANCH   3   4
ATOM      4  N   UNL A   1      34.345  23.640  26.371  1.00  0.00    -0.352 N 
ATOM      5  C   UNL A   1      33.229  22.852  26.456  1.00  0.00     0.252 C 
ATOM      6  O   UNL A   1      32.393  23.254  27.266  1.00  0.00    -0.269 OA
ATOM      7  H   UNL A   1      34.463  24.215  27.162  1.00  0.00     0.163 HD
BRANCH   5   8
ATOM      8  C   UNL A   1      32.986  21.588  25.683  1.00  0.00     0.052 A 
ATOM      9  C   UNL A   1      32.898  19.175  25.568  1.00  0.00     0.124 A 
ATOM     10  C   UNL A   1      33.278  20.332  26.228  1.00  0.00     0.061 A 
ATOM     11  N   UNL A   1      32.339  19.192  24.358  1.00  0.00    -0.239 NA
ATOM     12  C   UNL A   1      32.161  20.402  23.782  1.00  0.00     0.123 A 
ATOM     13  C   UNL A   1      32.454  21.636  24.371  1.00  0.00     0.017 A 
BRANCH   9  14
ATOM     14  N   UNL A   1      33.131  17.933  26.125  1.00  0.00    -0.384 N 
ATOM     15  H   UNL A   1      32.923  17.118  25.614  1.00  0.00     0.158 HD
ATOM     16  H   UNL A   1      33.508  17.863  27.032  1.00  0.00     0.158 HD
ENDBRANCH   9  14
BRANCH  13  17
ATOM     17  C   UNL A   1      32.225  22.849  23.555  1.00  0.00     0.026 A 
ATOM     18  C   UNL A   1      33.083  23.166  22.486  1.00  0.00     0.015 A 
ATOM     19  C   UNL A   1      31.202  23.773  23.853  1.00  0.00     0.126 A 
ATOM     20  C   UNL A   1      32.904  24.341  21.747  1.00  0.00     0.040 A 
ATOM     21  C   UNL A   1      31.017  24.945  23.128  1.00  0.00     0.086 A 
ATOM     22  C   UNL A   1      31.873  25.216  22.073  1.00  0.00     0.126 A 
ATOM     23  F   UNL A   1      31.697  26.329  21.351  1.00  0.00    -0.207 F 
BRANCH  19  24
ATOM     24  O   UNL A   1      30.279  23.504  24.829  1.00  0.00    -0.507 OA
ATOM     25  H   UNL A   1      30.564  23.294  25.697  1.00  0.00     0.293 HD
ENDBRANCH  19  24
ENDBRANCH  13  17
ENDBRANCH   5   8
ENDBRANCH   3   4
ENDBRANCH   2   3
ENDBRANCH   1   2
BRANCH   1  26
ATOM     26  C   UNL A   1      36.713  20.395  25.001  1.00  0.00     0.002 C 
BRANCH  26  27
ATOM     27  C   UNL A   1      38.007  19.586  24.881  1.00  0.00     0.021 C 
BRANCH  27  28
ATOM     28  C   UNL A   1      39.146  20.105  25.751  1.00  0.00     0.116 C 
BRANCH  28  29
ATOM     29  N   UNL A   1      40.171  19.092  25.950  1.00  0.00    -0.352 N 
ATOM     30  C   UNL A   1      41.522  19.252  26.127  1.00  0.00     0.251 C 
ATOM     31  H   UNL A   1      39.849  18.162  25.960  1.00  0.00     0.163 HD
ATOM     32  O   UNL A   1      42.276  18.289  26.046  1.00  0.00    -0.269 OA
BRANCH  30  33
ATOM     33  C   UNL A   1      42.070  20.596  26.405  1.00  0.00     0.039 A 
ATOM     34  C   UNL A   1      42.430  21.414  25.331  1.00  0.00     0.014 A 
ATOM     35  C   UNL A   1      42.244  21.039  27.718  1.00  0.00     0.014 A 
ATOM     36  C   UNL A   1      42.919  22.698  25.576  1.00  0.00     0.010 A 
ATOM     37  C   UNL A   1      42.664  22.343  27.959  1.00  0.00     0.010 A 
ATOM     38  C   UNL A   1      43.014  23.183  26.891  1.00  0.00    -0.014 A 
BRANCH  38  39
ATOM     39  C   UNL A   1      43.487  24.561  27.170  1.00  0.00     0.031 A 
ATOM     40  C   UNL A   1      42.534  25.589  27.713  1.00  0.00     0.074 A 
ATOM     41  C   UNL A   1      44.756  24.901  26.876  1.00  0.00     0.049 A 
ATOM     42  N   UNL A   1      42.736  26.858  27.958  1.00  0.00    -0.248 NA
ATOM     43  C   UNL A   1      41.162  25.136  27.993  1.00  0.00     0.031 C 
ATOM     44  C   UNL A   1      45.760  24.004  26.304  1.00  0.00     0.029 A 
ATOM     45  N   UNL A   1      45.416  26.097  27.009  1.00  0.00    -0.354 N 
ATOM     46  C   UNL A   1      41.519  27.356  28.404  1.00  0.00     0.074 A 
ATOM     47  C   UNL A   1      40.570  26.267  28.345  1.00  0.00     0.031 C 
ATOM     48  C   UNL A   1      46.915  24.674  26.154  1.00  0.00     0.029 A 
ATOM     49  C   UNL A   1      46.721  26.056  26.584  1.00  0.00     0.049 A 
ATOM     50  H   UNL A   1      44.993  26.908  27.374  1.00  0.00     0.167 HD
ATOM     51  C   UNL A   1      41.227  28.603  28.845  1.00  0.00     0.037 A 
ATOM     52  C   UNL A   1      47.654  27.026  26.539  1.00  0.00     0.037 A 
ATOM     53  C   UNL A   1      42.183  29.676  28.926  1.00  0.00     0.049 A 
ATOM     54  C   UNL A   1      47.300  28.404  27.031  1.00  0.00     0.074 A 
ATOM     55  C   UNL A   1      42.002  30.957  29.417  1.00  0.00     0.029 A 
ATOM     56  N   UNL A   1      43.501  29.592  28.503  1.00  0.00    -0.354 N 
ATOM     57  N   UNL A   1      46.165  28.846  27.515  1.00  0.00    -0.248 NA
ATOM     58  C   UNL A   1      48.363  29.418  26.975  1.00  0.00     0.031 C 
ATOM     59  C   UNL A   1      43.198  31.664  29.245  1.00  0.00     0.029 A 
ATOM     60  C   UNL A   1      44.139  30.806  28.698  1.00  0.00     0.049 A 
ATOM     61  H   UNL A   1      43.921  28.788  28.119  1.00  0.00     0.167 HD
ATOM     62  C   UNL A   1      46.383  30.175  27.849  1.00  0.00     0.074 A 
ATOM     63  C   UNL A   1      47.764  30.465  27.524  1.00  0.00     0.031 C 
ATOM     64  C   UNL A   1      45.517  31.075  28.376  1.00  0.00     0.037 A 
BRANCH  51  65
ATOM     65  C   UNL A   1      39.814  28.875  29.276  1.00  0.00     0.064 A 
ATOM     66  C   UNL A   1      38.845  29.336  28.373  1.00  0.00     0.173 A 
ATOM     67  C   UNL A   1      39.416  28.638  30.601  1.00  0.00     0.173 A 
ATOM     68  F   UNL A   1      39.176  29.589  27.098  1.00  0.00    -0.203 F 
ATOM     69  C   UNL A   1      37.537  29.578  28.787  1.00  0.00     0.198 A 
ATOM     70  C   UNL A   1      38.099  28.850  31.003  1.00  0.00     0.198 A 
ATOM     71  F   UNL A   1      40.301  28.191  31.504  1.00  0.00    -0.203 F 
ATOM     72  F   UNL A   1      36.641  30.066  27.917  1.00  0.00    -0.200 F 
ATOM     73  C   UNL A   1      37.164  29.328  30.098  1.00  0.00     0.200 A 
ATOM     74  F   UNL A   1      37.737  28.596  32.267  1.00  0.00    -0.200 F 
ATOM     75  F   UNL A   1      35.902  29.554  30.492  1.00  0.00    -0.200 F 
ENDBRANCH  51  65
BRANCH  52  76
ATOM     76  C   UNL A   1      49.018  26.722  26.034  1.00  0.00     0.064 A 
ATOM     77  C   UNL A   1      49.986  26.156  26.874  1.00  0.00     0.173 A 
ATOM     78  C   UNL A   1      49.383  26.993  24.707  1.00  0.00     0.173 A 
ATOM     79  F   UNL A   1      49.690  25.897  28.156  1.00  0.00    -0.203 F 
ATOM     80  C   UNL A   1      51.274  25.892  26.414  1.00  0.00     0.198 A 
ATOM     81  C   UNL A   1      50.662  26.703  24.240  1.00  0.00     0.198 A 
ATOM     82  F   UNL A   1      48.491  27.529  23.860  1.00  0.00    -0.203 F 
ATOM     83  F   UNL A   1      52.194  25.393  27.251  1.00  0.00    -0.200 F 
ATOM     84  C   UNL A   1      51.611  26.161  25.095  1.00  0.00     0.200 A 
ATOM     85  F   UNL A   1      50.978  26.948  22.961  1.00  0.00    -0.200 F 
ATOM     86  F   UNL A   1      52.848  25.903  24.651  1.00  0.00    -0.200 F 
ENDBRANCH  52  76
BRANCH  64  87
ATOM     87  C   UNL A   1      46.047  32.448  28.670  1.00  0.00     0.064 A 
ATOM     88  C   UNL A   1      46.658  32.756  29.894  1.00  0.00     0.173 A 
ATOM     89  C   UNL A   1      45.980  33.457  27.697  1.00  0.00     0.173 A 
ATOM     90  F   UNL A   1      46.733  31.831  30.863  1.00  0.00    -0.203 F 
ATOM     91  C   UNL A   1      47.158  34.032  30.142  1.00  0.00     0.198 A 
ATOM     92  C   UNL A   1      46.508  34.723  27.936  1.00  0.00     0.198 A 
ATOM     93  F   UNL A   1      45.411  33.212  26.506  1.00  0.00    -0.203 F 
ATOM     94  F   UNL A   1      47.693  34.319  31.337  1.00  0.00    -0.200 F 
ATOM     95  C   UNL A   1      47.090  35.011  29.162  1.00  0.00     0.200 A 
ATOM     96  F   UNL A   1      46.454  35.661  26.983  1.00  0.00    -0.200 F 
ATOM     97  F   UNL A   1      47.578  36.236  29.401  1.00  0.00    -0.200 F 
ENDBRANCH  64  87
ENDBRANCH  38  39
ENDBRANCH  30  33
ENDBRANCH  28  29
ENDBRANCH  27  28
ENDBRANCH  26  27
ENDBRANCH   1  26
TORSDOF 16
ENDMDL
MODEL 3
REMARK VINA RESULT:     -12.2      5.919     11.233
REMARK SMILES Nc1cc(C(=O)NCCCCCCNC(=O)c2ccc(-c3c4nc(c(-c5c(F)c(F)c(F)c(F)c5F)c5ccc([nH]5)c(-c5c(F)c(F)c(F)c(F)c5F)c5nc(c(-c6c(F)c(F)c(F)c(F)c6F)c6ccc3[nH]6)C=C5)C=C4)cc2)c(-c2ccc(F)cc2O)cn1
REMARK SMILES IDX 10 1 9 2 8 3 7 4 5 5 6 6 4 8 2 9 3 10 90 11 89 12 80 13 1 14
REMARK SMILES IDX 81 17 82 18 87 19 83 20 86 21 84 22 85 23 88 24 11 26 12 27
REMARK SMILES IDX 13 28 14 29 15 30 16 32 17 33 18 34 79 35 19 36 78 37 20 38
REMARK SMILES IDX 21 39 22 40 72 41 23 42 77 43 71 44 73 45 24 46 76 47 70 48
REMARK SMILES IDX 69 49 25 51 57 52 37 53 56 54 38 55 41 56 55 57 74 58 39 59
REMARK SMILES IDX 40 60 54 62 75 63 42 64 26 65 27 66 35 67 28 68 29 69 33 70
REMARK SMILES IDX 36 71 30 72 31 73 34 74 32 75 58 76 59 77 67 78 60 79 61 80
REMARK SMILES IDX 65 81 68 82 62 83 63 84 66 85 64 86 43 87 44 88 52 89 45 90
REMARK SMILES IDX 46 91 50 92 53 93 47 94 48 95 51 96 49 97
REMARK H PARENT 7 7 1 15 1 16 88 25 14 31 73 50 41 61
REMARK Flexibility Score: inf
ROOT
ATOM      1  C   UNL A   1      36.794  21.829  24.599  1.00  0.00     0.002 C 
ENDROOT
BRANCH   1   2
ATOM      2  C   UNL A   1      36.541  22.827  25.742  1.00  0.00     0.021 C 
BRANCH   2   3
ATOM      3  C   UNL A   1      35.405  23.813  25.443  1.00  0.00     0.116 C 
BRANCH   3   4
ATOM      4  N   UNL A   1      34.343  23.625  26.410  1.00  0.00    -0.352 N 
ATOM      5  C   UNL A   1      33.225  22.840  26.478  1.00  0.00     0.252 C 
ATOM      6  O   UNL A   1      32.377  23.242  27.277  1.00  0.00    -0.269 OA
ATOM      7  H   UNL A   1      34.451  24.197  27.204  1.00  0.00     0.163 HD
BRANCH   5   8
ATOM      8  C   UNL A   1      32.989  21.579  25.698  1.00  0.00     0.052 A 
ATOM      9  C   UNL A   1      32.908  19.166  25.572  1.00  0.00     0.124 A 
ATOM     10  C   UNL A   1      33.281  20.321  26.239  1.00  0.00     0.061 A 
ATOM     11  N   UNL A   1      32.355  19.186  24.359  1.00  0.00    -0.239 NA
ATOM     12  C   UNL A   1      32.176  20.398  23.788  1.00  0.00     0.123 A 
ATOM     13  C   UNL A   1      32.463  21.631  24.384  1.00  0.00     0.017 A 
BRANCH   9  14
ATOM     14  N   UNL A   1      33.142  17.922  26.125  1.00  0.00    -0.384 N 
ATOM     15  H   UNL A   1      32.900  17.109  25.626  1.00  0.00     0.158 HD
ATOM     16  H   UNL A   1      33.551  17.850  27.017  1.00  0.00     0.158 HD
ENDBRANCH   9  14
BRANCH  13  17
ATOM     17  C   UNL A   1      32.235  22.846  23.572  1.00  0.00     0.026 A 
ATOM     18  C   UNL A   1      33.099  23.172  22.510  1.00  0.00     0.015 A 
ATOM     19  C   UNL A   1      31.206  23.766  23.866  1.00  0.00     0.126 A 
ATOM     20  C   UNL A   1      32.920  24.349  21.775  1.00  0.00     0.040 A 
ATOM     21  C   UNL A   1      31.022  24.940  23.146  1.00  0.00     0.086 A 
ATOM     22  C   UNL A   1      31.884  25.219  22.097  1.00  0.00     0.126 A 
ATOM     23  F   UNL A   1      31.709  26.335  21.379  1.00  0.00    -0.207 F 
BRANCH  19  24
ATOM     24  O   UNL A   1      30.279  23.489  24.836  1.00  0.00    -0.507 OA
ATOM     25  H   UNL A   1      29.631  24.128  25.061  1.00  0.00     0.293 HD
ENDBRANCH  19  24
ENDBRANCH  13  17
ENDBRANCH   5   8
ENDBRANCH   3   4
ENDBRANCH   2   3
ENDBRANCH   1   2
BRANCH   1  26
ATOM     26  C   UNL A   1      36.714  20.351  25.002  1.00  0.00     0.002 C 
BRANCH  26  27
ATOM     27  C   UNL A   1      38.025  19.575  24.858  1.00  0.00     0.021 C 
BRANCH  27  28
ATOM     28  C   UNL A   1      39.149  20.086  25.751  1.00  0.00     0.116 C 
BRANCH  28  29
ATOM     29  N   UNL A   1      40.177  19.076  25.947  1.00  0.00    -0.352 N 
ATOM     30  C   UNL A   1      41.528  19.239  26.126  1.00  0.00     0.251 C 
ATOM     31  H   UNL A   1      39.859  18.144  25.952  1.00  0.00     0.163 HD
ATOM     32  O   UNL A   1      42.285  18.279  26.042  1.00  0.00    -0.269 OA
BRANCH  30  33
ATOM     33  C   UNL A   1      42.071  20.584  26.411  1.00  0.00     0.039 A 
ATOM     34  C   UNL A   1      42.437  21.405  25.341  1.00  0.00     0.014 A 
ATOM     35  C   UNL A   1      42.234  21.025  27.726  1.00  0.00     0.014 A 
ATOM     36  C   UNL A   1      42.922  22.690  25.593  1.00  0.00     0.010 A 
ATOM     37  C   UNL A   1      42.649  22.329  27.973  1.00  0.00     0.010 A 
ATOM     38  C   UNL A   1      43.006  23.172  26.909  1.00  0.00    -0.014 A 
BRANCH  38  39
ATOM     39  C   UNL A   1      43.474  24.550  27.194  1.00  0.00     0.031 A 
ATOM     40  C   UNL A   1      42.519  25.570  27.751  1.00  0.00     0.074 A 
ATOM     41  C   UNL A   1      44.740  24.899  26.894  1.00  0.00     0.049 A 
ATOM     42  N   UNL A   1      42.717  26.839  28.003  1.00  0.00    -0.248 NA
ATOM     43  C   UNL A   1      41.152  25.108  28.036  1.00  0.00     0.031 C 
ATOM     44  C   UNL A   1      45.744  24.011  26.310  1.00  0.00     0.029 A 
ATOM     45  N   UNL A   1      45.394  26.097  27.031  1.00  0.00    -0.354 N 
ATOM     46  C   UNL A   1      41.500  27.327  28.460  1.00  0.00     0.074 A 
ATOM     47  C   UNL A   1      40.556  26.233  28.400  1.00  0.00     0.031 C 
ATOM     48  C   UNL A   1      46.894  24.687  26.157  1.00  0.00     0.029 A 
ATOM     49  C   UNL A   1      46.696  26.065  26.597  1.00  0.00     0.049 A 
ATOM     50  H   UNL A   1      44.970  26.904  27.404  1.00  0.00     0.167 HD
ATOM     51  C   UNL A   1      41.205  28.569  28.912  1.00  0.00     0.037 A 
ATOM     52  C   UNL A   1      47.624  27.040  26.553  1.00  0.00     0.037 A 
ATOM     53  C   UNL A   1      42.156  29.647  28.993  1.00  0.00     0.049 A 
ATOM     54  C   UNL A   1      47.267  28.413  27.056  1.00  0.00     0.074 A 
ATOM     55  C   UNL A   1      41.973  30.924  29.494  1.00  0.00     0.029 A 
ATOM     56  N   UNL A   1      43.472  29.572  28.561  1.00  0.00    -0.354 N 
ATOM     57  N   UNL A   1      46.133  28.846  27.551  1.00  0.00    -0.248 NA
ATOM     58  C   UNL A   1      48.324  29.433  27.000  1.00  0.00     0.031 C 
ATOM     59  C   UNL A   1      43.163  31.637  29.319  1.00  0.00     0.029 A 
ATOM     60  C   UNL A   1      44.105  30.788  28.760  1.00  0.00     0.049 A 
ATOM     61  H   UNL A   1      43.894  28.773  28.169  1.00  0.00     0.167 HD
ATOM     62  C   UNL A   1      46.347  30.174  27.892  1.00  0.00     0.074 A 
ATOM     63  C   UNL A   1      47.724  30.474  27.560  1.00  0.00     0.031 C 
ATOM     64  C   UNL A   1      45.480  31.066  28.431  1.00  0.00     0.037 A 
BRANCH  51  65
ATOM     65  C   UNL A   1      39.794  28.831  29.354  1.00  0.00     0.064 A 
ATOM     66  C   UNL A   1      39.391  28.637  30.684  1.00  0.00     0.173 A 
ATOM     67  C   UNL A   1      38.841  29.317  28.445  1.00  0.00     0.173 A 
ATOM     68  F   UNL A   1      40.260  28.163  31.590  1.00  0.00    -0.203 F 
ATOM     69  C   UNL A   1      38.080  28.890  31.080  1.00  0.00     0.198 A 
ATOM     70  C   UNL A   1      37.540  29.599  28.853  1.00  0.00     0.198 A 
ATOM     71  F   UNL A   1      39.174  29.527  27.163  1.00  0.00    -0.203 F 
ATOM     72  F   UNL A   1      37.707  28.648  32.345  1.00  0.00    -0.200 F 
ATOM     73  C   UNL A   1      37.159  29.378  30.167  1.00  0.00     0.200 A 
ATOM     74  F   UNL A   1      36.654  30.083  27.972  1.00  0.00    -0.200 F 
ATOM     75  F   UNL A   1      35.899  29.629  30.553  1.00  0.00    -0.200 F 
ENDBRANCH  51  65
BRANCH  52  76
ATOM     76  C   UNL A   1      48.986  26.747  26.036  1.00  0.00     0.064 A 
ATOM     77  C   UNL A   1      49.979  26.228  26.879  1.00  0.00     0.173 A 
ATOM     78  C   UNL A   1      49.326  26.981  24.696  1.00  0.00     0.173 A 
ATOM     79  F   UNL A   1      49.707  26.007  28.174  1.00  0.00    -0.203 F 
ATOM     80  C   UNL A   1      51.265  25.975  26.407  1.00  0.00     0.198 A 
ATOM     81  C   UNL A   1      50.604  26.700  24.218  1.00  0.00     0.198 A 
ATOM     82  F   UNL A   1      48.411  27.470  23.845  1.00  0.00    -0.203 F 
ATOM     83  F   UNL A   1      52.207  25.523  27.247  1.00  0.00    -0.200 F 
ATOM     84  C   UNL A   1      51.575  26.206  25.076  1.00  0.00     0.200 A 
ATOM     85  F   UNL A   1      50.895  26.908  22.927  1.00  0.00    -0.200 F 
ATOM     86  F   UNL A   1      52.811  25.958  24.621  1.00  0.00    -0.200 F 
ENDBRANCH  52  76
BRANCH  64  87
ATOM     87  C   UNL A   1      46.005  32.440  28.730  1.00  0.00     0.064 A 
ATOM     88  C   UNL A   1      45.911  33.484  27.799  1.00  0.00     0.173 A 
ATOM     89  C   UNL A   1      46.573  32.725  29.982  1.00  0.00     0.173 A 
ATOM     90  F   UNL A   1      45.391  33.259  26.582  1.00  0.00    -0.203 F 
ATOM     91  C   UNL A   1      46.390  34.756  28.100  1.00  0.00     0.198 A 
ATOM     92  C   UNL A   1      47.023  34.005  30.291  1.00  0.00     0.198 A 
ATOM     93  F   UNL A   1      46.681  31.763  30.910  1.00  0.00    -0.203 F 
ATOM     94  F   UNL A   1      46.335  35.726  27.177  1.00  0.00    -0.200 F 
ATOM     95  C   UNL A   1      46.938  35.018  29.347  1.00  0.00     0.200 A 
ATOM     96  F   UNL A   1      47.539  34.259  31.501  1.00  0.00    -0.200 F 
ATOM     97  F   UNL A   1      47.392  36.246  29.637  1.00  0.00    -0.200 F 
ENDBRANCH  64  87
ENDBRANCH  38  39
ENDBRANCH  30  33
ENDBRANCH  28  29
ENDBRANCH  27  28
ENDBRANCH  26  27
ENDBRANCH   1  26
TORSDOF 16
ENDMDL
