MODEL 1
REMARK VINA RESULT:     -11.5      0.000      0.000
REMARK SMILES C[C@H](c1ccccc1)[N@@H+](CC(=O)NCCCCCCNC(=O)c1ccc(-c2c3nc(c(-c4c(F)c(F)c(F)c(F)c4F)c4ccc([nH]4)c(-c4c(F)c(F)c(F)c(F)c4F)c4nc(c(-c5c(F)c(F)c(F)c(F)c5F)c5ccc2[nH]5)C=C4)C=C3)cc1)CC(F)(F)F
REMARK SMILES IDX 16 1 15 2 14 3 13 4 11 5 12 6 10 8 9 9 2 11 1 12 3 13 4 14
REMARK SMILES IDX 8 15 5 16 7 17 6 18 86 19 87 20 88 21 89 22 90 23 17 24
REMARK SMILES IDX 18 25 19 26 20 27 21 28 22 30 23 31 24 32 85 33 25 34 84 35
REMARK SMILES IDX 26 36 27 37 28 38 78 39 29 40 83 41 77 42 79 43 30 44 82 45
REMARK SMILES IDX 76 46 75 47 31 49 63 50 43 51 62 52 44 53 47 54 61 55 80 56
REMARK SMILES IDX 45 57 46 58 60 60 81 61 48 62 32 63 33 64 41 65 34 66 35 67
REMARK SMILES IDX 39 68 42 69 36 70 37 71 40 72 38 73 64 74 65 75 73 76 66 77
REMARK SMILES IDX 67 78 71 79 74 80 68 81 69 82 72 83 70 84 49 85 50 86 58 87
REMARK SMILES IDX 51 88 52 89 56 90 59 91 53 92 54 93 57 94 55 95
REMARK H PARENT 13 7 9 10 20 29 79 48 47 59
REMARK Flexibility Score: inf
ROOT
ATOM      1  C   UNL A   1      32.392  29.873  26.899  1.00  0.00     0.002 C 
ENDROOT
BRANCH   1   2
ATOM      2  C   UNL A   1      31.616  28.621  27.317  1.00  0.00     0.021 C 
BRANCH   2   3
ATOM      3  C   UNL A   1      31.722  27.415  26.377  1.00  0.00     0.116 C 
BRANCH   3   4
ATOM      4  N   UNL A   1      31.545  26.126  27.026  1.00  0.00    -0.351 N 
ATOM      5  C   UNL A   1      31.325  24.873  26.528  1.00  0.00     0.275 C 
ATOM      6  O   UNL A   1      31.431  23.926  27.313  1.00  0.00    -0.269 OA
ATOM      7  H   UNL A   1      31.592  26.162  28.008  1.00  0.00     0.163 HD
BRANCH   5   8
ATOM      8  C   UNL A   1      30.967  24.634  25.059  1.00  0.00     0.364 C 
BRANCH   8   9
ATOM      9  N   UNL A   1      32.007  23.923  24.270  1.00  0.00    -0.314 N 
ATOM     10  H   UNL A   1      32.435  23.212  24.864  1.00  0.00     0.349 HD
BRANCH   9  11
ATOM     11  C   UNL A   1      33.203  24.731  24.015  1.00  0.00     0.212 C 
ATOM     12  C   UNL A   1      33.305  25.486  22.687  1.00  0.00     0.081 C 
BRANCH  11  13
ATOM     13  C   UNL A   1      34.549  24.086  24.338  1.00  0.00     0.009 A 
ATOM     14  C   UNL A   1      35.372  23.506  23.368  1.00  0.00     0.010 A 
ATOM     15  C   UNL A   1      35.056  24.203  25.652  1.00  0.00     0.010 A 
ATOM     16  C   UNL A   1      36.661  23.071  23.698  1.00  0.00     0.001 A 
ATOM     17  C   UNL A   1      36.345  23.782  25.977  1.00  0.00     0.001 A 
ATOM     18  C   UNL A   1      37.151  23.220  24.995  1.00  0.00     0.000 A 
ENDBRANCH  11  13
ENDBRANCH   9  11
BRANCH   9  19
ATOM     19  C   UNL A   1      31.478  22.993  23.247  1.00  0.00     0.380 C 
BRANCH  19  20
ATOM     20  C   UNL A   1      32.273  21.903  22.490  1.00  0.00     0.438 C 
ATOM     21  F   UNL A   1      33.077  21.206  23.325  1.00  0.00    -0.165 F 
ATOM     22  F   UNL A   1      31.412  21.000  21.954  1.00  0.00    -0.165 F 
ATOM     23  F   UNL A   1      33.031  22.377  21.489  1.00  0.00    -0.165 F 
ENDBRANCH  19  20
ENDBRANCH   9  19
ENDBRANCH   8   9
ENDBRANCH   5   8
ENDBRANCH   3   4
ENDBRANCH   2   3
ENDBRANCH   1   2
BRANCH   1  24
ATOM     24  C   UNL A   1      31.575  30.894  26.108  1.00  0.00     0.002 C 
BRANCH  24  25
ATOM     25  C   UNL A   1      31.396  32.259  26.784  1.00  0.00     0.021 C 
BRANCH  25  26
ATOM     26  C   UNL A   1      32.686  32.939  27.237  1.00  0.00     0.116 C 
BRANCH  26  27
ATOM     27  N   UNL A   1      32.463  34.326  27.612  1.00  0.00    -0.352 N 
ATOM     28  C   UNL A   1      33.003  35.017  28.666  1.00  0.00     0.251 C 
ATOM     29  H   UNL A   1      31.846  34.833  27.036  1.00  0.00     0.163 HD
ATOM     30  O   UNL A   1      32.545  36.109  29.003  1.00  0.00    -0.269 OA
BRANCH  28  31
ATOM     31  C   UNL A   1      34.137  34.437  29.412  1.00  0.00     0.039 A 
ATOM     32  C   UNL A   1      33.891  33.760  30.608  1.00  0.00     0.014 A 
ATOM     33  C   UNL A   1      35.443  34.562  28.925  1.00  0.00     0.014 A 
ATOM     34  C   UNL A   1      34.952  33.167  31.295  1.00  0.00     0.010 A 
ATOM     35  C   UNL A   1      36.492  33.924  29.583  1.00  0.00     0.010 A 
ATOM     36  C   UNL A   1      36.257  33.223  30.777  1.00  0.00    -0.014 A 
BRANCH  36  37
ATOM     37  C   UNL A   1      37.379  32.549  31.479  1.00  0.00     0.031 A 
ATOM     38  C   UNL A   1      38.088  31.387  30.841  1.00  0.00     0.074 A 
ATOM     39  C   UNL A   1      37.739  32.968  32.709  1.00  0.00     0.049 A 
ATOM     40  N   UNL A   1      39.084  30.671  31.301  1.00  0.00    -0.248 NA
ATOM     41  C   UNL A   1      37.600  30.956  29.521  1.00  0.00     0.031 C 
ATOM     42  C   UNL A   1      37.094  34.048  33.456  1.00  0.00     0.029 A 
ATOM     43  N   UNL A   1      38.735  32.531  33.547  1.00  0.00    -0.354 N 
ATOM     44  C   UNL A   1      39.343  29.714  30.330  1.00  0.00     0.074 A 
ATOM     45  C   UNL A   1      38.364  29.900  29.281  1.00  0.00     0.031 C 
ATOM     46  C   UNL A   1      37.721  34.204  34.633  1.00  0.00     0.029 A 
ATOM     47  C   UNL A   1      38.796  33.222  34.734  1.00  0.00     0.049 A 
ATOM     48  H   UNL A   1      39.346  31.794  33.321  1.00  0.00     0.167 HD
ATOM     49  C   UNL A   1      40.327  28.784  30.301  1.00  0.00     0.037 A 
ATOM     50  C   UNL A   1      39.629  33.079  35.782  1.00  0.00     0.037 A 
ATOM     51  C   UNL A   1      41.310  28.608  31.338  1.00  0.00     0.049 A 
ATOM     52  C   UNL A   1      40.716  32.040  35.720  1.00  0.00     0.074 A 
ATOM     53  C   UNL A   1      42.370  27.718  31.383  1.00  0.00     0.029 A 
ATOM     54  N   UNL A   1      41.356  29.342  32.514  1.00  0.00    -0.354 N 
ATOM     55  N   UNL A   1      40.993  31.187  34.763  1.00  0.00    -0.248 NA
ATOM     56  C   UNL A   1      41.616  31.953  36.879  1.00  0.00     0.031 C 
ATOM     57  C   UNL A   1      43.035  27.888  32.602  1.00  0.00     0.029 A 
ATOM     58  C   UNL A   1      42.417  28.915  33.297  1.00  0.00     0.049 A 
ATOM     59  H   UNL A   1      40.727  30.060  32.757  1.00  0.00     0.167 HD
ATOM     60  C   UNL A   1      42.107  30.480  35.195  1.00  0.00     0.074 A 
ATOM     61  C   UNL A   1      42.473  31.022  36.486  1.00  0.00     0.031 C 
ATOM     62  C   UNL A   1      42.767  29.468  34.580  1.00  0.00     0.037 A 
BRANCH  49  63
ATOM     63  C   UNL A   1      40.405  27.890  29.098  1.00  0.00     0.064 A 
ATOM     64  C   UNL A   1      39.645  26.714  29.014  1.00  0.00     0.173 A 
ATOM     65  C   UNL A   1      41.196  28.240  27.994  1.00  0.00     0.173 A 
ATOM     66  F   UNL A   1      38.880  26.329  30.048  1.00  0.00    -0.203 F 
ATOM     67  C   UNL A   1      39.689  25.911  27.878  1.00  0.00     0.198 A 
ATOM     68  C   UNL A   1      41.218  27.449  26.848  1.00  0.00     0.198 A 
ATOM     69  F   UNL A   1      41.938  29.357  28.020  1.00  0.00    -0.203 F 
ATOM     70  F   UNL A   1      38.982  24.773  27.836  1.00  0.00    -0.200 F 
ATOM     71  C   UNL A   1      40.468  26.283  26.792  1.00  0.00     0.200 A 
ATOM     72  F   UNL A   1      41.961  27.815  25.796  1.00  0.00    -0.200 F 
ATOM     73  F   UNL A   1      40.499  25.516  25.694  1.00  0.00    -0.200 F 
ENDBRANCH  49  63
BRANCH  50  74
ATOM     74  C   UNL A   1      39.487  33.955  36.975  1.00  0.00     0.064 A 
ATOM     75  C   UNL A   1      40.093  35.218  37.021  1.00  0.00     0.173 A 
ATOM     76  C   UNL A   1      38.765  33.536  38.102  1.00  0.00     0.173 A 
ATOM     77  F   UNL A   1      40.812  35.653  35.975  1.00  0.00    -0.203 F 
ATOM     78  C   UNL A   1      40.010  36.016  38.159  1.00  0.00     0.198 A 
ATOM     79  C   UNL A   1      38.657  34.348  39.230  1.00  0.00     0.198 A 
ATOM     80  F   UNL A   1      38.161  32.339  38.108  1.00  0.00    -0.203 F 
ATOM     81  F   UNL A   1      40.647  37.194  38.197  1.00  0.00    -0.200 F 
ATOM     82  C   UNL A   1      39.289  35.582  39.262  1.00  0.00     0.200 A 
ATOM     83  F   UNL A   1      37.947  33.931  40.287  1.00  0.00    -0.200 F 
ATOM     84  F   UNL A   1      39.210  36.349  40.358  1.00  0.00    -0.200 F 
ENDBRANCH  50  74
BRANCH  62  85
ATOM     85  C   UNL A   1      43.961  28.900  35.289  1.00  0.00     0.064 A 
ATOM     86  C   UNL A   1      45.257  29.372  35.035  1.00  0.00     0.173 A 
ATOM     87  C   UNL A   1      43.805  27.886  36.246  1.00  0.00     0.173 A 
ATOM     88  F   UNL A   1      45.459  30.330  34.118  1.00  0.00    -0.203 F 
ATOM     89  C   UNL A   1      46.358  28.825  35.689  1.00  0.00     0.198 A 
ATOM     90  C   UNL A   1      44.905  27.362  36.919  1.00  0.00     0.198 A 
ATOM     91  F   UNL A   1      42.585  27.404  36.530  1.00  0.00    -0.203 F 
ATOM     92  F   UNL A   1      47.593  29.252  35.390  1.00  0.00    -0.200 F 
ATOM     93  C   UNL A   1      46.181  27.825  36.634  1.00  0.00     0.200 A 
ATOM     94  F   UNL A   1      44.731  26.404  37.841  1.00  0.00    -0.200 F 
ATOM     95  F   UNL A   1      47.242  27.300  37.261  1.00  0.00    -0.200 F 
ENDBRANCH  62  85
ENDBRANCH  36  37
ENDBRANCH  28  31
ENDBRANCH  26  27
ENDBRANCH  25  26
ENDBRANCH  24  25
ENDBRANCH   1  24
TORSDOF 18
ENDMDL
MODEL 2
REMARK VINA RESULT:     -11.3      0.946      7.420
REMARK SMILES C[C@H](c1ccccc1)[N@@H+](CC(=O)NCCCCCCNC(=O)c1ccc(-c2c3nc(c(-c4c(F)c(F)c(F)c(F)c4F)c4ccc([nH]4)c(-c4c(F)c(F)c(F)c(F)c4F)c4nc(c(-c5c(F)c(F)c(F)c(F)c5F)c5ccc2[nH]5)C=C4)C=C3)cc1)CC(F)(F)F
REMARK SMILES IDX 16 1 15 2 14 3 13 4 11 5 12 6 10 8 9 9 2 11 1 12 3 13 4 14
REMARK SMILES IDX 8 15 5 16 7 17 6 18 86 19 87 20 88 21 89 22 90 23 17 24
REMARK SMILES IDX 18 25 19 26 20 27 21 28 22 30 23 31 24 32 85 33 25 34 84 35
REMARK SMILES IDX 26 36 27 37 28 38 78 39 29 40 83 41 77 42 79 43 30 44 82 45
REMARK SMILES IDX 76 46 75 47 31 49 63 50 43 51 62 52 44 53 47 54 61 55 80 56
REMARK SMILES IDX 45 57 46 58 60 60 81 61 48 62 32 63 33 64 41 65 34 66 35 67
REMARK SMILES IDX 39 68 42 69 36 70 37 71 40 72 38 73 64 74 65 75 73 76 66 77
REMARK SMILES IDX 67 78 71 79 74 80 68 81 69 82 72 83 70 84 49 85 50 86 58 87
REMARK SMILES IDX 51 88 52 89 56 90 59 91 53 92 54 93 57 94 55 95
REMARK H PARENT 13 7 9 10 20 29 79 48 47 59
REMARK Flexibility Score: inf
ROOT
ATOM      1  C   UNL A   1      32.254  29.326  26.401  1.00  0.00     0.002 C 
ENDROOT
BRANCH   1   2
ATOM      2  C   UNL A   1      31.371  28.097  26.637  1.00  0.00     0.021 C 
BRANCH   2   3
ATOM      3  C   UNL A   1      31.961  26.748  26.210  1.00  0.00     0.116 C 
BRANCH   3   4
ATOM      4  N   UNL A   1      31.359  25.593  26.856  1.00  0.00    -0.351 N 
ATOM      5  C   UNL A   1      31.030  24.352  26.390  1.00  0.00     0.275 C 
ATOM      6  O   UNL A   1      30.727  23.496  27.227  1.00  0.00    -0.269 OA
ATOM      7  H   UNL A   1      31.148  25.731  27.808  1.00  0.00     0.163 HD
BRANCH   5   8
ATOM      8  C   UNL A   1      31.037  24.017  24.897  1.00  0.00     0.364 C 
BRANCH   8   9
ATOM      9  N   UNL A   1      32.250  23.301  24.423  1.00  0.00    -0.314 N 
ATOM     10  H   UNL A   1      32.695  22.852  25.224  1.00  0.00     0.349 HD
BRANCH   9  11
ATOM     11  C   UNL A   1      33.348  24.196  24.046  1.00  0.00     0.212 C 
ATOM     12  C   UNL A   1      33.313  24.855  22.665  1.00  0.00     0.081 C 
BRANCH  11  13
ATOM     13  C   UNL A   1      34.765  23.705  24.339  1.00  0.00     0.009 A 
ATOM     14  C   UNL A   1      35.568  23.071  23.386  1.00  0.00     0.010 A 
ATOM     15  C   UNL A   1      35.348  24.030  25.585  1.00  0.00     0.010 A 
ATOM     16  C   UNL A   1      36.909  22.785  23.664  1.00  0.00     0.001 A 
ATOM     17  C   UNL A   1      36.688  23.757  25.856  1.00  0.00     0.001 A 
ATOM     18  C   UNL A   1      37.471  23.138  24.891  1.00  0.00     0.000 A 
ENDBRANCH  11  13
ENDBRANCH   9  11
BRANCH   9  19
ATOM     19  C   UNL A   1      31.978  22.060  23.663  1.00  0.00     0.380 C 
BRANCH  19  20
ATOM     20  C   UNL A   1      32.411  20.626  24.050  1.00  0.00     0.438 C 
ATOM     21  F   UNL A   1      32.029  19.724  23.118  1.00  0.00    -0.165 F 
ATOM     22  F   UNL A   1      33.766  20.559  24.107  1.00  0.00    -0.165 F 
ATOM     23  F   UNL A   1      31.940  20.216  25.238  1.00  0.00    -0.165 F 
ENDBRANCH  19  20
ENDBRANCH   9  19
ENDBRANCH   8   9
ENDBRANCH   5   8
ENDBRANCH   3   4
ENDBRANCH   2   3
ENDBRANCH   1   2
BRANCH   1  24
ATOM     24  C   UNL A   1      31.538  30.508  25.749  1.00  0.00     0.002 C 
BRANCH  24  25
ATOM     25  C   UNL A   1      31.374  31.748  26.635  1.00  0.00     0.021 C 
BRANCH  25  26
ATOM     26  C   UNL A   1      32.676  32.386  27.116  1.00  0.00     0.116 C 
BRANCH  26  27
ATOM     27  N   UNL A   1      32.495  33.785  27.467  1.00  0.00    -0.352 N 
ATOM     28  C   UNL A   1      33.117  34.498  28.459  1.00  0.00     0.251 C 
ATOM     29  H   UNL A   1      31.843  34.284  26.923  1.00  0.00     0.163 HD
ATOM     30  O   UNL A   1      32.696  35.604  28.798  1.00  0.00    -0.269 OA
BRANCH  28  31
ATOM     31  C   UNL A   1      34.296  33.924  29.138  1.00  0.00     0.039 A 
ATOM     32  C   UNL A   1      34.108  32.985  30.153  1.00  0.00     0.014 A 
ATOM     33  C   UNL A   1      35.587  34.317  28.766  1.00  0.00     0.014 A 
ATOM     34  C   UNL A   1      35.219  32.401  30.766  1.00  0.00     0.010 A 
ATOM     35  C   UNL A   1      36.693  33.694  29.341  1.00  0.00     0.010 A 
ATOM     36  C   UNL A   1      36.519  32.734  30.350  1.00  0.00    -0.014 A 
BRANCH  36  37
ATOM     37  C   UNL A   1      37.701  32.077  30.966  1.00  0.00     0.031 A 
ATOM     38  C   UNL A   1      38.166  32.478  32.338  1.00  0.00     0.074 A 
ATOM     39  C   UNL A   1      38.373  31.137  30.273  1.00  0.00     0.049 A 
ATOM     40  N   UNL A   1      39.176  32.021  33.036  1.00  0.00    -0.248 NA
ATOM     41  C   UNL A   1      37.411  33.549  33.007  1.00  0.00     0.031 C 
ATOM     42  C   UNL A   1      38.055  30.700  28.913  1.00  0.00     0.029 A 
ATOM     43  N   UNL A   1      39.467  30.382  30.617  1.00  0.00    -0.354 N 
ATOM     44  C   UNL A   1      39.174  32.743  34.222  1.00  0.00     0.074 A 
ATOM     45  C   UNL A   1      38.100  33.708  34.127  1.00  0.00     0.031 C 
ATOM     46  C   UNL A   1      38.919  29.741  28.544  1.00  0.00     0.029 A 
ATOM     47  C   UNL A   1      39.866  29.511  29.631  1.00  0.00     0.049 A 
ATOM     48  H   UNL A   1      39.922  30.457  31.486  1.00  0.00     0.167 HD
ATOM     49  C   UNL A   1      39.975  32.594  35.303  1.00  0.00     0.037 A 
ATOM     50  C   UNL A   1      40.881  28.626  29.610  1.00  0.00     0.037 A 
ATOM     51  C   UNL A   1      41.034  31.623  35.403  1.00  0.00     0.049 A 
ATOM     52  C   UNL A   1      41.752  28.479  30.828  1.00  0.00     0.074 A 
ATOM     53  C   UNL A   1      41.876  31.370  36.472  1.00  0.00     0.029 A 
ATOM     54  N   UNL A   1      41.394  30.742  34.394  1.00  0.00    -0.354 N 
ATOM     55  N   UNL A   1      41.695  29.120  31.970  1.00  0.00    -0.248 NA
ATOM     56  C   UNL A   1      42.822  27.473  30.760  1.00  0.00     0.031 C 
ATOM     57  C   UNL A   1      42.769  30.361  36.097  1.00  0.00     0.029 A 
ATOM     58  C   UNL A   1      42.455  29.954  34.811  1.00  0.00     0.049 A 
ATOM     59  H   UNL A   1      40.960  30.686  33.512  1.00  0.00     0.167 HD
ATOM     60  C   UNL A   1      42.703  28.583  32.760  1.00  0.00     0.074 A 
ATOM     61  C   UNL A   1      43.338  27.544  31.978  1.00  0.00     0.031 C 
ATOM     62  C   UNL A   1      43.074  28.923  34.019  1.00  0.00     0.037 A 
BRANCH  49  63
ATOM     63  C   UNL A   1      39.728  33.490  36.481  1.00  0.00     0.064 A 
ATOM     64  C   UNL A   1      40.350  34.743  36.586  1.00  0.00     0.173 A 
ATOM     65  C   UNL A   1      38.818  33.124  37.484  1.00  0.00     0.173 A 
ATOM     66  F   UNL A   1      41.237  35.137  35.658  1.00  0.00    -0.203 F 
ATOM     67  C   UNL A   1      40.084  35.588  37.660  1.00  0.00     0.198 A 
ATOM     68  C   UNL A   1      38.534  33.982  38.543  1.00  0.00     0.198 A 
ATOM     69  F   UNL A   1      38.193  31.938  37.429  1.00  0.00    -0.203 F 
ATOM     70  F   UNL A   1      40.718  36.766  37.756  1.00  0.00    -0.200 F 
ATOM     71  C   UNL A   1      39.170  35.212  38.632  1.00  0.00     0.200 A 
ATOM     72  F   UNL A   1      37.642  33.622  39.475  1.00  0.00    -0.200 F 
ATOM     73  F   UNL A   1      38.905  36.032  39.658  1.00  0.00    -0.200 F 
ENDBRANCH  49  63
BRANCH  50  74
ATOM     74  C   UNL A   1      41.120  27.791  28.404  1.00  0.00     0.064 A 
ATOM     75  C   UNL A   1      42.008  28.205  27.401  1.00  0.00     0.173 A 
ATOM     76  C   UNL A   1      40.446  26.575  28.217  1.00  0.00     0.173 A 
ATOM     77  F   UNL A   1      42.660  29.371  27.526  1.00  0.00    -0.203 F 
ATOM     78  C   UNL A   1      42.189  27.452  26.244  1.00  0.00     0.198 A 
ATOM     79  C   UNL A   1      40.650  25.807  27.071  1.00  0.00     0.198 A 
ATOM     80  F   UNL A   1      39.590  26.129  29.148  1.00  0.00    -0.203 F 
ATOM     81  F   UNL A   1      43.000  27.901  25.276  1.00  0.00    -0.200 F 
ATOM     82  C   UNL A   1      41.513  26.252  26.080  1.00  0.00     0.200 A 
ATOM     83  F   UNL A   1      40.007  24.641  26.925  1.00  0.00    -0.200 F 
ATOM     84  F   UNL A   1      41.686  25.529  24.966  1.00  0.00    -0.200 F 
ENDBRANCH  50  74
BRANCH  62  85
ATOM     85  C   UNL A   1      44.203  28.147  34.631  1.00  0.00     0.064 A 
ATOM     86  C   UNL A   1      43.978  26.956  35.336  1.00  0.00     0.173 A 
ATOM     87  C   UNL A   1      45.527  28.591  34.495  1.00  0.00     0.173 A 
ATOM     88  F   UNL A   1      42.727  26.500  35.505  1.00  0.00    -0.203 F 
ATOM     89  C   UNL A   1      45.034  26.255  35.912  1.00  0.00     0.198 A 
ATOM     90  C   UNL A   1      46.583  27.873  35.047  1.00  0.00     0.198 A 
ATOM     91  F   UNL A   1      45.797  29.721  33.824  1.00  0.00    -0.203 F 
ATOM     92  F   UNL A   1      44.789  25.150  36.629  1.00  0.00    -0.200 F 
ATOM     93  C   UNL A   1      46.335  26.710  35.763  1.00  0.00     0.200 A 
ATOM     94  F   UNL A   1      47.842  28.307  34.891  1.00  0.00    -0.200 F 
ATOM     95  F   UNL A   1      47.350  26.035  36.319  1.00  0.00    -0.200 F 
ENDBRANCH  62  85
ENDBRANCH  36  37
ENDBRANCH  28  31
ENDBRANCH  26  27
ENDBRANCH  25  26
ENDBRANCH  24  25
ENDBRANCH   1  24
TORSDOF 18
ENDMDL
MODEL 3
REMARK VINA RESULT:     -11.2      1.370      7.505
REMARK SMILES C[C@H](c1ccccc1)[N@@H+](CC(=O)NCCCCCCNC(=O)c1ccc(-c2c3nc(c(-c4c(F)c(F)c(F)c(F)c4F)c4ccc([nH]4)c(-c4c(F)c(F)c(F)c(F)c4F)c4nc(c(-c5c(F)c(F)c(F)c(F)c5F)c5ccc2[nH]5)C=C4)C=C3)cc1)CC(F)(F)F
REMARK SMILES IDX 16 1 15 2 14 3 13 4 11 5 12 6 10 8 9 9 2 11 1 12 3 13 4 14
REMARK SMILES IDX 8 15 5 16 7 17 6 18 86 19 87 20 88 21 89 22 90 23 17 24
REMARK SMILES IDX 18 25 19 26 20 27 21 28 22 30 23 31 24 32 85 33 25 34 84 35
REMARK SMILES IDX 26 36 27 37 28 38 78 39 29 40 83 41 77 42 79 43 30 44 82 45
REMARK SMILES IDX 76 46 75 47 31 49 63 50 43 51 62 52 44 53 47 54 61 55 80 56
REMARK SMILES IDX 45 57 46 58 60 60 81 61 48 62 32 63 33 64 41 65 34 66 35 67
REMARK SMILES IDX 39 68 42 69 36 70 37 71 40 72 38 73 64 74 65 75 73 76 66 77
REMARK SMILES IDX 67 78 71 79 74 80 68 81 69 82 72 83 70 84 49 85 50 86 58 87
REMARK SMILES IDX 51 88 52 89 56 90 59 91 53 92 54 93 57 94 55 95
REMARK H PARENT 13 7 9 10 20 29 79 48 47 59
REMARK Flexibility Score: inf
ROOT
ATOM      1  C   UNL A   1      32.417  29.988  26.880  1.00  0.00     0.002 C 
ENDROOT
BRANCH   1   2
ATOM      2  C   UNL A   1      31.897  28.614  27.312  1.00  0.00     0.021 C 
BRANCH   2   3
ATOM      3  C   UNL A   1      31.895  27.523  26.235  1.00  0.00     0.116 C 
BRANCH   3   4
ATOM      4  N   UNL A   1      31.341  26.250  26.665  1.00  0.00    -0.351 N 
ATOM      5  C   UNL A   1      31.772  24.963  26.505  1.00  0.00     0.275 C 
ATOM      6  O   UNL A   1      31.205  24.091  27.169  1.00  0.00    -0.269 OA
ATOM      7  H   UNL A   1      30.497  26.329  27.166  1.00  0.00     0.163 HD
BRANCH   5   8
ATOM      8  C   UNL A   1      32.912  24.601  25.549  1.00  0.00     0.364 C 
BRANCH   8   9
ATOM      9  N   UNL A   1      32.476  24.075  24.229  1.00  0.00    -0.314 N 
ATOM     10  H   UNL A   1      31.978  23.198  24.378  1.00  0.00     0.349 HD
BRANCH   9  11
ATOM     11  C   UNL A   1      33.578  23.555  23.414  1.00  0.00     0.212 C 
ATOM     12  C   UNL A   1      33.277  23.102  21.983  1.00  0.00     0.081 C 
BRANCH  11  13
ATOM     13  C   UNL A   1      34.509  22.545  24.082  1.00  0.00     0.009 A 
ATOM     14  C   UNL A   1      34.079  21.298  24.546  1.00  0.00     0.010 A 
ATOM     15  C   UNL A   1      35.895  22.818  24.108  1.00  0.00     0.010 A 
ATOM     16  C   UNL A   1      35.004  20.354  25.007  1.00  0.00     0.001 A 
ATOM     17  C   UNL A   1      36.817  21.873  24.554  1.00  0.00     0.001 A 
ATOM     18  C   UNL A   1      36.370  20.635  24.999  1.00  0.00     0.000 A 
ENDBRANCH  11  13
ENDBRANCH   9  11
BRANCH   9  19
ATOM     19  C   UNL A   1      31.348  24.809  23.614  1.00  0.00     0.380 C 
BRANCH  19  20
ATOM     20  C   UNL A   1      31.431  26.135  22.822  1.00  0.00     0.438 C 
ATOM     21  F   UNL A   1      32.597  26.780  23.054  1.00  0.00    -0.165 F 
ATOM     22  F   UNL A   1      31.403  25.873  21.489  1.00  0.00    -0.165 F 
ATOM     23  F   UNL A   1      30.429  26.989  23.082  1.00  0.00    -0.165 F 
ENDBRANCH  19  20
ENDBRANCH   9  19
ENDBRANCH   8   9
ENDBRANCH   5   8
ENDBRANCH   3   4
ENDBRANCH   2   3
ENDBRANCH   1   2
BRANCH   1  24
ATOM     24  C   UNL A   1      31.404  30.841  26.118  1.00  0.00     0.002 C 
BRANCH  24  25
ATOM     25  C   UNL A   1      31.372  32.325  26.500  1.00  0.00     0.021 C 
BRANCH  25  26
ATOM     26  C   UNL A   1      32.602  32.834  27.250  1.00  0.00     0.116 C 
BRANCH  26  27
ATOM     27  N   UNL A   1      32.437  34.210  27.688  1.00  0.00    -0.352 N 
ATOM     28  C   UNL A   1      33.064  34.851  28.725  1.00  0.00     0.251 C 
ATOM     29  H   UNL A   1      31.793  34.751  27.175  1.00  0.00     0.163 HD
ATOM     30  O   UNL A   1      32.655  35.939  29.132  1.00  0.00    -0.269 OA
BRANCH  28  31
ATOM     31  C   UNL A   1      34.234  34.221  29.370  1.00  0.00     0.039 A 
ATOM     32  C   UNL A   1      34.033  33.337  30.432  1.00  0.00     0.014 A 
ATOM     33  C   UNL A   1      35.528  34.506  28.920  1.00  0.00     0.014 A 
ATOM     34  C   UNL A   1      35.130  32.700  31.015  1.00  0.00     0.010 A 
ATOM     35  C   UNL A   1      36.616  33.828  29.467  1.00  0.00     0.010 A 
ATOM     36  C   UNL A   1      36.427  32.922  30.522  1.00  0.00    -0.014 A 
BRANCH  36  37
ATOM     37  C   UNL A   1      37.590  32.206  31.107  1.00  0.00     0.031 A 
ATOM     38  C   UNL A   1      38.078  32.548  32.488  1.00  0.00     0.074 A 
ATOM     39  C   UNL A   1      38.225  31.267  30.380  1.00  0.00     0.049 A 
ATOM     40  N   UNL A   1      39.077  32.035  33.163  1.00  0.00    -0.248 NA
ATOM     41  C   UNL A   1      37.364  33.623  33.196  1.00  0.00     0.031 C 
ATOM     42  C   UNL A   1      37.882  30.884  29.009  1.00  0.00     0.029 A 
ATOM     43  N   UNL A   1      39.295  30.465  30.691  1.00  0.00    -0.354 N 
ATOM     44  C   UNL A   1      39.108  32.719  34.371  1.00  0.00     0.074 A 
ATOM     45  C   UNL A   1      38.067  33.723  34.316  1.00  0.00     0.031 C 
ATOM     46  C   UNL A   1      38.711  29.909  28.604  1.00  0.00     0.029 A 
ATOM     47  C   UNL A   1      39.658  29.613  29.675  1.00  0.00     0.049 A 
ATOM     48  H   UNL A   1      39.759  30.497  31.558  1.00  0.00     0.167 HD
ATOM     49  C   UNL A   1      39.911  32.509  35.441  1.00  0.00     0.037 A 
ATOM     50  C   UNL A   1      40.642  28.695  29.618  1.00  0.00     0.037 A 
ATOM     51  C   UNL A   1      40.937  31.500  35.501  1.00  0.00     0.049 A 
ATOM     52  C   UNL A   1      41.516  28.480  30.824  1.00  0.00     0.074 A 
ATOM     53  C   UNL A   1      41.778  31.185  36.555  1.00  0.00     0.029 A 
ATOM     54  N   UNL A   1      41.260  30.640  34.462  1.00  0.00    -0.354 N 
ATOM     55  N   UNL A   1      41.489  29.087  31.986  1.00  0.00    -0.248 NA
ATOM     56  C   UNL A   1      42.550  27.441  30.715  1.00  0.00     0.031 C 
ATOM     57  C   UNL A   1      42.634  30.158  36.141  1.00  0.00     0.029 A 
ATOM     58  C   UNL A   1      42.296  29.804  34.845  1.00  0.00     0.049 A 
ATOM     59  H   UNL A   1      40.818  30.626  33.582  1.00  0.00     0.167 HD
ATOM     60  C   UNL A   1      42.483  28.491  32.751  1.00  0.00     0.074 A 
ATOM     61  C   UNL A   1      43.077  27.456  31.931  1.00  0.00     0.031 C 
ATOM     62  C   UNL A   1      42.874  28.778  34.016  1.00  0.00     0.037 A 
BRANCH  49  63
ATOM     63  C   UNL A   1      39.703  33.375  36.648  1.00  0.00     0.064 A 
ATOM     64  C   UNL A   1      40.367  34.603  36.787  1.00  0.00     0.173 A 
ATOM     65  C   UNL A   1      38.789  33.007  37.646  1.00  0.00     0.173 A 
ATOM     66  F   UNL A   1      41.260  34.996  35.864  1.00  0.00    -0.203 F 
ATOM     67  C   UNL A   1      40.138  35.422  37.889  1.00  0.00     0.198 A 
ATOM     68  C   UNL A   1      38.542  33.841  38.734  1.00  0.00     0.198 A 
ATOM     69  F   UNL A   1      38.124  31.846  37.560  1.00  0.00    -0.203 F 
ATOM     70  F   UNL A   1      40.811  36.574  38.017  1.00  0.00    -0.200 F 
ATOM     71  C   UNL A   1      39.219  35.046  38.857  1.00  0.00     0.200 A 
ATOM     72  F   UNL A   1      37.645  33.482  39.662  1.00  0.00    -0.200 F 
ATOM     73  F   UNL A   1      38.989  35.841  39.910  1.00  0.00    -0.200 F 
ENDBRANCH  49  63
BRANCH  50  74
ATOM     74  C   UNL A   1      40.843  27.891  28.385  1.00  0.00     0.064 A 
ATOM     75  C   UNL A   1      40.231  26.639  28.229  1.00  0.00     0.173 A 
ATOM     76  C   UNL A   1      41.672  28.345  27.348  1.00  0.00     0.173 A 
ATOM     77  F   UNL A   1      39.446  26.154  29.203  1.00  0.00    -0.203 F 
ATOM     78  C   UNL A   1      40.464  25.859  27.100  1.00  0.00     0.198 A 
ATOM     79  C   UNL A   1      41.882  27.576  26.205  1.00  0.00     0.198 A 
ATOM     80  F   UNL A   1      42.277  29.537  27.444  1.00  0.00    -0.203 F 
ATOM     81  F   UNL A   1      39.912  24.641  27.003  1.00  0.00    -0.200 F 
ATOM     82  C   UNL A   1      41.287  26.328  26.086  1.00  0.00     0.200 A 
ATOM     83  F   UNL A   1      42.664  28.040  25.222  1.00  0.00    -0.200 F 
ATOM     84  F   UNL A   1      41.513  25.577  25.001  1.00  0.00    -0.200 F 
ENDBRANCH  50  74
BRANCH  62  85
ATOM     85  C   UNL A   1      43.981  27.946  34.594  1.00  0.00     0.064 A 
ATOM     86  C   UNL A   1      45.323  28.344  34.501  1.00  0.00     0.173 A 
ATOM     87  C   UNL A   1      43.695  26.747  35.264  1.00  0.00     0.173 A 
ATOM     88  F   UNL A   1      45.647  29.475  33.856  1.00  0.00    -0.203 F 
ATOM     89  C   UNL A   1      46.341  27.554  35.027  1.00  0.00     0.198 A 
ATOM     90  C   UNL A   1      44.713  25.974  35.815  1.00  0.00     0.198 A 
ATOM     91  F   UNL A   1      42.427  26.325  35.386  1.00  0.00    -0.203 F 
ATOM     92  F   UNL A   1      47.620  27.926  34.877  1.00  0.00    -0.200 F 
ATOM     93  C   UNL A   1      46.036  26.374  35.688  1.00  0.00     0.200 A 
ATOM     94  F   UNL A   1      44.416  24.840  36.464  1.00  0.00    -0.200 F 
ATOM     95  F   UNL A   1      47.017  25.615  36.194  1.00  0.00    -0.200 F 
ENDBRANCH  62  85
ENDBRANCH  36  37
ENDBRANCH  28  31
ENDBRANCH  26  27
ENDBRANCH  25  26
ENDBRANCH  24  25
ENDBRANCH   1  24
TORSDOF 18
ENDMDL
