MODEL 1
REMARK VINA RESULT:     -12.1      0.000      0.000
REMARK SMILES CC[C@H](C)[C@H](NS(=O)(=O)c1ccc(C)cc1)C(=O)NCCCCCCNC(=O)c1ccc(-c2c3nc(c(-c4c(F)c(F)c(F)c(F)c4F)c4ccc([nH]4)c(-c4c(F)c(F)c(F)c(F)c4F)c4nc(c(-c5c(F)c(F)c(F)c(F)c5F)c5ccc2[nH]5)C=C4)C=C3)cc1
REMARK SMILES IDX 22 1 21 2 20 3 19 4 17 5 18 6 5 8 3 9 4 10 2 11 1 12 6 13
REMARK SMILES IDX 7 15 8 16 9 17 10 18 11 19 16 20 12 21 15 22 13 23 14 24
REMARK SMILES IDX 23 25 24 26 25 27 26 28 27 29 28 31 29 32 30 33 91 34 31 35
REMARK SMILES IDX 90 36 32 37 33 38 34 39 84 40 35 41 89 42 83 43 85 44 36 45
REMARK SMILES IDX 88 46 82 47 81 48 37 50 69 51 49 52 68 53 50 54 53 55 67 56
REMARK SMILES IDX 86 57 51 58 52 59 66 61 87 62 54 63 38 64 39 65 47 66 40 67
REMARK SMILES IDX 41 68 45 69 48 70 42 71 43 72 46 73 44 74 70 75 71 76 79 77
REMARK SMILES IDX 72 78 73 79 77 80 80 81 74 82 75 83 78 84 76 85 55 86 56 87
REMARK SMILES IDX 64 88 57 89 58 90 62 91 65 92 59 93 60 94 63 95 61 96
REMARK H PARENT 19 7 6 14 26 30 85 49 53 60
REMARK Flexibility Score: inf
ROOT
ATOM      1  C   UNL A   1      35.425  21.043  24.663  1.00  0.00     0.002 C 
ENDROOT
BRANCH   1   2
ATOM      2  C   UNL A   1      34.241  20.160  25.079  1.00  0.00     0.021 C 
BRANCH   2   3
ATOM      3  C   UNL A   1      32.862  20.813  25.106  1.00  0.00     0.116 C 
BRANCH   3   4
ATOM      4  N   UNL A   1      32.647  21.761  26.182  1.00  0.00    -0.355 N 
ATOM      5  C   UNL A   1      32.130  23.030  26.134  1.00  0.00     0.238 C 
ATOM      6  O   UNL A   1      31.837  23.560  27.212  1.00  0.00    -0.273 OA
ATOM      7  H   UNL A   1      32.911  21.447  27.077  1.00  0.00     0.163 HD
BRANCH   5   8
ATOM      8  C   UNL A   1      31.940  23.815  24.802  1.00  0.00     0.161 C 
BRANCH   8   9
ATOM      9  C   UNL A   1      33.241  24.521  24.345  1.00  0.00     0.013 C 
ATOM     10  C   UNL A   1      34.108  25.011  25.508  1.00  0.00     0.010 C 
BRANCH   9  11
ATOM     11  C   UNL A   1      34.055  23.821  23.245  1.00  0.00     0.002 C 
ATOM     12  C   UNL A   1      33.243  23.260  22.084  1.00  0.00     0.004 C 
ENDBRANCH   9  11
ENDBRANCH   8   9
BRANCH   8  13
ATOM     13  N   UNL A   1      30.645  24.507  24.894  1.00  0.00    -0.198 NA
ATOM     14  H   UNL A   1      30.478  24.575  25.898  1.00  0.00     0.142 HD
BRANCH  13  15
ATOM     15  S   UNL A   1      30.137  25.969  24.314  1.00  0.00     0.241 S 
ATOM     16  O   UNL A   1      30.598  26.012  22.949  1.00  0.00    -0.207 OA
ATOM     17  O   UNL A   1      28.726  26.100  24.629  1.00  0.00    -0.207 OA
BRANCH  15  18
ATOM     18  C   UNL A   1      31.018  27.226  25.192  1.00  0.00     0.082 A 
ATOM     19  C   UNL A   1      31.194  27.166  26.575  1.00  0.00     0.022 A 
ATOM     20  C   UNL A   1      31.463  28.336  24.467  1.00  0.00     0.022 A 
ATOM     21  C   UNL A   1      31.745  28.264  27.242  1.00  0.00     0.005 A 
ATOM     22  C   UNL A   1      32.028  29.420  25.136  1.00  0.00     0.005 A 
ATOM     23  C   UNL A   1      32.136  29.408  26.532  1.00  0.00    -0.051 A 
ATOM     24  C   UNL A   1      32.681  30.611  27.244  1.00  0.00     0.044 C 
ENDBRANCH  15  18
ENDBRANCH  13  15
ENDBRANCH   8  13
ENDBRANCH   5   8
ENDBRANCH   3   4
ENDBRANCH   2   3
ENDBRANCH   1   2
BRANCH   1  25
ATOM     25  C   UNL A   1      36.358  21.590  25.756  1.00  0.00     0.002 C 
BRANCH  25  26
ATOM     26  C   UNL A   1      37.758  22.050  25.343  1.00  0.00     0.021 C 
BRANCH  26  27
ATOM     27  C   UNL A   1      38.307  23.249  26.102  1.00  0.00     0.116 C 
BRANCH  27  28
ATOM     28  N   UNL A   1      39.750  23.215  26.324  1.00  0.00    -0.352 N 
ATOM     29  C   UNL A   1      40.577  24.237  26.763  1.00  0.00     0.251 C 
ATOM     30  H   UNL A   1      40.193  22.355  26.138  1.00  0.00     0.163 HD
ATOM     31  O   UNL A   1      41.781  24.065  26.910  1.00  0.00    -0.269 OA
BRANCH  29  32
ATOM     32  C   UNL A   1      39.948  25.505  27.191  1.00  0.00     0.039 A 
ATOM     33  C   UNL A   1      40.301  26.662  26.490  1.00  0.00     0.014 A 
ATOM     34  C   UNL A   1      39.317  25.581  28.430  1.00  0.00     0.014 A 
ATOM     35  C   UNL A   1      40.293  27.879  27.160  1.00  0.00     0.010 A 
ATOM     36  C   UNL A   1      39.398  26.769  29.128  1.00  0.00     0.010 A 
ATOM     37  C   UNL A   1      39.971  27.889  28.516  1.00  0.00    -0.014 A 
BRANCH  37  38
ATOM     38  C   UNL A   1      40.329  28.994  29.395  1.00  0.00     0.031 A 
ATOM     39  C   UNL A   1      39.346  30.050  29.689  1.00  0.00     0.074 A 
ATOM     40  C   UNL A   1      41.551  29.006  29.972  1.00  0.00     0.049 A 
ATOM     41  N   UNL A   1      39.651  31.245  30.069  1.00  0.00    -0.248 NA
ATOM     42  C   UNL A   1      37.918  29.858  29.485  1.00  0.00     0.031 C 
ATOM     43  C   UNL A   1      42.017  29.878  31.046  1.00  0.00     0.029 A 
ATOM     44  N   UNL A   1      42.710  28.336  29.538  1.00  0.00    -0.354 N 
ATOM     45  C   UNL A   1      38.484  31.872  30.445  1.00  0.00     0.074 A 
ATOM     46  C   UNL A   1      37.440  31.025  29.924  1.00  0.00     0.031 C 
ATOM     47  C   UNL A   1      43.357  29.938  31.002  1.00  0.00     0.029 A 
ATOM     48  C   UNL A   1      43.783  29.216  29.816  1.00  0.00     0.049 A 
ATOM     49  H   UNL A   1      42.764  27.444  29.128  1.00  0.00     0.167 HD
ATOM     50  C   UNL A   1      38.565  32.943  31.289  1.00  0.00     0.037 A 
ATOM     51  C   UNL A   1      44.542  29.744  28.813  1.00  0.00     0.037 A 
ATOM     52  C   UNL A   1      39.958  33.393  31.411  1.00  0.00     0.049 A 
ATOM     53  C   UNL A   1      44.486  31.252  28.729  1.00  0.00     0.074 A 
ATOM     54  C   UNL A   1      40.918  33.235  32.397  1.00  0.00     0.029 A 
ATOM     55  N   UNL A   1      40.631  33.855  30.280  1.00  0.00    -0.354 N 
ATOM     56  N   UNL A   1      43.572  31.976  29.314  1.00  0.00    -0.248 NA
ATOM     57  C   UNL A   1      45.428  32.059  27.958  1.00  0.00     0.031 C 
ATOM     58  C   UNL A   1      42.186  33.512  31.823  1.00  0.00     0.029 A 
ATOM     59  C   UNL A   1      41.996  33.876  30.501  1.00  0.00     0.049 A 
ATOM     60  H   UNL A   1      40.194  34.129  29.442  1.00  0.00     0.167 HD
ATOM     61  C   UNL A   1      43.763  33.295  29.002  1.00  0.00     0.074 A 
ATOM     62  C   UNL A   1      44.950  33.299  28.166  1.00  0.00     0.031 C 
ATOM     63  C   UNL A   1      42.920  34.272  29.446  1.00  0.00     0.037 A 
BRANCH  50  64
ATOM     64  C   UNL A   1      37.458  33.390  32.245  1.00  0.00     0.064 A 
ATOM     65  C   UNL A   1      36.345  34.113  31.754  1.00  0.00     0.173 A 
ATOM     66  C   UNL A   1      37.474  33.263  33.650  1.00  0.00     0.173 A 
ATOM     67  F   UNL A   1      36.121  34.243  30.440  1.00  0.00    -0.203 F 
ATOM     68  C   UNL A   1      35.412  34.739  32.593  1.00  0.00     0.198 A 
ATOM     69  C   UNL A   1      36.550  33.897  34.489  1.00  0.00     0.198 A 
ATOM     70  F   UNL A   1      38.356  32.501  34.293  1.00  0.00    -0.203 F 
ATOM     71  F   UNL A   1      34.403  35.442  32.058  1.00  0.00    -0.200 F 
ATOM     72  C   UNL A   1      35.530  34.652  33.963  1.00  0.00     0.200 A 
ATOM     73  F   UNL A   1      36.670  33.767  35.818  1.00  0.00    -0.200 F 
ATOM     74  F   UNL A   1      34.657  35.271  34.769  1.00  0.00    -0.200 F 
ENDBRANCH  50  64
BRANCH  51  75
ATOM     75  C   UNL A   1      44.714  28.819  27.663  1.00  0.00     0.064 A 
ATOM     76  C   UNL A   1      45.517  27.677  27.851  1.00  0.00     0.173 A 
ATOM     77  C   UNL A   1      43.839  28.821  26.572  1.00  0.00     0.173 A 
ATOM     78  F   UNL A   1      46.375  27.625  28.883  1.00  0.00    -0.203 F 
ATOM     79  C   UNL A   1      45.363  26.542  27.058  1.00  0.00     0.198 A 
ATOM     80  C   UNL A   1      43.698  27.686  25.769  1.00  0.00     0.198 A 
ATOM     81  F   UNL A   1      43.035  29.871  26.349  1.00  0.00    -0.203 F 
ATOM     82  F   UNL A   1      46.061  25.432  27.337  1.00  0.00    -0.200 F 
ATOM     83  C   UNL A   1      44.431  26.538  26.034  1.00  0.00     0.200 A 
ATOM     84  F   UNL A   1      42.784  27.674  24.787  1.00  0.00    -0.200 F 
ATOM     85  F   UNL A   1      44.213  25.418  25.331  1.00  0.00    -0.200 F 
ENDBRANCH  51  75
BRANCH  63  86
ATOM     86  C   UNL A   1      42.939  35.709  28.996  1.00  0.00     0.064 A 
ATOM     87  C   UNL A   1      42.213  36.193  27.896  1.00  0.00     0.173 A 
ATOM     88  C   UNL A   1      43.598  36.689  29.776  1.00  0.00     0.173 A 
ATOM     89  F   UNL A   1      41.460  35.375  27.147  1.00  0.00    -0.203 F 
ATOM     90  C   UNL A   1      42.194  37.551  27.565  1.00  0.00     0.198 A 
ATOM     91  C   UNL A   1      43.532  38.049  29.475  1.00  0.00     0.198 A 
ATOM     92  F   UNL A   1      44.307  36.355  30.864  1.00  0.00    -0.203 F 
ATOM     93  F   UNL A   1      41.518  37.960  26.482  1.00  0.00    -0.200 F 
ATOM     94  C   UNL A   1      42.842  38.478  28.360  1.00  0.00     0.200 A 
ATOM     95  F   UNL A   1      44.125  38.939  30.282  1.00  0.00    -0.200 F 
ATOM     96  F   UNL A   1      42.784  39.783  28.064  1.00  0.00    -0.200 F 
ENDBRANCH  63  86
ENDBRANCH  37  38
ENDBRANCH  29  32
ENDBRANCH  27  28
ENDBRANCH  26  27
ENDBRANCH  25  26
ENDBRANCH   1  25
TORSDOF 18
ENDMDL
MODEL 2
REMARK VINA RESULT:     -12.1      3.472      9.847
REMARK SMILES CC[C@H](C)[C@H](NS(=O)(=O)c1ccc(C)cc1)C(=O)NCCCCCCNC(=O)c1ccc(-c2c3nc(c(-c4c(F)c(F)c(F)c(F)c4F)c4ccc([nH]4)c(-c4c(F)c(F)c(F)c(F)c4F)c4nc(c(-c5c(F)c(F)c(F)c(F)c5F)c5ccc2[nH]5)C=C4)C=C3)cc1
REMARK SMILES IDX 22 1 21 2 20 3 19 4 17 5 18 6 5 8 3 9 4 10 2 11 1 12 6 13
REMARK SMILES IDX 7 15 8 16 9 17 10 18 11 19 16 20 12 21 15 22 13 23 14 24
REMARK SMILES IDX 23 25 24 26 25 27 26 28 27 29 28 31 29 32 30 33 91 34 31 35
REMARK SMILES IDX 90 36 32 37 33 38 34 39 84 40 35 41 89 42 83 43 85 44 36 45
REMARK SMILES IDX 88 46 82 47 81 48 37 50 69 51 49 52 68 53 50 54 53 55 67 56
REMARK SMILES IDX 86 57 51 58 52 59 66 61 87 62 54 63 38 64 39 65 47 66 40 67
REMARK SMILES IDX 41 68 45 69 48 70 42 71 43 72 46 73 44 74 70 75 71 76 79 77
REMARK SMILES IDX 72 78 73 79 77 80 80 81 74 82 75 83 78 84 76 85 55 86 56 87
REMARK SMILES IDX 64 88 57 89 58 90 62 91 65 92 59 93 60 94 63 95 61 96
REMARK H PARENT 19 7 6 14 26 30 85 49 53 60
REMARK Flexibility Score: inf
ROOT
ATOM      1  C   UNL A   1      32.764  27.832  27.064  1.00  0.00     0.002 C 
ENDROOT
BRANCH   1   2
ATOM      2  C   UNL A   1      31.458  28.205  26.350  1.00  0.00     0.021 C 
BRANCH   2   3
ATOM      3  C   UNL A   1      31.479  28.217  24.824  1.00  0.00     0.116 C 
BRANCH   3   4
ATOM      4  N   UNL A   1      30.362  27.550  24.184  1.00  0.00    -0.355 N 
ATOM      5  C   UNL A   1      30.127  26.209  24.021  1.00  0.00     0.238 C 
ATOM      6  O   UNL A   1      28.999  25.877  23.641  1.00  0.00    -0.273 OA
ATOM      7  H   UNL A   1      29.672  28.147  23.813  1.00  0.00     0.163 HD
BRANCH   5   8
ATOM      8  C   UNL A   1      31.221  25.124  24.257  1.00  0.00     0.161 C 
BRANCH   8   9
ATOM      9  C   UNL A   1      32.183  24.987  23.051  1.00  0.00     0.013 C 
ATOM     10  C   UNL A   1      31.813  25.892  21.872  1.00  0.00     0.010 C 
BRANCH   9  11
ATOM     11  C   UNL A   1      33.688  24.999  23.364  1.00  0.00     0.002 C 
ATOM     12  C   UNL A   1      34.055  25.343  24.802  1.00  0.00     0.004 C 
ENDBRANCH   9  11
ENDBRANCH   8   9
BRANCH   8  13
ATOM     13  N   UNL A   1      30.553  23.972  24.882  1.00  0.00    -0.198 NA
ATOM     14  H   UNL A   1      30.579  23.255  24.157  1.00  0.00     0.142 HD
BRANCH  13  15
ATOM     15  S   UNL A   1      30.876  23.136  26.270  1.00  0.00     0.241 S 
ATOM     16  O   UNL A   1      31.094  24.146  27.275  1.00  0.00    -0.207 OA
ATOM     17  O   UNL A   1      29.838  22.135  26.432  1.00  0.00    -0.207 OA
BRANCH  15  18
ATOM     18  C   UNL A   1      32.418  22.300  26.043  1.00  0.00     0.082 A 
ATOM     19  C   UNL A   1      33.461  22.428  26.961  1.00  0.00     0.022 A 
ATOM     20  C   UNL A   1      32.596  21.571  24.862  1.00  0.00     0.022 A 
ATOM     21  C   UNL A   1      34.714  21.889  26.651  1.00  0.00     0.005 A 
ATOM     22  C   UNL A   1      33.842  21.022  24.569  1.00  0.00     0.005 A 
ATOM     23  C   UNL A   1      34.920  21.211  25.442  1.00  0.00    -0.051 A 
ATOM     24  C   UNL A   1      36.273  20.673  25.077  1.00  0.00     0.044 C 
ENDBRANCH  15  18
ENDBRANCH  13  15
ENDBRANCH   8  13
ENDBRANCH   5   8
ENDBRANCH   3   4
ENDBRANCH   2   3
ENDBRANCH   1   2
BRANCH   1  25
ATOM     25  C   UNL A   1      33.806  28.933  27.319  1.00  0.00     0.002 C 
BRANCH  25  26
ATOM     26  C   UNL A   1      33.304  30.355  27.577  1.00  0.00     0.021 C 
BRANCH  26  27
ATOM     27  C   UNL A   1      34.343  31.457  27.431  1.00  0.00     0.116 C 
BRANCH  27  28
ATOM     28  N   UNL A   1      34.823  32.006  28.697  1.00  0.00    -0.352 N 
ATOM     29  C   UNL A   1      35.773  31.480  29.557  1.00  0.00     0.251 C 
ATOM     30  H   UNL A   1      34.420  32.861  28.974  1.00  0.00     0.163 HD
ATOM     31  O   UNL A   1      36.085  32.056  30.592  1.00  0.00    -0.269 OA
BRANCH  29  32
ATOM     32  C   UNL A   1      36.513  30.275  29.125  1.00  0.00     0.039 A 
ATOM     33  C   UNL A   1      36.823  29.329  30.106  1.00  0.00     0.014 A 
ATOM     34  C   UNL A   1      37.151  30.261  27.887  1.00  0.00     0.014 A 
ATOM     35  C   UNL A   1      37.974  28.566  29.960  1.00  0.00     0.010 A 
ATOM     36  C   UNL A   1      38.344  29.576  27.780  1.00  0.00     0.010 A 
ATOM     37  C   UNL A   1      38.793  28.802  28.856  1.00  0.00    -0.014 A 
BRANCH  37  38
ATOM     38  C   UNL A   1      40.187  28.385  28.815  1.00  0.00     0.031 A 
ATOM     39  C   UNL A   1      40.530  26.993  28.483  1.00  0.00     0.074 A 
ATOM     40  C   UNL A   1      41.156  29.302  29.036  1.00  0.00     0.049 A 
ATOM     41  N   UNL A   1      41.630  26.410  28.824  1.00  0.00    -0.248 NA
ATOM     42  C   UNL A   1      39.597  26.106  27.802  1.00  0.00     0.031 C 
ATOM     43  C   UNL A   1      42.590  29.148  28.815  1.00  0.00     0.029 A 
ATOM     44  N   UNL A   1      41.036  30.527  29.718  1.00  0.00    -0.354 N 
ATOM     45  C   UNL A   1      41.683  25.202  28.165  1.00  0.00     0.074 A 
ATOM     46  C   UNL A   1      40.343  25.006  27.672  1.00  0.00     0.031 C 
ATOM     47  C   UNL A   1      43.243  30.035  29.584  1.00  0.00     0.029 A 
ATOM     48  C   UNL A   1      42.253  30.689  30.422  1.00  0.00     0.049 A 
ATOM     49  H   UNL A   1      40.268  31.142  29.708  1.00  0.00     0.167 HD
ATOM     50  C   UNL A   1      42.902  24.610  27.990  1.00  0.00     0.037 A 
ATOM     51  C   UNL A   1      42.282  30.718  31.786  1.00  0.00     0.037 A 
ATOM     52  C   UNL A   1      43.917  25.279  28.814  1.00  0.00     0.049 A 
ATOM     53  C   UNL A   1      43.094  29.605  32.406  1.00  0.00     0.074 A 
ATOM     54  C   UNL A   1      44.923  26.186  28.521  1.00  0.00     0.029 A 
ATOM     55  N   UNL A   1      43.783  25.278  30.202  1.00  0.00    -0.354 N 
ATOM     56  N   UNL A   1      43.461  28.531  31.761  1.00  0.00    -0.248 NA
ATOM     57  C   UNL A   1      43.527  29.593  33.801  1.00  0.00     0.031 C 
ATOM     58  C   UNL A   1      45.326  26.801  29.735  1.00  0.00     0.029 A 
ATOM     59  C   UNL A   1      44.595  26.243  30.770  1.00  0.00     0.049 A 
ATOM     60  H   UNL A   1      43.194  24.674  30.707  1.00  0.00     0.167 HD
ATOM     61  C   UNL A   1      44.133  27.693  32.612  1.00  0.00     0.074 A 
ATOM     62  C   UNL A   1      44.166  28.411  33.873  1.00  0.00     0.031 C 
ATOM     63  C   UNL A   1      44.593  26.473  32.209  1.00  0.00     0.037 A 
BRANCH  50  64
ATOM     64  C   UNL A   1      43.252  23.646  26.856  1.00  0.00     0.064 A 
ATOM     65  C   UNL A   1      42.920  22.274  26.963  1.00  0.00     0.173 A 
ATOM     66  C   UNL A   1      44.012  23.955  25.708  1.00  0.00     0.173 A 
ATOM     67  F   UNL A   1      42.120  21.823  27.938  1.00  0.00    -0.203 F 
ATOM     68  C   UNL A   1      43.399  21.302  26.073  1.00  0.00     0.198 A 
ATOM     69  C   UNL A   1      44.500  22.984  24.825  1.00  0.00     0.198 A 
ATOM     70  F   UNL A   1      44.301  25.205  25.354  1.00  0.00    -0.203 F 
ATOM     71  F   UNL A   1      43.077  20.014  26.259  1.00  0.00    -0.200 F 
ATOM     72  C   UNL A   1      44.211  21.655  25.018  1.00  0.00     0.200 A 
ATOM     73  F   UNL A   1      45.260  23.361  23.787  1.00  0.00    -0.200 F 
ATOM     74  F   UNL A   1      44.694  20.727  24.181  1.00  0.00    -0.200 F 
ENDBRANCH  50  64
BRANCH  51  75
ATOM     75  C   UNL A   1      41.074  31.343  32.381  1.00  0.00     0.064 A 
ATOM     76  C   UNL A   1      40.065  30.492  32.873  1.00  0.00     0.173 A 
ATOM     77  C   UNL A   1      41.064  32.673  32.815  1.00  0.00     0.173 A 
ATOM     78  F   UNL A   1      40.028  29.206  32.487  1.00  0.00    -0.203 F 
ATOM     79  C   UNL A   1      39.165  30.918  33.846  1.00  0.00     0.198 A 
ATOM     80  C   UNL A   1      40.149  33.102  33.780  1.00  0.00     0.198 A 
ATOM     81  F   UNL A   1      42.008  33.529  32.397  1.00  0.00    -0.203 F 
ATOM     82  F   UNL A   1      38.292  30.049  34.376  1.00  0.00    -0.200 F 
ATOM     83  C   UNL A   1      39.227  32.217  34.321  1.00  0.00     0.200 A 
ATOM     84  F   UNL A   1      40.218  34.355  34.253  1.00  0.00    -0.200 F 
ATOM     85  F   UNL A   1      38.425  32.603  35.323  1.00  0.00    -0.200 F 
ENDBRANCH  51  75
BRANCH  63  86
ATOM     86  C   UNL A   1      45.162  25.415  33.117  1.00  0.00     0.064 A 
ATOM     87  C   UNL A   1      46.528  25.098  33.187  1.00  0.00     0.173 A 
ATOM     88  C   UNL A   1      44.334  24.777  34.071  1.00  0.00     0.173 A 
ATOM     89  F   UNL A   1      47.425  25.719  32.408  1.00  0.00    -0.203 F 
ATOM     90  C   UNL A   1      47.023  24.168  34.105  1.00  0.00     0.198 A 
ATOM     91  C   UNL A   1      44.839  23.891  35.021  1.00  0.00     0.198 A 
ATOM     92  F   UNL A   1      43.015  25.013  34.119  1.00  0.00    -0.203 F 
ATOM     93  F   UNL A   1      48.330  23.869  34.107  1.00  0.00    -0.200 F 
ATOM     94  C   UNL A   1      46.182  23.574  35.028  1.00  0.00     0.200 A 
ATOM     95  F   UNL A   1      44.019  23.362  35.940  1.00  0.00    -0.200 F 
ATOM     96  F   UNL A   1      46.668  22.717  35.935  1.00  0.00    -0.200 F 
ENDBRANCH  63  86
ENDBRANCH  37  38
ENDBRANCH  29  32
ENDBRANCH  27  28
ENDBRANCH  26  27
ENDBRANCH  25  26
ENDBRANCH   1  25
TORSDOF 18
ENDMDL
MODEL 3
REMARK VINA RESULT:     -12.0      3.805      9.868
REMARK SMILES CC[C@H](C)[C@H](NS(=O)(=O)c1ccc(C)cc1)C(=O)NCCCCCCNC(=O)c1ccc(-c2c3nc(c(-c4c(F)c(F)c(F)c(F)c4F)c4ccc([nH]4)c(-c4c(F)c(F)c(F)c(F)c4F)c4nc(c(-c5c(F)c(F)c(F)c(F)c5F)c5ccc2[nH]5)C=C4)C=C3)cc1
REMARK SMILES IDX 22 1 21 2 20 3 19 4 17 5 18 6 5 8 3 9 4 10 2 11 1 12 6 13
REMARK SMILES IDX 7 15 8 16 9 17 10 18 11 19 16 20 12 21 15 22 13 23 14 24
REMARK SMILES IDX 23 25 24 26 25 27 26 28 27 29 28 31 29 32 30 33 91 34 31 35
REMARK SMILES IDX 90 36 32 37 33 38 34 39 84 40 35 41 89 42 83 43 85 44 36 45
REMARK SMILES IDX 88 46 82 47 81 48 37 50 69 51 49 52 68 53 50 54 53 55 67 56
REMARK SMILES IDX 86 57 51 58 52 59 66 61 87 62 54 63 38 64 39 65 47 66 40 67
REMARK SMILES IDX 41 68 45 69 48 70 42 71 43 72 46 73 44 74 70 75 71 76 79 77
REMARK SMILES IDX 72 78 73 79 77 80 80 81 74 82 75 83 78 84 76 85 55 86 56 87
REMARK SMILES IDX 64 88 57 89 58 90 62 91 65 92 59 93 60 94 63 95 61 96
REMARK H PARENT 19 7 6 14 26 30 85 49 53 60
REMARK Flexibility Score: inf
ROOT
ATOM      1  C   UNL A   1      32.343  27.881  26.389  1.00  0.00     0.002 C 
ENDROOT
BRANCH   1   2
ATOM      2  C   UNL A   1      31.341  26.723  26.497  1.00  0.00     0.021 C 
BRANCH   2   3
ATOM      3  C   UNL A   1      31.884  25.312  26.284  1.00  0.00     0.116 C 
BRANCH   3   4
ATOM      4  N   UNL A   1      31.225  24.547  25.244  1.00  0.00    -0.355 N 
ATOM      5  C   UNL A   1      31.767  23.906  24.159  1.00  0.00     0.238 C 
ATOM      6  O   UNL A   1      31.031  23.133  23.536  1.00  0.00    -0.273 OA
ATOM      7  H   UNL A   1      30.246  24.477  25.328  1.00  0.00     0.163 HD
BRANCH   5   8
ATOM      8  C   UNL A   1      33.230  24.145  23.681  1.00  0.00     0.161 C 
BRANCH   8   9
ATOM      9  C   UNL A   1      34.260  23.339  24.513  1.00  0.00     0.013 C 
ATOM     10  C   UNL A   1      34.087  21.823  24.390  1.00  0.00     0.010 C 
BRANCH   9  11
ATOM     11  C   UNL A   1      35.727  23.785  24.412  1.00  0.00     0.002 C 
ATOM     12  C   UNL A   1      36.613  22.924  23.521  1.00  0.00     0.004 C 
ENDBRANCH   9  11
ENDBRANCH   8   9
BRANCH   8  13
ATOM     13  N   UNL A   1      33.365  25.587  23.421  1.00  0.00    -0.198 NA
ATOM     14  H   UNL A   1      34.369  25.752  23.493  1.00  0.00     0.142 HD
BRANCH  13  15
ATOM     15  S   UNL A   1      32.908  26.518  22.134  1.00  0.00     0.241 S 
ATOM     16  O   UNL A   1      34.019  27.406  21.900  1.00  0.00    -0.207 OA
ATOM     17  O   UNL A   1      32.436  25.625  21.092  1.00  0.00    -0.207 OA
BRANCH  15  18
ATOM     18  C   UNL A   1      31.551  27.523  22.658  1.00  0.00     0.082 A 
ATOM     19  C   UNL A   1      30.285  26.982  22.886  1.00  0.00     0.022 A 
ATOM     20  C   UNL A   1      31.762  28.903  22.755  1.00  0.00     0.022 A 
ATOM     21  C   UNL A   1      29.208  27.840  23.130  1.00  0.00     0.005 A 
ATOM     22  C   UNL A   1      30.687  29.750  23.017  1.00  0.00     0.005 A 
ATOM     23  C   UNL A   1      29.397  29.229  23.167  1.00  0.00    -0.051 A 
ATOM     24  C   UNL A   1      28.240  30.161  23.378  1.00  0.00     0.044 C 
ENDBRANCH  15  18
ENDBRANCH  13  15
ENDBRANCH   8  13
ENDBRANCH   5   8
ENDBRANCH   3   4
ENDBRANCH   2   3
ENDBRANCH   1   2
BRANCH   1  25
ATOM     25  C   UNL A   1      31.856  29.308  26.687  1.00  0.00     0.002 C 
BRANCH  25  26
ATOM     26  C   UNL A   1      32.910  30.396  26.910  1.00  0.00     0.021 C 
BRANCH  26  27
ATOM     27  C   UNL A   1      34.193  29.940  27.588  1.00  0.00     0.116 C 
BRANCH  27  28
ATOM     28  N   UNL A   1      34.826  30.953  28.428  1.00  0.00    -0.352 N 
ATOM     29  C   UNL A   1      36.054  30.893  29.070  1.00  0.00     0.251 C 
ATOM     30  H   UNL A   1      34.316  31.786  28.554  1.00  0.00     0.163 HD
ATOM     31  O   UNL A   1      36.466  31.828  29.745  1.00  0.00    -0.269 OA
BRANCH  29  32
ATOM     32  C   UNL A   1      36.924  29.728  28.801  1.00  0.00     0.039 A 
ATOM     33  C   UNL A   1      37.178  28.862  29.868  1.00  0.00     0.014 A 
ATOM     34  C   UNL A   1      37.708  29.701  27.651  1.00  0.00     0.014 A 
ATOM     35  C   UNL A   1      38.389  28.183  29.905  1.00  0.00     0.010 A 
ATOM     36  C   UNL A   1      38.950  29.105  27.727  1.00  0.00     0.010 A 
ATOM     37  C   UNL A   1      39.318  28.425  28.894  1.00  0.00    -0.014 A 
BRANCH  37  38
ATOM     38  C   UNL A   1      40.733  28.116  29.043  1.00  0.00     0.031 A 
ATOM     39  C   UNL A   1      41.272  26.856  28.505  1.00  0.00     0.074 A 
ATOM     40  C   UNL A   1      41.546  29.020  29.634  1.00  0.00     0.049 A 
ATOM     41  N   UNL A   1      42.348  26.283  28.929  1.00  0.00    -0.248 NA
ATOM     42  C   UNL A   1      40.573  26.086  27.487  1.00  0.00     0.031 C 
ATOM     43  C   UNL A   1      43.005  29.009  29.673  1.00  0.00     0.029 A 
ATOM     44  N   UNL A   1      41.180  30.054  30.516  1.00  0.00    -0.354 N 
ATOM     45  C   UNL A   1      42.643  25.257  28.059  1.00  0.00     0.074 A 
ATOM     46  C   UNL A   1      41.440  25.091  27.282  1.00  0.00     0.031 C 
ATOM     47  C   UNL A   1      43.414  29.742  30.721  1.00  0.00     0.029 A 
ATOM     48  C   UNL A   1      42.228  30.131  31.464  1.00  0.00     0.049 A 
ATOM     49  H   UNL A   1      40.366  30.605  30.482  1.00  0.00     0.167 HD
ATOM     50  C   UNL A   1      43.928  24.796  28.009  1.00  0.00     0.037 A 
ATOM     51  C   UNL A   1      42.010  29.859  32.783  1.00  0.00     0.037 A 
ATOM     52  C   UNL A   1      44.705  25.328  29.137  1.00  0.00     0.049 A 
ATOM     53  C   UNL A   1      42.809  28.689  33.308  1.00  0.00     0.074 A 
ATOM     54  C   UNL A   1      45.647  26.339  29.241  1.00  0.00     0.029 A 
ATOM     55  N   UNL A   1      44.326  25.011  30.441  1.00  0.00    -0.354 N 
ATOM     56  N   UNL A   1      43.395  27.810  32.542  1.00  0.00    -0.248 NA
ATOM     57  C   UNL A   1      42.984  28.396  34.728  1.00  0.00     0.031 C 
ATOM     58  C   UNL A   1      45.761  26.693  30.610  1.00  0.00     0.029 A 
ATOM     59  C   UNL A   1      44.919  25.875  31.344  1.00  0.00     0.049 A 
ATOM     60  H   UNL A   1      43.722  24.274  30.685  1.00  0.00     0.167 HD
ATOM     61  C   UNL A   1      43.987  26.849  33.317  1.00  0.00     0.074 A 
ATOM     62  C   UNL A   1      43.719  27.270  34.679  1.00  0.00     0.031 C 
ATOM     63  C   UNL A   1      44.636  25.779  32.770  1.00  0.00     0.037 A 
BRANCH  50  64
ATOM     64  C   UNL A   1      44.574  24.131  26.793  1.00  0.00     0.064 A 
ATOM     65  C   UNL A   1      44.311  22.770  26.505  1.00  0.00     0.173 A 
ATOM     66  C   UNL A   1      45.544  24.710  25.947  1.00  0.00     0.173 A 
ATOM     67  F   UNL A   1      43.348  22.094  27.146  1.00  0.00    -0.203 F 
ATOM     68  C   UNL A   1      45.028  22.041  25.547  1.00  0.00     0.198 A 
ATOM     69  C   UNL A   1      46.269  23.980  24.998  1.00  0.00     0.198 A 
ATOM     70  F   UNL A   1      45.826  26.011  25.964  1.00  0.00    -0.203 F 
ATOM     71  F   UNL A   1      44.753  20.743  25.355  1.00  0.00    -0.200 F 
ATOM     72  C   UNL A   1      46.027  22.641  24.811  1.00  0.00     0.200 A 
ATOM     73  F   UNL A   1      47.212  24.599  24.272  1.00  0.00    -0.200 F 
ATOM     74  F   UNL A   1      46.735  21.942  23.914  1.00  0.00    -0.200 F 
ENDBRANCH  50  64
BRANCH  51  75
ATOM     75  C   UNL A   1      40.656  30.259  33.245  1.00  0.00     0.064 A 
ATOM     76  C   UNL A   1      40.365  31.636  33.316  1.00  0.00     0.173 A 
ATOM     77  C   UNL A   1      39.576  29.370  33.239  1.00  0.00     0.173 A 
ATOM     78  F   UNL A   1      41.365  32.532  33.326  1.00  0.00    -0.203 F 
ATOM     79  C   UNL A   1      39.055  32.106  33.257  1.00  0.00     0.198 A 
ATOM     80  C   UNL A   1      38.262  29.845  33.196  1.00  0.00     0.198 A 
ATOM     81  F   UNL A   1      39.787  28.049  33.155  1.00  0.00    -0.203 F 
ATOM     82  F   UNL A   1      38.819  33.424  33.210  1.00  0.00    -0.200 F 
ATOM     83  C   UNL A   1      38.005  31.208  33.168  1.00  0.00     0.200 A 
ATOM     84  F   UNL A   1      37.245  28.978  33.093  1.00  0.00    -0.200 F 
ATOM     85  F   UNL A   1      36.751  31.657  33.017  1.00  0.00    -0.200 F 
ENDBRANCH  51  75
BRANCH  63  86
ATOM     86  C   UNL A   1      45.140  24.584  33.535  1.00  0.00     0.064 A 
ATOM     87  C   UNL A   1      44.388  23.418  33.748  1.00  0.00     0.173 A 
ATOM     88  C   UNL A   1      46.489  24.531  33.960  1.00  0.00     0.173 A 
ATOM     89  F   UNL A   1      43.132  23.310  33.291  1.00  0.00    -0.203 F 
ATOM     90  C   UNL A   1      44.926  22.300  34.390  1.00  0.00     0.198 A 
ATOM     91  C   UNL A   1      47.039  23.394  34.552  1.00  0.00     0.198 A 
ATOM     92  F   UNL A   1      47.315  25.573  33.793  1.00  0.00    -0.203 F 
ATOM     93  F   UNL A   1      44.156  21.225  34.606  1.00  0.00    -0.200 F 
ATOM     94  C   UNL A   1      46.253  22.284  34.781  1.00  0.00     0.200 A 
ATOM     95  F   UNL A   1      48.338  23.377  34.879  1.00  0.00    -0.200 F 
ATOM     96  F   UNL A   1      46.776  21.194  35.357  1.00  0.00    -0.200 F 
ENDBRANCH  63  86
ENDBRANCH  37  38
ENDBRANCH  29  32
ENDBRANCH  27  28
ENDBRANCH  26  27
ENDBRANCH  25  26
ENDBRANCH   1  25
TORSDOF 18
ENDMDL
