MODEL 1
REMARK VINA RESULT:     -10.9      0.000      0.000
REMARK SMILES Cc1cc(N(C)C[C@H]2C[C@@H]2C)cc(C(=O)NCCCCCCNC(=O)c2ccc(-c3c4nc(c(-c5c(F)c(F)c(F)c(F)c5F)c5ccc([nH]5)c(-c5c(F)c(F)c(F)c(F)c5F)c5nc(c(-c6c(F)c(F)c(F)c(F)c6F)c6ccc3[nH]6)C=C5)C=C4)cc2)c1N
REMARK SMILES IDX 19 1 18 2 17 3 16 4 14 5 15 6 13 8 1 9 2 10 3 11 89 12 4 13
REMARK SMILES IDX 12 14 90 15 5 18 6 19 7 20 8 21 9 22 10 23 11 24 20 25 21 26
REMARK SMILES IDX 22 27 23 28 24 29 25 31 26 32 27 33 88 34 28 35 87 36 29 37
REMARK SMILES IDX 30 38 31 39 81 40 32 41 86 42 80 43 82 44 33 45 85 46 79 47
REMARK SMILES IDX 78 48 34 50 66 51 46 52 65 53 47 54 50 55 64 56 83 57 48 58
REMARK SMILES IDX 49 59 63 61 84 62 51 63 35 64 36 65 44 66 37 67 38 68 42 69
REMARK SMILES IDX 45 70 39 71 40 72 43 73 41 74 67 75 68 76 76 77 69 78 70 79
REMARK SMILES IDX 74 80 77 81 71 82 72 83 75 84 73 85 52 86 53 87 61 88 54 89
REMARK SMILES IDX 55 90 59 91 62 92 56 93 57 94 60 95 58 96
REMARK H PARENT 16 7 90 16 90 17 23 30 82 49 50 60
REMARK Flexibility Score: inf
ROOT
ATOM      1  C   UNL A   1      40.477  22.121  26.352  1.00  0.00     0.002 C 
ENDROOT
BRANCH   1   2
ATOM      2  C   UNL A   1      39.672  23.053  27.272  1.00  0.00     0.021 C 
BRANCH   2   3
ATOM      3  C   UNL A   1      38.687  23.946  26.510  1.00  0.00     0.116 C 
BRANCH   3   4
ATOM      4  N   UNL A   1      38.192  23.240  25.348  1.00  0.00    -0.352 N 
ATOM      5  C   UNL A   1      36.946  22.947  24.855  1.00  0.00     0.253 C 
ATOM      6  O   UNL A   1      36.950  22.197  23.871  1.00  0.00    -0.269 OA
ATOM      7  H   UNL A   1      38.915  22.891  24.781  1.00  0.00     0.163 HD
BRANCH   5   8
ATOM      8  C   UNL A   1      35.640  23.484  25.383  1.00  0.00     0.065 A 
ATOM      9  C   UNL A   1      32.911  22.434  27.854  1.00  0.00     0.046 C 
ATOM     10  C   UNL A   1      33.723  23.204  26.847  1.00  0.00    -0.025 A 
ATOM     11  C   UNL A   1      33.225  24.435  26.387  1.00  0.00     0.031 A 
ATOM     12  C   UNL A   1      34.935  22.710  26.339  1.00  0.00     0.047 A 
ATOM     13  C   UNL A   1      33.828  25.177  25.367  1.00  0.00     0.038 A 
ATOM     14  C   UNL A   1      35.105  24.727  24.989  1.00  0.00     0.042 A 
BRANCH  12  15
ATOM     15  N   UNL A   1      35.332  21.411  26.678  1.00  0.00    -0.398 N 
ATOM     16  H   UNL A   1      36.239  21.248  27.025  1.00  0.00     0.156 HD
ATOM     17  H   UNL A   1      34.705  20.660  26.569  1.00  0.00     0.156 HD
ENDBRANCH  12  15
BRANCH  13  18
ATOM     18  N   UNL A   1      33.183  26.247  24.756  1.00  0.00    -0.374 N 
ATOM     19  C   UNL A   1      33.628  26.831  23.492  1.00  0.00     0.143 C 
BRANCH  18  20
ATOM     20  C   UNL A   1      31.932  26.828  25.284  1.00  0.00     0.120 C 
BRANCH  20  21
ATOM     21  C   UNL A   1      32.161  28.083  26.091  1.00  0.00     0.011 C 
ATOM     22  C   UNL A   1      31.768  28.156  27.549  1.00  0.00     0.009 C 
ATOM     23  C   UNL A   1      33.224  28.184  27.157  1.00  0.00    -0.009 C 
ATOM     24  C   UNL A   1      34.014  29.446  27.261  1.00  0.00     0.008 C 
ENDBRANCH  20  21
ENDBRANCH  18  20
ENDBRANCH  13  18
ENDBRANCH   5   8
ENDBRANCH   3   4
ENDBRANCH   2   3
ENDBRANCH   1   2
BRANCH   1  25
ATOM     25  C   UNL A   1      40.859  20.773  26.977  1.00  0.00     0.002 C 
BRANCH  25  26
ATOM     26  C   UNL A   1      41.351  19.719  25.981  1.00  0.00     0.021 C 
BRANCH  26  27
ATOM     27  C   UNL A   1      42.598  18.966  26.434  1.00  0.00     0.116 C 
BRANCH  27  28
ATOM     28  N   UNL A   1      43.504  18.716  25.324  1.00  0.00    -0.352 N 
ATOM     29  C   UNL A   1      44.215  19.609  24.565  1.00  0.00     0.251 C 
ATOM     30  H   UNL A   1      43.622  17.769  25.082  1.00  0.00     0.163 HD
ATOM     31  O   UNL A   1      44.741  19.252  23.516  1.00  0.00    -0.269 OA
BRANCH  29  32
ATOM     32  C   UNL A   1      44.345  21.012  25.011  1.00  0.00     0.039 A 
ATOM     33  C   UNL A   1      45.018  21.284  26.205  1.00  0.00     0.014 A 
ATOM     34  C   UNL A   1      43.780  22.053  24.268  1.00  0.00     0.014 A 
ATOM     35  C   UNL A   1      45.167  22.606  26.629  1.00  0.00     0.010 A 
ATOM     36  C   UNL A   1      43.987  23.373  24.656  1.00  0.00     0.010 A 
ATOM     37  C   UNL A   1      44.676  23.662  25.844  1.00  0.00    -0.014 A 
BRANCH  37  38
ATOM     38  C   UNL A   1      44.863  25.075  26.254  1.00  0.00     0.031 A 
ATOM     39  C   UNL A   1      46.223  25.711  26.168  1.00  0.00     0.074 A 
ATOM     40  C   UNL A   1      43.823  25.764  26.761  1.00  0.00     0.049 A 
ATOM     41  N   UNL A   1      46.606  26.903  26.549  1.00  0.00    -0.248 NA
ATOM     42  C   UNL A   1      47.304  24.887  25.605  1.00  0.00     0.031 C 
ATOM     43  C   UNL A   1      42.467  25.241  26.935  1.00  0.00     0.029 A 
ATOM     44  N   UNL A   1      43.747  27.049  27.237  1.00  0.00    -0.354 N 
ATOM     45  C   UNL A   1      47.968  26.966  26.287  1.00  0.00     0.074 A 
ATOM     46  C   UNL A   1      48.358  25.675  25.761  1.00  0.00     0.031 C 
ATOM     47  C   UNL A   1      41.690  26.201  27.461  1.00  0.00     0.029 A 
ATOM     48  C   UNL A   1      42.499  27.392  27.697  1.00  0.00     0.049 A 
ATOM     49  H   UNL A   1      44.513  27.667  27.248  1.00  0.00     0.167 HD
ATOM     50  C   UNL A   1      48.812  28.012  26.449  1.00  0.00     0.037 A 
ATOM     51  C   UNL A   1      42.060  28.538  28.253  1.00  0.00     0.037 A 
ATOM     52  C   UNL A   1      48.413  29.304  26.943  1.00  0.00     0.049 A 
ATOM     53  C   UNL A   1      43.021  29.685  28.421  1.00  0.00     0.074 A 
ATOM     54  C   UNL A   1      49.178  30.448  27.086  1.00  0.00     0.029 A 
ATOM     55  N   UNL A   1      47.133  29.622  27.375  1.00  0.00    -0.354 N 
ATOM     56  N   UNL A   1      44.291  29.753  28.106  1.00  0.00    -0.248 NA
ATOM     57  C   UNL A   1      42.483  30.917  29.014  1.00  0.00     0.031 C 
ATOM     58  C   UNL A   1      48.373  31.445  27.646  1.00  0.00     0.029 A 
ATOM     59  C   UNL A   1      47.094  30.938  27.804  1.00  0.00     0.049 A 
ATOM     60  H   UNL A   1      46.367  29.004  27.376  1.00  0.00     0.167 HD
ATOM     61  C   UNL A   1      44.697  31.040  28.432  1.00  0.00     0.074 A 
ATOM     62  C   UNL A   1      43.532  31.724  28.956  1.00  0.00     0.031 C 
ATOM     63  C   UNL A   1      45.923  31.606  28.310  1.00  0.00     0.037 A 
BRANCH  50  64
ATOM     64  C   UNL A   1      50.254  27.810  26.083  1.00  0.00     0.064 A 
ATOM     65  C   UNL A   1      51.226  27.526  27.054  1.00  0.00     0.173 A 
ATOM     66  C   UNL A   1      50.659  27.848  24.740  1.00  0.00     0.173 A 
ATOM     67  F   UNL A   1      50.892  27.488  28.352  1.00  0.00    -0.203 F 
ATOM     68  C   UNL A   1      52.554  27.311  26.696  1.00  0.00     0.198 A 
ATOM     69  C   UNL A   1      51.982  27.603  24.383  1.00  0.00     0.198 A 
ATOM     70  F   UNL A   1      49.769  28.110  23.771  1.00  0.00    -0.203 F 
ATOM     71  F   UNL A   1      53.472  27.083  27.645  1.00  0.00    -0.200 F 
ATOM     72  C   UNL A   1      52.930  27.340  25.362  1.00  0.00     0.200 A 
ATOM     73  F   UNL A   1      52.342  27.619  23.092  1.00  0.00    -0.200 F 
ATOM     74  F   UNL A   1      54.207  27.122  25.019  1.00  0.00    -0.200 F 
ENDBRANCH  50  64
BRANCH  51  75
ATOM     75  C   UNL A   1      40.642  28.666  28.676  1.00  0.00     0.064 A 
ATOM     76  C   UNL A   1      39.655  29.077  27.769  1.00  0.00     0.173 A 
ATOM     77  C   UNL A   1      40.244  28.398  29.994  1.00  0.00     0.173 A 
ATOM     78  F   UNL A   1      39.988  29.365  26.503  1.00  0.00    -0.203 F 
ATOM     79  C   UNL A   1      38.330  29.240  28.170  1.00  0.00     0.198 A 
ATOM     80  C   UNL A   1      38.915  28.533  30.387  1.00  0.00     0.198 A 
ATOM     81  F   UNL A   1      41.149  27.995  30.900  1.00  0.00    -0.203 F 
ATOM     82  F   UNL A   1      37.418  29.684  27.295  1.00  0.00    -0.200 F 
ATOM     83  C   UNL A   1      37.961  28.964  29.477  1.00  0.00     0.200 A 
ATOM     84  F   UNL A   1      38.558  28.249  31.648  1.00  0.00    -0.200 F 
ATOM     85  F   UNL A   1      36.687  29.121  29.863  1.00  0.00    -0.200 F 
ENDBRANCH  51  75
BRANCH  63  86
ATOM     86  C   UNL A   1      46.059  33.046  28.711  1.00  0.00     0.064 A 
ATOM     87  C   UNL A   1      46.456  33.416  30.003  1.00  0.00     0.173 A 
ATOM     88  C   UNL A   1      45.829  34.066  27.775  1.00  0.00     0.173 A 
ATOM     89  F   UNL A   1      46.673  32.478  30.938  1.00  0.00    -0.203 F 
ATOM     90  C   UNL A   1      46.593  34.757  30.353  1.00  0.00     0.198 A 
ATOM     91  C   UNL A   1      45.998  35.404  28.119  1.00  0.00     0.198 A 
ATOM     92  F   UNL A   1      45.455  33.764  26.523  1.00  0.00    -0.203 F 
ATOM     93  F   UNL A   1      46.928  35.090  31.607  1.00  0.00    -0.200 F 
ATOM     94  C   UNL A   1      46.372  35.749  29.408  1.00  0.00     0.200 A 
ATOM     95  F   UNL A   1      45.797  36.360  27.201  1.00  0.00    -0.200 F 
ATOM     96  F   UNL A   1      46.512  37.039  29.744  1.00  0.00    -0.200 F 
ENDBRANCH  63  86
ENDBRANCH  37  38
ENDBRANCH  29  32
ENDBRANCH  27  28
ENDBRANCH  26  27
ENDBRANCH  25  26
ENDBRANCH   1  25
TORSDOF 17
ENDMDL
MODEL 2
REMARK VINA RESULT:     -10.7      6.126     10.812
REMARK SMILES Cc1cc(N(C)C[C@H]2C[C@@H]2C)cc(C(=O)NCCCCCCNC(=O)c2ccc(-c3c4nc(c(-c5c(F)c(F)c(F)c(F)c5F)c5ccc([nH]5)c(-c5c(F)c(F)c(F)c(F)c5F)c5nc(c(-c6c(F)c(F)c(F)c(F)c6F)c6ccc3[nH]6)C=C5)C=C4)cc2)c1N
REMARK SMILES IDX 19 1 18 2 17 3 16 4 14 5 15 6 13 8 1 9 2 10 3 11 89 12 4 13
REMARK SMILES IDX 12 14 90 15 5 18 6 19 7 20 8 21 9 22 10 23 11 24 20 25 21 26
REMARK SMILES IDX 22 27 23 28 24 29 25 31 26 32 27 33 88 34 28 35 87 36 29 37
REMARK SMILES IDX 30 38 31 39 81 40 32 41 86 42 80 43 82 44 33 45 85 46 79 47
REMARK SMILES IDX 78 48 34 50 66 51 46 52 65 53 47 54 50 55 64 56 83 57 48 58
REMARK SMILES IDX 49 59 63 61 84 62 51 63 35 64 36 65 44 66 37 67 38 68 42 69
REMARK SMILES IDX 45 70 39 71 40 72 43 73 41 74 67 75 68 76 76 77 69 78 70 79
REMARK SMILES IDX 74 80 77 81 71 82 72 83 75 84 73 85 52 86 53 87 61 88 54 89
REMARK SMILES IDX 55 90 59 91 62 92 56 93 57 94 60 95 58 96
REMARK H PARENT 16 7 90 16 90 17 23 30 82 49 50 60
REMARK Flexibility Score: inf
ROOT
ATOM      1  C   UNL A   1      32.415  29.966  27.049  1.00  0.00     0.002 C 
ENDROOT
BRANCH   1   2
ATOM      2  C   UNL A   1      33.503  29.242  26.241  1.00  0.00     0.021 C 
BRANCH   2   3
ATOM      3  C   UNL A   1      33.674  27.773  26.644  1.00  0.00     0.116 C 
BRANCH   3   4
ATOM      4  N   UNL A   1      32.374  27.155  26.785  1.00  0.00    -0.352 N 
ATOM      5  C   UNL A   1      31.694  26.172  26.111  1.00  0.00     0.253 C 
ATOM      6  O   UNL A   1      30.524  26.015  26.481  1.00  0.00    -0.269 OA
ATOM      7  H   UNL A   1      31.858  27.523  27.537  1.00  0.00     0.163 HD
BRANCH   5   8
ATOM      8  C   UNL A   1      32.263  25.288  25.031  1.00  0.00     0.065 A 
ATOM      9  C   UNL A   1      32.545  25.263  21.213  1.00  0.00     0.046 C 
ATOM     10  C   UNL A   1      32.662  24.896  22.668  1.00  0.00    -0.025 A 
ATOM     11  C   UNL A   1      33.301  23.689  23.003  1.00  0.00     0.031 A 
ATOM     12  C   UNL A   1      32.127  25.704  23.683  1.00  0.00     0.047 A 
ATOM     13  C   UNL A   1      33.362  23.186  24.306  1.00  0.00     0.038 A 
ATOM     14  C   UNL A   1      32.945  24.084  25.303  1.00  0.00     0.042 A 
BRANCH  12  15
ATOM     15  N   UNL A   1      31.349  26.812  23.326  1.00  0.00    -0.398 N 
ATOM     16  H   UNL A   1      31.369  27.626  23.880  1.00  0.00     0.156 HD
ATOM     17  H   UNL A   1      30.783  26.778  22.521  1.00  0.00     0.156 HD
ENDBRANCH  12  15
BRANCH  13  18
ATOM     18  N   UNL A   1      33.763  21.881  24.572  1.00  0.00    -0.374 N 
ATOM     19  C   UNL A   1      35.166  21.471  24.617  1.00  0.00     0.143 C 
BRANCH  18  20
ATOM     20  C   UNL A   1      32.808  20.811  24.927  1.00  0.00     0.120 C 
BRANCH  20  21
ATOM     21  C   UNL A   1      33.380  19.427  24.741  1.00  0.00     0.011 C 
ATOM     22  C   UNL A   1      32.868  18.256  25.547  1.00  0.00     0.009 C 
ATOM     23  C   UNL A   1      32.621  18.315  24.060  1.00  0.00    -0.009 C 
ATOM     24  C   UNL A   1      33.360  17.410  23.131  1.00  0.00     0.008 C 
ENDBRANCH  20  21
ENDBRANCH  18  20
ENDBRANCH  13  18
ENDBRANCH   5   8
ENDBRANCH   3   4
ENDBRANCH   2   3
ENDBRANCH   1   2
BRANCH   1  25
ATOM     25  C   UNL A   1      31.426  30.785  26.209  1.00  0.00     0.002 C 
BRANCH  25  26
ATOM     26  C   UNL A   1      31.333  32.266  26.586  1.00  0.00     0.021 C 
BRANCH  26  27
ATOM     27  C   UNL A   1      32.582  32.816  27.268  1.00  0.00     0.116 C 
BRANCH  27  28
ATOM     28  N   UNL A   1      32.422  34.217  27.625  1.00  0.00    -0.352 N 
ATOM     29  C   UNL A   1      33.027  34.933  28.626  1.00  0.00     0.251 C 
ATOM     30  H   UNL A   1      31.788  34.724  27.068  1.00  0.00     0.163 HD
ATOM     31  O   UNL A   1      32.601  36.038  28.943  1.00  0.00    -0.269 OA
BRANCH  29  32
ATOM     32  C   UNL A   1      34.195  34.366  29.331  1.00  0.00     0.039 A 
ATOM     33  C   UNL A   1      33.997  33.700  30.543  1.00  0.00     0.014 A 
ATOM     34  C   UNL A   1      35.485  34.515  28.811  1.00  0.00     0.014 A 
ATOM     35  C   UNL A   1      35.088  33.141  31.211  1.00  0.00     0.010 A 
ATOM     36  C   UNL A   1      36.561  33.900  29.442  1.00  0.00     0.010 A 
ATOM     37  C   UNL A   1      36.375  33.214  30.652  1.00  0.00    -0.014 A 
BRANCH  37  38
ATOM     38  C   UNL A   1      37.541  32.587  31.323  1.00  0.00     0.031 A 
ATOM     39  C   UNL A   1      38.284  31.468  30.649  1.00  0.00     0.074 A 
ATOM     40  C   UNL A   1      37.887  32.985  32.562  1.00  0.00     0.049 A 
ATOM     41  N   UNL A   1      39.276  30.742  31.101  1.00  0.00    -0.248 NA
ATOM     42  C   UNL A   1      37.838  31.094  29.299  1.00  0.00     0.031 C 
ATOM     43  C   UNL A   1      37.214  34.030  33.334  1.00  0.00     0.029 A 
ATOM     44  N   UNL A   1      38.886  32.547  33.396  1.00  0.00    -0.354 N 
ATOM     45  C   UNL A   1      39.559  29.821  30.102  1.00  0.00     0.074 A 
ATOM     46  C   UNL A   1      38.603  30.045  29.038  1.00  0.00     0.031 C 
ATOM     47  C   UNL A   1      37.828  34.165  34.520  1.00  0.00     0.029 A 
ATOM     48  C   UNL A   1      38.913  33.192  34.607  1.00  0.00     0.049 A 
ATOM     49  H   UNL A   1      39.522  31.837  33.149  1.00  0.00     0.167 HD
ATOM     50  C   UNL A   1      40.541  28.890  30.065  1.00  0.00     0.037 A 
ATOM     51  C   UNL A   1      39.719  33.013  35.672  1.00  0.00     0.037 A 
ATOM     52  C   UNL A   1      41.508  28.693  31.112  1.00  0.00     0.049 A 
ATOM     53  C   UNL A   1      40.802  31.970  35.602  1.00  0.00     0.074 A 
ATOM     54  C   UNL A   1      42.579  27.817  31.145  1.00  0.00     0.029 A 
ATOM     55  N   UNL A   1      41.520  29.384  32.316  1.00  0.00    -0.354 N 
ATOM     56  N   UNL A   1      41.101  31.151  34.624  1.00  0.00    -0.248 NA
ATOM     57  C   UNL A   1      41.664  31.832  36.784  1.00  0.00     0.031 C 
ATOM     58  C   UNL A   1      43.213  27.948  32.385  1.00  0.00     0.029 A 
ATOM     59  C   UNL A   1      42.568  28.940  33.105  1.00  0.00     0.049 A 
ATOM     60  H   UNL A   1      40.878  30.086  32.570  1.00  0.00     0.167 HD
ATOM     61  C   UNL A   1      42.202  30.425  35.057  1.00  0.00     0.074 A 
ATOM     62  C   UNL A   1      42.527  30.910  36.382  1.00  0.00     0.031 C 
ATOM     63  C   UNL A   1      42.884  29.444  34.416  1.00  0.00     0.037 A 
BRANCH  50  64
ATOM     64  C   UNL A   1      40.626  28.012  28.850  1.00  0.00     0.064 A 
ATOM     65  C   UNL A   1      39.917  26.805  28.764  1.00  0.00     0.173 A 
ATOM     66  C   UNL A   1      41.383  28.410  27.737  1.00  0.00     0.173 A 
ATOM     67  F   UNL A   1      39.187  26.375  29.803  1.00  0.00    -0.203 F 
ATOM     68  C   UNL A   1      39.982  26.016  27.618  1.00  0.00     0.198 A 
ATOM     69  C   UNL A   1      41.422  27.633  26.582  1.00  0.00     0.198 A 
ATOM     70  F   UNL A   1      42.076  29.558  27.764  1.00  0.00    -0.203 F 
ATOM     71  F   UNL A   1      39.330  24.846  27.575  1.00  0.00    -0.200 F 
ATOM     72  C   UNL A   1      40.726  26.434  26.525  1.00  0.00     0.200 A 
ATOM     73  F   UNL A   1      42.131  28.045  25.522  1.00  0.00    -0.200 F 
ATOM     74  F   UNL A   1      40.778  25.679  25.419  1.00  0.00    -0.200 F 
ENDBRANCH  50  64
BRANCH  51  75
ATOM     75  C   UNL A   1      39.546  33.850  36.887  1.00  0.00     0.064 A 
ATOM     76  C   UNL A   1      38.783  33.394  37.972  1.00  0.00     0.173 A 
ATOM     77  C   UNL A   1      40.123  35.125  36.986  1.00  0.00     0.173 A 
ATOM     78  F   UNL A   1      38.194  32.191  37.917  1.00  0.00    -0.203 F 
ATOM     79  C   UNL A   1      38.581  34.192  39.097  1.00  0.00     0.198 A 
ATOM     80  C   UNL A   1      39.945  35.909  38.123  1.00  0.00     0.198 A 
ATOM     81  F   UNL A   1      40.867  35.605  35.979  1.00  0.00    -0.203 F 
ATOM     82  F   UNL A   1      37.805  33.752  40.096  1.00  0.00    -0.200 F 
ATOM     83  C   UNL A   1      39.166  35.446  39.173  1.00  0.00     0.200 A 
ATOM     84  F   UNL A   1      40.525  37.115  38.200  1.00  0.00    -0.200 F 
ATOM     85  F   UNL A   1      38.973  36.213  40.256  1.00  0.00    -0.200 F 
ENDBRANCH  51  75
BRANCH  63  86
ATOM     86  C   UNL A   1      44.073  28.858  35.121  1.00  0.00     0.064 A 
ATOM     87  C   UNL A   1      43.962  27.718  35.928  1.00  0.00     0.173 A 
ATOM     88  C   UNL A   1      45.346  29.423  34.950  1.00  0.00     0.173 A 
ATOM     89  F   UNL A   1      42.764  27.149  36.134  1.00  0.00    -0.203 F 
ATOM     90  C   UNL A   1      45.079  27.179  36.561  1.00  0.00     0.198 A 
ATOM     91  C   UNL A   1      46.465  28.864  35.559  1.00  0.00     0.198 A 
ATOM     92  F   UNL A   1      45.506  30.512  34.181  1.00  0.00    -0.203 F 
ATOM     93  F   UNL A   1      44.943  26.117  37.366  1.00  0.00    -0.200 F 
ATOM     94  C   UNL A   1      46.330  27.747  36.370  1.00  0.00     0.200 A 
ATOM     95  F   UNL A   1      47.674  29.406  35.362  1.00  0.00    -0.200 F 
ATOM     96  F   UNL A   1      47.405  27.222  36.973  1.00  0.00    -0.200 F 
ENDBRANCH  63  86
ENDBRANCH  37  38
ENDBRANCH  29  32
ENDBRANCH  27  28
ENDBRANCH  26  27
ENDBRANCH  25  26
ENDBRANCH   1  25
TORSDOF 17
ENDMDL
MODEL 3
REMARK VINA RESULT:     -10.5      4.542     10.417
REMARK SMILES Cc1cc(N(C)C[C@H]2C[C@@H]2C)cc(C(=O)NCCCCCCNC(=O)c2ccc(-c3c4nc(c(-c5c(F)c(F)c(F)c(F)c5F)c5ccc([nH]5)c(-c5c(F)c(F)c(F)c(F)c5F)c5nc(c(-c6c(F)c(F)c(F)c(F)c6F)c6ccc3[nH]6)C=C5)C=C4)cc2)c1N
REMARK SMILES IDX 19 1 18 2 17 3 16 4 14 5 15 6 13 8 1 9 2 10 3 11 89 12 4 13
REMARK SMILES IDX 12 14 90 15 5 18 6 19 7 20 8 21 9 22 10 23 11 24 20 25 21 26
REMARK SMILES IDX 22 27 23 28 24 29 25 31 26 32 27 33 88 34 28 35 87 36 29 37
REMARK SMILES IDX 30 38 31 39 81 40 32 41 86 42 80 43 82 44 33 45 85 46 79 47
REMARK SMILES IDX 78 48 34 50 66 51 46 52 65 53 47 54 50 55 64 56 83 57 48 58
REMARK SMILES IDX 49 59 63 61 84 62 51 63 35 64 36 65 44 66 37 67 38 68 42 69
REMARK SMILES IDX 45 70 39 71 40 72 43 73 41 74 67 75 68 76 76 77 69 78 70 79
REMARK SMILES IDX 74 80 77 81 71 82 72 83 75 84 73 85 52 86 53 87 61 88 54 89
REMARK SMILES IDX 55 90 59 91 62 92 56 93 57 94 60 95 58 96
REMARK H PARENT 16 7 90 16 90 17 23 30 82 49 50 60
REMARK Flexibility Score: inf
ROOT
ATOM      1  C   UNL A   1      42.251  36.136  28.727  1.00  0.00     0.002 C 
ENDROOT
BRANCH   1   2
ATOM      2  C   UNL A   1      40.982  35.389  28.287  1.00  0.00     0.021 C 
BRANCH   2   3
ATOM      3  C   UNL A   1      40.101  34.956  29.464  1.00  0.00     0.116 C 
BRANCH   3   4
ATOM      4  N   UNL A   1      38.849  34.430  28.966  1.00  0.00    -0.352 N 
ATOM      5  C   UNL A   1      37.770  33.804  29.534  1.00  0.00     0.253 C 
ATOM      6  O   UNL A   1      36.932  33.391  28.723  1.00  0.00    -0.269 OA
ATOM      7  H   UNL A   1      38.749  34.549  27.994  1.00  0.00     0.163 HD
BRANCH   5   8
ATOM      8  C   UNL A   1      37.529  33.631  31.013  1.00  0.00     0.065 A 
ATOM      9  C   UNL A   1      34.614  33.885  33.482  1.00  0.00     0.046 C 
ATOM     10  C   UNL A   1      35.978  33.669  32.880  1.00  0.00    -0.025 A 
ATOM     11  C   UNL A   1      37.037  33.321  33.734  1.00  0.00     0.031 A 
ATOM     12  C   UNL A   1      36.217  33.838  31.507  1.00  0.00     0.047 A 
ATOM     13  C   UNL A   1      38.366  33.214  33.310  1.00  0.00     0.038 A 
ATOM     14  C   UNL A   1      38.542  33.248  31.916  1.00  0.00     0.042 A 
BRANCH  12  15
ATOM     15  N   UNL A   1      35.194  34.348  30.699  1.00  0.00    -0.398 N 
ATOM     16  H   UNL A   1      34.507  34.936  31.087  1.00  0.00     0.156 HD
ATOM     17  H   UNL A   1      35.162  34.117  29.742  1.00  0.00     0.156 HD
ENDBRANCH  12  15
BRANCH  13  18
ATOM     18  N   UNL A   1      39.421  33.127  34.212  1.00  0.00    -0.374 N 
ATOM     19  C   UNL A   1      39.285  33.448  35.632  1.00  0.00     0.143 C 
BRANCH  18  20
ATOM     20  C   UNL A   1      40.752  32.612  33.833  1.00  0.00     0.120 C 
BRANCH  20  21
ATOM     21  C   UNL A   1      41.785  33.702  33.687  1.00  0.00     0.011 C 
ATOM     22  C   UNL A   1      43.171  33.547  34.269  1.00  0.00     0.009 C 
ATOM     23  C   UNL A   1      42.980  33.576  32.774  1.00  0.00    -0.009 C 
ATOM     24  C   UNL A   1      43.399  34.767  31.977  1.00  0.00     0.008 C 
ENDBRANCH  20  21
ENDBRANCH  18  20
ENDBRANCH  13  18
ENDBRANCH   5   8
ENDBRANCH   3   4
ENDBRANCH   2   3
ENDBRANCH   1   2
BRANCH   1  25
ATOM     25  C   UNL A   1      42.439  37.519  28.090  1.00  0.00     0.002 C 
BRANCH  25  26
ATOM     26  C   UNL A   1      43.410  38.443  28.829  1.00  0.00     0.021 C 
BRANCH  26  27
ATOM     27  C   UNL A   1      44.355  37.719  29.783  1.00  0.00     0.116 C 
BRANCH  27  28
ATOM     28  N   UNL A   1      45.739  37.826  29.347  1.00  0.00    -0.352 N 
ATOM     29  C   UNL A   1      46.629  36.833  29.028  1.00  0.00     0.251 C 
ATOM     30  H   UNL A   1      46.087  38.744  29.269  1.00  0.00     0.163 HD
ATOM     31  O   UNL A   1      47.824  37.083  28.914  1.00  0.00    -0.269 OA
BRANCH  29  32
ATOM     32  C   UNL A   1      46.145  35.450  28.828  1.00  0.00     0.039 A 
ATOM     33  C   UNL A   1      46.420  34.489  29.804  1.00  0.00     0.014 A 
ATOM     34  C   UNL A   1      45.447  35.099  27.668  1.00  0.00     0.014 A 
ATOM     35  C   UNL A   1      45.952  33.184  29.639  1.00  0.00     0.010 A 
ATOM     36  C   UNL A   1      44.924  33.817  27.537  1.00  0.00     0.010 A 
ATOM     37  C   UNL A   1      45.177  32.845  28.517  1.00  0.00    -0.014 A 
BRANCH  37  38
ATOM     38  C   UNL A   1      44.632  31.476  28.345  1.00  0.00     0.031 A 
ATOM     39  C   UNL A   1      45.394  30.458  27.542  1.00  0.00     0.074 A 
ATOM     40  C   UNL A   1      43.425  31.171  28.858  1.00  0.00     0.049 A 
ATOM     41  N   UNL A   1      45.052  29.238  27.213  1.00  0.00    -0.248 NA
ATOM     42  C   UNL A   1      46.702  30.875  27.014  1.00  0.00     0.031 C 
ATOM     43  C   UNL A   1      42.574  32.087  29.617  1.00  0.00     0.029 A 
ATOM     44  N   UNL A   1      42.699  30.007  28.807  1.00  0.00    -0.354 N 
ATOM     45  C   UNL A   1      46.091  28.751  26.431  1.00  0.00     0.074 A 
ATOM     46  C   UNL A   1      47.054  29.822  26.292  1.00  0.00     0.031 C 
ATOM     47  C   UNL A   1      41.449  31.447  29.976  1.00  0.00     0.029 A 
ATOM     48  C   UNL A   1      41.484  30.089  29.442  1.00  0.00     0.049 A 
ATOM     49  H   UNL A   1      43.018  29.191  28.358  1.00  0.00     0.167 HD
ATOM     50  C   UNL A   1      46.238  27.515  25.897  1.00  0.00     0.037 A 
ATOM     51  C   UNL A   1      40.505  29.173  29.570  1.00  0.00     0.037 A 
ATOM     52  C   UNL A   1      45.292  26.444  26.065  1.00  0.00     0.049 A 
ATOM     53  C   UNL A   1      40.696  27.808  28.966  1.00  0.00     0.074 A 
ATOM     54  C   UNL A   1      45.378  25.137  25.616  1.00  0.00     0.029 A 
ATOM     55  N   UNL A   1      44.083  26.557  26.737  1.00  0.00    -0.354 N 
ATOM     56  N   UNL A   1      41.713  27.338  28.287  1.00  0.00    -0.248 NA
ATOM     57  C   UNL A   1      39.605  26.842  29.155  1.00  0.00     0.031 C 
ATOM     58  C   UNL A   1      44.202  24.473  25.978  1.00  0.00     0.029 A 
ATOM     59  C   UNL A   1      43.406  25.349  26.696  1.00  0.00     0.049 A 
ATOM     60  H   UNL A   1      43.755  27.375  27.177  1.00  0.00     0.167 HD
ATOM     61  C   UNL A   1      41.401  26.018  27.995  1.00  0.00     0.074 A 
ATOM     62  C   UNL A   1      40.104  25.756  28.584  1.00  0.00     0.031 C 
ATOM     63  C   UNL A   1      42.122  25.103  27.300  1.00  0.00     0.037 A 
BRANCH  50  64
ATOM     64  C   UNL A   1      47.472  27.248  25.084  1.00  0.00     0.064 A 
ATOM     65  C   UNL A   1      47.557  27.620  23.734  1.00  0.00     0.173 A 
ATOM     66  C   UNL A   1      48.601  26.662  25.676  1.00  0.00     0.173 A 
ATOM     67  F   UNL A   1      46.502  28.174  23.118  1.00  0.00    -0.203 F 
ATOM     68  C   UNL A   1      48.719  27.393  23.001  1.00  0.00     0.198 A 
ATOM     69  C   UNL A   1      49.771  26.464  24.948  1.00  0.00     0.198 A 
ATOM     70  F   UNL A   1      48.575  26.293  26.965  1.00  0.00    -0.203 F 
ATOM     71  F   UNL A   1      48.762  27.718  21.702  1.00  0.00    -0.200 F 
ATOM     72  C   UNL A   1      49.827  26.824  23.609  1.00  0.00     0.200 A 
ATOM     73  F   UNL A   1      50.846  25.926  25.541  1.00  0.00    -0.200 F 
ATOM     74  F   UNL A   1      50.949  26.617  22.905  1.00  0.00    -0.200 F 
ENDBRANCH  50  64
BRANCH  51  75
ATOM     75  C   UNL A   1      39.263  29.508  30.315  1.00  0.00     0.064 A 
ATOM     76  C   UNL A   1      39.206  29.383  31.710  1.00  0.00     0.173 A 
ATOM     77  C   UNL A   1      38.107  29.944  29.652  1.00  0.00     0.173 A 
ATOM     78  F   UNL A   1      40.278  28.950  32.388  1.00  0.00    -0.203 F 
ATOM     79  C   UNL A   1      38.031  29.654  32.411  1.00  0.00     0.198 A 
ATOM     80  C   UNL A   1      36.943  30.244  30.355  1.00  0.00     0.198 A 
ATOM     81  F   UNL A   1      38.111  30.087  28.317  1.00  0.00    -0.203 F 
ATOM     82  F   UNL A   1      37.989  29.475  33.737  1.00  0.00    -0.200 F 
ATOM     83  C   UNL A   1      36.903  30.089  31.733  1.00  0.00     0.200 A 
ATOM     84  F   UNL A   1      35.858  30.679  29.698  1.00  0.00    -0.200 F 
ATOM     85  F   UNL A   1      35.774  30.350  32.406  1.00  0.00    -0.200 F 
ENDBRANCH  51  75
BRANCH  63  86
ATOM     86  C   UNL A   1      41.545  23.723  27.175  1.00  0.00     0.064 A 
ATOM     87  C   UNL A   1      40.385  23.475  26.428  1.00  0.00     0.173 A 
ATOM     88  C   UNL A   1      42.187  22.630  27.777  1.00  0.00     0.173 A 
ATOM     89  F   UNL A   1      39.726  24.490  25.846  1.00  0.00    -0.203 F 
ATOM     90  C   UNL A   1      39.873  22.186  26.309  1.00  0.00     0.198 A 
ATOM     91  C   UNL A   1      41.691  21.338  27.629  1.00  0.00     0.198 A 
ATOM     92  F   UNL A   1      43.304  22.814  28.496  1.00  0.00    -0.203 F 
ATOM     93  F   UNL A   1      38.737  21.978  25.630  1.00  0.00    -0.200 F 
ATOM     94  C   UNL A   1      40.530  21.118  26.903  1.00  0.00     0.200 A 
ATOM     95  F   UNL A   1      42.334  20.307  28.193  1.00  0.00    -0.200 F 
ATOM     96  F   UNL A   1      40.041  19.877  26.780  1.00  0.00    -0.200 F 
ENDBRANCH  63  86
ENDBRANCH  37  38
ENDBRANCH  29  32
ENDBRANCH  27  28
ENDBRANCH  26  27
ENDBRANCH  25  26
ENDBRANCH   1  25
TORSDOF 17
ENDMDL
