MODEL 1
REMARK VINA RESULT:     -11.9      0.000      0.000
REMARK SMILES Cc1cc2c(c(C)c1Br)C=C(C(=O)NCCCCCCNC(=O)c1ccc(-c3c4nc(c(-c5c(F)c(F)c(F)c(F)c5F)c5ccc([nH]5)c(-c5c(F)c(F)c(F)c(F)c5F)c5nc(c(-c6c(F)c(F)c(F)c(F)c6F)c6ccc3[nH]6)C=C5)C=C4)cc1)[C@@H](C(F)(F)F)O2
REMARK SMILES IDX 18 1 17 2 16 3 15 4 14 5 12 6 13 7 11 9 1 10 2 11 3 12 8 13
REMARK SMILES IDX 4 14 6 15 9 16 5 17 92 18 7 19 10 20 87 21 88 22 89 23 90 24
REMARK SMILES IDX 91 25 19 26 20 27 21 28 22 29 23 31 24 32 25 33 86 34 26 35
REMARK SMILES IDX 85 36 27 37 28 38 29 39 79 40 30 41 84 42 78 43 80 44 31 45
REMARK SMILES IDX 83 46 77 47 76 48 32 50 64 51 44 52 63 53 45 54 48 55 62 56
REMARK SMILES IDX 81 57 46 58 47 59 61 61 82 62 49 63 33 64 34 65 42 66 35 67
REMARK SMILES IDX 36 68 40 69 43 70 37 71 38 72 41 73 39 74 65 75 66 76 74 77
REMARK SMILES IDX 67 78 68 79 72 80 75 81 69 82 70 83 73 84 71 85 50 86 51 87
REMARK SMILES IDX 59 88 52 89 53 90 57 91 60 92 54 93 55 94 58 95 56 96
REMARK H PARENT 14 8 21 30 80 49 48 60
REMARK Flexibility Score: inf
ROOT
ATOM      1  C   UNL A   1      41.375  21.210  26.094  1.00  0.00     0.002 C 
ENDROOT
BRANCH   1   2
ATOM      2  C   UNL A   1      40.146  21.654  26.898  1.00  0.00     0.002 C 
BRANCH   2   3
ATOM      3  C   UNL A   1      39.498  22.957  26.423  1.00  0.00     0.021 C 
BRANCH   3   4
ATOM      4  C   UNL A   1      38.011  22.825  26.120  1.00  0.00     0.116 C 
BRANCH   4   5
ATOM      5  N   UNL A   1      37.746  22.847  24.692  1.00  0.00    -0.352 N 
ATOM      6  C   UNL A   1      36.672  23.018  23.886  1.00  0.00     0.251 C 
ATOM      7  O   UNL A   1      36.917  22.994  22.675  1.00  0.00    -0.270 OA
ATOM      8  H   UNL A   1      38.568  22.698  24.172  1.00  0.00     0.163 HD
BRANCH   6   9
ATOM      9  C   UNL A   1      35.268  23.223  24.352  1.00  0.00     0.067 C 
ATOM     10  C   UNL A   1      29.446  25.412  26.253  1.00  0.00     0.046 C 
ATOM     11  C   UNL A   1      30.916  25.249  25.972  1.00  0.00    -0.033 A 
ATOM     12  C   UNL A   1      31.306  24.034  25.403  1.00  0.00     0.051 A 
ATOM     13  C   UNL A   1      31.895  26.246  26.175  1.00  0.00     0.024 A 
ATOM     14  C   UNL A   1      32.631  23.799  25.058  1.00  0.00     0.128 A 
ATOM     15  C   UNL A   1      33.257  26.011  25.841  1.00  0.00    -0.026 A 
ATOM     16  Br  UNL A   1      31.347  27.939  26.877  1.00  0.00    -0.050 Br
ATOM     17  C   UNL A   1      33.614  24.770  25.254  1.00  0.00     0.021 A 
ATOM     18  O   UNL A   1      32.860  22.587  24.481  1.00  0.00    -0.475 OA
ATOM     19  C   UNL A   1      34.337  27.046  26.068  1.00  0.00     0.046 C 
ATOM     20  C   UNL A   1      34.967  24.464  24.777  1.00  0.00     0.026 C 
ATOM     21  C   UNL A   1      34.232  22.144  24.386  1.00  0.00     0.314 C 
BRANCH  21  22
ATOM     22  C   UNL A   1      34.496  21.092  25.479  1.00  0.00     0.429 C 
ATOM     23  F   UNL A   1      33.338  20.478  25.833  1.00  0.00    -0.167 F 
ATOM     24  F   UNL A   1      35.333  20.111  25.071  1.00  0.00    -0.167 F 
ATOM     25  F   UNL A   1      35.030  21.629  26.598  1.00  0.00    -0.167 F 
ENDBRANCH  21  22
ENDBRANCH   6   9
ENDBRANCH   4   5
ENDBRANCH   3   4
ENDBRANCH   2   3
ENDBRANCH   1   2
BRANCH   1  26
ATOM     26  C   UNL A   1      41.495  19.700  25.865  1.00  0.00     0.021 C 
BRANCH  26  27
ATOM     27  C   UNL A   1      42.811  19.093  26.338  1.00  0.00     0.116 C 
BRANCH  27  28
ATOM     28  N   UNL A   1      43.679  18.754  25.223  1.00  0.00    -0.352 N 
ATOM     29  C   UNL A   1      44.447  19.575  24.443  1.00  0.00     0.251 C 
ATOM     30  H   UNL A   1      43.721  17.797  24.995  1.00  0.00     0.163 HD
ATOM     31  O   UNL A   1      44.948  19.153  23.401  1.00  0.00    -0.269 OA
BRANCH  29  32
ATOM     32  C   UNL A   1      44.670  20.975  24.850  1.00  0.00     0.039 A 
ATOM     33  C   UNL A   1      44.255  22.002  23.998  1.00  0.00     0.014 A 
ATOM     34  C   UNL A   1      45.307  21.271  26.059  1.00  0.00     0.014 A 
ATOM     35  C   UNL A   1      44.437  23.331  24.381  1.00  0.00     0.010 A 
ATOM     36  C   UNL A   1      45.429  22.595  26.469  1.00  0.00     0.010 A 
ATOM     37  C   UNL A   1      45.003  23.635  25.629  1.00  0.00    -0.014 A 
BRANCH  37  38
ATOM     38  C   UNL A   1      45.177  25.038  26.073  1.00  0.00     0.031 A 
ATOM     39  C   UNL A   1      46.530  25.686  25.989  1.00  0.00     0.074 A 
ATOM     40  C   UNL A   1      44.133  25.705  26.600  1.00  0.00     0.049 A 
ATOM     41  N   UNL A   1      46.911  26.866  26.408  1.00  0.00    -0.248 NA
ATOM     42  C   UNL A   1      47.604  24.894  25.368  1.00  0.00     0.031 C 
ATOM     43  C   UNL A   1      42.779  25.170  26.747  1.00  0.00     0.029 A 
ATOM     44  N   UNL A   1      44.050  26.973  27.116  1.00  0.00    -0.354 N 
ATOM     45  C   UNL A   1      48.262  26.954  26.106  1.00  0.00     0.074 A 
ATOM     46  C   UNL A   1      48.651  25.690  25.521  1.00  0.00     0.031 C 
ATOM     47  C   UNL A   1      41.994  26.112  27.294  1.00  0.00     0.029 A 
ATOM     48  C   UNL A   1      42.798  27.297  27.577  1.00  0.00     0.049 A 
ATOM     49  H   UNL A   1      44.815  27.592  27.153  1.00  0.00     0.167 HD
ATOM     50  C   UNL A   1      49.095  28.007  26.280  1.00  0.00     0.037 A 
ATOM     51  C   UNL A   1      42.353  28.422  28.169  1.00  0.00     0.037 A 
ATOM     52  C   UNL A   1      48.697  29.266  26.852  1.00  0.00     0.049 A 
ATOM     53  C   UNL A   1      43.311  29.560  28.391  1.00  0.00     0.074 A 
ATOM     54  C   UNL A   1      49.460  30.403  27.050  1.00  0.00     0.029 A 
ATOM     55  N   UNL A   1      47.421  29.554  27.318  1.00  0.00    -0.354 N 
ATOM     56  N   UNL A   1      44.581  29.646  28.076  1.00  0.00    -0.248 NA
ATOM     57  C   UNL A   1      42.774  30.759  29.048  1.00  0.00     0.031 C 
ATOM     58  C   UNL A   1      48.661  31.362  27.678  1.00  0.00     0.029 A 
ATOM     59  C   UNL A   1      47.382  30.845  27.819  1.00  0.00     0.049 A 
ATOM     60  H   UNL A   1      46.657  28.933  27.294  1.00  0.00     0.167 HD
ATOM     61  C   UNL A   1      44.988  30.914  28.468  1.00  0.00     0.074 A 
ATOM     62  C   UNL A   1      43.825  31.568  29.032  1.00  0.00     0.031 C 
ATOM     63  C   UNL A   1      46.214  31.484  28.371  1.00  0.00     0.037 A 
BRANCH  50  64
ATOM     64  C   UNL A   1      50.521  27.850  25.838  1.00  0.00     0.064 A 
ATOM     65  C   UNL A   1      51.544  27.561  26.754  1.00  0.00     0.173 A 
ATOM     66  C   UNL A   1      50.862  27.926  24.479  1.00  0.00     0.173 A 
ATOM     67  F   UNL A   1      51.275  27.491  28.066  1.00  0.00    -0.203 F 
ATOM     68  C   UNL A   1      52.855  27.369  26.327  1.00  0.00     0.198 A 
ATOM     69  C   UNL A   1      52.169  27.704  24.052  1.00  0.00     0.198 A 
ATOM     70  F   UNL A   1      49.922  28.197  23.560  1.00  0.00    -0.203 F 
ATOM     71  F   UNL A   1      53.823  27.132  27.225  1.00  0.00    -0.200 F 
ATOM     72  C   UNL A   1      53.164  27.430  24.977  1.00  0.00     0.200 A 
ATOM     73  F   UNL A   1      52.462  27.750  22.746  1.00  0.00    -0.200 F 
ATOM     74  F   UNL A   1      54.424  27.228  24.566  1.00  0.00    -0.200 F 
ENDBRANCH  50  64
BRANCH  51  75
ATOM     75  C   UNL A   1      40.924  28.532  28.563  1.00  0.00     0.064 A 
ATOM     76  C   UNL A   1      40.505  28.164  29.849  1.00  0.00     0.173 A 
ATOM     77  C   UNL A   1      39.955  29.027  27.677  1.00  0.00     0.173 A 
ATOM     78  F   UNL A   1      41.390  27.666  30.724  1.00  0.00    -0.203 F 
ATOM     79  C   UNL A   1      39.170  28.275  30.231  1.00  0.00     0.198 A 
ATOM     80  C   UNL A   1      38.625  29.165  28.069  1.00  0.00     0.198 A 
ATOM     81  F   UNL A   1      40.305  29.397  26.437  1.00  0.00    -0.203 F 
ATOM     82  F   UNL A   1      38.790  27.882  31.454  1.00  0.00    -0.200 F 
ATOM     83  C   UNL A   1      38.232  28.784  29.344  1.00  0.00     0.200 A 
ATOM     84  F   UNL A   1      37.726  29.672  27.215  1.00  0.00    -0.200 F 
ATOM     85  F   UNL A   1      36.951  28.903  29.716  1.00  0.00    -0.200 F 
ENDBRANCH  51  75
BRANCH  63  86
ATOM     86  C   UNL A   1      46.361  32.897  28.856  1.00  0.00     0.064 A 
ATOM     87  C   UNL A   1      46.748  33.187  30.173  1.00  0.00     0.173 A 
ATOM     88  C   UNL A   1      46.172  33.974  27.975  1.00  0.00     0.173 A 
ATOM     89  F   UNL A   1      46.931  32.195  31.057  1.00  0.00    -0.203 F 
ATOM     90  C   UNL A   1      46.917  34.503  30.595  1.00  0.00     0.198 A 
ATOM     91  C   UNL A   1      46.374  35.286  28.392  1.00  0.00     0.198 A 
ATOM     92  F   UNL A   1      45.811  33.750  26.702  1.00  0.00    -0.203 F 
ATOM     93  F   UNL A   1      47.244  34.758  31.869  1.00  0.00    -0.200 F 
ATOM     94  C   UNL A   1      46.740  35.550  29.702  1.00  0.00     0.200 A 
ATOM     95  F   UNL A   1      46.220  36.295  27.523  1.00  0.00    -0.200 F 
ATOM     96  F   UNL A   1      46.917  36.815  30.108  1.00  0.00    -0.200 F 
ENDBRANCH  63  86
ENDBRANCH  37  38
ENDBRANCH  29  32
ENDBRANCH  27  28
ENDBRANCH  26  27
ENDBRANCH   1  26
TORSDOF 14
ENDMDL
MODEL 2
REMARK VINA RESULT:     -11.8      4.121      9.043
REMARK SMILES Cc1cc2c(c(C)c1Br)C=C(C(=O)NCCCCCCNC(=O)c1ccc(-c3c4nc(c(-c5c(F)c(F)c(F)c(F)c5F)c5ccc([nH]5)c(-c5c(F)c(F)c(F)c(F)c5F)c5nc(c(-c6c(F)c(F)c(F)c(F)c6F)c6ccc3[nH]6)C=C5)C=C4)cc1)[C@@H](C(F)(F)F)O2
REMARK SMILES IDX 18 1 17 2 16 3 15 4 14 5 12 6 13 7 11 9 1 10 2 11 3 12 8 13
REMARK SMILES IDX 4 14 6 15 9 16 5 17 92 18 7 19 10 20 87 21 88 22 89 23 90 24
REMARK SMILES IDX 91 25 19 26 20 27 21 28 22 29 23 31 24 32 25 33 86 34 26 35
REMARK SMILES IDX 85 36 27 37 28 38 29 39 79 40 30 41 84 42 78 43 80 44 31 45
REMARK SMILES IDX 83 46 77 47 76 48 32 50 64 51 44 52 63 53 45 54 48 55 62 56
REMARK SMILES IDX 81 57 46 58 47 59 61 61 82 62 49 63 33 64 34 65 42 66 35 67
REMARK SMILES IDX 36 68 40 69 43 70 37 71 38 72 41 73 39 74 65 75 66 76 74 77
REMARK SMILES IDX 67 78 68 79 72 80 75 81 69 82 70 83 73 84 71 85 50 86 51 87
REMARK SMILES IDX 59 88 52 89 53 90 57 91 60 92 54 93 55 94 58 95 56 96
REMARK H PARENT 14 8 21 30 80 49 48 60
REMARK Flexibility Score: inf
ROOT
ATOM      1  C   UNL A   1      32.790  29.095  24.803  1.00  0.00     0.002 C 
ENDROOT
BRANCH   1   2
ATOM      2  C   UNL A   1      32.403  28.676  23.379  1.00  0.00     0.002 C 
BRANCH   2   3
ATOM      3  C   UNL A   1      31.265  27.657  23.290  1.00  0.00     0.021 C 
BRANCH   3   4
ATOM      4  C   UNL A   1      31.705  26.225  23.567  1.00  0.00     0.116 C 
BRANCH   4   5
ATOM      5  N   UNL A   1      31.309  25.784  24.892  1.00  0.00    -0.352 N 
ATOM      6  C   UNL A   1      31.601  24.756  25.723  1.00  0.00     0.251 C 
ATOM      7  O   UNL A   1      31.034  24.792  26.820  1.00  0.00    -0.270 OA
ATOM      8  H   UNL A   1      30.652  26.398  25.293  1.00  0.00     0.163 HD
BRANCH   6   9
ATOM      9  C   UNL A   1      32.526  23.627  25.406  1.00  0.00     0.067 C 
ATOM     10  C   UNL A   1      37.369  19.317  24.892  1.00  0.00     0.046 C 
ATOM     11  C   UNL A   1      36.549  20.564  25.085  1.00  0.00    -0.033 A 
ATOM     12  C   UNL A   1      35.175  20.442  24.861  1.00  0.00     0.051 A 
ATOM     13  C   UNL A   1      37.053  21.804  25.535  1.00  0.00     0.024 A 
ATOM     14  C   UNL A   1      34.320  21.519  25.059  1.00  0.00     0.128 A 
ATOM     15  C   UNL A   1      36.191  22.918  25.725  1.00  0.00    -0.026 A 
ATOM     16  Br  UNL A   1      38.921  21.948  25.920  1.00  0.00    -0.050 Br
ATOM     17  C   UNL A   1      34.800  22.753  25.500  1.00  0.00     0.021 A 
ATOM     18  O   UNL A   1      33.005  21.246  24.838  1.00  0.00    -0.475 OA
ATOM     19  C   UNL A   1      36.699  24.268  26.182  1.00  0.00     0.046 C 
ATOM     20  C   UNL A   1      33.810  23.804  25.765  1.00  0.00     0.026 C 
ATOM     21  C   UNL A   1      32.104  22.369  24.713  1.00  0.00     0.314 C 
BRANCH  21  22
ATOM     22  C   UNL A   1      31.775  22.585  23.225  1.00  0.00     0.429 C 
ATOM     23  F   UNL A   1      31.711  21.393  22.577  1.00  0.00    -0.167 F 
ATOM     24  F   UNL A   1      30.575  23.182  23.034  1.00  0.00    -0.167 F 
ATOM     25  F   UNL A   1      32.698  23.343  22.593  1.00  0.00    -0.167 F 
ENDBRANCH  21  22
ENDBRANCH   6   9
ENDBRANCH   4   5
ENDBRANCH   3   4
ENDBRANCH   2   3
ENDBRANCH   1   2
BRANCH   1  26
ATOM     26  C   UNL A   1      33.957  28.317  25.419  1.00  0.00     0.021 C 
BRANCH  26  27
ATOM     27  C   UNL A   1      34.071  28.446  26.934  1.00  0.00     0.116 C 
BRANCH  27  28
ATOM     28  N   UNL A   1      33.909  29.822  27.371  1.00  0.00    -0.352 N 
ATOM     29  C   UNL A   1      34.730  30.584  28.157  1.00  0.00     0.251 C 
ATOM     30  H   UNL A   1      33.091  30.271  27.057  1.00  0.00     0.163 HD
ATOM     31  O   UNL A   1      34.333  31.656  28.613  1.00  0.00    -0.269 OA
BRANCH  29  32
ATOM     32  C   UNL A   1      36.094  30.114  28.464  1.00  0.00     0.039 A 
ATOM     33  C   UNL A   1      37.091  30.253  27.495  1.00  0.00     0.014 A 
ATOM     34  C   UNL A   1      36.380  29.518  29.695  1.00  0.00     0.014 A 
ATOM     35  C   UNL A   1      38.391  29.835  27.780  1.00  0.00     0.010 A 
ATOM     36  C   UNL A   1      37.689  29.162  30.002  1.00  0.00     0.010 A 
ATOM     37  C   UNL A   1      38.703  29.309  29.044  1.00  0.00    -0.014 A 
BRANCH  37  38
ATOM     38  C   UNL A   1      40.083  28.888  29.382  1.00  0.00     0.031 A 
ATOM     39  C   UNL A   1      40.953  29.782  30.220  1.00  0.00     0.074 A 
ATOM     40  C   UNL A   1      40.566  27.732  28.892  1.00  0.00     0.049 A 
ATOM     41  N   UNL A   1      42.211  29.641  30.549  1.00  0.00    -0.248 NA
ATOM     42  C   UNL A   1      40.329  31.010  30.741  1.00  0.00     0.031 C 
ATOM     43  C   UNL A   1      39.818  26.794  28.055  1.00  0.00     0.029 A 
ATOM     44  N   UNL A   1      41.803  27.153  29.020  1.00  0.00    -0.354 N 
ATOM     45  C   UNL A   1      42.529  30.758  31.308  1.00  0.00     0.074 A 
ATOM     46  C   UNL A   1      41.352  31.597  31.345  1.00  0.00     0.031 C 
ATOM     47  C   UNL A   1      40.604  25.745  27.763  1.00  0.00     0.029 A 
ATOM     48  C   UNL A   1      41.922  25.958  28.354  1.00  0.00     0.049 A 
ATOM     49  H   UNL A   1      42.536  27.556  29.539  1.00  0.00     0.167 HD
ATOM     50  C   UNL A   1      43.693  31.044  31.937  1.00  0.00     0.037 A 
ATOM     51  C   UNL A   1      42.979  25.134  28.228  1.00  0.00     0.037 A 
ATOM     52  C   UNL A   1      44.857  30.197  31.905  1.00  0.00     0.049 A 
ATOM     53  C   UNL A   1      44.274  25.497  28.902  1.00  0.00     0.074 A 
ATOM     54  C   UNL A   1      46.077  30.386  32.530  1.00  0.00     0.029 A 
ATOM     55  N   UNL A   1      44.943  28.998  31.211  1.00  0.00    -0.354 N 
ATOM     56  N   UNL A   1      44.558  26.541  29.641  1.00  0.00    -0.248 NA
ATOM     57  C   UNL A   1      45.396  24.565  28.724  1.00  0.00     0.031 C 
ATOM     58  C   UNL A   1      46.918  29.327  32.175  1.00  0.00     0.029 A 
ATOM     59  C   UNL A   1      46.203  28.446  31.377  1.00  0.00     0.049 A 
ATOM     60  H   UNL A   1      44.216  28.599  30.680  1.00  0.00     0.167 HD
ATOM     61  C   UNL A   1      45.877  26.380  30.042  1.00  0.00     0.074 A 
ATOM     62  C   UNL A   1      46.334  25.129  29.474  1.00  0.00     0.031 C 
ATOM     63  C   UNL A   1      46.640  27.196  30.809  1.00  0.00     0.037 A 
BRANCH  50  64
ATOM     64  C   UNL A   1      43.767  32.320  32.725  1.00  0.00     0.064 A 
ATOM     65  C   UNL A   1      43.433  32.359  34.087  1.00  0.00     0.173 A 
ATOM     66  C   UNL A   1      44.237  33.501  32.131  1.00  0.00     0.173 A 
ATOM     67  F   UNL A   1      42.966  31.262  34.700  1.00  0.00    -0.203 F 
ATOM     68  C   UNL A   1      43.552  33.537  34.820  1.00  0.00     0.198 A 
ATOM     69  C   UNL A   1      44.383  34.669  32.874  1.00  0.00     0.198 A 
ATOM     70  F   UNL A   1      44.573  33.518  30.832  1.00  0.00    -0.203 F 
ATOM     71  F   UNL A   1      43.191  33.560  36.111  1.00  0.00    -0.200 F 
ATOM     72  C   UNL A   1      44.037  34.687  34.216  1.00  0.00     0.200 A 
ATOM     73  F   UNL A   1      44.865  35.776  32.292  1.00  0.00    -0.200 F 
ATOM     74  F   UNL A   1      44.168  35.816  34.928  1.00  0.00    -0.200 F 
ENDBRANCH  50  64
BRANCH  51  75
ATOM     75  C   UNL A   1      42.841  23.870  27.458  1.00  0.00     0.064 A 
ATOM     76  C   UNL A   1      43.209  23.811  26.106  1.00  0.00     0.173 A 
ATOM     77  C   UNL A   1      42.363  22.694  28.056  1.00  0.00     0.173 A 
ATOM     78  F   UNL A   1      43.651  24.914  25.485  1.00  0.00    -0.203 F 
ATOM     79  C   UNL A   1      43.095  22.628  25.380  1.00  0.00     0.198 A 
ATOM     80  C   UNL A   1      42.277  21.504  27.336  1.00  0.00     0.198 A 
ATOM     81  F   UNL A   1      42.002  22.696  29.347  1.00  0.00    -0.203 F 
ATOM     82  F   UNL A   1      43.420  22.609  24.080  1.00  0.00    -0.200 F 
ATOM     83  C   UNL A   1      42.637  21.473  25.997  1.00  0.00     0.200 A 
ATOM     84  F   UNL A   1      41.850  20.387  27.940  1.00  0.00    -0.200 F 
ATOM     85  F   UNL A   1      42.540  20.333  25.301  1.00  0.00    -0.200 F 
ENDBRANCH  51  75
BRANCH  63  86
ATOM     86  C   UNL A   1      48.043  26.751  31.110  1.00  0.00     0.064 A 
ATOM     87  C   UNL A   1      49.132  27.177  30.335  1.00  0.00     0.173 A 
ATOM     88  C   UNL A   1      48.307  25.938  32.224  1.00  0.00     0.173 A 
ATOM     89  F   UNL A   1      48.932  27.946  29.254  1.00  0.00    -0.203 F 
ATOM     90  C   UNL A   1      50.430  26.787  30.652  1.00  0.00     0.198 A 
ATOM     91  C   UNL A   1      49.610  25.577  32.555  1.00  0.00     0.198 A 
ATOM     92  F   UNL A   1      47.301  25.512  33.003  1.00  0.00    -0.203 F 
ATOM     93  F   UNL A   1      51.451  27.169  29.872  1.00  0.00    -0.200 F 
ATOM     94  C   UNL A   1      50.669  25.996  31.766  1.00  0.00     0.200 A 
ATOM     95  F   UNL A   1      49.839  24.828  33.642  1.00  0.00    -0.200 F 
ATOM     96  F   UNL A   1      51.921  25.633  32.075  1.00  0.00    -0.200 F 
ENDBRANCH  63  86
ENDBRANCH  37  38
ENDBRANCH  29  32
ENDBRANCH  27  28
ENDBRANCH  26  27
ENDBRANCH   1  26
TORSDOF 14
ENDMDL
MODEL 3
REMARK VINA RESULT:     -11.8      0.338      1.679
REMARK SMILES Cc1cc2c(c(C)c1Br)C=C(C(=O)NCCCCCCNC(=O)c1ccc(-c3c4nc(c(-c5c(F)c(F)c(F)c(F)c5F)c5ccc([nH]5)c(-c5c(F)c(F)c(F)c(F)c5F)c5nc(c(-c6c(F)c(F)c(F)c(F)c6F)c6ccc3[nH]6)C=C5)C=C4)cc1)[C@@H](C(F)(F)F)O2
REMARK SMILES IDX 18 1 17 2 16 3 15 4 14 5 12 6 13 7 11 9 1 10 2 11 3 12 8 13
REMARK SMILES IDX 4 14 6 15 9 16 5 17 92 18 7 19 10 20 87 21 88 22 89 23 90 24
REMARK SMILES IDX 91 25 19 26 20 27 21 28 22 29 23 31 24 32 25 33 86 34 26 35
REMARK SMILES IDX 85 36 27 37 28 38 29 39 79 40 30 41 84 42 78 43 80 44 31 45
REMARK SMILES IDX 83 46 77 47 76 48 32 50 64 51 44 52 63 53 45 54 48 55 62 56
REMARK SMILES IDX 81 57 46 58 47 59 61 61 82 62 49 63 33 64 34 65 42 66 35 67
REMARK SMILES IDX 36 68 40 69 43 70 37 71 38 72 41 73 39 74 65 75 66 76 74 77
REMARK SMILES IDX 67 78 68 79 72 80 75 81 69 82 70 83 73 84 71 85 50 86 51 87
REMARK SMILES IDX 59 88 52 89 53 90 57 91 60 92 54 93 55 94 58 95 56 96
REMARK H PARENT 14 8 21 30 80 49 48 60
REMARK Flexibility Score: inf
ROOT
ATOM      1  C   UNL A   1      41.246  20.945  27.118  1.00  0.00     0.002 C 
ENDROOT
BRANCH   1   2
ATOM      2  C   UNL A   1      40.351  22.051  26.543  1.00  0.00     0.002 C 
BRANCH   2   3
ATOM      3  C   UNL A   1      38.976  21.584  26.060  1.00  0.00     0.021 C 
BRANCH   3   4
ATOM      4  C   UNL A   1      38.013  22.727  25.762  1.00  0.00     0.116 C 
BRANCH   4   5
ATOM      5  N   UNL A   1      37.646  22.773  24.359  1.00  0.00    -0.352 N 
ATOM      6  C   UNL A   1      36.514  22.941  23.635  1.00  0.00     0.251 C 
ATOM      7  O   UNL A   1      36.670  22.944  22.410  1.00  0.00    -0.270 OA
ATOM      8  H   UNL A   1      38.430  22.647  23.777  1.00  0.00     0.163 HD
BRANCH   6   9
ATOM      9  C   UNL A   1      35.144  23.114  24.206  1.00  0.00     0.067 C 
ATOM     10  C   UNL A   1      29.410  25.166  26.488  1.00  0.00     0.046 C 
ATOM     11  C   UNL A   1      30.858  25.045  26.095  1.00  0.00    -0.033 A 
ATOM     12  C   UNL A   1      31.249  23.823  25.542  1.00  0.00     0.051 A 
ATOM     13  C   UNL A   1      31.810  26.084  26.179  1.00  0.00     0.024 A 
ATOM     14  C   UNL A   1      32.551  23.622  25.101  1.00  0.00     0.128 A 
ATOM     15  C   UNL A   1      33.149  25.886  25.746  1.00  0.00    -0.026 A 
ATOM     16  Br  UNL A   1      31.253  27.784  26.859  1.00  0.00    -0.050 Br
ATOM     17  C   UNL A   1      33.507  24.635  25.179  1.00  0.00     0.021 A 
ATOM     18  O   UNL A   1      32.781  22.397  24.553  1.00  0.00    -0.475 OA
ATOM     19  C   UNL A   1      34.202  26.967  25.845  1.00  0.00     0.046 C 
ATOM     20  C   UNL A   1      34.829  24.359  24.606  1.00  0.00     0.026 C 
ATOM     21  C   UNL A   1      34.157  22.000  24.364  1.00  0.00     0.314 C 
BRANCH  21  22
ATOM     22  C   UNL A   1      34.549  21.004  25.471  1.00  0.00     0.429 C 
ATOM     23  F   UNL A   1      33.582  20.063  25.623  1.00  0.00    -0.167 F 
ATOM     24  F   UNL A   1      35.689  20.331  25.192  1.00  0.00    -0.167 F 
ATOM     25  F   UNL A   1      34.725  21.602  26.669  1.00  0.00    -0.167 F 
ENDBRANCH  21  22
ENDBRANCH   6   9
ENDBRANCH   4   5
ENDBRANCH   3   4
ENDBRANCH   2   3
ENDBRANCH   1   2
BRANCH   1  26
ATOM     26  C   UNL A   1      41.467  19.739  26.198  1.00  0.00     0.021 C 
BRANCH  26  27
ATOM     27  C   UNL A   1      42.734  18.944  26.494  1.00  0.00     0.116 C 
BRANCH  27  28
ATOM     28  N   UNL A   1      43.526  18.729  25.294  1.00  0.00    -0.352 N 
ATOM     29  C   UNL A   1      44.166  19.645  24.504  1.00  0.00     0.251 C 
ATOM     30  H   UNL A   1      43.615  17.792  25.010  1.00  0.00     0.163 HD
ATOM     31  O   UNL A   1      44.605  19.315  23.402  1.00  0.00    -0.269 OA
BRANCH  29  32
ATOM     32  C   UNL A   1      44.324  21.035  24.972  1.00  0.00     0.039 A 
ATOM     33  C   UNL A   1      45.109  21.283  26.100  1.00  0.00     0.014 A 
ATOM     34  C   UNL A   1      43.680  22.085  24.311  1.00  0.00     0.014 A 
ATOM     35  C   UNL A   1      45.287  22.595  26.540  1.00  0.00     0.010 A 
ATOM     36  C   UNL A   1      43.911  23.397  24.711  1.00  0.00     0.010 A 
ATOM     37  C   UNL A   1      44.709  23.662  25.834  1.00  0.00    -0.014 A 
BRANCH  37  38
ATOM     38  C   UNL A   1      44.909  25.066  26.261  1.00  0.00     0.031 A 
ATOM     39  C   UNL A   1      46.270  25.693  26.153  1.00  0.00     0.074 A 
ATOM     40  C   UNL A   1      43.882  25.753  26.795  1.00  0.00     0.049 A 
ATOM     41  N   UNL A   1      46.674  26.871  26.555  1.00  0.00    -0.248 NA
ATOM     42  C   UNL A   1      47.324  24.879  25.526  1.00  0.00     0.031 C 
ATOM     43  C   UNL A   1      42.523  25.241  26.964  1.00  0.00     0.029 A 
ATOM     44  N   UNL A   1      43.824  27.028  27.299  1.00  0.00    -0.354 N 
ATOM     45  C   UNL A   1      48.022  26.937  26.235  1.00  0.00     0.074 A 
ATOM     46  C   UNL A   1      48.385  25.661  25.658  1.00  0.00     0.031 C 
ATOM     47  C   UNL A   1      41.759  26.199  27.512  1.00  0.00     0.029 A 
ATOM     48  C   UNL A   1      42.583  27.375  27.773  1.00  0.00     0.049 A 
ATOM     49  H   UNL A   1      44.599  27.635  27.320  1.00  0.00     0.167 HD
ATOM     50  C   UNL A   1      48.873  27.978  26.388  1.00  0.00     0.037 A 
ATOM     51  C   UNL A   1      42.163  28.512  28.360  1.00  0.00     0.037 A 
ATOM     52  C   UNL A   1      48.500  29.249  26.952  1.00  0.00     0.049 A 
ATOM     53  C   UNL A   1      43.141  29.638  28.557  1.00  0.00     0.074 A 
ATOM     54  C   UNL A   1      49.283  30.376  27.129  1.00  0.00     0.029 A 
ATOM     55  N   UNL A   1      47.235  29.560  27.432  1.00  0.00    -0.354 N 
ATOM     56  N   UNL A   1      44.407  29.702  28.225  1.00  0.00    -0.248 NA
ATOM     57  C   UNL A   1      42.630  30.851  29.209  1.00  0.00     0.031 C 
ATOM     58  C   UNL A   1      48.506  31.353  27.757  1.00  0.00     0.029 A 
ATOM     59  C   UNL A   1      47.222  30.857  27.920  1.00  0.00     0.049 A 
ATOM     60  H   UNL A   1      46.462  28.950  27.424  1.00  0.00     0.167 HD
ATOM     61  C   UNL A   1      44.838  30.968  28.599  1.00  0.00     0.074 A 
ATOM     62  C   UNL A   1      43.692  31.644  29.171  1.00  0.00     0.031 C 
ATOM     63  C   UNL A   1      46.071  31.518  28.481  1.00  0.00     0.037 A 
BRANCH  50  64
ATOM     64  C   UNL A   1      50.291  27.796  25.929  1.00  0.00     0.064 A 
ATOM     65  C   UNL A   1      50.641  27.902  24.575  1.00  0.00     0.173 A 
ATOM     66  C   UNL A   1      51.320  27.576  26.857  1.00  0.00     0.173 A 
ATOM     67  F   UNL A   1      49.694  28.097  23.645  1.00  0.00    -0.203 F 
ATOM     68  C   UNL A   1      51.966  27.779  24.165  1.00  0.00     0.198 A 
ATOM     69  C   UNL A   1      52.648  27.484  26.448  1.00  0.00     0.198 A 
ATOM     70  F   UNL A   1      51.041  27.469  28.165  1.00  0.00    -0.203 F 
ATOM     71  F   UNL A   1      52.272  27.846  22.862  1.00  0.00    -0.200 F 
ATOM     72  C   UNL A   1      52.969  27.581  25.103  1.00  0.00     0.200 A 
ATOM     73  F   UNL A   1      53.617  27.307  27.356  1.00  0.00    -0.200 F 
ATOM     74  F   UNL A   1      54.246  27.481  24.709  1.00  0.00    -0.200 F 
ENDBRANCH  50  64
BRANCH  51  75
ATOM     75  C   UNL A   1      40.741  28.647  28.770  1.00  0.00     0.064 A 
ATOM     76  C   UNL A   1      39.771  29.084  27.858  1.00  0.00     0.173 A 
ATOM     77  C   UNL A   1      40.317  28.324  30.068  1.00  0.00     0.173 A 
ATOM     78  F   UNL A   1      40.130  29.425  26.612  1.00  0.00    -0.203 F 
ATOM     79  C   UNL A   1      38.433  29.203  28.230  1.00  0.00     0.198 A 
ATOM     80  C   UNL A   1      38.975  28.415  30.431  1.00  0.00     0.198 A 
ATOM     81  F   UNL A   1      41.205  27.898  30.978  1.00  0.00    -0.203 F 
ATOM     82  F   UNL A   1      37.533  29.657  27.348  1.00  0.00    -0.200 F 
ATOM     83  C   UNL A   1      38.035  28.860  29.514  1.00  0.00     0.200 A 
ATOM     84  F   UNL A   1      38.592  28.068  31.667  1.00  0.00    -0.200 F 
ATOM     85  F   UNL A   1      36.747  28.962  29.867  1.00  0.00    -0.200 F 
ENDBRANCH  51  75
BRANCH  63  86
ATOM     86  C   UNL A   1      46.244  32.934  28.950  1.00  0.00     0.064 A 
ATOM     87  C   UNL A   1      46.670  33.231  30.254  1.00  0.00     0.173 A 
ATOM     88  C   UNL A   1      46.043  34.005  28.065  1.00  0.00     0.173 A 
ATOM     89  F   UNL A   1      46.866  32.244  31.141  1.00  0.00    -0.203 F 
ATOM     90  C   UNL A   1      46.863  34.548  30.659  1.00  0.00     0.198 A 
ATOM     91  C   UNL A   1      46.270  35.319  28.465  1.00  0.00     0.198 A 
ATOM     92  F   UNL A   1      45.647  33.774  26.804  1.00  0.00    -0.203 F 
ATOM     93  F   UNL A   1      47.226  34.811  31.922  1.00  0.00    -0.200 F 
ATOM     94  C   UNL A   1      46.673  35.590  29.763  1.00  0.00     0.200 A 
ATOM     95  F   UNL A   1      46.103  36.321  27.592  1.00  0.00    -0.200 F 
ATOM     96  F   UNL A   1      46.874  36.856  30.153  1.00  0.00    -0.200 F 
ENDBRANCH  63  86
ENDBRANCH  37  38
ENDBRANCH  29  32
ENDBRANCH  27  28
ENDBRANCH  26  27
ENDBRANCH   1  26
TORSDOF 14
ENDMDL
