MODEL 1
REMARK VINA RESULT:     -12.5      0.000      0.000
REMARK SMILES Cc1ccc(-c2ncccc2C(=O)NCCCCCCNC(=O)c2ccc(-c3c4nc(c(-c5c(F)c(F)c(F)c(F)c5F)c5ccc([nH]5)c(-c5c(F)c(F)c(F)c(F)c5F)c5nc(c(-c6c(F)c(F)c(F)c(F)c6F)c6ccc3[nH]6)C=C5)C=C4)cc2)c(Cl)c1
REMARK SMILES IDX 18 1 17 2 16 3 15 4 14 5 12 6 13 7 11 9 6 10 7 11 8 12 10 13
REMARK SMILES IDX 9 14 5 15 1 16 2 17 3 18 89 19 4 20 87 21 88 22 19 23 20 24
REMARK SMILES IDX 21 25 22 26 23 28 24 29 25 30 86 31 26 32 85 33 27 34 28 35
REMARK SMILES IDX 29 36 79 37 30 38 84 39 78 40 80 41 31 42 83 43 77 44 76 45
REMARK SMILES IDX 32 47 64 48 44 49 63 50 45 51 48 52 62 53 81 54 46 55 47 56
REMARK SMILES IDX 61 58 82 59 49 60 33 61 34 62 42 63 35 64 36 65 40 66 43 67
REMARK SMILES IDX 37 68 38 69 41 70 39 71 65 72 66 73 74 74 67 75 68 76 72 77
REMARK SMILES IDX 75 78 69 79 70 80 73 81 71 82 50 83 51 84 59 85 52 86 53 87
REMARK SMILES IDX 57 88 60 89 54 90 55 91 58 92 56 93
REMARK H PARENT 14 8 21 27 80 46 48 57
REMARK Flexibility Score: inf
ROOT
ATOM      1  C   UNL A   1      31.549  30.924  26.063  1.00  0.00     0.002 C 
ENDROOT
BRANCH   1   2
ATOM      2  C   UNL A   1      32.104  29.866  27.028  1.00  0.00     0.002 C 
BRANCH   2   3
ATOM      3  C   UNL A   1      33.621  29.629  26.942  1.00  0.00     0.021 C 
BRANCH   3   4
ATOM      4  C   UNL A   1      33.995  28.229  26.453  1.00  0.00     0.116 C 
BRANCH   4   5
ATOM      5  N   UNL A   1      32.930  27.290  26.726  1.00  0.00    -0.352 N 
ATOM      6  C   UNL A   1      32.357  26.206  26.119  1.00  0.00     0.253 C 
ATOM      7  O   UNL A   1      31.432  25.728  26.777  1.00  0.00    -0.269 OA
ATOM      8  H   UNL A   1      32.497  27.484  27.588  1.00  0.00     0.163 HD
BRANCH   6   9
ATOM      9  C   UNL A   1      32.772  25.580  24.817  1.00  0.00     0.066 A 
ATOM     10  C   UNL A   1      32.068  25.874  23.627  1.00  0.00     0.084 A 
ATOM     11  N   UNL A   1      32.333  25.261  22.431  1.00  0.00    -0.255 NA
ATOM     12  C   UNL A   1      33.303  24.333  22.389  1.00  0.00     0.112 A 
ATOM     13  C   UNL A   1      33.832  24.675  24.685  1.00  0.00     0.018 A 
ATOM     14  C   UNL A   1      34.086  24.024  23.475  1.00  0.00     0.021 A 
BRANCH  10  15
ATOM     15  C   UNL A   1      31.033  26.912  23.484  1.00  0.00     0.020 A 
ATOM     16  C   UNL A   1      27.883  29.837  22.935  1.00  0.00     0.044 C 
ATOM     17  C   UNL A   1      28.966  28.824  23.152  1.00  0.00    -0.050 A 
ATOM     18  C   UNL A   1      28.655  27.495  23.451  1.00  0.00     0.004 A 
ATOM     19  C   UNL A   1      30.311  29.201  23.057  1.00  0.00     0.024 A 
ATOM     20  C   UNL A   1      29.676  26.557  23.627  1.00  0.00     0.012 A 
ATOM     21  C   UNL A   1      31.334  28.257  23.214  1.00  0.00     0.050 A 
ATOM     22  Cl  UNL A   1      32.965  28.812  23.026  1.00  0.00    -0.084 Cl
ENDBRANCH  10  15
ENDBRANCH   6   9
ENDBRANCH   4   5
ENDBRANCH   3   4
ENDBRANCH   2   3
ENDBRANCH   1   2
BRANCH   1  23
ATOM     23  C   UNL A   1      31.349  32.316  26.669  1.00  0.00     0.021 C 
BRANCH  23  24
ATOM     24  C   UNL A   1      32.622  32.955  27.212  1.00  0.00     0.116 C 
BRANCH  24  25
ATOM     25  N   UNL A   1      32.400  34.328  27.634  1.00  0.00    -0.352 N 
ATOM     26  C   UNL A   1      32.977  35.023  28.667  1.00  0.00     0.251 C 
ATOM     27  H   UNL A   1      31.741  34.832  27.103  1.00  0.00     0.163 HD
ATOM     28  O   UNL A   1      32.521  36.106  29.015  1.00  0.00    -0.269 OA
BRANCH  26  29
ATOM     29  C   UNL A   1      34.145  34.455  29.373  1.00  0.00     0.039 A 
ATOM     30  C   UNL A   1      33.944  33.792  30.587  1.00  0.00     0.014 A 
ATOM     31  C   UNL A   1      35.436  34.594  28.853  1.00  0.00     0.014 A 
ATOM     32  C   UNL A   1      35.030  33.223  31.254  1.00  0.00     0.010 A 
ATOM     33  C   UNL A   1      36.508  33.968  29.483  1.00  0.00     0.010 A 
ATOM     34  C   UNL A   1      36.317  33.283  30.692  1.00  0.00    -0.014 A 
BRANCH  34  35
ATOM     35  C   UNL A   1      37.475  32.637  31.360  1.00  0.00     0.031 A 
ATOM     36  C   UNL A   1      38.178  31.483  30.703  1.00  0.00     0.074 A 
ATOM     37  C   UNL A   1      37.848  33.047  32.587  1.00  0.00     0.049 A 
ATOM     38  N   UNL A   1      39.162  30.748  31.154  1.00  0.00    -0.248 NA
ATOM     39  C   UNL A   1      37.691  31.083  29.374  1.00  0.00     0.031 C 
ATOM     40  C   UNL A   1      37.208  34.122  33.349  1.00  0.00     0.029 A 
ATOM     41  N   UNL A   1      38.846  32.600  33.415  1.00  0.00    -0.354 N 
ATOM     42  C   UNL A   1      39.399  29.791  30.176  1.00  0.00     0.074 A 
ATOM     43  C   UNL A   1      38.424  30.007  29.130  1.00  0.00     0.031 C 
ATOM     44  C   UNL A   1      37.839  34.261  34.526  1.00  0.00     0.029 A 
ATOM     45  C   UNL A   1      38.903  33.265  34.616  1.00  0.00     0.049 A 
ATOM     46  H   UNL A   1      39.462  31.872  33.173  1.00  0.00     0.167 HD
ATOM     47  C   UNL A   1      40.357  28.834  30.146  1.00  0.00     0.037 A 
ATOM     48  C   UNL A   1      39.718  33.087  35.673  1.00  0.00     0.037 A 
ATOM     49  C   UNL A   1      41.343  28.644  31.176  1.00  0.00     0.049 A 
ATOM     50  C   UNL A   1      40.782  32.026  35.608  1.00  0.00     0.074 A 
ATOM     51  C   UNL A   1      42.403  27.753  31.204  1.00  0.00     0.029 A 
ATOM     52  N   UNL A   1      41.390  29.357  32.366  1.00  0.00    -0.354 N 
ATOM     53  N   UNL A   1      41.047  31.178  34.644  1.00  0.00    -0.248 NA
ATOM     54  C   UNL A   1      41.667  31.903  36.775  1.00  0.00     0.031 C 
ATOM     55  C   UNL A   1      43.060  27.893  32.431  1.00  0.00     0.029 A 
ATOM     56  C   UNL A   1      42.443  28.908  33.147  1.00  0.00     0.049 A 
ATOM     57  H   UNL A   1      40.765  30.075  32.619  1.00  0.00     0.167 HD
ATOM     58  C   UNL A   1      42.140  30.439  35.075  1.00  0.00     0.074 A 
ATOM     59  C   UNL A   1      42.500  30.949  36.382  1.00  0.00     0.031 C 
ATOM     60  C   UNL A   1      42.788  29.429  34.445  1.00  0.00     0.037 A 
BRANCH  47  61
ATOM     61  C   UNL A   1      40.385  27.916  28.957  1.00  0.00     0.064 A 
ATOM     62  C   UNL A   1      41.154  28.205  27.820  1.00  0.00     0.173 A 
ATOM     63  C   UNL A   1      39.660  26.714  28.970  1.00  0.00     0.173 A 
ATOM     64  F   UNL A   1      41.857  29.346  27.752  1.00  0.00    -0.203 F 
ATOM     65  C   UNL A   1      41.172  27.342  26.728  1.00  0.00     0.198 A 
ATOM     66  C   UNL A   1      39.705  25.838  27.889  1.00  0.00     0.198 A 
ATOM     67  F   UNL A   1      38.913  26.386  30.035  1.00  0.00    -0.203 F 
ATOM     68  F   UNL A   1      41.874  27.664  25.632  1.00  0.00    -0.200 F 
ATOM     69  C   UNL A   1      40.454  26.156  26.766  1.00  0.00     0.200 A 
ATOM     70  F   UNL A   1      39.020  24.687  27.932  1.00  0.00    -0.200 F 
ATOM     71  F   UNL A   1      40.477  25.322  25.716  1.00  0.00    -0.200 F 
ENDBRANCH  47  61
BRANCH  48  72
ATOM     72  C   UNL A   1      39.571  33.950  36.872  1.00  0.00     0.064 A 
ATOM     73  C   UNL A   1      38.804  33.536  37.970  1.00  0.00     0.173 A 
ATOM     74  C   UNL A   1      40.197  35.203  36.951  1.00  0.00     0.173 A 
ATOM     75  F   UNL A   1      38.169  32.354  37.934  1.00  0.00    -0.203 F 
ATOM     76  C   UNL A   1      38.655  34.347  39.093  1.00  0.00     0.198 A 
ATOM     77  C   UNL A   1      40.071  36.001  38.085  1.00  0.00     0.198 A 
ATOM     78  F   UNL A   1      40.948  35.644  35.930  1.00  0.00    -0.203 F 
ATOM     79  F   UNL A   1      37.882  33.943  40.110  1.00  0.00    -0.200 F 
ATOM     80  C   UNL A   1      39.294  35.576  39.153  1.00  0.00     0.200 A 
ATOM     81  F   UNL A   1      40.703  37.182  38.145  1.00  0.00    -0.200 F 
ATOM     82  F   UNL A   1      39.157  36.353  40.235  1.00  0.00    -0.200 F 
ENDBRANCH  48  72
BRANCH  60  83
ATOM     83  C   UNL A   1      43.969  28.825  35.148  1.00  0.00     0.064 A 
ATOM     84  C   UNL A   1      43.830  27.729  36.012  1.00  0.00     0.173 A 
ATOM     85  C   UNL A   1      45.261  29.325  34.922  1.00  0.00     0.173 A 
ATOM     86  F   UNL A   1      42.614  27.224  36.272  1.00  0.00    -0.203 F 
ATOM     87  C   UNL A   1      44.938  27.171  36.643  1.00  0.00     0.198 A 
ATOM     88  C   UNL A   1      46.370  28.746  35.531  1.00  0.00     0.198 A 
ATOM     89  F   UNL A   1      45.449  30.368  34.100  1.00  0.00    -0.203 F 
ATOM     90  F   UNL A   1      44.777  26.153  37.500  1.00  0.00    -0.200 F 
ATOM     91  C   UNL A   1      46.207  27.673  36.397  1.00  0.00     0.200 A 
ATOM     92  F   UNL A   1      47.596  29.224  35.282  1.00  0.00    -0.200 F 
ATOM     93  F   UNL A   1      47.274  27.130  36.998  1.00  0.00    -0.200 F 
ENDBRANCH  60  83
ENDBRANCH  34  35
ENDBRANCH  26  29
ENDBRANCH  24  25
ENDBRANCH  23  24
ENDBRANCH   1  23
TORSDOF 14
ENDMDL
MODEL 2
REMARK VINA RESULT:     -12.3      5.908     11.274
REMARK SMILES Cc1ccc(-c2ncccc2C(=O)NCCCCCCNC(=O)c2ccc(-c3c4nc(c(-c5c(F)c(F)c(F)c(F)c5F)c5ccc([nH]5)c(-c5c(F)c(F)c(F)c(F)c5F)c5nc(c(-c6c(F)c(F)c(F)c(F)c6F)c6ccc3[nH]6)C=C5)C=C4)cc2)c(Cl)c1
REMARK SMILES IDX 18 1 17 2 16 3 15 4 14 5 12 6 13 7 11 9 6 10 7 11 8 12 10 13
REMARK SMILES IDX 9 14 5 15 1 16 2 17 3 18 89 19 4 20 87 21 88 22 19 23 20 24
REMARK SMILES IDX 21 25 22 26 23 28 24 29 25 30 86 31 26 32 85 33 27 34 28 35
REMARK SMILES IDX 29 36 79 37 30 38 84 39 78 40 80 41 31 42 83 43 77 44 76 45
REMARK SMILES IDX 32 47 64 48 44 49 63 50 45 51 48 52 62 53 81 54 46 55 47 56
REMARK SMILES IDX 61 58 82 59 49 60 33 61 34 62 42 63 35 64 36 65 40 66 43 67
REMARK SMILES IDX 37 68 38 69 41 70 39 71 65 72 66 73 74 74 67 75 68 76 72 77
REMARK SMILES IDX 75 78 69 79 70 80 73 81 71 82 50 83 51 84 59 85 52 86 53 87
REMARK SMILES IDX 57 88 60 89 54 90 55 91 58 92 56 93
REMARK H PARENT 14 8 21 27 80 46 48 57
REMARK Flexibility Score: inf
ROOT
ATOM      1  C   UNL A   1      36.853  20.369  25.001  1.00  0.00     0.002 C 
ENDROOT
BRANCH   1   2
ATOM      2  C   UNL A   1      37.107  21.810  24.533  1.00  0.00     0.002 C 
BRANCH   2   3
ATOM      3  C   UNL A   1      37.307  22.841  25.656  1.00  0.00     0.021 C 
BRANCH   3   4
ATOM      4  C   UNL A   1      36.169  23.857  25.765  1.00  0.00     0.116 C 
BRANCH   4   5
ATOM      5  N   UNL A   1      35.578  24.104  24.468  1.00  0.00    -0.352 N 
ATOM      6  C   UNL A   1      34.346  24.417  23.961  1.00  0.00     0.253 C 
ATOM      7  O   UNL A   1      34.351  24.520  22.734  1.00  0.00    -0.269 OA
ATOM      8  H   UNL A   1      36.247  24.025  23.752  1.00  0.00     0.163 HD
BRANCH   6   9
ATOM      9  C   UNL A   1      33.088  24.664  24.745  1.00  0.00     0.066 A 
ATOM     10  C   UNL A   1      32.244  23.586  25.099  1.00  0.00     0.084 A 
ATOM     11  N   UNL A   1      31.036  23.756  25.723  1.00  0.00    -0.255 NA
ATOM     12  C   UNL A   1      30.632  25.005  26.005  1.00  0.00     0.112 A 
ATOM     13  C   UNL A   1      32.653  25.931  25.150  1.00  0.00     0.018 A 
ATOM     14  C   UNL A   1      31.408  26.113  25.758  1.00  0.00     0.021 A 
BRANCH  10  15
ATOM     15  C   UNL A   1      32.570  22.160  24.931  1.00  0.00     0.020 A 
ATOM     16  C   UNL A   1      33.333  17.933  24.357  1.00  0.00     0.044 C 
ATOM     17  C   UNL A   1      33.088  19.401  24.536  1.00  0.00    -0.050 A 
ATOM     18  C   UNL A   1      32.528  20.165  23.511  1.00  0.00     0.004 A 
ATOM     19  C   UNL A   1      33.423  20.026  25.744  1.00  0.00     0.024 A 
ATOM     20  C   UNL A   1      32.285  21.528  23.703  1.00  0.00     0.012 A 
ATOM     21  C   UNL A   1      33.161  21.388  25.944  1.00  0.00     0.050 A 
ATOM     22  Cl  UNL A   1      33.563  22.057  27.491  1.00  0.00    -0.084 Cl
ENDBRANCH  10  15
ENDBRANCH   6   9
ENDBRANCH   4   5
ENDBRANCH   3   4
ENDBRANCH   2   3
ENDBRANCH   1   2
BRANCH   1  23
ATOM     23  C   UNL A   1      38.085  19.459  24.999  1.00  0.00     0.021 C 
BRANCH  23  24
ATOM     24  C   UNL A   1      39.285  20.022  25.751  1.00  0.00     0.116 C 
BRANCH  24  25
ATOM     25  N   UNL A   1      40.325  19.024  25.935  1.00  0.00    -0.352 N 
ATOM     26  C   UNL A   1      41.673  19.198  26.124  1.00  0.00     0.251 C 
ATOM     27  H   UNL A   1      40.019  18.088  25.923  1.00  0.00     0.163 HD
ATOM     28  O   UNL A   1      42.437  18.242  26.050  1.00  0.00    -0.269 OA
BRANCH  26  29
ATOM     29  C   UNL A   1      42.208  20.547  26.401  1.00  0.00     0.039 A 
ATOM     30  C   UNL A   1      42.650  21.332  25.332  1.00  0.00     0.014 A 
ATOM     31  C   UNL A   1      42.294  21.030  27.711  1.00  0.00     0.014 A 
ATOM     32  C   UNL A   1      43.130  22.621  25.571  1.00  0.00     0.010 A 
ATOM     33  C   UNL A   1      42.709  22.339  27.941  1.00  0.00     0.010 A 
ATOM     34  C   UNL A   1      43.138  23.144  26.875  1.00  0.00    -0.014 A 
BRANCH  34  35
ATOM     35  C   UNL A   1      43.594  24.531  27.141  1.00  0.00     0.031 A 
ATOM     36  C   UNL A   1      42.624  25.562  27.646  1.00  0.00     0.074 A 
ATOM     37  C   UNL A   1      44.865  24.877  26.863  1.00  0.00     0.049 A 
ATOM     38  N   UNL A   1      42.814  26.837  27.875  1.00  0.00    -0.248 NA
ATOM     39  C   UNL A   1      41.249  25.106  27.901  1.00  0.00     0.031 C 
ATOM     40  C   UNL A   1      45.884  23.979  26.318  1.00  0.00     0.029 A 
ATOM     41  N   UNL A   1      45.513  26.081  26.986  1.00  0.00    -0.354 N 
ATOM     42  C   UNL A   1      41.584  27.335  28.282  1.00  0.00     0.074 A 
ATOM     43  C   UNL A   1      40.642  26.239  28.221  1.00  0.00     0.031 C 
ATOM     44  C   UNL A   1      47.033  24.658  26.168  1.00  0.00     0.029 A 
ATOM     45  C   UNL A   1      46.822  26.045  26.573  1.00  0.00     0.049 A 
ATOM     46  H   UNL A   1      45.080  26.892  27.336  1.00  0.00     0.167 HD
ATOM     47  C   UNL A   1      41.275  28.590  28.689  1.00  0.00     0.037 A 
ATOM     48  C   UNL A   1      47.747  27.023  26.521  1.00  0.00     0.037 A 
ATOM     49  C   UNL A   1      42.223  29.669  28.776  1.00  0.00     0.049 A 
ATOM     50  C   UNL A   1      47.381  28.403  26.991  1.00  0.00     0.074 A 
ATOM     51  C   UNL A   1      42.027  30.955  29.249  1.00  0.00     0.029 A 
ATOM     52  N   UNL A   1      43.550  29.588  28.378  1.00  0.00    -0.354 N 
ATOM     53  N   UNL A   1      46.235  28.845  27.448  1.00  0.00    -0.248 NA
ATOM     54  C   UNL A   1      48.441  29.420  26.948  1.00  0.00     0.031 C 
ATOM     55  C   UNL A   1      43.221  31.666  29.091  1.00  0.00     0.029 A 
ATOM     56  C   UNL A   1      44.177  30.809  28.569  1.00  0.00     0.049 A 
ATOM     57  H   UNL A   1      43.982  28.782  28.012  1.00  0.00     0.167 HD
ATOM     58  C   UNL A   1      46.440  30.180  27.769  1.00  0.00     0.074 A 
ATOM     59  C   UNL A   1      47.826  30.473  27.469  1.00  0.00     0.031 C 
ATOM     60  C   UNL A   1      45.559  31.082  28.267  1.00  0.00     0.037 A 
BRANCH  47  61
ATOM     61  C   UNL A   1      39.848  28.865  29.072  1.00  0.00     0.064 A 
ATOM     62  C   UNL A   1      38.907  29.315  28.135  1.00  0.00     0.173 A 
ATOM     63  C   UNL A   1      39.410  28.641  30.386  1.00  0.00     0.173 A 
ATOM     64  F   UNL A   1      39.277  29.556  26.867  1.00  0.00    -0.203 F 
ATOM     65  C   UNL A   1      37.587  29.562  28.505  1.00  0.00     0.198 A 
ATOM     66  C   UNL A   1      38.082  28.858  30.746  1.00  0.00     0.198 A 
ATOM     67  F   UNL A   1      40.267  28.203  31.320  1.00  0.00    -0.203 F 
ATOM     68  F   UNL A   1      36.718  30.041  27.604  1.00  0.00    -0.200 F 
ATOM     69  C   UNL A   1      37.175  29.326  29.807  1.00  0.00     0.200 A 
ATOM     70  F   UNL A   1      37.682  28.617  32.002  1.00  0.00    -0.200 F 
ATOM     71  F   UNL A   1      35.902  29.557  30.162  1.00  0.00    -0.200 F 
ENDBRANCH  47  61
BRANCH  48  72
ATOM     72  C   UNL A   1      49.113  26.720  26.023  1.00  0.00     0.064 A 
ATOM     73  C   UNL A   1      50.085  26.175  26.872  1.00  0.00     0.173 A 
ATOM     74  C   UNL A   1      49.474  26.962  24.689  1.00  0.00     0.173 A 
ATOM     75  F   UNL A   1      49.795  25.944  28.162  1.00  0.00    -0.203 F 
ATOM     76  C   UNL A   1      51.371  25.899  26.412  1.00  0.00     0.198 A 
ATOM     77  C   UNL A   1      50.751  26.660  24.223  1.00  0.00     0.198 A 
ATOM     78  F   UNL A   1      48.577  27.477  23.833  1.00  0.00    -0.203 F 
ATOM     79  F   UNL A   1      52.294  25.417  27.256  1.00  0.00    -0.200 F 
ATOM     80  C   UNL A   1      51.701  26.135  25.086  1.00  0.00     0.200 A 
ATOM     81  F   UNL A   1      51.060  26.875  22.936  1.00  0.00    -0.200 F 
ATOM     82  F   UNL A   1      52.936  25.863  24.641  1.00  0.00    -0.200 F 
ENDBRANCH  48  72
BRANCH  60  83
ATOM     83  C   UNL A   1      46.074  32.464  28.544  1.00  0.00     0.064 A 
ATOM     84  C   UNL A   1      46.660  32.799  29.773  1.00  0.00     0.173 A 
ATOM     85  C   UNL A   1      46.017  33.456  27.552  1.00  0.00     0.173 A 
ATOM     86  F   UNL A   1      46.726  31.891  30.759  1.00  0.00    -0.203 F 
ATOM     87  C   UNL A   1      47.148  34.082  30.007  1.00  0.00     0.198 A 
ATOM     88  C   UNL A   1      46.532  34.728  27.778  1.00  0.00     0.198 A 
ATOM     89  F   UNL A   1      45.472  33.185  26.356  1.00  0.00    -0.203 F 
ATOM     90  F   UNL A   1      47.662  34.393  31.205  1.00  0.00    -0.200 F 
ATOM     91  C   UNL A   1      47.091  35.042  29.009  1.00  0.00     0.200 A 
ATOM     92  F   UNL A   1      46.488  35.650  26.808  1.00  0.00    -0.200 F 
ATOM     93  F   UNL A   1      47.569  36.274  29.233  1.00  0.00    -0.200 F 
ENDBRANCH  60  83
ENDBRANCH  34  35
ENDBRANCH  26  29
ENDBRANCH  24  25
ENDBRANCH  23  24
ENDBRANCH   1  23
TORSDOF 14
ENDMDL
MODEL 3
REMARK VINA RESULT:     -12.2      0.330      1.628
REMARK SMILES Cc1ccc(-c2ncccc2C(=O)NCCCCCCNC(=O)c2ccc(-c3c4nc(c(-c5c(F)c(F)c(F)c(F)c5F)c5ccc([nH]5)c(-c5c(F)c(F)c(F)c(F)c5F)c5nc(c(-c6c(F)c(F)c(F)c(F)c6F)c6ccc3[nH]6)C=C5)C=C4)cc2)c(Cl)c1
REMARK SMILES IDX 18 1 17 2 16 3 15 4 14 5 12 6 13 7 11 9 6 10 7 11 8 12 10 13
REMARK SMILES IDX 9 14 5 15 1 16 2 17 3 18 89 19 4 20 87 21 88 22 19 23 20 24
REMARK SMILES IDX 21 25 22 26 23 28 24 29 25 30 86 31 26 32 85 33 27 34 28 35
REMARK SMILES IDX 29 36 79 37 30 38 84 39 78 40 80 41 31 42 83 43 77 44 76 45
REMARK SMILES IDX 32 47 64 48 44 49 63 50 45 51 48 52 62 53 81 54 46 55 47 56
REMARK SMILES IDX 61 58 82 59 49 60 33 61 34 62 42 63 35 64 36 65 40 66 43 67
REMARK SMILES IDX 37 68 38 69 41 70 39 71 65 72 66 73 74 74 67 75 68 76 72 77
REMARK SMILES IDX 75 78 69 79 70 80 73 81 71 82 50 83 51 84 59 85 52 86 53 87
REMARK SMILES IDX 57 88 60 89 54 90 55 91 58 92 56 93
REMARK H PARENT 14 8 21 27 80 46 48 57
REMARK Flexibility Score: inf
ROOT
ATOM      1  C   UNL A   1      31.513  30.683  26.434  1.00  0.00     0.002 C 
ENDROOT
BRANCH   1   2
ATOM      2  C   UNL A   1      32.863  30.205  25.878  1.00  0.00     0.002 C 
BRANCH   2   3
ATOM      3  C   UNL A   1      33.760  29.459  26.880  1.00  0.00     0.021 C 
BRANCH   3   4
ATOM      4  C   UNL A   1      34.024  28.001  26.498  1.00  0.00     0.116 C 
BRANCH   4   5
ATOM      5  N   UNL A   1      32.848  27.191  26.725  1.00  0.00    -0.352 N 
ATOM      6  C   UNL A   1      32.212  26.140  26.122  1.00  0.00     0.253 C 
ATOM      7  O   UNL A   1      31.194  25.795  26.723  1.00  0.00    -0.269 OA
ATOM      8  H   UNL A   1      32.373  27.474  27.539  1.00  0.00     0.163 HD
BRANCH   6   9
ATOM      9  C   UNL A   1      32.657  25.408  24.888  1.00  0.00     0.066 A 
ATOM     10  C   UNL A   1      32.167  25.786  23.617  1.00  0.00     0.084 A 
ATOM     11  N   UNL A   1      32.455  25.096  22.469  1.00  0.00    -0.255 NA
ATOM     12  C   UNL A   1      33.235  24.006  22.556  1.00  0.00     0.112 A 
ATOM     13  C   UNL A   1      33.540  24.321  24.897  1.00  0.00     0.018 A 
ATOM     14  C   UNL A   1      33.812  23.596  23.735  1.00  0.00     0.021 A 
BRANCH  10  15
ATOM     15  C   UNL A   1      31.366  26.990  23.337  1.00  0.00     0.020 A 
ATOM     16  C   UNL A   1      28.885  30.415  22.390  1.00  0.00     0.044 C 
ATOM     17  C   UNL A   1      29.735  29.232  22.745  1.00  0.00    -0.050 A 
ATOM     18  C   UNL A   1      29.156  28.023  23.134  1.00  0.00     0.004 A 
ATOM     19  C   UNL A   1      31.132  29.328  22.689  1.00  0.00     0.024 A 
ATOM     20  C   UNL A   1      29.961  26.922  23.438  1.00  0.00     0.012 A 
ATOM     21  C   UNL A   1      31.939  28.219  22.975  1.00  0.00     0.050 A 
ATOM     22  Cl  UNL A   1      33.653  28.425  22.827  1.00  0.00    -0.084 Cl
ENDBRANCH  10  15
ENDBRANCH   6   9
ENDBRANCH   4   5
ENDBRANCH   3   4
ENDBRANCH   2   3
ENDBRANCH   1   2
BRANCH   1  23
ATOM     23  C   UNL A   1      31.402  32.193  26.660  1.00  0.00     0.021 C 
BRANCH  23  24
ATOM     24  C   UNL A   1      32.667  32.842  27.209  1.00  0.00     0.116 C 
BRANCH  24  25
ATOM     25  N   UNL A   1      32.434  34.215  27.626  1.00  0.00    -0.352 N 
ATOM     26  C   UNL A   1      32.993  34.914  28.665  1.00  0.00     0.251 C 
ATOM     27  H   UNL A   1      31.781  34.715  27.084  1.00  0.00     0.163 HD
ATOM     28  O   UNL A   1      32.528  35.996  29.005  1.00  0.00    -0.269 OA
BRANCH  26  29
ATOM     29  C   UNL A   1      34.153  34.353  29.389  1.00  0.00     0.039 A 
ATOM     30  C   UNL A   1      33.929  33.613  30.554  1.00  0.00     0.014 A 
ATOM     31  C   UNL A   1      35.458  34.572  28.934  1.00  0.00     0.014 A 
ATOM     32  C   UNL A   1      35.010  33.049  31.234  1.00  0.00     0.010 A 
ATOM     33  C   UNL A   1      36.528  33.953  29.575  1.00  0.00     0.010 A 
ATOM     34  C   UNL A   1      36.315  33.192  30.734  1.00  0.00    -0.014 A 
BRANCH  34  35
ATOM     35  C   UNL A   1      37.470  32.554  31.415  1.00  0.00     0.031 A 
ATOM     36  C   UNL A   1      38.182  31.397  30.771  1.00  0.00     0.074 A 
ATOM     37  C   UNL A   1      37.833  32.974  32.641  1.00  0.00     0.049 A 
ATOM     38  N   UNL A   1      39.165  30.669  31.235  1.00  0.00    -0.248 NA
ATOM     39  C   UNL A   1      37.706  30.987  29.441  1.00  0.00     0.031 C 
ATOM     40  C   UNL A   1      37.184  34.051  33.391  1.00  0.00     0.029 A 
ATOM     41  N   UNL A   1      38.826  32.535  33.480  1.00  0.00    -0.354 N 
ATOM     42  C   UNL A   1      39.412  29.706  30.265  1.00  0.00     0.074 A 
ATOM     43  C   UNL A   1      38.443  29.911  29.209  1.00  0.00     0.031 C 
ATOM     44  C   UNL A   1      37.806  34.200  34.572  1.00  0.00     0.029 A 
ATOM     45  C   UNL A   1      38.873  33.209  34.677  1.00  0.00     0.049 A 
ATOM     46  H   UNL A   1      39.447  31.808  33.247  1.00  0.00     0.167 HD
ATOM     47  C   UNL A   1      40.373  28.751  30.248  1.00  0.00     0.037 A 
ATOM     48  C   UNL A   1      39.680  33.040  35.741  1.00  0.00     0.037 A 
ATOM     49  C   UNL A   1      41.352  28.572  31.287  1.00  0.00     0.049 A 
ATOM     50  C   UNL A   1      40.748  31.982  35.691  1.00  0.00     0.074 A 
ATOM     51  C   UNL A   1      42.414  27.685  31.329  1.00  0.00     0.029 A 
ATOM     52  N   UNL A   1      41.388  29.293  32.472  1.00  0.00    -0.354 N 
ATOM     53  N   UNL A   1      41.023  31.128  34.735  1.00  0.00    -0.248 NA
ATOM     54  C   UNL A   1      41.625  31.870  36.865  1.00  0.00     0.031 C 
ATOM     55  C   UNL A   1      43.062  27.835  32.559  1.00  0.00     0.029 A 
ATOM     56  C   UNL A   1      42.437  28.852  33.263  1.00  0.00     0.049 A 
ATOM     57  H   UNL A   1      40.759  30.011  32.715  1.00  0.00     0.167 HD
ATOM     58  C   UNL A   1      42.115  30.396  35.179  1.00  0.00     0.074 A 
ATOM     59  C   UNL A   1      42.463  30.916  36.485  1.00  0.00     0.031 C 
ATOM     60  C   UNL A   1      42.770  29.384  34.560  1.00  0.00     0.037 A 
BRANCH  47  61
ATOM     61  C   UNL A   1      40.412  27.825  29.066  1.00  0.00     0.064 A 
ATOM     62  C   UNL A   1      39.655  26.645  29.029  1.00  0.00     0.173 A 
ATOM     63  C   UNL A   1      41.190  28.141  27.942  1.00  0.00     0.173 A 
ATOM     64  F   UNL A   1      38.903  26.291  30.082  1.00  0.00    -0.203 F 
ATOM     65  C   UNL A   1      39.699  25.798  27.924  1.00  0.00     0.198 A 
ATOM     66  C   UNL A   1      41.208  27.308  26.825  1.00  0.00     0.198 A 
ATOM     67  F   UNL A   1      41.927  29.261  27.922  1.00  0.00    -0.203 F 
ATOM     68  F   UNL A   1      39.008  24.650  27.932  1.00  0.00    -0.200 F 
ATOM     69  C   UNL A   1      40.470  26.134  26.821  1.00  0.00     0.200 A 
ATOM     70  F   UNL A   1      41.943  27.640  25.755  1.00  0.00    -0.200 F 
ATOM     71  F   UNL A   1      40.507  25.322  25.755  1.00  0.00    -0.200 F 
ENDBRANCH  47  61
BRANCH  48  72
ATOM     72  C   UNL A   1      39.521  33.912  36.933  1.00  0.00     0.064 A 
ATOM     73  C   UNL A   1      38.790  33.481  38.049  1.00  0.00     0.173 A 
ATOM     74  C   UNL A   1      40.102  35.188  36.987  1.00  0.00     0.173 A 
ATOM     75  F   UNL A   1      38.199  32.276  38.037  1.00  0.00    -0.203 F 
ATOM     76  C   UNL A   1      38.630  34.299  39.165  1.00  0.00     0.198 A 
ATOM     77  C   UNL A   1      39.965  35.993  38.115  1.00  0.00     0.198 A 
ATOM     78  F   UNL A   1      40.818  35.644  35.948  1.00  0.00    -0.203 F 
ATOM     79  F   UNL A   1      37.891  33.879  40.201  1.00  0.00    -0.200 F 
ATOM     80  C   UNL A   1      39.223  35.552  39.200  1.00  0.00     0.200 A 
ATOM     81  F   UNL A   1      40.554  37.197  38.150  1.00  0.00    -0.200 F 
ATOM     82  F   UNL A   1      39.076  36.336  40.277  1.00  0.00    -0.200 F 
ENDBRANCH  48  72
BRANCH  60  83
ATOM     83  C   UNL A   1      43.948  28.788  35.276  1.00  0.00     0.064 A 
ATOM     84  C   UNL A   1      45.244  29.298  35.113  1.00  0.00     0.173 A 
ATOM     85  C   UNL A   1      43.769  27.719  36.169  1.00  0.00     0.173 A 
ATOM     86  F   UNL A   1      45.469  30.310  34.260  1.00  0.00    -0.203 F 
ATOM     87  C   UNL A   1      46.322  28.745  35.798  1.00  0.00     0.198 A 
ATOM     88  C   UNL A   1      44.844  27.187  36.874  1.00  0.00     0.198 A 
ATOM     89  F   UNL A   1      42.548  27.199  36.366  1.00  0.00    -0.203 F 
ATOM     90  F   UNL A   1      47.559  29.217  35.592  1.00  0.00    -0.200 F 
ATOM     91  C   UNL A   1      46.121  27.696  36.683  1.00  0.00     0.200 A 
ATOM     92  F   UNL A   1      44.646  26.184  37.739  1.00  0.00    -0.200 F 
ATOM     93  F   UNL A   1      47.158  27.170  37.348  1.00  0.00    -0.200 F 
ENDBRANCH  60  83
ENDBRANCH  34  35
ENDBRANCH  26  29
ENDBRANCH  24  25
ENDBRANCH  23  24
ENDBRANCH   1  23
TORSDOF 14
ENDMDL
