MODEL 1
REMARK VINA RESULT:     -11.6      0.000      0.000
REMARK SMILES Cc1cc(=O)n2nc(C[N@@H+](C)CC(=O)NCCCCCCNC(=O)c3ccc(-c4c5nc(c(-c6c(F)c(F)c(F)c(F)c6F)c6ccc([nH]6)c(-c6c(F)c(F)c(F)c(F)c6F)c6nc(c(-c7c(F)c(F)c(F)c(F)c7F)c7ccc4[nH]7)C=C6)C=C5)cc3)sc2n1
REMARK SMILES IDX 18 1 17 2 16 3 15 4 13 5 14 6 12 8 10 9 11 10 9 12 8 13 1 14
REMARK SMILES IDX 2 15 3 16 90 17 4 18 89 19 5 20 6 21 88 22 7 23 19 24 20 25
REMARK SMILES IDX 21 26 22 27 23 28 24 30 25 31 26 32 87 33 27 34 86 35 28 36
REMARK SMILES IDX 29 37 30 38 80 39 31 40 85 41 79 42 81 43 32 44 84 45 78 46
REMARK SMILES IDX 77 47 33 49 65 50 45 51 64 52 46 53 49 54 63 55 82 56 47 57
REMARK SMILES IDX 48 58 62 60 83 61 50 62 34 63 35 64 43 65 36 66 37 67 41 68
REMARK SMILES IDX 44 69 38 70 39 71 42 72 40 73 66 74 67 75 75 76 68 77 69 78
REMARK SMILES IDX 73 79 76 80 70 81 71 82 74 83 72 84 51 85 52 86 60 87 53 88
REMARK SMILES IDX 54 89 58 90 61 91 55 92 56 93 59 94 57 95
REMARK H PARENT 15 7 10 11 22 29 81 48 49 59
REMARK Flexibility Score: inf
ROOT
ATOM      1  C   UNL A   1      40.569  21.462  26.853  1.00  0.00     0.002 C 
ENDROOT
BRANCH   1   2
ATOM      2  C   UNL A   1      39.545  22.437  26.264  1.00  0.00     0.021 C 
BRANCH   2   3
ATOM      3  C   UNL A   1      38.251  21.780  25.780  1.00  0.00     0.116 C 
BRANCH   3   4
ATOM      4  N   UNL A   1      37.878  22.286  24.481  1.00  0.00    -0.351 N 
ATOM      5  C   UNL A   1      36.655  22.673  24.026  1.00  0.00     0.275 C 
ATOM      6  O   UNL A   1      36.556  22.964  22.833  1.00  0.00    -0.269 OA
ATOM      7  H   UNL A   1      38.613  22.362  23.830  1.00  0.00     0.163 HD
BRANCH   5   8
ATOM      8  C   UNL A   1      35.455  22.775  24.971  1.00  0.00     0.363 C 
BRANCH   8   9
ATOM      9  N   UNL A   1      34.456  21.697  24.866  1.00  0.00    -0.324 N 
ATOM     10  C   UNL A   1      34.957  20.339  24.907  1.00  0.00     0.333 C 
ATOM     11  H   UNL A   1      33.989  21.802  25.767  1.00  0.00     0.348 HD
BRANCH   9  12
ATOM     12  C   UNL A   1      33.392  21.901  23.874  1.00  0.00     0.333 C 
BRANCH  12  13
ATOM     13  C   UNL A   1      33.013  23.359  23.836  1.00  0.00     0.172 A 
ATOM     14  C   UNL A   1      31.440  29.044  24.792  1.00  0.00     0.067 C 
ATOM     15  C   UNL A   1      31.954  27.777  24.170  1.00  0.00     0.046 A 
ATOM     16  C   UNL A   1      32.609  27.799  22.998  1.00  0.00     0.097 A 
ATOM     17  N   UNL A   1      31.722  26.635  24.899  1.00  0.00    -0.224 NA
ATOM     18  C   UNL A   1      33.121  26.533  22.421  1.00  0.00     0.275 A 
ATOM     19  C   UNL A   1      32.204  25.548  24.399  1.00  0.00     0.215 A 
ATOM     20  O   UNL A   1      33.678  26.552  21.328  1.00  0.00    -0.267 OA
ATOM     21  N   UNL A   1      32.893  25.436  23.222  1.00  0.00    -0.167 N 
ATOM     22  S   UNL A   1      32.052  24.002  25.154  1.00  0.00    -0.073 S 
ATOM     23  N   UNL A   1      33.354  24.182  22.895  1.00  0.00    -0.150 NA
ENDBRANCH  12  13
ENDBRANCH   9  12
ENDBRANCH   8   9
ENDBRANCH   5   8
ENDBRANCH   3   4
ENDBRANCH   2   3
ENDBRANCH   1   2
BRANCH   1  24
ATOM     24  C   UNL A   1      40.396  19.989  26.458  1.00  0.00     0.002 C 
BRANCH  24  25
ATOM     25  C   UNL A   1      41.578  19.329  25.735  1.00  0.00     0.021 C 
BRANCH  25  26
ATOM     26  C   UNL A   1      42.906  19.475  26.457  1.00  0.00     0.116 C 
BRANCH  26  27
ATOM     27  N   UNL A   1      44.052  19.445  25.546  1.00  0.00    -0.352 N 
ATOM     28  C   UNL A   1      44.630  20.495  24.863  1.00  0.00     0.251 C 
ATOM     29  H   UNL A   1      44.463  18.562  25.403  1.00  0.00     0.163 HD
ATOM     30  O   UNL A   1      45.336  20.304  23.875  1.00  0.00    -0.269 OA
BRANCH  28  31
ATOM     31  C   UNL A   1      44.391  21.861  25.349  1.00  0.00     0.039 A 
ATOM     32  C   UNL A   1      43.375  22.669  24.833  1.00  0.00     0.014 A 
ATOM     33  C   UNL A   1      45.199  22.309  26.388  1.00  0.00     0.014 A 
ATOM     34  C   UNL A   1      43.141  23.906  25.428  1.00  0.00     0.010 A 
ATOM     35  C   UNL A   1      44.829  23.414  27.101  1.00  0.00     0.010 A 
ATOM     36  C   UNL A   1      43.868  24.265  26.574  1.00  0.00    -0.014 A 
BRANCH  36  37
ATOM     37  C   UNL A   1      43.628  25.521  27.270  1.00  0.00     0.031 A 
ATOM     38  C   UNL A   1      44.556  26.630  26.925  1.00  0.00     0.074 A 
ATOM     39  C   UNL A   1      42.525  25.729  28.023  1.00  0.00     0.049 A 
ATOM     40  N   UNL A   1      45.414  27.205  27.700  1.00  0.00    -0.248 NA
ATOM     41  C   UNL A   1      44.609  27.090  25.529  1.00  0.00     0.031 C 
ATOM     42  C   UNL A   1      41.356  24.860  28.217  1.00  0.00     0.029 A 
ATOM     43  N   UNL A   1      42.174  26.846  28.713  1.00  0.00    -0.354 N 
ATOM     44  C   UNL A   1      46.010  28.209  26.943  1.00  0.00     0.074 A 
ATOM     45  C   UNL A   1      45.582  28.003  25.583  1.00  0.00     0.031 C 
ATOM     46  C   UNL A   1      40.343  25.570  28.757  1.00  0.00     0.029 A 
ATOM     47  C   UNL A   1      40.850  26.875  29.129  1.00  0.00     0.049 A 
ATOM     48  H   UNL A   1      42.807  27.575  28.903  1.00  0.00     0.167 HD
ATOM     49  C   UNL A   1      46.647  29.258  27.534  1.00  0.00     0.037 A 
ATOM     50  C   UNL A   1      40.217  27.918  29.718  1.00  0.00     0.037 A 
ATOM     51  C   UNL A   1      46.907  29.002  28.927  1.00  0.00     0.049 A 
ATOM     52  C   UNL A   1      41.270  28.799  30.278  1.00  0.00     0.074 A 
ATOM     53  C   UNL A   1      47.660  28.072  29.615  1.00  0.00     0.029 A 
ATOM     54  N   UNL A   1      46.033  29.526  29.846  1.00  0.00    -0.354 N 
ATOM     55  N   UNL A   1      42.047  28.466  31.271  1.00  0.00    -0.248 NA
ATOM     56  C   UNL A   1      41.757  29.883  29.440  1.00  0.00     0.031 C 
ATOM     57  C   UNL A   1      46.878  27.738  30.761  1.00  0.00     0.029 A 
ATOM     58  C   UNL A   1      45.728  28.530  30.739  1.00  0.00     0.049 A 
ATOM     59  H   UNL A   1      45.689  30.448  29.863  1.00  0.00     0.167 HD
ATOM     60  C   UNL A   1      43.290  28.980  30.933  1.00  0.00     0.074 A 
ATOM     61  C   UNL A   1      43.028  29.921  29.847  1.00  0.00     0.031 C 
ATOM     62  C   UNL A   1      44.438  28.385  31.370  1.00  0.00     0.037 A 
BRANCH  49  63
ATOM     63  C   UNL A   1      46.733  30.641  26.948  1.00  0.00     0.064 A 
ATOM     64  C   UNL A   1      47.967  31.320  26.940  1.00  0.00     0.173 A 
ATOM     65  C   UNL A   1      45.597  31.424  26.659  1.00  0.00     0.173 A 
ATOM     66  F   UNL A   1      49.104  30.674  27.239  1.00  0.00    -0.203 F 
ATOM     67  C   UNL A   1      48.046  32.696  26.706  1.00  0.00     0.198 A 
ATOM     68  C   UNL A   1      45.687  32.785  26.372  1.00  0.00     0.198 A 
ATOM     69  F   UNL A   1      44.356  30.932  26.755  1.00  0.00    -0.203 F 
ATOM     70  F   UNL A   1      49.225  33.324  26.818  1.00  0.00    -0.200 F 
ATOM     71  C   UNL A   1      46.907  33.427  26.423  1.00  0.00     0.200 A 
ATOM     72  F   UNL A   1      44.568  33.481  26.125  1.00  0.00    -0.200 F 
ATOM     73  F   UNL A   1      46.974  34.753  26.249  1.00  0.00    -0.200 F 
ENDBRANCH  49  63
BRANCH  50  74
ATOM     74  C   UNL A   1      38.824  28.380  29.523  1.00  0.00     0.064 A 
ATOM     75  C   UNL A   1      37.997  28.623  30.633  1.00  0.00     0.173 A 
ATOM     76  C   UNL A   1      38.388  28.898  28.289  1.00  0.00     0.173 A 
ATOM     77  F   UNL A   1      38.358  28.186  31.848  1.00  0.00    -0.203 F 
ATOM     78  C   UNL A   1      36.835  29.392  30.526  1.00  0.00     0.198 A 
ATOM     79  C   UNL A   1      37.224  29.661  28.183  1.00  0.00     0.198 A 
ATOM     80  F   UNL A   1      39.135  28.767  27.183  1.00  0.00    -0.203 F 
ATOM     81  F   UNL A   1      36.119  29.674  31.624  1.00  0.00    -0.200 F 
ATOM     82  C   UNL A   1      36.460  29.926  29.305  1.00  0.00     0.200 A 
ATOM     83  F   UNL A   1      36.888  30.200  27.003  1.00  0.00    -0.200 F 
ATOM     84  F   UNL A   1      35.393  30.731  29.218  1.00  0.00    -0.200 F 
ENDBRANCH  50  74
BRANCH  62  85
ATOM     85  C   UNL A   1      44.316  27.335  32.442  1.00  0.00     0.064 A 
ATOM     86  C   UNL A   1      44.138  27.613  33.809  1.00  0.00     0.173 A 
ATOM     87  C   UNL A   1      44.244  25.993  32.046  1.00  0.00     0.173 A 
ATOM     88  F   UNL A   1      44.095  28.871  34.259  1.00  0.00    -0.203 F 
ATOM     89  C   UNL A   1      43.946  26.589  34.738  1.00  0.00     0.198 A 
ATOM     90  C   UNL A   1      44.014  24.977  32.969  1.00  0.00     0.198 A 
ATOM     91  F   UNL A   1      44.352  25.670  30.747  1.00  0.00    -0.203 F 
ATOM     92  F   UNL A   1      43.795  26.880  36.039  1.00  0.00    -0.200 F 
ATOM     93  C   UNL A   1      43.876  25.273  34.315  1.00  0.00     0.200 A 
ATOM     94  F   UNL A   1      43.900  23.710  32.547  1.00  0.00    -0.200 F 
ATOM     95  F   UNL A   1      43.652  24.292  35.200  1.00  0.00    -0.200 F 
ENDBRANCH  62  85
ENDBRANCH  36  37
ENDBRANCH  28  31
ENDBRANCH  26  27
ENDBRANCH  25  26
ENDBRANCH  24  25
ENDBRANCH   1  24
TORSDOF 16
ENDMDL
MODEL 2
REMARK VINA RESULT:     -11.5      2.634      3.802
REMARK SMILES Cc1cc(=O)n2nc(C[N@@H+](C)CC(=O)NCCCCCCNC(=O)c3ccc(-c4c5nc(c(-c6c(F)c(F)c(F)c(F)c6F)c6ccc([nH]6)c(-c6c(F)c(F)c(F)c(F)c6F)c6nc(c(-c7c(F)c(F)c(F)c(F)c7F)c7ccc4[nH]7)C=C6)C=C5)cc3)sc2n1
REMARK SMILES IDX 18 1 17 2 16 3 15 4 13 5 14 6 12 8 10 9 11 10 9 12 8 13 1 14
REMARK SMILES IDX 2 15 3 16 90 17 4 18 89 19 5 20 6 21 88 22 7 23 19 24 20 25
REMARK SMILES IDX 21 26 22 27 23 28 24 30 25 31 26 32 87 33 27 34 86 35 28 36
REMARK SMILES IDX 29 37 30 38 80 39 31 40 85 41 79 42 81 43 32 44 84 45 78 46
REMARK SMILES IDX 77 47 33 49 65 50 45 51 64 52 46 53 49 54 63 55 82 56 47 57
REMARK SMILES IDX 48 58 62 60 83 61 50 62 34 63 35 64 43 65 36 66 37 67 41 68
REMARK SMILES IDX 44 69 38 70 39 71 42 72 40 73 66 74 67 75 75 76 68 77 69 78
REMARK SMILES IDX 73 79 76 80 70 81 71 82 74 83 72 84 51 85 52 86 60 87 53 88
REMARK SMILES IDX 54 89 58 90 61 91 55 92 56 93 59 94 57 95
REMARK H PARENT 15 7 10 11 22 29 81 48 49 59
REMARK Flexibility Score: inf
ROOT
ATOM      1  C   UNL A   1      36.975  22.503  24.804  1.00  0.00     0.002 C 
ENDROOT
BRANCH   1   2
ATOM      2  C   UNL A   1      36.151  21.238  25.062  1.00  0.00     0.021 C 
BRANCH   2   3
ATOM      3  C   UNL A   1      34.929  21.450  25.958  1.00  0.00     0.116 C 
BRANCH   3   4
ATOM      4  N   UNL A   1      33.974  20.384  25.778  1.00  0.00    -0.351 N 
ATOM      5  C   UNL A   1      32.814  20.377  25.066  1.00  0.00     0.275 C 
ATOM      6  O   UNL A   1      32.097  19.378  25.154  1.00  0.00    -0.269 OA
ATOM      7  H   UNL A   1      34.192  19.539  26.236  1.00  0.00     0.163 HD
BRANCH   5   8
ATOM      8  C   UNL A   1      32.432  21.553  24.165  1.00  0.00     0.363 C 
BRANCH   8   9
ATOM      9  N   UNL A   1      31.787  22.697  24.833  1.00  0.00    -0.324 N 
ATOM     10  C   UNL A   1      30.806  22.387  25.852  1.00  0.00     0.333 C 
ATOM     11  H   UNL A   1      32.577  23.057  25.369  1.00  0.00     0.348 HD
BRANCH   9  12
ATOM     12  C   UNL A   1      31.396  23.813  23.961  1.00  0.00     0.333 C 
BRANCH  12  13
ATOM     13  C   UNL A   1      31.845  25.113  24.576  1.00  0.00     0.172 A 
ATOM     14  C   UNL A   1      34.617  29.759  27.116  1.00  0.00     0.067 C 
ATOM     15  C   UNL A   1      33.636  28.898  26.372  1.00  0.00     0.046 A 
ATOM     16  C   UNL A   1      32.622  29.444  25.682  1.00  0.00     0.097 A 
ATOM     17  N   UNL A   1      33.879  27.546  26.440  1.00  0.00    -0.224 NA
ATOM     18  C   UNL A   1      31.683  28.567  24.942  1.00  0.00     0.275 A 
ATOM     19  C   UNL A   1      33.073  26.801  25.763  1.00  0.00     0.215 A 
ATOM     20  O   UNL A   1      30.732  29.067  24.351  1.00  0.00    -0.267 OA
ATOM     21  N   UNL A   1      32.010  27.231  25.017  1.00  0.00    -0.167 N 
ATOM     22  S   UNL A   1      33.203  25.080  25.686  1.00  0.00    -0.073 S 
ATOM     23  N   UNL A   1      31.302  26.265  24.339  1.00  0.00    -0.150 NA
ENDBRANCH  12  13
ENDBRANCH   9  12
ENDBRANCH   8   9
ENDBRANCH   5   8
ENDBRANCH   3   4
ENDBRANCH   2   3
ENDBRANCH   1   2
BRANCH   1  24
ATOM     24  C   UNL A   1      38.130  22.760  25.782  1.00  0.00     0.002 C 
BRANCH  24  25
ATOM     25  C   UNL A   1      39.055  21.572  26.081  1.00  0.00     0.021 C 
BRANCH  25  26
ATOM     26  C   UNL A   1      40.254  21.922  26.946  1.00  0.00     0.116 C 
BRANCH  26  27
ATOM     27  N   UNL A   1      41.490  22.056  26.172  1.00  0.00    -0.352 N 
ATOM     28  C   UNL A   1      42.189  23.206  25.869  1.00  0.00     0.251 C 
ATOM     29  H   UNL A   1      41.871  21.217  25.825  1.00  0.00     0.163 HD
ATOM     30  O   UNL A   1      42.989  23.240  24.937  1.00  0.00    -0.269 OA
BRANCH  28  31
ATOM     31  C   UNL A   1      41.964  24.399  26.695  1.00  0.00     0.039 A 
ATOM     32  C   UNL A   1      42.594  24.582  27.928  1.00  0.00     0.014 A 
ATOM     33  C   UNL A   1      41.121  25.375  26.174  1.00  0.00     0.014 A 
ATOM     34  C   UNL A   1      42.417  25.792  28.594  1.00  0.00     0.010 A 
ATOM     35  C   UNL A   1      41.125  26.628  26.717  1.00  0.00     0.010 A 
ATOM     36  C   UNL A   1      41.687  26.818  27.972  1.00  0.00    -0.014 A 
BRANCH  36  37
ATOM     37  C   UNL A   1      41.515  28.122  28.596  1.00  0.00     0.031 A 
ATOM     38  C   UNL A   1      42.535  29.142  28.236  1.00  0.00     0.074 A 
ATOM     39  C   UNL A   1      40.404  28.448  29.293  1.00  0.00     0.049 A 
ATOM     40  N   UNL A   1      43.405  29.691  29.015  1.00  0.00    -0.248 NA
ATOM     41  C   UNL A   1      42.673  29.524  26.821  1.00  0.00     0.031 C 
ATOM     42  C   UNL A   1      39.167  27.676  29.481  1.00  0.00     0.029 A 
ATOM     43  N   UNL A   1      40.112  29.620  29.913  1.00  0.00    -0.354 N 
ATOM     44  C   UNL A   1      44.101  30.609  28.235  1.00  0.00     0.074 A 
ATOM     45  C   UNL A   1      43.709  30.366  26.871  1.00  0.00     0.031 C 
ATOM     46  C   UNL A   1      38.190  28.484  29.946  1.00  0.00     0.029 A 
ATOM     47  C   UNL A   1      38.780  29.767  30.274  1.00  0.00     0.049 A 
ATOM     48  H   UNL A   1      40.790  30.310  30.094  1.00  0.00     0.167 HD
ATOM     49  C   UNL A   1      44.792  31.638  28.800  1.00  0.00     0.037 A 
ATOM     50  C   UNL A   1      38.205  30.882  30.786  1.00  0.00     0.037 A 
ATOM     51  C   UNL A   1      44.981  31.436  30.212  1.00  0.00     0.049 A 
ATOM     52  C   UNL A   1      39.300  31.712  31.345  1.00  0.00     0.074 A 
ATOM     53  C   UNL A   1      45.638  30.490  30.975  1.00  0.00     0.029 A 
ATOM     54  N   UNL A   1      44.116  32.068  31.070  1.00  0.00    -0.354 N 
ATOM     55  N   UNL A   1      40.013  31.375  32.383  1.00  0.00    -0.248 NA
ATOM     56  C   UNL A   1      39.896  32.713  30.475  1.00  0.00     0.031 C 
ATOM     57  C   UNL A   1      44.791  30.273  32.103  1.00  0.00     0.029 A 
ATOM     58  C   UNL A   1      43.706  31.144  31.997  1.00  0.00     0.049 A 
ATOM     59  H   UNL A   1      43.841  33.013  31.028  1.00  0.00     0.167 HD
ATOM     60  C   UNL A   1      41.302  31.779  32.070  1.00  0.00     0.074 A 
ATOM     61  C   UNL A   1      41.151  32.680  30.930  1.00  0.00     0.031 C 
ATOM     62  C   UNL A   1      42.385  31.126  32.581  1.00  0.00     0.037 A 
BRANCH  49  63
ATOM     63  C   UNL A   1      45.003  32.979  28.152  1.00  0.00     0.064 A 
ATOM     64  C   UNL A   1      46.309  33.411  27.848  1.00  0.00     0.173 A 
ATOM     65  C   UNL A   1      43.997  33.965  28.082  1.00  0.00     0.173 A 
ATOM     66  F   UNL A   1      47.343  32.560  27.921  1.00  0.00    -0.203 F 
ATOM     67  C   UNL A   1      46.589  34.746  27.545  1.00  0.00     0.198 A 
ATOM     68  C   UNL A   1      44.272  35.284  27.727  1.00  0.00     0.198 A 
ATOM     69  F   UNL A   1      42.738  33.718  28.466  1.00  0.00    -0.203 F 
ATOM     70  F   UNL A   1      47.859  35.138  27.373  1.00  0.00    -0.200 F 
ATOM     71  C   UNL A   1      45.570  35.681  27.485  1.00  0.00     0.200 A 
ATOM     72  F   UNL A   1      43.276  36.180  27.699  1.00  0.00    -0.200 F 
ATOM     73  F   UNL A   1      45.843  36.970  27.245  1.00  0.00    -0.200 F 
ENDBRANCH  49  63
BRANCH  50  74
ATOM     74  C   UNL A   1      36.858  31.433  30.513  1.00  0.00     0.064 A 
ATOM     75  C   UNL A   1      35.972  31.693  31.573  1.00  0.00     0.173 A 
ATOM     76  C   UNL A   1      36.540  32.013  29.270  1.00  0.00     0.173 A 
ATOM     77  F   UNL A   1      36.222  31.199  32.794  1.00  0.00    -0.203 F 
ATOM     78  C   UNL A   1      34.867  32.534  31.413  1.00  0.00     0.198 A 
ATOM     79  C   UNL A   1      35.433  32.848  29.112  1.00  0.00     0.198 A 
ATOM     80  F   UNL A   1      37.353  31.869  28.213  1.00  0.00    -0.203 F 
ATOM     81  F   UNL A   1      34.094  32.826  32.469  1.00  0.00    -0.200 F 
ATOM     82  C   UNL A   1      34.610  33.126  30.188  1.00  0.00     0.200 A 
ATOM     83  F   UNL A   1      35.212  33.441  27.930  1.00  0.00    -0.200 F 
ATOM     84  F   UNL A   1      33.600  33.996  30.056  1.00  0.00    -0.200 F 
ENDBRANCH  50  74
BRANCH  62  85
ATOM     85  C   UNL A   1      42.147  30.144  33.697  1.00  0.00     0.064 A 
ATOM     86  C   UNL A   1      41.798  28.794  33.507  1.00  0.00     0.173 A 
ATOM     87  C   UNL A   1      42.412  30.558  35.009  1.00  0.00     0.173 A 
ATOM     88  F   UNL A   1      41.622  28.292  32.280  1.00  0.00    -0.203 F 
ATOM     89  C   UNL A   1      41.676  27.918  34.586  1.00  0.00     0.198 A 
ATOM     90  C   UNL A   1      42.326  29.673  36.080  1.00  0.00     0.198 A 
ATOM     91  F   UNL A   1      42.801  31.821  35.248  1.00  0.00    -0.203 F 
ATOM     92  F   UNL A   1      41.326  26.639  34.378  1.00  0.00    -0.200 F 
ATOM     93  C   UNL A   1      41.948  28.357  35.870  1.00  0.00     0.200 A 
ATOM     94  F   UNL A   1      42.638  30.091  37.314  1.00  0.00    -0.200 F 
ATOM     95  F   UNL A   1      41.870  27.507  36.903  1.00  0.00    -0.200 F 
ENDBRANCH  62  85
ENDBRANCH  36  37
ENDBRANCH  28  31
ENDBRANCH  26  27
ENDBRANCH  25  26
ENDBRANCH  24  25
ENDBRANCH   1  24
TORSDOF 16
ENDMDL
MODEL 3
REMARK VINA RESULT:     -11.4      2.881      4.231
REMARK SMILES Cc1cc(=O)n2nc(C[N@@H+](C)CC(=O)NCCCCCCNC(=O)c3ccc(-c4c5nc(c(-c6c(F)c(F)c(F)c(F)c6F)c6ccc([nH]6)c(-c6c(F)c(F)c(F)c(F)c6F)c6nc(c(-c7c(F)c(F)c(F)c(F)c7F)c7ccc4[nH]7)C=C6)C=C5)cc3)sc2n1
REMARK SMILES IDX 18 1 17 2 16 3 15 4 13 5 14 6 12 8 10 9 11 10 9 12 8 13 1 14
REMARK SMILES IDX 2 15 3 16 90 17 4 18 89 19 5 20 6 21 88 22 7 23 19 24 20 25
REMARK SMILES IDX 21 26 22 27 23 28 24 30 25 31 26 32 87 33 27 34 86 35 28 36
REMARK SMILES IDX 29 37 30 38 80 39 31 40 85 41 79 42 81 43 32 44 84 45 78 46
REMARK SMILES IDX 77 47 33 49 65 50 45 51 64 52 46 53 49 54 63 55 82 56 47 57
REMARK SMILES IDX 48 58 62 60 83 61 50 62 34 63 35 64 43 65 36 66 37 67 41 68
REMARK SMILES IDX 44 69 38 70 39 71 42 72 40 73 66 74 67 75 75 76 68 77 69 78
REMARK SMILES IDX 73 79 76 80 70 81 71 82 74 83 72 84 51 85 52 86 60 87 53 88
REMARK SMILES IDX 54 89 58 90 61 91 55 92 56 93 59 94 57 95
REMARK H PARENT 15 7 10 11 22 29 81 48 49 59
REMARK Flexibility Score: inf
ROOT
ATOM      1  C   UNL A   1      36.799  22.792  24.677  1.00  0.00     0.002 C 
ENDROOT
BRANCH   1   2
ATOM      2  C   UNL A   1      35.668  23.797  24.913  1.00  0.00     0.021 C 
BRANCH   2   3
ATOM      3  C   UNL A   1      34.353  23.446  24.214  1.00  0.00     0.116 C 
BRANCH   3   4
ATOM      4  N   UNL A   1      34.213  24.194  22.988  1.00  0.00    -0.351 N 
ATOM      5  C   UNL A   1      33.843  25.491  22.807  1.00  0.00     0.275 C 
ATOM      6  O   UNL A   1      33.679  25.882  21.650  1.00  0.00    -0.269 OA
ATOM      7  H   UNL A   1      34.413  23.695  22.163  1.00  0.00     0.163 HD
BRANCH   5   8
ATOM      8  C   UNL A   1      33.669  26.438  23.998  1.00  0.00     0.363 C 
BRANCH   8   9
ATOM      9  N   UNL A   1      32.345  26.428  24.644  1.00  0.00    -0.324 N 
ATOM     10  C   UNL A   1      32.278  25.885  25.984  1.00  0.00     0.333 C 
ATOM     11  H   UNL A   1      32.212  27.429  24.788  1.00  0.00     0.348 HD
BRANCH   9  12
ATOM     12  C   UNL A   1      31.217  26.027  23.792  1.00  0.00     0.333 C 
BRANCH  12  13
ATOM     13  C   UNL A   1      30.450  27.252  23.364  1.00  0.00     0.172 A 
ATOM     14  C   UNL A   1      28.220  32.222  20.906  1.00  0.00     0.067 C 
ATOM     15  C   UNL A   1      28.380  30.946  21.683  1.00  0.00     0.046 A 
ATOM     16  C   UNL A   1      27.320  30.337  22.238  1.00  0.00     0.097 A 
ATOM     17  N   UNL A   1      29.666  30.462  21.748  1.00  0.00    -0.224 NA
ATOM     18  C   UNL A   1      27.510  29.069  22.981  1.00  0.00     0.275 A 
ATOM     19  C   UNL A   1      29.807  29.341  22.369  1.00  0.00     0.215 A 
ATOM     20  O   UNL A   1      26.546  28.541  23.526  1.00  0.00    -0.267 OA
ATOM     21  N   UNL A   1      28.812  28.619  22.971  1.00  0.00    -0.167 N 
ATOM     22  S   UNL A   1      31.326  28.538  22.554  1.00  0.00    -0.073 S 
ATOM     23  N   UNL A   1      29.179  27.424  23.545  1.00  0.00    -0.150 NA
ENDBRANCH  12  13
ENDBRANCH   9  12
ENDBRANCH   8   9
ENDBRANCH   5   8
ENDBRANCH   3   4
ENDBRANCH   2   3
ENDBRANCH   1   2
BRANCH   1  24
ATOM     24  C   UNL A   1      37.529  22.299  25.933  1.00  0.00     0.002 C 
BRANCH  24  25
ATOM     25  C   UNL A   1      38.881  21.604  25.715  1.00  0.00     0.021 C 
BRANCH  25  26
ATOM     26  C   UNL A   1      39.973  22.058  26.668  1.00  0.00     0.116 C 
BRANCH  26  27
ATOM     27  N   UNL A   1      41.291  22.115  26.032  1.00  0.00    -0.352 N 
ATOM     28  C   UNL A   1      42.096  23.218  25.829  1.00  0.00     0.251 C 
ATOM     29  H   UNL A   1      41.648  21.257  25.708  1.00  0.00     0.163 HD
ATOM     30  O   UNL A   1      42.991  23.208  24.987  1.00  0.00    -0.269 OA
BRANCH  28  31
ATOM     31  C   UNL A   1      41.866  24.412  26.653  1.00  0.00     0.039 A 
ATOM     32  C   UNL A   1      42.434  24.563  27.920  1.00  0.00     0.014 A 
ATOM     33  C   UNL A   1      41.086  25.419  26.097  1.00  0.00     0.014 A 
ATOM     34  C   UNL A   1      42.262  25.773  28.587  1.00  0.00     0.010 A 
ATOM     35  C   UNL A   1      41.102  26.668  26.652  1.00  0.00     0.010 A 
ATOM     36  C   UNL A   1      41.602  26.828  27.936  1.00  0.00    -0.014 A 
BRANCH  36  37
ATOM     37  C   UNL A   1      41.441  28.132  28.563  1.00  0.00     0.031 A 
ATOM     38  C   UNL A   1      42.465  29.146  28.200  1.00  0.00     0.074 A 
ATOM     39  C   UNL A   1      40.335  28.464  29.265  1.00  0.00     0.049 A 
ATOM     40  N   UNL A   1      43.342  29.689  28.976  1.00  0.00    -0.248 NA
ATOM     41  C   UNL A   1      42.600  29.530  26.785  1.00  0.00     0.031 C 
ATOM     42  C   UNL A   1      39.094  27.699  29.457  1.00  0.00     0.029 A 
ATOM     43  N   UNL A   1      40.052  29.638  29.888  1.00  0.00    -0.354 N 
ATOM     44  C   UNL A   1      44.040  30.604  28.194  1.00  0.00     0.074 A 
ATOM     45  C   UNL A   1      43.641  30.365  26.831  1.00  0.00     0.031 C 
ATOM     46  C   UNL A   1      38.124  28.513  29.927  1.00  0.00     0.029 A 
ATOM     47  C   UNL A   1      38.722  29.792  30.254  1.00  0.00     0.049 A 
ATOM     48  H   UNL A   1      40.735  30.323  30.066  1.00  0.00     0.167 HD
ATOM     49  C   UNL A   1      44.740  31.629  28.758  1.00  0.00     0.037 A 
ATOM     50  C   UNL A   1      38.157  30.909  30.770  1.00  0.00     0.037 A 
ATOM     51  C   UNL A   1      44.933  31.423  30.169  1.00  0.00     0.049 A 
ATOM     52  C   UNL A   1      39.258  31.732  31.326  1.00  0.00     0.074 A 
ATOM     53  C   UNL A   1      45.588  30.472  30.928  1.00  0.00     0.029 A 
ATOM     54  N   UNL A   1      44.076  32.060  31.031  1.00  0.00    -0.354 N 
ATOM     55  N   UNL A   1      39.974  31.389  32.360  1.00  0.00    -0.248 NA
ATOM     56  C   UNL A   1      39.857  32.730  30.454  1.00  0.00     0.031 C 
ATOM     57  C   UNL A   1      44.745  30.259  32.059  1.00  0.00     0.029 A 
ATOM     58  C   UNL A   1      43.664  31.137  31.959  1.00  0.00     0.049 A 
ATOM     59  H   UNL A   1      43.806  33.006  30.992  1.00  0.00     0.167 HD
ATOM     60  C   UNL A   1      41.264  31.786  32.043  1.00  0.00     0.074 A 
ATOM     61  C   UNL A   1      41.114  32.689  30.905  1.00  0.00     0.031 C 
ATOM     62  C   UNL A   1      42.346  31.126  32.549  1.00  0.00     0.037 A 
BRANCH  49  63
ATOM     63  C   UNL A   1      44.956  32.969  28.110  1.00  0.00     0.064 A 
ATOM     64  C   UNL A   1      46.259  33.374  27.761  1.00  0.00     0.173 A 
ATOM     65  C   UNL A   1      43.970  33.977  28.085  1.00  0.00     0.173 A 
ATOM     66  F   UNL A   1      47.276  32.500  27.790  1.00  0.00    -0.203 F 
ATOM     67  C   UNL A   1      46.557  34.705  27.456  1.00  0.00     0.198 A 
ATOM     68  C   UNL A   1      44.261  35.292  27.727  1.00  0.00     0.198 A 
ATOM     69  F   UNL A   1      42.721  33.755  28.513  1.00  0.00    -0.203 F 
ATOM     70  F   UNL A   1      47.828  35.070  27.239  1.00  0.00    -0.200 F 
ATOM     71  C   UNL A   1      45.558  35.662  27.440  1.00  0.00     0.200 A 
ATOM     72  F   UNL A   1      43.285  36.210  27.742  1.00  0.00    -0.200 F 
ATOM     73  F   UNL A   1      45.851  36.947  27.198  1.00  0.00    -0.200 F 
ENDBRANCH  49  63
BRANCH  50  74
ATOM     74  C   UNL A   1      36.812  31.469  30.503  1.00  0.00     0.064 A 
ATOM     75  C   UNL A   1      35.947  31.772  31.569  1.00  0.00     0.173 A 
ATOM     76  C   UNL A   1      36.480  32.016  29.249  1.00  0.00     0.173 A 
ATOM     77  F   UNL A   1      36.212  31.311  32.801  1.00  0.00    -0.203 F 
ATOM     78  C   UNL A   1      34.850  32.621  31.403  1.00  0.00     0.198 A 
ATOM     79  C   UNL A   1      35.380  32.859  29.085  1.00  0.00     0.198 A 
ATOM     80  F   UNL A   1      37.273  31.830  28.184  1.00  0.00    -0.203 F 
ATOM     81  F   UNL A   1      34.099  32.955  32.463  1.00  0.00    -0.200 F 
ATOM     82  C   UNL A   1      34.579  33.179  30.166  1.00  0.00     0.200 A 
ATOM     83  F   UNL A   1      35.146  33.420  27.889  1.00  0.00    -0.200 F 
ATOM     84  F   UNL A   1      33.578  34.058  30.024  1.00  0.00    -0.200 F 
ENDBRANCH  50  74
BRANCH  62  85
ATOM     85  C   UNL A   1      42.105  30.144  33.664  1.00  0.00     0.064 A 
ATOM     86  C   UNL A   1      41.758  28.794  33.474  1.00  0.00     0.173 A 
ATOM     87  C   UNL A   1      42.368  30.558  34.976  1.00  0.00     0.173 A 
ATOM     88  F   UNL A   1      41.585  28.291  32.246  1.00  0.00    -0.203 F 
ATOM     89  C   UNL A   1      41.634  27.918  34.553  1.00  0.00     0.198 A 
ATOM     90  C   UNL A   1      42.281  29.673  36.047  1.00  0.00     0.198 A 
ATOM     91  F   UNL A   1      42.756  31.821  35.216  1.00  0.00    -0.203 F 
ATOM     92  F   UNL A   1      41.286  26.639  34.344  1.00  0.00    -0.200 F 
ATOM     93  C   UNL A   1      41.904  28.357  35.837  1.00  0.00     0.200 A 
ATOM     94  F   UNL A   1      42.590  30.092  37.282  1.00  0.00    -0.200 F 
ATOM     95  F   UNL A   1      41.825  27.507  36.870  1.00  0.00    -0.200 F 
ENDBRANCH  62  85
ENDBRANCH  36  37
ENDBRANCH  28  31
ENDBRANCH  26  27
ENDBRANCH  25  26
ENDBRANCH  24  25
ENDBRANCH   1  24
TORSDOF 16
ENDMDL
