MODEL 1
REMARK VINA RESULT:     -11.7      0.000      0.000
REMARK SMILES CSc1ccc(C[C@H]([NH3+])C(=O)NCCCCCCNC(=O)c2ccc(-c3c4nc(c(-c5c(F)c(F)c(F)c(F)c5F)c5ccc([nH]5)c(-c5c(F)c(F)c(F)c(F)c5F)c5nc(c(-c6c(F)c(F)c(F)c(F)c6F)c6ccc3[nH]6)C=C5)C=C4)cc2)cc1
REMARK SMILES IDX 15 1 14 2 13 3 12 4 10 5 11 6 8 8 7 9 6 10 3 11 4 12 86 13
REMARK SMILES IDX 5 14 85 15 2 16 1 17 9 18 16 22 17 23 18 24 19 25 20 26
REMARK SMILES IDX 21 28 22 29 23 30 84 31 24 32 83 33 25 34 26 35 27 36 77 37
REMARK SMILES IDX 28 38 82 39 76 40 78 41 29 42 81 43 75 44 74 45 30 47 62 48
REMARK SMILES IDX 42 49 61 50 43 51 46 52 60 53 79 54 44 55 45 56 59 58 80 59
REMARK SMILES IDX 47 60 31 61 32 62 40 63 33 64 34 65 38 66 41 67 35 68 36 69
REMARK SMILES IDX 39 70 37 71 63 72 64 73 72 74 65 75 66 76 70 77 73 78 67 79
REMARK SMILES IDX 68 80 71 81 69 82 48 83 49 84 57 85 50 86 51 87 55 88 58 89
REMARK SMILES IDX 52 90 53 91 56 92 54 93
REMARK H PARENT 12 7 9 19 9 20 9 21 19 27 78 46 46 57
REMARK Flexibility Score: inf
ROOT
ATOM      1  C   UNL A   1      32.428  29.993  26.740  1.00  0.00     0.002 C 
ENDROOT
BRANCH   1   2
ATOM      2  C   UNL A   1      31.794  28.715  27.304  1.00  0.00     0.021 C 
BRANCH   2   3
ATOM      3  C   UNL A   1      31.707  27.551  26.322  1.00  0.00     0.116 C 
BRANCH   3   4
ATOM      4  N   UNL A   1      30.821  26.492  26.751  1.00  0.00    -0.351 N 
ATOM      5  C   UNL A   1      30.086  25.628  25.990  1.00  0.00     0.278 C 
ATOM      6  O   UNL A   1      29.556  24.670  26.565  1.00  0.00    -0.268 OA
ATOM      7  H   UNL A   1      30.735  26.377  27.725  1.00  0.00     0.163 HD
BRANCH   5   8
ATOM      8  C   UNL A   1      29.889  25.816  24.465  1.00  0.00     0.275 C 
BRANCH   8   9
ATOM      9  C   UNL A   1      28.561  26.454  23.996  1.00  0.00     0.111 C 
BRANCH   9  10
ATOM     10  C   UNL A   1      28.584  27.864  23.465  1.00  0.00    -0.041 A 
ATOM     11  C   UNL A   1      28.634  30.567  22.629  1.00  0.00     0.007 A 
ATOM     12  C   UNL A   1      27.422  29.880  22.749  1.00  0.00     0.015 A 
ATOM     13  C   UNL A   1      29.820  29.867  22.881  1.00  0.00     0.015 A 
ATOM     14  C   UNL A   1      27.399  28.536  23.147  1.00  0.00     0.005 A 
ATOM     15  C   UNL A   1      29.799  28.534  23.297  1.00  0.00     0.005 A 
BRANCH  11  16
ATOM     16  S   UNL A   1      28.804  32.299  22.216  1.00  0.00    -0.130 SA
ATOM     17  C   UNL A   1      27.857  32.475  20.685  1.00  0.00     0.091 C 
ENDBRANCH  11  16
ENDBRANCH   9  10
ENDBRANCH   8   9
BRANCH   8  18
ATOM     18  N   UNL A   1      30.230  24.582  23.711  1.00  0.00    -0.347 N 
ATOM     19  H   UNL A   1      31.227  24.580  23.496  1.00  0.00     0.345 HD
ATOM     20  H   UNL A   1      29.695  24.554  22.843  1.00  0.00     0.345 HD
ATOM     21  H   UNL A   1      30.003  23.764  24.277  1.00  0.00     0.345 HD
ENDBRANCH   8  18
ENDBRANCH   5   8
ENDBRANCH   3   4
ENDBRANCH   2   3
ENDBRANCH   1   2
BRANCH   1  22
ATOM     22  C   UNL A   1      31.480  30.965  26.026  1.00  0.00     0.002 C 
BRANCH  22  23
ATOM     23  C   UNL A   1      31.318  32.342  26.673  1.00  0.00     0.021 C 
BRANCH  23  24
ATOM     24  C   UNL A   1      32.594  32.958  27.233  1.00  0.00     0.116 C 
BRANCH  24  25
ATOM     25  N   UNL A   1      32.409  34.333  27.666  1.00  0.00    -0.352 N 
ATOM     26  C   UNL A   1      33.039  35.024  28.672  1.00  0.00     0.251 C 
ATOM     27  H   UNL A   1      31.735  34.846  27.163  1.00  0.00     0.163 HD
ATOM     28  O   UNL A   1      32.652  36.143  28.995  1.00  0.00    -0.269 OA
BRANCH  26  29
ATOM     29  C   UNL A   1      34.170  34.404  29.395  1.00  0.00     0.039 A 
ATOM     30  C   UNL A   1      33.915  33.690  30.570  1.00  0.00     0.014 A 
ATOM     31  C   UNL A   1      35.477  34.515  28.913  1.00  0.00     0.014 A 
ATOM     32  C   UNL A   1      34.958  33.025  31.218  1.00  0.00     0.010 A 
ATOM     33  C   UNL A   1      36.500  33.790  29.516  1.00  0.00     0.010 A 
ATOM     34  C   UNL A   1      36.251  33.035  30.672  1.00  0.00    -0.014 A 
BRANCH  34  35
ATOM     35  C   UNL A   1      37.364  32.265  31.283  1.00  0.00     0.031 A 
ATOM     36  C   UNL A   1      37.877  32.642  32.644  1.00  0.00     0.074 A 
ATOM     37  C   UNL A   1      37.972  31.293  30.576  1.00  0.00     0.049 A 
ATOM     38  N   UNL A   1      38.925  32.194  33.289  1.00  0.00    -0.248 NA
ATOM     39  C   UNL A   1      37.128  33.685  33.363  1.00  0.00     0.031 C 
ATOM     40  C   UNL A   1      37.590  30.858  29.232  1.00  0.00     0.029 A 
ATOM     41  N   UNL A   1      39.058  30.509  30.882  1.00  0.00    -0.354 N 
ATOM     42  C   UNL A   1      38.973  32.916  34.475  1.00  0.00     0.074 A 
ATOM     43  C   UNL A   1      37.879  33.863  34.440  1.00  0.00     0.031 C 
ATOM     44  C   UNL A   1      38.419  29.880  28.834  1.00  0.00     0.029 A 
ATOM     45  C   UNL A   1      39.420  29.650  29.872  1.00  0.00     0.049 A 
ATOM     46  H   UNL A   1      39.532  30.559  31.743  1.00  0.00     0.167 HD
ATOM     47  C   UNL A   1      39.840  32.786  35.508  1.00  0.00     0.037 A 
ATOM     48  C   UNL A   1      40.451  28.788  29.787  1.00  0.00     0.037 A 
ATOM     49  C   UNL A   1      40.909  31.823  35.548  1.00  0.00     0.049 A 
ATOM     50  C   UNL A   1      41.409  28.673  30.941  1.00  0.00     0.074 A 
ATOM     51  C   UNL A   1      41.808  31.573  36.571  1.00  0.00     0.029 A 
ATOM     52  N   UNL A   1      41.224  30.950  34.517  1.00  0.00    -0.354 N 
ATOM     53  N   UNL A   1      41.413  29.320  32.081  1.00  0.00    -0.248 NA
ATOM     54  C   UNL A   1      42.504  27.703  30.801  1.00  0.00     0.031 C 
ATOM     55  C   UNL A   1      42.695  30.583  36.141  1.00  0.00     0.029 A 
ATOM     56  C   UNL A   1      42.316  30.175  34.872  1.00  0.00     0.049 A 
ATOM     57  H   UNL A   1      40.743  30.890  33.660  1.00  0.00     0.167 HD
ATOM     58  C   UNL A   1      42.482  28.813  32.806  1.00  0.00     0.074 A 
ATOM     59  C   UNL A   1      43.103  27.798  31.980  1.00  0.00     0.031 C 
ATOM     60  C   UNL A   1      42.908  29.154  34.047  1.00  0.00     0.037 A 
BRANCH  47  61
ATOM     61  C   UNL A   1      39.670  33.709  36.680  1.00  0.00     0.064 A 
ATOM     62  C   UNL A   1      40.290  34.967  36.724  1.00  0.00     0.173 A 
ATOM     63  C   UNL A   1      38.846  33.347  37.756  1.00  0.00     0.173 A 
ATOM     64  F   UNL A   1      41.097  35.358  35.726  1.00  0.00    -0.203 F 
ATOM     65  C   UNL A   1      40.116  35.814  37.815  1.00  0.00     0.198 A 
ATOM     66  C   UNL A   1      38.649  34.210  38.831  1.00  0.00     0.198 A 
ATOM     67  F   UNL A   1      38.224  32.159  37.763  1.00  0.00    -0.203 F 
ATOM     68  F   UNL A   1      40.760  36.989  37.858  1.00  0.00    -0.200 F 
ATOM     69  C   UNL A   1      39.290  35.440  38.864  1.00  0.00     0.200 A 
ATOM     70  F   UNL A   1      37.838  33.852  39.836  1.00  0.00    -0.200 F 
ATOM     71  F   UNL A   1      39.117  36.259  39.909  1.00  0.00    -0.200 F 
ENDBRANCH  47  61
BRANCH  48  72
ATOM     72  C   UNL A   1      40.624  27.955  28.567  1.00  0.00     0.064 A 
ATOM     73  C   UNL A   1      41.386  28.415  27.485  1.00  0.00     0.173 A 
ATOM     74  C   UNL A   1      40.030  26.688  28.455  1.00  0.00     0.173 A 
ATOM     75  F   UNL A   1      41.957  29.627  27.536  1.00  0.00    -0.203 F 
ATOM     76  C   UNL A   1      41.532  27.650  26.329  1.00  0.00     0.198 A 
ATOM     77  C   UNL A   1      40.201  25.912  27.311  1.00  0.00     0.198 A 
ATOM     78  F   UNL A   1      39.295  26.199  29.465  1.00  0.00    -0.203 F 
ATOM     79  F   UNL A   1      42.228  28.134  25.291  1.00  0.00    -0.200 F 
ATOM     80  C   UNL A   1      40.944  26.397  26.246  1.00  0.00     0.200 A 
ATOM     81  F   UNL A   1      39.643  24.696  27.240  1.00  0.00    -0.200 F 
ATOM     82  F   UNL A   1      41.087  25.660  25.136  1.00  0.00    -0.200 F 
ENDBRANCH  48  72
BRANCH  60  83
ATOM     83  C   UNL A   1      44.068  28.390  34.616  1.00  0.00     0.064 A 
ATOM     84  C   UNL A   1      45.388  28.847  34.491  1.00  0.00     0.173 A 
ATOM     85  C   UNL A   1      43.845  27.216  35.351  1.00  0.00     0.173 A 
ATOM     86  F   UNL A   1      45.655  29.955  33.784  1.00  0.00    -0.203 F 
ATOM     87  C   UNL A   1      46.444  28.146  35.067  1.00  0.00     0.198 A 
ATOM     88  C   UNL A   1      44.900  26.534  35.952  1.00  0.00     0.198 A 
ATOM     89  F   UNL A   1      42.600  26.741  35.506  1.00  0.00    -0.203 F 
ATOM     90  F   UNL A   1      47.702  28.578  34.903  1.00  0.00    -0.200 F 
ATOM     91  C   UNL A   1      46.198  26.997  35.805  1.00  0.00     0.200 A 
ATOM     92  F   UNL A   1      44.659  25.433  36.677  1.00  0.00    -0.200 F 
ATOM     93  F   UNL A   1      47.215  26.332  36.371  1.00  0.00    -0.200 F 
ENDBRANCH  60  83
ENDBRANCH  34  35
ENDBRANCH  26  29
ENDBRANCH  24  25
ENDBRANCH  23  24
ENDBRANCH  22  23
ENDBRANCH   1  22
TORSDOF 17
ENDMDL
MODEL 2
REMARK VINA RESULT:     -11.6      0.568      7.565
REMARK SMILES CSc1ccc(C[C@H]([NH3+])C(=O)NCCCCCCNC(=O)c2ccc(-c3c4nc(c(-c5c(F)c(F)c(F)c(F)c5F)c5ccc([nH]5)c(-c5c(F)c(F)c(F)c(F)c5F)c5nc(c(-c6c(F)c(F)c(F)c(F)c6F)c6ccc3[nH]6)C=C5)C=C4)cc2)cc1
REMARK SMILES IDX 15 1 14 2 13 3 12 4 10 5 11 6 8 8 7 9 6 10 3 11 4 12 86 13
REMARK SMILES IDX 5 14 85 15 2 16 1 17 9 18 16 22 17 23 18 24 19 25 20 26
REMARK SMILES IDX 21 28 22 29 23 30 84 31 24 32 83 33 25 34 26 35 27 36 77 37
REMARK SMILES IDX 28 38 82 39 76 40 78 41 29 42 81 43 75 44 74 45 30 47 62 48
REMARK SMILES IDX 42 49 61 50 43 51 46 52 60 53 79 54 44 55 45 56 59 58 80 59
REMARK SMILES IDX 47 60 31 61 32 62 40 63 33 64 34 65 38 66 41 67 35 68 36 69
REMARK SMILES IDX 39 70 37 71 63 72 64 73 72 74 65 75 66 76 70 77 73 78 67 79
REMARK SMILES IDX 68 80 71 81 69 82 48 83 49 84 57 85 50 86 51 87 55 88 58 89
REMARK SMILES IDX 52 90 53 91 56 92 54 93
REMARK H PARENT 12 7 9 19 9 20 9 21 19 27 78 46 46 57
REMARK Flexibility Score: inf
ROOT
ATOM      1  C   UNL A   1      32.871  29.793  27.195  1.00  0.00     0.002 C 
ENDROOT
BRANCH   1   2
ATOM      2  C   UNL A   1      33.069  28.286  26.988  1.00  0.00     0.021 C 
BRANCH   2   3
ATOM      3  C   UNL A   1      32.127  27.644  25.974  1.00  0.00     0.116 C 
BRANCH   3   4
ATOM      4  N   UNL A   1      31.123  26.792  26.569  1.00  0.00    -0.351 N 
ATOM      5  C   UNL A   1      30.239  25.950  25.954  1.00  0.00     0.278 C 
ATOM      6  O   UNL A   1      29.609  25.164  26.671  1.00  0.00    -0.268 OA
ATOM      7  H   UNL A   1      31.068  26.822  27.551  1.00  0.00     0.163 HD
BRANCH   5   8
ATOM      8  C   UNL A   1      30.000  25.960  24.424  1.00  0.00     0.275 C 
BRANCH   8   9
ATOM      9  C   UNL A   1      28.669  26.564  23.920  1.00  0.00     0.111 C 
BRANCH   9  10
ATOM     10  C   UNL A   1      28.645  28.012  23.504  1.00  0.00    -0.041 A 
ATOM     11  C   UNL A   1      28.620  30.680  22.561  1.00  0.00     0.007 A 
ATOM     12  C   UNL A   1      29.798  30.107  23.047  1.00  0.00     0.015 A 
ATOM     13  C   UNL A   1      27.446  29.919  22.604  1.00  0.00     0.015 A 
ATOM     14  C   UNL A   1      29.807  28.791  23.530  1.00  0.00     0.005 A 
ATOM     15  C   UNL A   1      27.456  28.600  23.066  1.00  0.00     0.005 A 
BRANCH  11  16
ATOM     16  S   UNL A   1      28.484  32.311  21.839  1.00  0.00    -0.130 SA
ATOM     17  C   UNL A   1      29.101  33.412  23.136  1.00  0.00     0.091 C 
ENDBRANCH  11  16
ENDBRANCH   9  10
ENDBRANCH   8   9
BRANCH   8  18
ATOM     18  N   UNL A   1      30.299  24.639  23.814  1.00  0.00    -0.347 N 
ATOM     19  H   UNL A   1      29.483  24.034  23.895  1.00  0.00     0.345 HD
ATOM     20  H   UNL A   1      31.089  24.211  24.299  1.00  0.00     0.345 HD
ATOM     21  H   UNL A   1      30.533  24.764  22.829  1.00  0.00     0.345 HD
ENDBRANCH   8  18
ENDBRANCH   5   8
ENDBRANCH   3   4
ENDBRANCH   2   3
ENDBRANCH   1   2
BRANCH   1  22
ATOM     22  C   UNL A   1      31.668  30.425  26.483  1.00  0.00     0.002 C 
BRANCH  22  23
ATOM     23  C   UNL A   1      31.542  31.945  26.600  1.00  0.00     0.021 C 
BRANCH  23  24
ATOM     24  C   UNL A   1      32.694  32.647  27.307  1.00  0.00     0.116 C 
BRANCH  24  25
ATOM     25  N   UNL A   1      32.405  34.040  27.604  1.00  0.00    -0.352 N 
ATOM     26  C   UNL A   1      32.993  34.878  28.519  1.00  0.00     0.251 C 
ATOM     27  H   UNL A   1      31.682  34.443  27.070  1.00  0.00     0.163 HD
ATOM     28  O   UNL A   1      32.521  35.990  28.737  1.00  0.00    -0.269 OA
BRANCH  26  29
ATOM     29  C   UNL A   1      34.184  34.428  29.271  1.00  0.00     0.039 A 
ATOM     30  C   UNL A   1      34.010  33.832  30.523  1.00  0.00     0.014 A 
ATOM     31  C   UNL A   1      35.468  34.583  28.741  1.00  0.00     0.014 A 
ATOM     32  C   UNL A   1      35.115  33.322  31.209  1.00  0.00     0.010 A 
ATOM     33  C   UNL A   1      36.557  34.008  29.388  1.00  0.00     0.010 A 
ATOM     34  C   UNL A   1      36.391  33.369  30.627  1.00  0.00    -0.014 A 
BRANCH  34  35
ATOM     35  C   UNL A   1      37.574  32.756  31.285  1.00  0.00     0.031 A 
ATOM     36  C   UNL A   1      38.295  31.618  30.619  1.00  0.00     0.074 A 
ATOM     37  C   UNL A   1      37.937  33.158  32.518  1.00  0.00     0.049 A 
ATOM     38  N   UNL A   1      39.252  30.856  31.085  1.00  0.00    -0.248 NA
ATOM     39  C   UNL A   1      37.860  31.272  29.256  1.00  0.00     0.031 C 
ATOM     40  C   UNL A   1      37.295  34.227  33.283  1.00  0.00     0.029 A 
ATOM     41  N   UNL A   1      38.923  32.697  33.356  1.00  0.00    -0.354 N 
ATOM     42  C   UNL A   1      39.515  29.928  30.085  1.00  0.00     0.074 A 
ATOM     43  C   UNL A   1      38.586  30.192  29.007  1.00  0.00     0.031 C 
ATOM     44  C   UNL A   1      37.909  34.348  34.471  1.00  0.00     0.029 A 
ATOM     45  C   UNL A   1      38.956  33.336  34.572  1.00  0.00     0.049 A 
ATOM     46  H   UNL A   1      39.546  31.976  33.108  1.00  0.00     0.167 HD
ATOM     47  C   UNL A   1      40.460  28.958  30.062  1.00  0.00     0.037 A 
ATOM     48  C   UNL A   1      39.731  33.118  35.652  1.00  0.00     0.037 A 
ATOM     49  C   UNL A   1      41.399  28.718  31.126  1.00  0.00     0.049 A 
ATOM     50  C   UNL A   1      40.763  32.024  35.606  1.00  0.00     0.074 A 
ATOM     51  C   UNL A   1      42.430  27.797  31.176  1.00  0.00     0.029 A 
ATOM     52  N   UNL A   1      41.419  29.408  32.329  1.00  0.00    -0.354 N 
ATOM     53  N   UNL A   1      41.042  31.189  34.634  1.00  0.00    -0.248 NA
ATOM     54  C   UNL A   1      41.594  31.843  36.805  1.00  0.00     0.031 C 
ATOM     55  C   UNL A   1      43.044  27.895  32.427  1.00  0.00     0.029 A 
ATOM     56  C   UNL A   1      42.432  28.917  33.137  1.00  0.00     0.049 A 
ATOM     57  H   UNL A   1      40.804  30.136  32.574  1.00  0.00     0.167 HD
ATOM     58  C   UNL A   1      42.099  30.412  35.088  1.00  0.00     0.074 A 
ATOM     59  C   UNL A   1      42.417  30.878  36.422  1.00  0.00     0.031 C 
ATOM     60  C   UNL A   1      42.750  29.407  34.454  1.00  0.00     0.037 A 
BRANCH  47  61
ATOM     61  C   UNL A   1      40.524  28.079  28.845  1.00  0.00     0.064 A 
ATOM     62  C   UNL A   1      39.824  26.866  28.774  1.00  0.00     0.173 A 
ATOM     63  C   UNL A   1      41.267  28.473  27.722  1.00  0.00     0.173 A 
ATOM     64  F   UNL A   1      39.108  26.437  29.825  1.00  0.00    -0.203 F 
ATOM     65  C   UNL A   1      39.889  26.066  27.636  1.00  0.00     0.198 A 
ATOM     66  C   UNL A   1      41.303  27.687  26.574  1.00  0.00     0.198 A 
ATOM     67  F   UNL A   1      41.950  29.628  27.733  1.00  0.00    -0.203 F 
ATOM     68  F   UNL A   1      39.252  24.886  27.612  1.00  0.00    -0.200 F 
ATOM     69  C   UNL A   1      40.621  26.480  26.534  1.00  0.00     0.200 A 
ATOM     70  F   UNL A   1      41.999  28.096  25.504  1.00  0.00    -0.200 F 
ATOM     71  F   UNL A   1      40.676  25.713  25.437  1.00  0.00    -0.200 F 
ENDBRANCH  47  61
BRANCH  48  72
ATOM     72  C   UNL A   1      39.571  33.963  36.864  1.00  0.00     0.064 A 
ATOM     73  C   UNL A   1      40.214  35.205  36.964  1.00  0.00     0.173 A 
ATOM     74  C   UNL A   1      38.779  33.550  37.946  1.00  0.00     0.173 A 
ATOM     75  F   UNL A   1      40.998  35.634  35.965  1.00  0.00    -0.203 F 
ATOM     76  C   UNL A   1      40.089  35.991  38.107  1.00  0.00     0.198 A 
ATOM     77  C   UNL A   1      38.631  34.351  39.076  1.00  0.00     0.198 A 
ATOM     78  F   UNL A   1      38.137  32.373  37.899  1.00  0.00    -0.203 F 
ATOM     79  F   UNL A   1      40.753  37.152  38.195  1.00  0.00    -0.200 F 
ATOM     80  C   UNL A   1      39.293  35.566  39.160  1.00  0.00     0.200 A 
ATOM     81  F   UNL A   1      37.848  33.944  40.085  1.00  0.00    -0.200 F 
ATOM     82  F   UNL A   1      39.170  36.325  40.258  1.00  0.00    -0.200 F 
ENDBRANCH  48  72
BRANCH  60  83
ATOM     83  C   UNL A   1      43.909  28.773  35.166  1.00  0.00     0.064 A 
ATOM     84  C   UNL A   1      43.742  27.672  36.018  1.00  0.00     0.173 A 
ATOM     85  C   UNL A   1      45.214  29.240  34.941  1.00  0.00     0.173 A 
ATOM     86  F   UNL A   1      42.514  27.199  36.278  1.00  0.00    -0.203 F 
ATOM     87  C   UNL A   1      44.839  27.072  36.633  1.00  0.00     0.198 A 
ATOM     88  C   UNL A   1      46.310  28.618  35.533  1.00  0.00     0.198 A 
ATOM     89  F   UNL A   1      45.427  30.286  34.129  1.00  0.00    -0.203 F 
ATOM     90  F   UNL A   1      44.653  26.046  37.474  1.00  0.00    -0.200 F 
ATOM     91  C   UNL A   1      46.121  27.539  36.382  1.00  0.00     0.200 A 
ATOM     92  F   UNL A   1      47.549  29.060  35.277  1.00  0.00    -0.200 F 
ATOM     93  F   UNL A   1      47.175  26.950  36.962  1.00  0.00    -0.200 F 
ENDBRANCH  60  83
ENDBRANCH  34  35
ENDBRANCH  26  29
ENDBRANCH  24  25
ENDBRANCH  23  24
ENDBRANCH  22  23
ENDBRANCH   1  22
TORSDOF 17
ENDMDL
MODEL 3
REMARK VINA RESULT:     -11.1      2.760      3.864
REMARK SMILES CSc1ccc(C[C@H]([NH3+])C(=O)NCCCCCCNC(=O)c2ccc(-c3c4nc(c(-c5c(F)c(F)c(F)c(F)c5F)c5ccc([nH]5)c(-c5c(F)c(F)c(F)c(F)c5F)c5nc(c(-c6c(F)c(F)c(F)c(F)c6F)c6ccc3[nH]6)C=C5)C=C4)cc2)cc1
REMARK SMILES IDX 15 1 14 2 13 3 12 4 10 5 11 6 8 8 7 9 6 10 3 11 4 12 86 13
REMARK SMILES IDX 5 14 85 15 2 16 1 17 9 18 16 22 17 23 18 24 19 25 20 26
REMARK SMILES IDX 21 28 22 29 23 30 84 31 24 32 83 33 25 34 26 35 27 36 77 37
REMARK SMILES IDX 28 38 82 39 76 40 78 41 29 42 81 43 75 44 74 45 30 47 62 48
REMARK SMILES IDX 42 49 61 50 43 51 46 52 60 53 79 54 44 55 45 56 59 58 80 59
REMARK SMILES IDX 47 60 31 61 32 62 40 63 33 64 34 65 38 66 41 67 35 68 36 69
REMARK SMILES IDX 39 70 37 71 63 72 64 73 72 74 65 75 66 76 70 77 73 78 67 79
REMARK SMILES IDX 68 80 71 81 69 82 48 83 49 84 57 85 50 86 51 87 55 88 58 89
REMARK SMILES IDX 52 90 53 91 56 92 54 93
REMARK H PARENT 12 7 9 19 9 20 9 21 19 27 78 46 46 57
REMARK Flexibility Score: inf
ROOT
ATOM      1  C   UNL A   1      34.971  32.726  27.936  1.00  0.00     0.002 C 
ENDROOT
BRANCH   1   2
ATOM      2  C   UNL A   1      35.577  31.344  28.214  1.00  0.00     0.021 C 
BRANCH   2   3
ATOM      3  C   UNL A   1      34.802  30.170  27.623  1.00  0.00     0.116 C 
BRANCH   3   4
ATOM      4  N   UNL A   1      33.643  30.565  26.854  1.00  0.00    -0.351 N 
ATOM      5  C   UNL A   1      32.482  29.877  26.640  1.00  0.00     0.278 C 
ATOM      6  O   UNL A   1      31.544  30.492  26.120  1.00  0.00    -0.268 OA
ATOM      7  H   UNL A   1      33.697  31.449  26.427  1.00  0.00     0.163 HD
BRANCH   5   8
ATOM      8  C   UNL A   1      32.314  28.382  27.009  1.00  0.00     0.275 C 
BRANCH   8   9
ATOM      9  C   UNL A   1      32.017  27.397  25.855  1.00  0.00     0.111 C 
BRANCH   9  10
ATOM     10  C   UNL A   1      32.567  25.997  25.940  1.00  0.00    -0.041 A 
ATOM     11  C   UNL A   1      33.650  23.403  26.259  1.00  0.00     0.007 A 
ATOM     12  C   UNL A   1      34.396  24.416  25.651  1.00  0.00     0.015 A 
ATOM     13  C   UNL A   1      32.338  23.691  26.654  1.00  0.00     0.015 A 
ATOM     14  C   UNL A   1      33.853  25.697  25.479  1.00  0.00     0.005 A 
ATOM     15  C   UNL A   1      31.802  24.972  26.501  1.00  0.00     0.005 A 
BRANCH  11  16
ATOM     16  S   UNL A   1      34.245  21.755  26.619  1.00  0.00    -0.130 SA
ATOM     17  C   UNL A   1      35.830  21.666  25.751  1.00  0.00     0.091 C 
ENDBRANCH  11  16
ENDBRANCH   9  10
ENDBRANCH   8   9
BRANCH   8  18
ATOM     18  N   UNL A   1      31.400  28.202  28.167  1.00  0.00    -0.347 N 
ATOM     19  H   UNL A   1      31.886  28.456  29.026  1.00  0.00     0.345 HD
ATOM     20  H   UNL A   1      31.105  27.227  28.219  1.00  0.00     0.345 HD
ATOM     21  H   UNL A   1      30.582  28.799  28.051  1.00  0.00     0.345 HD
ENDBRANCH   8  18
ENDBRANCH   5   8
ENDBRANCH   3   4
ENDBRANCH   2   3
ENDBRANCH   1   2
BRANCH   1  22
ATOM     22  C   UNL A   1      34.589  33.561  29.165  1.00  0.00     0.002 C 
BRANCH  22  23
ATOM     23  C   UNL A   1      33.325  34.411  29.033  1.00  0.00     0.021 C 
BRANCH  23  24
ATOM     24  C   UNL A   1      33.461  35.863  29.474  1.00  0.00     0.116 C 
BRANCH  24  25
ATOM     25  N   UNL A   1      32.522  36.220  30.526  1.00  0.00    -0.352 N 
ATOM     26  C   UNL A   1      32.527  35.875  31.855  1.00  0.00     0.251 C 
ATOM     27  H   UNL A   1      31.773  36.793  30.244  1.00  0.00     0.163 HD
ATOM     28  O   UNL A   1      31.569  36.149  32.572  1.00  0.00    -0.269 OA
BRANCH  26  29
ATOM     29  C   UNL A   1      33.680  35.142  32.421  1.00  0.00     0.039 A 
ATOM     30  C   UNL A   1      33.493  33.833  32.876  1.00  0.00     0.014 A 
ATOM     31  C   UNL A   1      34.942  35.735  32.495  1.00  0.00     0.014 A 
ATOM     32  C   UNL A   1      34.587  33.094  33.334  1.00  0.00     0.010 A 
ATOM     33  C   UNL A   1      36.042  34.975  32.878  1.00  0.00     0.010 A 
ATOM     34  C   UNL A   1      35.877  33.646  33.298  1.00  0.00    -0.014 A 
BRANCH  34  35
ATOM     35  C   UNL A   1      37.075  32.860  33.689  1.00  0.00     0.031 A 
ATOM     36  C   UNL A   1      37.789  33.173  34.973  1.00  0.00     0.074 A 
ATOM     37  C   UNL A   1      37.572  31.934  32.846  1.00  0.00     0.049 A 
ATOM     38  N   UNL A   1      38.926  32.707  35.426  1.00  0.00    -0.248 NA
ATOM     39  C   UNL A   1      37.154  34.167  35.853  1.00  0.00     0.031 C 
ATOM     40  C   UNL A   1      36.990  31.565  31.556  1.00  0.00     0.029 A 
ATOM     41  N   UNL A   1      38.696  31.150  32.940  1.00  0.00    -0.354 N 
ATOM     42  C   UNL A   1      39.152  33.366  36.627  1.00  0.00     0.074 A 
ATOM     43  C   UNL A   1      38.061  34.299  36.810  1.00  0.00     0.031 C 
ATOM     44  C   UNL A   1      37.754  30.619  30.983  1.00  0.00     0.029 A 
ATOM     45  C   UNL A   1      38.903  30.350  31.842  1.00  0.00     0.049 A 
ATOM     46  H   UNL A   1      39.297  31.161  33.719  1.00  0.00     0.167 HD
ATOM     47  C   UNL A   1      40.169  33.195  37.506  1.00  0.00     0.037 A 
ATOM     48  C   UNL A   1      39.913  29.507  31.554  1.00  0.00     0.037 A 
ATOM     49  C   UNL A   1      41.236  32.245  37.331  1.00  0.00     0.049 A 
ATOM     50  C   UNL A   1      41.038  29.345  32.540  1.00  0.00     0.074 A 
ATOM     51  C   UNL A   1      42.282  31.955  38.189  1.00  0.00     0.029 A 
ATOM     52  N   UNL A   1      41.393  31.431  36.219  1.00  0.00    -0.354 N 
ATOM     53  N   UNL A   1      41.214  29.933  33.699  1.00  0.00    -0.248 NA
ATOM     54  C   UNL A   1      42.104  28.399  32.182  1.00  0.00     0.031 C 
ATOM     55  C   UNL A   1      43.099  31.001  37.576  1.00  0.00     0.029 A 
ATOM     56  C   UNL A   1      42.531  30.653  36.360  1.00  0.00     0.049 A 
ATOM     57  H   UNL A   1      40.787  31.410  35.443  1.00  0.00     0.167 HD
ATOM     58  C   UNL A   1      42.385  29.403  34.223  1.00  0.00     0.074 A 
ATOM     59  C   UNL A   1      42.877  28.441  33.259  1.00  0.00     0.031 C 
ATOM     60  C   UNL A   1      42.995  29.684  35.401  1.00  0.00     0.037 A 
BRANCH  47  61
ATOM     61  C   UNL A   1      40.175  34.053  38.738  1.00  0.00     0.064 A 
ATOM     62  C   UNL A   1      40.830  35.294  38.769  1.00  0.00     0.173 A 
ATOM     63  C   UNL A   1      39.487  33.648  39.891  1.00  0.00     0.173 A 
ATOM     64  F   UNL A   1      41.513  35.724  37.696  1.00  0.00    -0.203 F 
ATOM     65  C   UNL A   1      40.822  36.081  39.916  1.00  0.00     0.198 A 
ATOM     66  C   UNL A   1      39.453  34.453  41.026  1.00  0.00     0.198 A 
ATOM     67  F   UNL A   1      38.837  32.474  39.914  1.00  0.00    -0.203 F 
ATOM     68  F   UNL A   1      41.498  37.239  39.938  1.00  0.00    -0.200 F 
ATOM     69  C   UNL A   1      40.126  35.665  41.042  1.00  0.00     0.200 A 
ATOM     70  F   UNL A   1      38.768  34.056  42.108  1.00  0.00    -0.200 F 
ATOM     71  F   UNL A   1      40.112  36.428  42.143  1.00  0.00    -0.200 F 
ENDBRANCH  47  61
BRANCH  48  72
ATOM     72  C   UNL A   1      39.901  28.740  30.280  1.00  0.00     0.064 A 
ATOM     73  C   UNL A   1      40.449  29.284  29.110  1.00  0.00     0.173 A 
ATOM     74  C   UNL A   1      39.340  27.457  30.203  1.00  0.00     0.173 A 
ATOM     75  F   UNL A   1      40.979  30.515  29.128  1.00  0.00    -0.203 F 
ATOM     76  C   UNL A   1      40.419  28.581  27.907  1.00  0.00     0.198 A 
ATOM     77  C   UNL A   1      39.337  26.744  29.006  1.00  0.00     0.198 A 
ATOM     78  F   UNL A   1      38.807  26.889  31.295  1.00  0.00    -0.203 F 
ATOM     79  F   UNL A   1      40.909  29.143  26.793  1.00  0.00    -0.200 F 
ATOM     80  C   UNL A   1      39.868  27.309  27.857  1.00  0.00     0.200 A 
ATOM     81  F   UNL A   1      38.817  25.509  28.966  1.00  0.00    -0.200 F 
ATOM     82  F   UNL A   1      39.843  26.633  26.701  1.00  0.00    -0.200 F 
ENDBRANCH  48  72
BRANCH  60  83
ATOM     83  C   UNL A   1      44.232  28.908  35.744  1.00  0.00     0.064 A 
ATOM     84  C   UNL A   1      45.512  29.365  35.398  1.00  0.00     0.173 A 
ATOM     85  C   UNL A   1      44.135  27.720  36.485  1.00  0.00     0.173 A 
ATOM     86  F   UNL A   1      45.657  30.486  34.676  1.00  0.00    -0.203 F 
ATOM     87  C   UNL A   1      46.649  28.651  35.768  1.00  0.00     0.198 A 
ATOM     88  C   UNL A   1      45.275  27.025  36.879  1.00  0.00     0.198 A 
ATOM     89  F   UNL A   1      42.934  27.245  36.846  1.00  0.00    -0.203 F 
ATOM     90  F   UNL A   1      47.861  29.084  35.394  1.00  0.00    -0.200 F 
ATOM     91  C   UNL A   1      46.530  27.488  36.516  1.00  0.00     0.200 A 
ATOM     92  F   UNL A   1      45.159  25.911  37.614  1.00  0.00    -0.200 F 
ATOM     93  F   UNL A   1      47.627  26.811  36.883  1.00  0.00    -0.200 F 
ENDBRANCH  60  83
ENDBRANCH  34  35
ENDBRANCH  26  29
ENDBRANCH  24  25
ENDBRANCH  23  24
ENDBRANCH  22  23
ENDBRANCH   1  22
TORSDOF 17
ENDMDL
