MODEL 1
REMARK VINA RESULT:     -11.0      0.000      0.000
REMARK SMILES C[C@@H]1C[N@@H+](CC(C)(C)C(=O)NCCCCCCNC(=O)c2ccc(-c3c4nc(c(-c5c(F)c(F)c(F)c(F)c5F)c5ccc([nH]5)c(-c5c(F)c(F)c(F)c(F)c5F)c5nc(c(-c6c(F)c(F)c(F)c(F)c6F)c6ccc3[nH]6)C=C5)C=C4)cc2)CC[C@@H]1[NH3+]
REMARK SMILES IDX 14 1 13 2 12 3 11 4 9 5 10 6 6 8 7 9 8 10 5 11 4 12 1 13
REMARK SMILES IDX 2 14 3 15 86 16 85 17 84 18 87 20 15 24 16 25 17 26 18 27
REMARK SMILES IDX 19 28 20 30 21 31 22 32 83 33 23 34 82 35 24 36 25 37 26 38
REMARK SMILES IDX 76 39 27 40 81 41 75 42 77 43 28 44 80 45 74 46 73 47 29 49
REMARK SMILES IDX 61 50 41 51 60 52 42 53 45 54 59 55 78 56 43 57 44 58 58 60
REMARK SMILES IDX 79 61 46 62 30 63 31 64 39 65 32 66 33 67 37 68 40 69 34 70
REMARK SMILES IDX 35 71 38 72 36 73 62 74 63 75 71 76 64 77 65 78 69 79 72 80
REMARK SMILES IDX 66 81 67 82 70 83 68 84 47 85 48 86 56 87 49 88 50 89 54 90
REMARK SMILES IDX 57 91 51 92 52 93 55 94 53 95
REMARK H PARENT 11 7 4 19 87 21 87 22 87 23 18 29 77 48 45 59
REMARK Flexibility Score: inf
ROOT
ATOM      1  C   UNL A   1      40.671  22.030  26.192  1.00  0.00     0.002 C 
ENDROOT
BRANCH   1   2
ATOM      2  C   UNL A   1      39.271  22.575  26.498  1.00  0.00     0.021 C 
BRANCH   2   3
ATOM      3  C   UNL A   1      38.136  21.874  25.755  1.00  0.00     0.116 C 
BRANCH   3   4
ATOM      4  N   UNL A   1      37.783  22.619  24.568  1.00  0.00    -0.355 N 
ATOM      5  C   UNL A   1      36.588  22.793  23.954  1.00  0.00     0.231 C 
ATOM      6  O   UNL A   1      36.648  22.953  22.729  1.00  0.00    -0.274 OA
ATOM      7  H   UNL A   1      38.538  23.077  24.133  1.00  0.00     0.163 HD
BRANCH   5   8
ATOM      8  C   UNL A   1      35.240  22.749  24.696  1.00  0.00     0.092 C 
ATOM      9  C   UNL A   1      33.996  22.993  23.827  1.00  0.00     0.027 C 
ATOM     10  C   UNL A   1      35.310  23.875  25.751  1.00  0.00     0.027 C 
BRANCH   8  11
ATOM     11  C   UNL A   1      35.122  21.359  25.451  1.00  0.00     0.278 C 
BRANCH  11  12
ATOM     12  N   UNL A   1      34.560  20.131  24.817  1.00  0.00    -0.333 N 
ATOM     13  C   UNL A   1      32.153  18.817  23.120  1.00  0.00     0.020 C 
ATOM     14  C   UNL A   1      32.527  18.613  24.592  1.00  0.00     0.099 C 
ATOM     15  C   UNL A   1      33.170  19.869  25.210  1.00  0.00     0.271 C 
ATOM     16  C   UNL A   1      33.465  17.423  24.855  1.00  0.00     0.194 C 
ATOM     17  C   UNL A   1      34.844  17.699  24.252  1.00  0.00     0.126 C 
ATOM     18  C   UNL A   1      35.436  18.964  24.877  1.00  0.00     0.268 C 
ATOM     19  H   UNL A   1      34.520  20.345  23.820  1.00  0.00     0.348 HD
BRANCH  16  20
ATOM     20  N   UNL A   1      32.915  16.150  24.387  1.00  0.00    -0.355 N 
ATOM     21  H   UNL A   1      32.369  16.308  23.539  1.00  0.00     0.344 HD
ATOM     22  H   UNL A   1      32.313  15.755  25.109  1.00  0.00     0.344 HD
ATOM     23  H   UNL A   1      33.677  15.504  24.186  1.00  0.00     0.344 HD
ENDBRANCH  16  20
ENDBRANCH  11  12
ENDBRANCH   8  11
ENDBRANCH   5   8
ENDBRANCH   3   4
ENDBRANCH   2   3
ENDBRANCH   1   2
BRANCH   1  24
ATOM     24  C   UNL A   1      41.076  20.785  26.985  1.00  0.00     0.002 C 
BRANCH  24  25
ATOM     25  C   UNL A   1      41.374  19.545  26.139  1.00  0.00     0.021 C 
BRANCH  25  26
ATOM     26  C   UNL A   1      42.708  18.875  26.439  1.00  0.00     0.116 C 
BRANCH  26  27
ATOM     27  N   UNL A   1      43.495  18.643  25.241  1.00  0.00    -0.352 N 
ATOM     28  C   UNL A   1      44.191  19.547  24.485  1.00  0.00     0.251 C 
ATOM     29  H   UNL A   1      43.532  17.710  24.930  1.00  0.00     0.163 HD
ATOM     30  O   UNL A   1      44.675  19.209  23.403  1.00  0.00    -0.269 OA
BRANCH  28  31
ATOM     31  C   UNL A   1      44.351  20.938  24.957  1.00  0.00     0.039 A 
ATOM     32  C   UNL A   1      43.796  21.973  24.202  1.00  0.00     0.014 A 
ATOM     33  C   UNL A   1      45.065  21.224  26.126  1.00  0.00     0.014 A 
ATOM     34  C   UNL A   1      43.937  23.294  24.629  1.00  0.00     0.010 A 
ATOM     35  C   UNL A   1      45.135  22.533  26.592  1.00  0.00     0.010 A 
ATOM     36  C   UNL A   1      44.598  23.583  25.833  1.00  0.00    -0.014 A 
BRANCH  36  37
ATOM     37  C   UNL A   1      44.796  24.985  26.278  1.00  0.00     0.031 A 
ATOM     38  C   UNL A   1      46.150  25.626  26.148  1.00  0.00     0.074 A 
ATOM     39  C   UNL A   1      43.775  25.665  26.832  1.00  0.00     0.049 A 
ATOM     40  N   UNL A   1      46.540  26.826  26.498  1.00  0.00    -0.248 NA
ATOM     41  C   UNL A   1      47.221  24.794  25.576  1.00  0.00     0.031 C 
ATOM     42  C   UNL A   1      42.428  25.139  27.049  1.00  0.00     0.029 A 
ATOM     43  N   UNL A   1      43.714  26.949  27.310  1.00  0.00    -0.354 N 
ATOM     44  C   UNL A   1      47.898  26.880  26.212  1.00  0.00     0.074 A 
ATOM     45  C   UNL A   1      48.279  25.577  25.716  1.00  0.00     0.031 C 
ATOM     46  C   UNL A   1      41.663  26.103  27.585  1.00  0.00     0.029 A 
ATOM     47  C   UNL A   1      42.472  27.304  27.776  1.00  0.00     0.049 A 
ATOM     48  H   UNL A   1      44.487  27.558  27.319  1.00  0.00     0.167 HD
ATOM     49  C   UNL A   1      48.746  27.930  26.330  1.00  0.00     0.037 A 
ATOM     50  C   UNL A   1      42.037  28.470  28.289  1.00  0.00     0.037 A 
ATOM     51  C   UNL A   1      48.352  29.235  26.787  1.00  0.00     0.049 A 
ATOM     52  C   UNL A   1      42.995  29.626  28.396  1.00  0.00     0.074 A 
ATOM     53  C   UNL A   1      49.113  30.387  26.876  1.00  0.00     0.029 A 
ATOM     54  N   UNL A   1      47.079  29.562  27.236  1.00  0.00    -0.354 N 
ATOM     55  N   UNL A   1      44.259  29.692  28.054  1.00  0.00    -0.248 NA
ATOM     56  C   UNL A   1      42.458  30.876  28.951  1.00  0.00     0.031 C 
ATOM     57  C   UNL A   1      48.314  31.398  27.422  1.00  0.00     0.029 A 
ATOM     58  C   UNL A   1      47.040  30.891  27.621  1.00  0.00     0.049 A 
ATOM     59  H   UNL A   1      46.317  28.940  27.274  1.00  0.00     0.167 HD
ATOM     60  C   UNL A   1      44.657  30.997  28.310  1.00  0.00     0.074 A 
ATOM     61  C   UNL A   1      43.498  31.690  28.834  1.00  0.00     0.031 C 
ATOM     62  C   UNL A   1      45.872  31.570  28.124  1.00  0.00     0.037 A 
BRANCH  49  63
ATOM     63  C   UNL A   1      50.185  27.701  25.962  1.00  0.00     0.064 A 
ATOM     64  C   UNL A   1      51.171  27.470  26.934  1.00  0.00     0.173 A 
ATOM     65  C   UNL A   1      50.583  27.710  24.617  1.00  0.00     0.173 A 
ATOM     66  F   UNL A   1      50.847  27.464  28.236  1.00  0.00    -0.203 F 
ATOM     67  C   UNL A   1      52.506  27.301  26.577  1.00  0.00     0.198 A 
ATOM     68  C   UNL A   1      51.914  27.506  24.260  1.00  0.00     0.198 A 
ATOM     69  F   UNL A   1      49.683  27.920  23.646  1.00  0.00    -0.203 F 
ATOM     70  F   UNL A   1      53.439  27.149  27.528  1.00  0.00    -0.200 F 
ATOM     71  C   UNL A   1      52.876  27.313  25.241  1.00  0.00     0.200 A 
ATOM     72  F   UNL A   1      52.267  27.505  22.968  1.00  0.00    -0.200 F 
ATOM     73  F   UNL A   1      54.162  27.151  24.897  1.00  0.00    -0.200 F 
ENDBRANCH  49  63
BRANCH  50  74
ATOM     74  C   UNL A   1      40.613  28.621  28.683  1.00  0.00     0.064 A 
ATOM     75  C   UNL A   1      40.202  28.345  29.995  1.00  0.00     0.173 A 
ATOM     76  C   UNL A   1      39.639  29.045  27.769  1.00  0.00     0.173 A 
ATOM     77  F   UNL A   1      41.095  27.919  30.901  1.00  0.00    -0.203 F 
ATOM     78  C   UNL A   1      38.867  28.469  30.372  1.00  0.00     0.198 A 
ATOM     79  C   UNL A   1      38.308  29.193  28.154  1.00  0.00     0.198 A 
ATOM     80  F   UNL A   1      39.982  29.327  26.503  1.00  0.00    -0.203 F 
ATOM     81  F   UNL A   1      38.495  28.158  31.622  1.00  0.00    -0.200 F 
ATOM     82  C   UNL A   1      37.921  28.898  29.454  1.00  0.00     0.200 A 
ATOM     83  F   UNL A   1      37.399  29.622  27.267  1.00  0.00    -0.200 F 
ATOM     84  F   UNL A   1      36.638  29.022  29.817  1.00  0.00    -0.200 F 
ENDBRANCH  50  74
BRANCH  62  85
ATOM     85  C   UNL A   1      45.995  33.035  28.432  1.00  0.00     0.064 A 
ATOM     86  C   UNL A   1      46.390  33.496  29.695  1.00  0.00     0.173 A 
ATOM     87  C   UNL A   1      45.742  33.988  27.433  1.00  0.00     0.173 A 
ATOM     88  F   UNL A   1      46.629  32.627  30.688  1.00  0.00    -0.203 F 
ATOM     89  C   UNL A   1      46.498  34.860  29.957  1.00  0.00     0.198 A 
ATOM     90  C   UNL A   1      45.882  35.350  27.689  1.00  0.00     0.198 A 
ATOM     91  F   UNL A   1      45.369  33.599  26.205  1.00  0.00    -0.203 F 
ATOM     92  F   UNL A   1      46.825  35.280  31.187  1.00  0.00    -0.200 F 
ATOM     93  C   UNL A   1      46.251  35.783  28.952  1.00  0.00     0.200 A 
ATOM     94  F   UNL A   1      45.659  36.239  26.712  1.00  0.00    -0.200 F 
ATOM     95  F   UNL A   1      46.361  37.095  29.205  1.00  0.00    -0.200 F 
ENDBRANCH  62  85
ENDBRANCH  36  37
ENDBRANCH  28  31
ENDBRANCH  26  27
ENDBRANCH  25  26
ENDBRANCH  24  25
ENDBRANCH   1  24
TORSDOF 16
ENDMDL
MODEL 2
REMARK VINA RESULT:     -10.9      6.088     11.538
REMARK SMILES C[C@@H]1C[N@@H+](CC(C)(C)C(=O)NCCCCCCNC(=O)c2ccc(-c3c4nc(c(-c5c(F)c(F)c(F)c(F)c5F)c5ccc([nH]5)c(-c5c(F)c(F)c(F)c(F)c5F)c5nc(c(-c6c(F)c(F)c(F)c(F)c6F)c6ccc3[nH]6)C=C5)C=C4)cc2)CC[C@@H]1[NH3+]
REMARK SMILES IDX 14 1 13 2 12 3 11 4 9 5 10 6 6 8 7 9 8 10 5 11 4 12 1 13
REMARK SMILES IDX 2 14 3 15 86 16 85 17 84 18 87 20 15 24 16 25 17 26 18 27
REMARK SMILES IDX 19 28 20 30 21 31 22 32 83 33 23 34 82 35 24 36 25 37 26 38
REMARK SMILES IDX 76 39 27 40 81 41 75 42 77 43 28 44 80 45 74 46 73 47 29 49
REMARK SMILES IDX 61 50 41 51 60 52 42 53 45 54 59 55 78 56 43 57 44 58 58 60
REMARK SMILES IDX 79 61 46 62 30 63 31 64 39 65 32 66 33 67 37 68 40 69 34 70
REMARK SMILES IDX 35 71 38 72 36 73 62 74 63 75 71 76 64 77 65 78 69 79 72 80
REMARK SMILES IDX 66 81 67 82 70 83 68 84 47 85 48 86 56 87 49 88 50 89 54 90
REMARK SMILES IDX 57 91 51 92 52 93 55 94 53 95
REMARK H PARENT 11 7 4 19 87 21 87 22 87 23 18 29 77 48 45 59
REMARK Flexibility Score: inf
ROOT
ATOM      1  C   UNL A   1      32.763  30.129  26.460  1.00  0.00     0.002 C 
ENDROOT
BRANCH   1   2
ATOM      2  C   UNL A   1      32.672  28.781  27.184  1.00  0.00     0.021 C 
BRANCH   2   3
ATOM      3  C   UNL A   1      31.408  27.979  26.885  1.00  0.00     0.116 C 
BRANCH   3   4
ATOM      4  N   UNL A   1      31.630  26.579  27.158  1.00  0.00    -0.355 N 
ATOM      5  C   UNL A   1      31.375  25.477  26.411  1.00  0.00     0.231 C 
ATOM      6  O   UNL A   1      31.115  24.456  27.057  1.00  0.00    -0.274 OA
ATOM      7  H   UNL A   1      32.036  26.392  28.036  1.00  0.00     0.163 HD
BRANCH   5   8
ATOM      8  C   UNL A   1      31.354  25.485  24.872  1.00  0.00     0.092 C 
ATOM      9  C   UNL A   1      32.344  26.449  24.199  1.00  0.00     0.027 C 
ATOM     10  C   UNL A   1      29.926  25.922  24.478  1.00  0.00     0.027 C 
BRANCH   8  11
ATOM     11  C   UNL A   1      31.587  24.004  24.353  1.00  0.00     0.278 C 
BRANCH  11  12
ATOM     12  N   UNL A   1      32.654  23.111  24.889  1.00  0.00    -0.333 N 
ATOM     13  C   UNL A   1      35.743  22.801  25.763  1.00  0.00     0.020 C 
ATOM     14  C   UNL A   1      35.011  22.203  24.557  1.00  0.00     0.099 C 
ATOM     15  C   UNL A   1      33.867  23.107  24.062  1.00  0.00     0.271 C 
ATOM     16  C   UNL A   1      34.435  20.797  24.792  1.00  0.00     0.194 C 
ATOM     17  C   UNL A   1      33.293  20.860  25.808  1.00  0.00     0.126 C 
ATOM     18  C   UNL A   1      32.190  21.784  25.286  1.00  0.00     0.268 C 
ATOM     19  H   UNL A   1      32.935  23.537  25.773  1.00  0.00     0.348 HD
BRANCH  16  20
ATOM     20  N   UNL A   1      35.454  19.822  25.183  1.00  0.00    -0.355 N 
ATOM     21  H   UNL A   1      36.182  20.290  25.724  1.00  0.00     0.344 HD
ATOM     22  H   UNL A   1      35.867  19.409  24.347  1.00  0.00     0.344 HD
ATOM     23  H   UNL A   1      35.026  19.091  25.749  1.00  0.00     0.344 HD
ENDBRANCH  16  20
ENDBRANCH  11  12
ENDBRANCH   8  11
ENDBRANCH   5   8
ENDBRANCH   3   4
ENDBRANCH   2   3
ENDBRANCH   1   2
BRANCH   1  24
ATOM     24  C   UNL A   1      31.422  30.792  26.139  1.00  0.00     0.002 C 
BRANCH  24  25
ATOM     25  C   UNL A   1      31.319  32.270  26.523  1.00  0.00     0.021 C 
BRANCH  25  26
ATOM     26  C   UNL A   1      32.615  32.889  27.030  1.00  0.00     0.116 C 
BRANCH  26  27
ATOM     27  N   UNL A   1      32.412  34.205  27.607  1.00  0.00    -0.352 N 
ATOM     28  C   UNL A   1      33.048  34.781  28.673  1.00  0.00     0.251 C 
ATOM     29  H   UNL A   1      31.725  34.760  27.171  1.00  0.00     0.163 HD
ATOM     30  O   UNL A   1      32.642  35.848  29.136  1.00  0.00    -0.269 OA
BRANCH  28  31
ATOM     31  C   UNL A   1      34.214  34.113  29.286  1.00  0.00     0.039 A 
ATOM     32  C   UNL A   1      35.496  34.494  28.885  1.00  0.00     0.014 A 
ATOM     33  C   UNL A   1      34.046  33.097  30.234  1.00  0.00     0.014 A 
ATOM     34  C   UNL A   1      36.612  33.874  29.451  1.00  0.00     0.010 A 
ATOM     35  C   UNL A   1      35.159  32.538  30.855  1.00  0.00     0.010 A 
ATOM     36  C   UNL A   1      36.451  32.899  30.447  1.00  0.00    -0.014 A 
BRANCH  36  37
ATOM     37  C   UNL A   1      37.624  32.198  31.027  1.00  0.00     0.031 A 
ATOM     38  C   UNL A   1      38.090  32.545  32.414  1.00  0.00     0.074 A 
ATOM     39  C   UNL A   1      38.290  31.285  30.297  1.00  0.00     0.049 A 
ATOM     40  N   UNL A   1      39.104  32.071  33.093  1.00  0.00    -0.248 NA
ATOM     41  C   UNL A   1      37.333  33.589  33.122  1.00  0.00     0.031 C 
ATOM     42  C   UNL A   1      37.960  30.893  28.927  1.00  0.00     0.029 A 
ATOM     43  N   UNL A   1      39.384  30.518  30.610  1.00  0.00    -0.354 N 
ATOM     44  C   UNL A   1      39.119  32.775  34.291  1.00  0.00     0.074 A 
ATOM     45  C   UNL A   1      38.051  33.748  34.223  1.00  0.00     0.031 C 
ATOM     46  C   UNL A   1      38.811  29.933  28.530  1.00  0.00     0.029 A 
ATOM     47  C   UNL A   1      39.762  29.663  29.604  1.00  0.00     0.049 A 
ATOM     48  H   UNL A   1      39.853  30.575  31.473  1.00  0.00     0.167 HD
ATOM     49  C   UNL A   1      39.933  32.610  35.360  1.00  0.00     0.037 A 
ATOM     50  C   UNL A   1      40.759  28.760  29.561  1.00  0.00     0.037 A 
ATOM     51  C   UNL A   1      40.968  31.613  35.437  1.00  0.00     0.049 A 
ATOM     52  C   UNL A   1      41.641  28.583  30.768  1.00  0.00     0.074 A 
ATOM     53  C   UNL A   1      41.801  31.312  36.500  1.00  0.00     0.029 A 
ATOM     54  N   UNL A   1      41.311  30.753  34.403  1.00  0.00    -0.354 N 
ATOM     55  N   UNL A   1      41.600  29.201  31.923  1.00  0.00    -0.248 NA
ATOM     56  C   UNL A   1      42.702  27.572  30.665  1.00  0.00     0.031 C 
ATOM     57  C   UNL A   1      42.680  30.302  36.092  1.00  0.00     0.029 A 
ATOM     58  C   UNL A   1      42.358  29.935  34.795  1.00  0.00     0.049 A 
ATOM     59  H   UNL A   1      40.875  30.729  33.521  1.00  0.00     0.167 HD
ATOM     60  C   UNL A   1      42.597  28.626  32.700  1.00  0.00     0.074 A 
ATOM     61  C   UNL A   1      43.224  27.607  31.883  1.00  0.00     0.031 C 
ATOM     62  C   UNL A   1      42.958  28.913  33.975  1.00  0.00     0.037 A 
BRANCH  49  63
ATOM     63  C   UNL A   1      39.736  33.533  36.530  1.00  0.00     0.064 A 
ATOM     64  C   UNL A   1      38.889  33.204  37.600  1.00  0.00     0.173 A 
ATOM     65  C   UNL A   1      40.406  34.764  36.582  1.00  0.00     0.173 A 
ATOM     66  F   UNL A   1      38.214  32.045  37.595  1.00  0.00    -0.203 F 
ATOM     67  C   UNL A   1      38.688  34.090  38.655  1.00  0.00     0.198 A 
ATOM     68  C   UNL A   1      40.230  35.633  37.655  1.00  0.00     0.198 A 
ATOM     69  F   UNL A   1      41.232  35.128  35.589  1.00  0.00    -0.203 F 
ATOM     70  F   UNL A   1      37.823  33.782  39.632  1.00  0.00    -0.200 F 
ATOM     71  C   UNL A   1      39.362  35.302  38.684  1.00  0.00     0.200 A 
ATOM     72  F   UNL A   1      40.892  36.798  37.688  1.00  0.00    -0.200 F 
ATOM     73  F   UNL A   1      39.167  36.155  39.700  1.00  0.00    -0.200 F 
ENDBRANCH  49  63
BRANCH  50  74
ATOM     74  C   UNL A   1      40.937  27.909  28.357  1.00  0.00     0.064 A 
ATOM     75  C   UNL A   1      40.298  26.663  28.262  1.00  0.00     0.173 A 
ATOM     76  C   UNL A   1      41.737  28.316  27.280  1.00  0.00     0.173 A 
ATOM     77  F   UNL A   1      39.537  26.223  29.275  1.00  0.00    -0.203 F 
ATOM     78  C   UNL A   1      40.469  25.850  27.144  1.00  0.00     0.198 A 
ATOM     79  C   UNL A   1      41.886  27.512  26.151  1.00  0.00     0.198 A 
ATOM     80  F   UNL A   1      42.364  29.501  27.319  1.00  0.00    -0.203 F 
ATOM     81  F   UNL A   1      39.880  24.647  27.099  1.00  0.00    -0.200 F 
ATOM     82  C   UNL A   1      41.258  26.276  26.087  1.00  0.00     0.200 A 
ATOM     83  F   UNL A   1      42.638  27.934  25.125  1.00  0.00    -0.200 F 
ATOM     84  F   UNL A   1      41.418  25.496  25.011  1.00  0.00    -0.200 F 
ENDBRANCH  50  74
BRANCH  62  85
ATOM     85  C   UNL A   1      44.042  28.074  34.588  1.00  0.00     0.064 A 
ATOM     86  C   UNL A   1      43.766  26.855  35.224  1.00  0.00     0.173 A 
ATOM     87  C   UNL A   1      45.382  28.485  34.508  1.00  0.00     0.173 A 
ATOM     88  F   UNL A   1      42.501  26.425  35.340  1.00  0.00    -0.203 F 
ATOM     89  C   UNL A   1      44.789  26.094  35.784  1.00  0.00     0.198 A 
ATOM     90  C   UNL A   1      46.404  27.705  35.041  1.00  0.00     0.198 A 
ATOM     91  F   UNL A   1      45.700  29.639  33.903  1.00  0.00    -0.203 F 
ATOM     92  F   UNL A   1      44.495  24.959  36.435  1.00  0.00    -0.200 F 
ATOM     93  C   UNL A   1      46.105  26.516  35.686  1.00  0.00     0.200 A 
ATOM     94  F   UNL A   1      47.678  28.107  34.930  1.00  0.00    -0.200 F 
ATOM     95  F   UNL A   1      47.088  25.778  36.222  1.00  0.00    -0.200 F 
ENDBRANCH  62  85
ENDBRANCH  36  37
ENDBRANCH  28  31
ENDBRANCH  26  27
ENDBRANCH  25  26
ENDBRANCH  24  25
ENDBRANCH   1  24
TORSDOF 16
ENDMDL
MODEL 3
REMARK VINA RESULT:     -10.8      6.231     10.826
REMARK SMILES C[C@@H]1C[N@@H+](CC(C)(C)C(=O)NCCCCCCNC(=O)c2ccc(-c3c4nc(c(-c5c(F)c(F)c(F)c(F)c5F)c5ccc([nH]5)c(-c5c(F)c(F)c(F)c(F)c5F)c5nc(c(-c6c(F)c(F)c(F)c(F)c6F)c6ccc3[nH]6)C=C5)C=C4)cc2)CC[C@@H]1[NH3+]
REMARK SMILES IDX 14 1 13 2 12 3 11 4 9 5 10 6 6 8 7 9 8 10 5 11 4 12 1 13
REMARK SMILES IDX 2 14 3 15 86 16 85 17 84 18 87 20 15 24 16 25 17 26 18 27
REMARK SMILES IDX 19 28 20 30 21 31 22 32 83 33 23 34 82 35 24 36 25 37 26 38
REMARK SMILES IDX 76 39 27 40 81 41 75 42 77 43 28 44 80 45 74 46 73 47 29 49
REMARK SMILES IDX 61 50 41 51 60 52 42 53 45 54 59 55 78 56 43 57 44 58 58 60
REMARK SMILES IDX 79 61 46 62 30 63 31 64 39 65 32 66 33 67 37 68 40 69 34 70
REMARK SMILES IDX 35 71 38 72 36 73 62 74 63 75 71 76 64 77 65 78 69 79 72 80
REMARK SMILES IDX 66 81 67 82 70 83 68 84 47 85 48 86 56 87 49 88 50 89 54 90
REMARK SMILES IDX 57 91 51 92 52 93 55 94 53 95
REMARK H PARENT 11 7 4 19 87 21 87 22 87 23 18 29 77 48 45 59
REMARK Flexibility Score: inf
ROOT
ATOM      1  C   UNL A   1      32.463  29.971  26.776  1.00  0.00     0.002 C 
ENDROOT
BRANCH   1   2
ATOM      2  C   UNL A   1      32.007  28.603  27.294  1.00  0.00     0.021 C 
BRANCH   2   3
ATOM      3  C   UNL A   1      31.409  27.684  26.231  1.00  0.00     0.116 C 
BRANCH   3   4
ATOM      4  N   UNL A   1      31.276  26.343  26.750  1.00  0.00    -0.355 N 
ATOM      5  C   UNL A   1      30.930  25.185  26.137  1.00  0.00     0.231 C 
ATOM      6  O   UNL A   1      30.348  24.366  26.857  1.00  0.00    -0.274 OA
ATOM      7  H   UNL A   1      31.469  26.255  27.712  1.00  0.00     0.163 HD
BRANCH   5   8
ATOM      8  C   UNL A   1      31.188  24.908  24.645  1.00  0.00     0.092 C 
ATOM      9  C   UNL A   1      30.266  25.648  23.663  1.00  0.00     0.027 C 
ATOM     10  C   UNL A   1      30.958  23.392  24.458  1.00  0.00     0.027 C 
BRANCH   8  11
ATOM     11  C   UNL A   1      32.708  25.229  24.323  1.00  0.00     0.278 C 
BRANCH  11  12
ATOM     12  N   UNL A   1      33.803  24.228  24.480  1.00  0.00    -0.333 N 
ATOM     13  C   UNL A   1      35.196  22.005  26.355  1.00  0.00     0.020 C 
ATOM     14  C   UNL A   1      35.706  23.393  25.953  1.00  0.00     0.099 C 
ATOM     15  C   UNL A   1      34.557  24.394  25.728  1.00  0.00     0.271 C 
ATOM     16  C   UNL A   1      36.599  23.409  24.701  1.00  0.00     0.194 C 
ATOM     17  C   UNL A   1      35.774  23.045  23.464  1.00  0.00     0.126 C 
ATOM     18  C   UNL A   1      34.634  24.051  23.291  1.00  0.00     0.268 C 
ATOM     19  H   UNL A   1      33.328  23.329  24.571  1.00  0.00     0.348 HD
BRANCH  16  20
ATOM     20  N   UNL A   1      37.780  22.556  24.835  1.00  0.00    -0.355 N 
ATOM     21  H   UNL A   1      38.414  22.731  24.054  1.00  0.00     0.344 HD
ATOM     22  H   UNL A   1      37.495  21.577  24.827  1.00  0.00     0.344 HD
ATOM     23  H   UNL A   1      38.254  22.766  25.712  1.00  0.00     0.344 HD
ENDBRANCH  16  20
ENDBRANCH  11  12
ENDBRANCH   8  11
ENDBRANCH   5   8
ENDBRANCH   3   4
ENDBRANCH   2   3
ENDBRANCH   1   2
BRANCH   1  24
ATOM     24  C   UNL A   1      31.385  30.800  26.075  1.00  0.00     0.002 C 
BRANCH  24  25
ATOM     25  C   UNL A   1      31.324  32.272  26.488  1.00  0.00     0.021 C 
BRANCH  25  26
ATOM     26  C   UNL A   1      32.575  32.791  27.184  1.00  0.00     0.116 C 
BRANCH  26  27
ATOM     27  N   UNL A   1      32.428  34.161  27.640  1.00  0.00    -0.352 N 
ATOM     28  C   UNL A   1      33.101  34.808  28.640  1.00  0.00     0.251 C 
ATOM     29  H   UNL A   1      31.754  34.698  27.164  1.00  0.00     0.163 HD
ATOM     30  O   UNL A   1      32.741  35.928  29.008  1.00  0.00    -0.269 OA
BRANCH  28  31
ATOM     31  C   UNL A   1      34.253  34.157  29.298  1.00  0.00     0.039 A 
ATOM     32  C   UNL A   1      34.012  33.234  30.318  1.00  0.00     0.014 A 
ATOM     33  C   UNL A   1      35.565  34.471  28.929  1.00  0.00     0.014 A 
ATOM     34  C   UNL A   1      35.086  32.609  30.954  1.00  0.00     0.010 A 
ATOM     35  C   UNL A   1      36.630  33.788  29.507  1.00  0.00     0.010 A 
ATOM     36  C   UNL A   1      36.403  32.873  30.546  1.00  0.00    -0.014 A 
BRANCH  36  37
ATOM     37  C   UNL A   1      37.557  32.251  31.240  1.00  0.00     0.031 A 
ATOM     38  C   UNL A   1      38.305  31.124  30.582  1.00  0.00     0.074 A 
ATOM     39  C   UNL A   1      37.907  32.670  32.470  1.00  0.00     0.049 A 
ATOM     40  N   UNL A   1      39.321  30.429  31.027  1.00  0.00    -0.248 NA
ATOM     41  C   UNL A   1      37.824  30.698  29.258  1.00  0.00     0.031 C 
ATOM     42  C   UNL A   1      37.235  33.725  33.228  1.00  0.00     0.029 A 
ATOM     43  N   UNL A   1      38.921  32.258  33.298  1.00  0.00    -0.354 N 
ATOM     44  C   UNL A   1      39.582  29.475  30.052  1.00  0.00     0.074 A 
ATOM     45  C   UNL A   1      38.582  29.639  29.020  1.00  0.00     0.031 C 
ATOM     46  C   UNL A   1      37.876  33.902  34.394  1.00  0.00     0.029 A 
ATOM     47  C   UNL A   1      38.984  32.955  34.479  1.00  0.00     0.049 A 
ATOM     48  H   UNL A   1      39.543  31.531  33.067  1.00  0.00     0.167 HD
ATOM     49  C   UNL A   1      40.579  28.559  30.009  1.00  0.00     0.037 A 
ATOM     50  C   UNL A   1      39.845  32.845  35.507  1.00  0.00     0.037 A 
ATOM     51  C   UNL A   1      41.594  28.427  31.020  1.00  0.00     0.049 A 
ATOM     52  C   UNL A   1      40.955  31.831  35.429  1.00  0.00     0.074 A 
ATOM     53  C   UNL A   1      42.690  27.583  31.039  1.00  0.00     0.029 A 
ATOM     54  N   UNL A   1      41.635  29.163  32.196  1.00  0.00    -0.354 N 
ATOM     55  N   UNL A   1      41.239  30.983  34.470  1.00  0.00    -0.248 NA
ATOM     56  C   UNL A   1      41.871  31.767  36.576  1.00  0.00     0.031 C 
ATOM     57  C   UNL A   1      43.368  27.775  32.248  1.00  0.00     0.029 A 
ATOM     58  C   UNL A   1      42.726  28.778  32.957  1.00  0.00     0.049 A 
ATOM     59  H   UNL A   1      40.984  29.856  32.451  1.00  0.00     0.167 HD
ATOM     60  C   UNL A   1      42.388  30.317  34.876  1.00  0.00     0.074 A 
ATOM     61  C   UNL A   1      42.750  30.863  36.167  1.00  0.00     0.031 C 
ATOM     62  C   UNL A   1      43.082  29.345  34.233  1.00  0.00     0.037 A 
BRANCH  49  63
ATOM     63  C   UNL A   1      40.612  27.628  28.830  1.00  0.00     0.064 A 
ATOM     64  C   UNL A   1      41.428  27.872  27.714  1.00  0.00     0.173 A 
ATOM     65  C   UNL A   1      39.819  26.471  28.818  1.00  0.00     0.173 A 
ATOM     66  F   UNL A   1      42.196  28.971  27.668  1.00  0.00    -0.203 F 
ATOM     67  C   UNL A   1      41.414  27.019  26.614  1.00  0.00     0.198 A 
ATOM     68  C   UNL A   1      39.834  25.601  27.731  1.00  0.00     0.198 A 
ATOM     69  F   UNL A   1      39.025  26.184  29.860  1.00  0.00    -0.203 F 
ATOM     70  F   UNL A   1      42.151  27.311  25.532  1.00  0.00    -0.200 F 
ATOM     71  C   UNL A   1      40.622  25.881  26.625  1.00  0.00     0.200 A 
ATOM     72  F   UNL A   1      39.077  24.495  27.749  1.00  0.00    -0.200 F 
ATOM     73  F   UNL A   1      40.610  25.061  25.565  1.00  0.00    -0.200 F 
ENDBRANCH  49  63
BRANCH  50  74
ATOM     74  C   UNL A   1      39.732  33.762  36.670  1.00  0.00     0.064 A 
ATOM     75  C   UNL A   1      40.385  35.003  36.667  1.00  0.00     0.173 A 
ATOM     76  C   UNL A   1      38.975  33.425  37.800  1.00  0.00     0.173 A 
ATOM     77  F   UNL A   1      41.136  35.361  35.615  1.00  0.00    -0.203 F 
ATOM     78  C   UNL A   1      40.298  35.865  37.758  1.00  0.00     0.198 A 
ATOM     79  C   UNL A   1      38.868  34.299  38.881  1.00  0.00     0.198 A 
ATOM     80  F   UNL A   1      38.326  32.252  37.850  1.00  0.00    -0.203 F 
ATOM     81  F   UNL A   1      40.966  37.027  37.745  1.00  0.00    -0.200 F 
ATOM     82  C   UNL A   1      39.536  35.516  38.862  1.00  0.00     0.200 A 
ATOM     83  F   UNL A   1      38.118  33.965  39.940  1.00  0.00    -0.200 F 
ATOM     84  F   UNL A   1      39.449  36.346  39.908  1.00  0.00    -0.200 F 
ENDBRANCH  50  74
BRANCH  62  85
ATOM     85  C   UNL A   1      44.340  28.851  34.890  1.00  0.00     0.064 A 
ATOM     86  C   UNL A   1      45.582  29.459  34.663  1.00  0.00     0.173 A 
ATOM     87  C   UNL A   1      44.289  27.771  35.785  1.00  0.00     0.173 A 
ATOM     88  F   UNL A   1      45.687  30.485  33.805  1.00  0.00    -0.203 F 
ATOM     89  C   UNL A   1      46.735  28.983  35.284  1.00  0.00     0.198 A 
ATOM     90  C   UNL A   1      45.438  27.320  36.429  1.00  0.00     0.198 A 
ATOM     91  F   UNL A   1      43.123  27.160  36.044  1.00  0.00    -0.203 F 
ATOM     92  F   UNL A   1      47.920  29.545  35.011  1.00  0.00    -0.200 F 
ATOM     93  C   UNL A   1      46.660  27.920  36.171  1.00  0.00     0.200 A 
ATOM     94  F   UNL A   1      45.360  26.303  37.298  1.00  0.00    -0.200 F 
ATOM     95  F   UNL A   1      47.769  27.468  36.772  1.00  0.00    -0.200 F 
ENDBRANCH  62  85
ENDBRANCH  36  37
ENDBRANCH  28  31
ENDBRANCH  26  27
ENDBRANCH  25  26
ENDBRANCH  24  25
ENDBRANCH   1  24
TORSDOF 16
ENDMDL
