MODEL 1
REMARK VINA RESULT:     -12.5      0.000      0.000
REMARK SMILES N#C/C(=C/c1cccn1-c1ccc(C(=O)NCCCCCCNC(=O)c2ccc(-c3c4nc(c(-c5c(F)c(F)c(F)c(F)c5F)c5ccc([nH]5)c(-c5c(F)c(F)c(F)c(F)c5F)c5nc(c(-c6c(F)c(F)c(F)c(F)c6F)c6ccc3[nH]6)C=C5)C=C4)cc2)cc1)C(=O)Nc1ccc(O)cc1
REMARK SMILES IDX 18 1 17 2 16 3 14 4 15 5 13 7 10 8 11 9 90 10 12 11 89 12
REMARK SMILES IDX 9 13 5 14 6 15 7 16 8 17 4 18 3 19 2 20 1 21 91 22 92 23
REMARK SMILES IDX 93 24 94 26 95 27 100 28 96 29 99 30 97 31 98 32 19 34 20 35
REMARK SMILES IDX 21 36 22 37 23 38 24 39 25 41 26 42 27 43 88 44 28 45 87 46
REMARK SMILES IDX 29 47 30 48 31 49 81 50 32 51 86 52 80 53 82 54 33 55 85 56
REMARK SMILES IDX 79 57 78 58 34 60 66 61 46 62 65 63 47 64 50 65 64 66 83 67
REMARK SMILES IDX 48 68 49 69 63 71 84 72 51 73 35 74 36 75 44 76 37 77 38 78
REMARK SMILES IDX 42 79 45 80 39 81 40 82 43 83 41 84 67 85 68 86 76 87 69 88
REMARK SMILES IDX 70 89 74 90 77 91 71 92 72 93 75 94 73 95 52 96 53 97 61 98
REMARK SMILES IDX 54 99 55 100 59 101 62 102 56 103 57 104 60 105 58 106
REMARK H PARENT 16 6 93 25 98 33 23 40 82 59 50 70
REMARK Flexibility Score: inf
ROOT
ATOM      1  C   UNL A   1      31.283  29.026  24.506  1.00  0.00     0.021 C 
ENDROOT
BRANCH   1   2
ATOM      2  C   UNL A   1      32.238  28.963  23.312  1.00  0.00     0.116 C 
BRANCH   2   3
ATOM      3  N   UNL A   1      31.719  28.033  22.329  1.00  0.00    -0.352 N 
ATOM      4  C   UNL A   1      32.028  26.756  21.948  1.00  0.00     0.251 C 
ATOM      5  O   UNL A   1      31.403  26.295  20.991  1.00  0.00    -0.269 OA
ATOM      6  H   UNL A   1      30.969  28.409  21.814  1.00  0.00     0.163 HD
BRANCH   4   7
ATOM      7  C   UNL A   1      33.005  25.882  22.650  1.00  0.00     0.039 A 
ATOM      8  C   UNL A   1      34.783  24.038  23.880  1.00  0.00     0.046 A 
ATOM      9  C   UNL A   1      34.229  23.763  22.625  1.00  0.00     0.027 A 
ATOM     10  C   UNL A   1      34.430  25.237  24.503  1.00  0.00     0.027 A 
ATOM     11  C   UNL A   1      33.329  24.662  22.035  1.00  0.00     0.016 A 
ATOM     12  C   UNL A   1      33.630  26.182  23.852  1.00  0.00     0.016 A 
BRANCH   8  13
ATOM     13  N   UNL A   1      35.789  23.174  24.441  1.00  0.00    -0.317 N 
ATOM     14  C   UNL A   1      35.656  21.902  25.020  1.00  0.00     0.047 A 
ATOM     15  C   UNL A   1      36.894  21.517  25.508  1.00  0.00     0.028 A 
ATOM     16  C   UNL A   1      37.805  22.558  25.261  1.00  0.00     0.020 A 
ATOM     17  C   UNL A   1      37.118  23.543  24.592  1.00  0.00     0.092 A 
BRANCH  14  18
ATOM     18  C   UNL A   1      34.484  21.124  24.871  1.00  0.00     0.052 C 
ATOM     19  C   UNL A   1      33.405  21.027  25.687  1.00  0.00     0.119 C 
BRANCH  19  20
ATOM     20  C   UNL A   1      32.721  19.704  25.387  1.00  0.00     0.105 C 
ATOM     21  N   UNL A   1      32.153  18.605  25.139  1.00  0.00    -0.192 NA
ENDBRANCH  19  20
BRANCH  19  22
ATOM     22  C   UNL A   1      33.047  21.822  26.908  1.00  0.00     0.266 C 
ATOM     23  O   UNL A   1      33.476  21.420  27.996  1.00  0.00    -0.268 OA
ATOM     24  N   UNL A   1      32.378  23.025  26.926  1.00  0.00    -0.321 N 
ATOM     25  H   UNL A   1      32.550  23.528  27.755  1.00  0.00     0.170 HD
BRANCH  24  26
ATOM     26  C   UNL A   1      31.510  23.721  26.060  1.00  0.00     0.041 A 
ATOM     27  C   UNL A   1      30.997  24.951  26.502  1.00  0.00     0.030 A 
ATOM     28  C   UNL A   1      31.091  23.242  24.821  1.00  0.00     0.030 A 
ATOM     29  C   UNL A   1      30.256  25.774  25.644  1.00  0.00     0.048 A 
ATOM     30  C   UNL A   1      30.322  24.057  23.964  1.00  0.00     0.048 A 
ATOM     31  C   UNL A   1      29.972  25.342  24.359  1.00  0.00     0.115 A 
BRANCH  31  32
ATOM     32  O   UNL A   1      29.381  26.218  23.499  1.00  0.00    -0.508 OA
ATOM     33  H   UNL A   1      28.555  26.006  23.108  1.00  0.00     0.293 HD
ENDBRANCH  31  32
ENDBRANCH  24  26
ENDBRANCH  19  22
ENDBRANCH  14  18
ENDBRANCH   8  13
ENDBRANCH   4   7
ENDBRANCH   2   3
ENDBRANCH   1   2
BRANCH   1  34
ATOM     34  C   UNL A   1      31.691  30.098  25.526  1.00  0.00     0.002 C 
BRANCH  34  35
ATOM     35  C   UNL A   1      31.827  29.581  26.965  1.00  0.00     0.002 C 
BRANCH  35  36
ATOM     36  C   UNL A   1      32.756  28.369  27.128  1.00  0.00     0.021 C 
BRANCH  36  37
ATOM     37  C   UNL A   1      34.223  28.769  27.253  1.00  0.00     0.116 C 
BRANCH  37  38
ATOM     38  N   UNL A   1      34.320  30.088  27.852  1.00  0.00    -0.352 N 
ATOM     39  C   UNL A   1      35.261  30.605  28.697  1.00  0.00     0.251 C 
ATOM     40  H   UNL A   1      33.594  30.708  27.611  1.00  0.00     0.163 HD
ATOM     41  O   UNL A   1      34.980  31.568  29.398  1.00  0.00    -0.269 OA
BRANCH  39  42
ATOM     42  C   UNL A   1      36.613  30.025  28.770  1.00  0.00     0.039 A 
ATOM     43  C   UNL A   1      37.408  30.086  27.620  1.00  0.00     0.014 A 
ATOM     44  C   UNL A   1      37.048  29.330  29.904  1.00  0.00     0.014 A 
ATOM     45  C   UNL A   1      38.657  29.482  27.619  1.00  0.00     0.010 A 
ATOM     46  C   UNL A   1      38.307  28.746  29.918  1.00  0.00     0.010 A 
ATOM     47  C   UNL A   1      39.108  28.831  28.775  1.00  0.00    -0.014 A 
BRANCH  47  48
ATOM     48  C   UNL A   1      40.519  28.403  28.826  1.00  0.00     0.031 A 
ATOM     49  C   UNL A   1      41.437  29.625  29.101  1.00  0.00     0.074 A 
ATOM     50  C   UNL A   1      40.754  27.072  28.589  1.00  0.00     0.049 A 
ATOM     51  N   UNL A   1      42.660  29.852  28.736  1.00  0.00    -0.248 NA
ATOM     52  C   UNL A   1      40.889  30.804  29.839  1.00  0.00     0.031 C 
ATOM     53  C   UNL A   1      39.702  26.040  28.417  1.00  0.00     0.029 A 
ATOM     54  N   UNL A   1      41.894  26.305  28.437  1.00  0.00    -0.354 N 
ATOM     55  C   UNL A   1      43.082  31.067  29.335  1.00  0.00     0.074 A 
ATOM     56  C   UNL A   1      41.913  31.661  29.903  1.00  0.00     0.031 C 
ATOM     57  C   UNL A   1      40.237  24.838  28.102  1.00  0.00     0.029 A 
ATOM     58  C   UNL A   1      41.680  24.950  28.036  1.00  0.00     0.049 A 
ATOM     59  H   UNL A   1      42.795  26.669  28.595  1.00  0.00     0.167 HD
ATOM     60  C   UNL A   1      44.401  31.422  29.435  1.00  0.00     0.037 A 
ATOM     61  C   UNL A   1      42.601  24.017  27.625  1.00  0.00     0.037 A 
ATOM     62  C   UNL A   1      45.200  30.410  28.833  1.00  0.00     0.049 A 
ATOM     63  C   UNL A   1      43.894  24.666  27.858  1.00  0.00     0.074 A 
ATOM     64  C   UNL A   1      45.397  30.072  27.521  1.00  0.00     0.029 A 
ATOM     65  N   UNL A   1      45.567  29.363  29.642  1.00  0.00    -0.354 N 
ATOM     66  N   UNL A   1      44.429  24.844  29.028  1.00  0.00    -0.248 NA
ATOM     67  C   UNL A   1      44.587  25.268  26.713  1.00  0.00     0.031 C 
ATOM     68  C   UNL A   1      45.361  28.666  27.565  1.00  0.00     0.029 A 
ATOM     69  C   UNL A   1      45.464  28.223  28.890  1.00  0.00     0.049 A 
ATOM     70  H   UNL A   1      45.852  29.420  30.582  1.00  0.00     0.167 HD
ATOM     71  C   UNL A   1      45.318  25.859  28.777  1.00  0.00     0.074 A 
ATOM     72  C   UNL A   1      45.607  25.823  27.360  1.00  0.00     0.031 C 
ATOM     73  C   UNL A   1      45.304  26.962  29.567  1.00  0.00     0.037 A 
BRANCH  60  74
ATOM     74  C   UNL A   1      45.154  32.458  30.227  1.00  0.00     0.064 A 
ATOM     75  C   UNL A   1      45.040  32.418  31.642  1.00  0.00     0.173 A 
ATOM     76  C   UNL A   1      45.607  33.660  29.677  1.00  0.00     0.173 A 
ATOM     77  F   UNL A   1      44.669  31.292  32.272  1.00  0.00    -0.203 F 
ATOM     78  C   UNL A   1      45.201  33.556  32.431  1.00  0.00     0.198 A 
ATOM     79  C   UNL A   1      45.819  34.788  30.480  1.00  0.00     0.198 A 
ATOM     80  F   UNL A   1      45.748  33.803  28.353  1.00  0.00    -0.203 F 
ATOM     81  F   UNL A   1      44.922  33.508  33.741  1.00  0.00    -0.200 F 
ATOM     82  C   UNL A   1      45.570  34.749  31.844  1.00  0.00     0.200 A 
ATOM     83  F   UNL A   1      46.187  35.945  29.911  1.00  0.00    -0.200 F 
ATOM     84  F   UNL A   1      45.649  35.865  32.580  1.00  0.00    -0.200 F 
ENDBRANCH  60  74
BRANCH  61  85
ATOM     85  C   UNL A   1      42.663  22.653  26.957  1.00  0.00     0.064 A 
ATOM     86  C   UNL A   1      43.386  22.319  25.807  1.00  0.00     0.173 A 
ATOM     87  C   UNL A   1      41.996  21.538  27.557  1.00  0.00     0.173 A 
ATOM     88  F   UNL A   1      43.950  23.268  25.051  1.00  0.00    -0.203 F 
ATOM     89  C   UNL A   1      43.534  20.980  25.380  1.00  0.00     0.198 A 
ATOM     90  C   UNL A   1      42.191  20.211  27.174  1.00  0.00     0.198 A 
ATOM     91  F   UNL A   1      41.113  21.692  28.551  1.00  0.00    -0.203 F 
ATOM     92  F   UNL A   1      44.237  20.708  24.271  1.00  0.00    -0.200 F 
ATOM     93  C   UNL A   1      42.980  19.927  26.090  1.00  0.00     0.200 A 
ATOM     94  F   UNL A   1      41.620  19.225  27.882  1.00  0.00    -0.200 F 
ATOM     95  F   UNL A   1      43.187  18.655  25.726  1.00  0.00    -0.200 F 
ENDBRANCH  61  85
BRANCH  73  96
ATOM     96  C   UNL A   1      44.752  26.733  30.963  1.00  0.00     0.064 A 
ATOM     97  C   UNL A   1      45.370  25.795  31.806  1.00  0.00     0.173 A 
ATOM     98  C   UNL A   1      43.574  27.314  31.462  1.00  0.00     0.173 A 
ATOM     99  F   UNL A   1      46.515  25.209  31.424  1.00  0.00    -0.203 F 
ATOM    100  C   UNL A   1      44.832  25.447  33.049  1.00  0.00     0.198 A 
ATOM    101  C   UNL A   1      43.031  26.971  32.705  1.00  0.00     0.198 A 
ATOM    102  F   UNL A   1      42.920  28.236  30.760  1.00  0.00    -0.203 F 
ATOM    103  F   UNL A   1      45.459  24.546  33.818  1.00  0.00    -0.200 F 
ATOM    104  C   UNL A   1      43.661  26.032  33.497  1.00  0.00     0.200 A 
ATOM    105  F   UNL A   1      41.904  27.561  33.132  1.00  0.00    -0.200 F 
ATOM    106  F   UNL A   1      43.151  25.708  34.694  1.00  0.00    -0.200 F 
ENDBRANCH  73  96
ENDBRANCH  47  48
ENDBRANCH  39  42
ENDBRANCH  37  38
ENDBRANCH  36  37
ENDBRANCH  35  36
ENDBRANCH  34  35
ENDBRANCH   1  34
TORSDOF 19
ENDMDL
MODEL 2
REMARK VINA RESULT:     -11.8      9.631     15.985
REMARK SMILES N#C/C(=C/c1cccn1-c1ccc(C(=O)NCCCCCCNC(=O)c2ccc(-c3c4nc(c(-c5c(F)c(F)c(F)c(F)c5F)c5ccc([nH]5)c(-c5c(F)c(F)c(F)c(F)c5F)c5nc(c(-c6c(F)c(F)c(F)c(F)c6F)c6ccc3[nH]6)C=C5)C=C4)cc2)cc1)C(=O)Nc1ccc(O)cc1
REMARK SMILES IDX 18 1 17 2 16 3 14 4 15 5 13 7 10 8 11 9 90 10 12 11 89 12
REMARK SMILES IDX 9 13 5 14 6 15 7 16 8 17 4 18 3 19 2 20 1 21 91 22 92 23
REMARK SMILES IDX 93 24 94 26 95 27 100 28 96 29 99 30 97 31 98 32 19 34 20 35
REMARK SMILES IDX 21 36 22 37 23 38 24 39 25 41 26 42 27 43 88 44 28 45 87 46
REMARK SMILES IDX 29 47 30 48 31 49 81 50 32 51 86 52 80 53 82 54 33 55 85 56
REMARK SMILES IDX 79 57 78 58 34 60 66 61 46 62 65 63 47 64 50 65 64 66 83 67
REMARK SMILES IDX 48 68 49 69 63 71 84 72 51 73 35 74 36 75 44 76 37 77 38 78
REMARK SMILES IDX 42 79 45 80 39 81 40 82 43 83 41 84 67 85 68 86 76 87 69 88
REMARK SMILES IDX 70 89 74 90 77 91 71 92 72 93 75 94 73 95 52 96 53 97 61 98
REMARK SMILES IDX 54 99 55 100 59 101 62 102 56 103 57 104 60 105 58 106
REMARK H PARENT 16 6 93 25 98 33 23 40 82 59 50 70
REMARK Flexibility Score: inf
ROOT
ATOM      1  C   UNL A   1      41.293  40.958  25.798  1.00  0.00     0.021 C 
ENDROOT
BRANCH   1   2
ATOM      2  C   UNL A   1      42.306  41.666  24.895  1.00  0.00     0.116 C 
BRANCH   2   3
ATOM      3  N   UNL A   1      41.691  41.956  23.615  1.00  0.00    -0.352 N 
ATOM      4  C   UNL A   1      41.943  42.836  22.599  1.00  0.00     0.251 C 
ATOM      5  O   UNL A   1      41.139  42.853  21.666  1.00  0.00    -0.269 OA
ATOM      6  H   UNL A   1      40.909  41.386  23.435  1.00  0.00     0.163 HD
BRANCH   4   7
ATOM      7  C   UNL A   1      43.146  43.708  22.519  1.00  0.00     0.039 A 
ATOM      8  C   UNL A   1      45.537  45.217  22.239  1.00  0.00     0.046 A 
ATOM      9  C   UNL A   1      45.160  44.291  21.259  1.00  0.00     0.027 A 
ATOM     10  C   UNL A   1      44.706  45.367  23.352  1.00  0.00     0.027 A 
ATOM     11  C   UNL A   1      43.995  43.528  21.416  1.00  0.00     0.016 A 
ATOM     12  C   UNL A   1      43.484  44.691  23.439  1.00  0.00     0.016 A 
BRANCH   8  13
ATOM     13  N   UNL A   1      46.670  46.080  22.032  1.00  0.00    -0.317 N 
ATOM     14  C   UNL A   1      46.784  47.237  21.245  1.00  0.00     0.047 A 
ATOM     15  C   UNL A   1      48.102  47.660  21.284  1.00  0.00     0.028 A 
ATOM     16  C   UNL A   1      48.829  46.754  22.075  1.00  0.00     0.020 A 
ATOM     17  C   UNL A   1      47.935  45.817  22.538  1.00  0.00     0.092 A 
BRANCH  14  18
ATOM     18  C   UNL A   1      45.653  47.916  20.734  1.00  0.00     0.052 C 
ATOM     19  C   UNL A   1      45.150  47.928  19.475  1.00  0.00     0.119 C 
BRANCH  19  20
ATOM     20  C   UNL A   1      44.318  49.191  19.325  1.00  0.00     0.105 C 
ATOM     21  N   UNL A   1      43.627  50.238  19.201  1.00  0.00    -0.192 NA
ENDBRANCH  19  20
BRANCH  19  22
ATOM     22  C   UNL A   1      45.536  47.111  18.277  1.00  0.00     0.266 C 
ATOM     23  O   UNL A   1      46.589  47.407  17.701  1.00  0.00    -0.268 OA
ATOM     24  N   UNL A   1      44.888  45.986  17.819  1.00  0.00    -0.321 N 
ATOM     25  H   UNL A   1      45.476  45.424  17.264  1.00  0.00     0.170 HD
BRANCH  24  26
ATOM     26  C   UNL A   1      43.597  45.433  17.943  1.00  0.00     0.041 A 
ATOM     27  C   UNL A   1      43.490  44.034  17.996  1.00  0.00     0.030 A 
ATOM     28  C   UNL A   1      42.423  46.182  17.963  1.00  0.00     0.030 A 
ATOM     29  C   UNL A   1      42.264  43.414  18.273  1.00  0.00     0.048 A 
ATOM     30  C   UNL A   1      41.183  45.560  18.215  1.00  0.00     0.048 A 
ATOM     31  C   UNL A   1      41.128  44.190  18.437  1.00  0.00     0.115 A 
BRANCH  31  32
ATOM     32  O   UNL A   1      39.983  43.576  18.850  1.00  0.00    -0.508 OA
ATOM     33  H   UNL A   1      39.150  43.960  18.655  1.00  0.00     0.293 HD
ENDBRANCH  31  32
ENDBRANCH  24  26
ENDBRANCH  19  22
ENDBRANCH  14  18
ENDBRANCH   8  13
ENDBRANCH   4   7
ENDBRANCH   2   3
ENDBRANCH   1   2
BRANCH   1  34
ATOM     34  C   UNL A   1      41.949  40.330  27.035  1.00  0.00     0.002 C 
BRANCH  34  35
ATOM     35  C   UNL A   1      41.686  38.827  27.195  1.00  0.00     0.002 C 
BRANCH  35  36
ATOM     36  C   UNL A   1      42.888  37.926  26.876  1.00  0.00     0.021 C 
BRANCH  36  37
ATOM     37  C   UNL A   1      44.179  38.423  27.517  1.00  0.00     0.116 C 
BRANCH  37  38
ATOM     38  N   UNL A   1      45.259  37.500  27.217  1.00  0.00    -0.352 N 
ATOM     39  C   UNL A   1      45.615  36.331  27.829  1.00  0.00     0.251 C 
ATOM     40  H   UNL A   1      45.824  37.756  26.452  1.00  0.00     0.163 HD
ATOM     41  O   UNL A   1      46.754  35.905  27.701  1.00  0.00    -0.269 OA
BRANCH  39  42
ATOM     42  C   UNL A   1      44.642  35.570  28.633  1.00  0.00     0.039 A 
ATOM     43  C   UNL A   1      44.034  34.459  28.036  1.00  0.00     0.014 A 
ATOM     44  C   UNL A   1      44.243  36.008  29.901  1.00  0.00     0.014 A 
ATOM     45  C   UNL A   1      43.054  33.763  28.726  1.00  0.00     0.010 A 
ATOM     46  C   UNL A   1      43.282  35.299  30.607  1.00  0.00     0.010 A 
ATOM     47  C   UNL A   1      42.696  34.175  30.018  1.00  0.00    -0.014 A 
BRANCH  47  48
ATOM     48  C   UNL A   1      41.828  33.289  30.815  1.00  0.00     0.031 A 
ATOM     49  C   UNL A   1      40.360  33.793  30.761  1.00  0.00     0.074 A 
ATOM     50  C   UNL A   1      42.453  32.254  31.463  1.00  0.00     0.049 A 
ATOM     51  N   UNL A   1      39.409  33.698  31.637  1.00  0.00    -0.248 NA
ATOM     52  C   UNL A   1      39.897  34.583  29.580  1.00  0.00     0.031 C 
ATOM     53  C   UNL A   1      43.887  31.901  31.316  1.00  0.00     0.029 A 
ATOM     54  N   UNL A   1      42.045  31.295  32.371  1.00  0.00    -0.354 N 
ATOM     55  C   UNL A   1      38.223  34.225  31.064  1.00  0.00     0.074 A 
ATOM     56  C   UNL A   1      38.616  34.858  29.844  1.00  0.00     0.031 C 
ATOM     57  C   UNL A   1      44.237  30.897  32.151  1.00  0.00     0.029 A 
ATOM     58  C   UNL A   1      43.083  30.485  32.926  1.00  0.00     0.049 A 
ATOM     59  H   UNL A   1      41.099  31.177  32.618  1.00  0.00     0.167 HD
ATOM     60  C   UNL A   1      36.979  33.973  31.578  1.00  0.00     0.037 A 
ATOM     61  C   UNL A   1      43.018  29.598  33.973  1.00  0.00     0.037 A 
ATOM     62  C   UNL A   1      37.112  33.160  32.737  1.00  0.00     0.049 A 
ATOM     63  C   UNL A   1      41.589  29.527  34.291  1.00  0.00     0.074 A 
ATOM     64  C   UNL A   1      37.568  33.444  33.996  1.00  0.00     0.029 A 
ATOM     65  N   UNL A   1      37.145  31.803  32.528  1.00  0.00    -0.354 N 
ATOM     66  N   UNL A   1      40.702  28.912  33.567  1.00  0.00    -0.248 NA
ATOM     67  C   UNL A   1      41.092  30.298  35.436  1.00  0.00     0.031 C 
ATOM     68  C   UNL A   1      38.354  32.316  34.293  1.00  0.00     0.029 A 
ATOM     69  C   UNL A   1      38.092  31.292  33.374  1.00  0.00     0.049 A 
ATOM     70  H   UNL A   1      36.591  31.294  31.893  1.00  0.00     0.167 HD
ATOM     71  C   UNL A   1      39.540  29.514  33.980  1.00  0.00     0.074 A 
ATOM     72  C   UNL A   1      39.792  30.056  35.298  1.00  0.00     0.031 C 
ATOM     73  C   UNL A   1      38.691  30.021  33.052  1.00  0.00     0.037 A 
BRANCH  60  74
ATOM     74  C   UNL A   1      35.575  34.144  31.062  1.00  0.00     0.064 A 
ATOM     75  C   UNL A   1      35.295  33.688  29.746  1.00  0.00     0.173 A 
ATOM     76  C   UNL A   1      34.665  35.054  31.607  1.00  0.00     0.173 A 
ATOM     77  F   UNL A   1      36.075  32.768  29.155  1.00  0.00    -0.203 F 
ATOM     78  C   UNL A   1      34.275  34.239  28.972  1.00  0.00     0.198 A 
ATOM     79  C   UNL A   1      33.610  35.567  30.843  1.00  0.00     0.198 A 
ATOM     80  F   UNL A   1      34.838  35.547  32.840  1.00  0.00    -0.203 F 
ATOM     81  F   UNL A   1      34.154  33.897  27.681  1.00  0.00    -0.200 F 
ATOM     82  C   UNL A   1      33.445  35.197  29.516  1.00  0.00     0.200 A 
ATOM     83  F   UNL A   1      32.797  36.491  31.374  1.00  0.00    -0.200 F 
ATOM     84  F   UNL A   1      32.515  35.790  28.756  1.00  0.00    -0.200 F 
ENDBRANCH  60  74
BRANCH  61  85
ATOM     85  C   UNL A   1      43.933  28.806  34.892  1.00  0.00     0.064 A 
ATOM     86  C   UNL A   1      44.094  27.417  34.915  1.00  0.00     0.173 A 
ATOM     87  C   UNL A   1      44.799  29.497  35.799  1.00  0.00     0.173 A 
ATOM     88  F   UNL A   1      43.266  26.619  34.231  1.00  0.00    -0.203 F 
ATOM     89  C   UNL A   1      45.113  26.795  35.673  1.00  0.00     0.198 A 
ATOM     90  C   UNL A   1      45.843  28.892  36.498  1.00  0.00     0.198 A 
ATOM     91  F   UNL A   1      44.663  30.805  36.050  1.00  0.00    -0.203 F 
ATOM     92  F   UNL A   1      45.229  25.459  35.663  1.00  0.00    -0.200 F 
ATOM     93  C   UNL A   1      46.014  27.535  36.421  1.00  0.00     0.200 A 
ATOM     94  F   UNL A   1      46.681  29.647  37.224  1.00  0.00    -0.200 F 
ATOM     95  F   UNL A   1      47.025  26.947  37.075  1.00  0.00    -0.200 F 
ENDBRANCH  61  85
BRANCH  73  96
ATOM     96  C   UNL A   1      38.793  29.375  31.681  1.00  0.00     0.064 A 
ATOM     97  C   UNL A   1      38.560  27.997  31.547  1.00  0.00     0.173 A 
ATOM     98  C   UNL A   1      39.223  30.034  30.517  1.00  0.00     0.173 A 
ATOM     99  F   UNL A   1      38.120  27.290  32.599  1.00  0.00    -0.203 F 
ATOM    100  C   UNL A   1      38.766  27.324  30.338  1.00  0.00     0.198 A 
ATOM    101  C   UNL A   1      39.430  29.368  29.305  1.00  0.00     0.198 A 
ATOM    102  F   UNL A   1      39.447  31.346  30.522  1.00  0.00    -0.203 F 
ATOM    103  F   UNL A   1      38.529  26.008  30.260  1.00  0.00    -0.200 F 
ATOM    104  C   UNL A   1      39.205  28.009  29.219  1.00  0.00     0.200 A 
ATOM    105  F   UNL A   1      39.839  30.050  28.224  1.00  0.00    -0.200 F 
ATOM    106  F   UNL A   1      39.391  27.366  28.057  1.00  0.00    -0.200 F 
ENDBRANCH  73  96
ENDBRANCH  47  48
ENDBRANCH  39  42
ENDBRANCH  37  38
ENDBRANCH  36  37
ENDBRANCH  35  36
ENDBRANCH  34  35
ENDBRANCH   1  34
TORSDOF 19
ENDMDL
MODEL 3
REMARK VINA RESULT:     -11.7      8.935     14.463
REMARK SMILES N#C/C(=C/c1cccn1-c1ccc(C(=O)NCCCCCCNC(=O)c2ccc(-c3c4nc(c(-c5c(F)c(F)c(F)c(F)c5F)c5ccc([nH]5)c(-c5c(F)c(F)c(F)c(F)c5F)c5nc(c(-c6c(F)c(F)c(F)c(F)c6F)c6ccc3[nH]6)C=C5)C=C4)cc2)cc1)C(=O)Nc1ccc(O)cc1
REMARK SMILES IDX 18 1 17 2 16 3 14 4 15 5 13 7 10 8 11 9 90 10 12 11 89 12
REMARK SMILES IDX 9 13 5 14 6 15 7 16 8 17 4 18 3 19 2 20 1 21 91 22 92 23
REMARK SMILES IDX 93 24 94 26 95 27 100 28 96 29 99 30 97 31 98 32 19 34 20 35
REMARK SMILES IDX 21 36 22 37 23 38 24 39 25 41 26 42 27 43 88 44 28 45 87 46
REMARK SMILES IDX 29 47 30 48 31 49 81 50 32 51 86 52 80 53 82 54 33 55 85 56
REMARK SMILES IDX 79 57 78 58 34 60 66 61 46 62 65 63 47 64 50 65 64 66 83 67
REMARK SMILES IDX 48 68 49 69 63 71 84 72 51 73 35 74 36 75 44 76 37 77 38 78
REMARK SMILES IDX 42 79 45 80 39 81 40 82 43 83 41 84 67 85 68 86 76 87 69 88
REMARK SMILES IDX 70 89 74 90 77 91 71 92 72 93 75 94 73 95 52 96 53 97 61 98
REMARK SMILES IDX 54 99 55 100 59 101 62 102 56 103 57 104 60 105 58 106
REMARK H PARENT 16 6 93 25 98 33 23 40 82 59 50 70
REMARK Flexibility Score: inf
ROOT
ATOM      1  C   UNL A   1      46.023  19.253  36.131  1.00  0.00     0.021 C 
ENDROOT
BRANCH   1   2
ATOM      2  C   UNL A   1      45.826  18.797  37.578  1.00  0.00     0.116 C 
BRANCH   2   3
ATOM      3  N   UNL A   1      44.844  17.732  37.618  1.00  0.00    -0.352 N 
ATOM      4  C   UNL A   1      44.514  16.754  38.516  1.00  0.00     0.251 C 
ATOM      5  O   UNL A   1      43.647  15.950  38.170  1.00  0.00    -0.269 OA
ATOM      6  H   UNL A   1      44.283  17.706  36.810  1.00  0.00     0.163 HD
BRANCH   4   7
ATOM      7  C   UNL A   1      45.078  16.647  39.889  1.00  0.00     0.039 A 
ATOM      8  C   UNL A   1      46.342  16.358  42.417  1.00  0.00     0.046 A 
ATOM      9  C   UNL A   1      47.105  16.519  41.255  1.00  0.00     0.027 A 
ATOM     10  C   UNL A   1      44.951  16.338  42.290  1.00  0.00     0.027 A 
ATOM     11  C   UNL A   1      46.477  16.632  40.006  1.00  0.00     0.016 A 
ATOM     12  C   UNL A   1      44.334  16.575  41.058  1.00  0.00     0.016 A 
BRANCH   8  13
ATOM     13  N   UNL A   1      46.974  16.352  43.711  1.00  0.00    -0.317 N 
ATOM     14  C   UNL A   1      47.068  15.319  44.658  1.00  0.00     0.047 A 
ATOM     15  C   UNL A   1      47.681  15.826  45.791  1.00  0.00     0.028 A 
ATOM     16  C   UNL A   1      47.952  17.187  45.571  1.00  0.00     0.020 A 
ATOM     17  C   UNL A   1      47.536  17.479  44.294  1.00  0.00     0.092 A 
BRANCH  14  18
ATOM     18  C   UNL A   1      46.779  13.973  44.335  1.00  0.00     0.052 C 
ATOM     19  C   UNL A   1      45.714  13.212  44.688  1.00  0.00     0.119 C 
BRANCH  19  20
ATOM     20  C   UNL A   1      46.134  11.755  44.579  1.00  0.00     0.105 C 
ATOM     21  N   UNL A   1      46.483  10.547  44.488  1.00  0.00    -0.192 NA
ENDBRANCH  19  20
BRANCH  19  22
ATOM     22  C   UNL A   1      44.445  13.598  45.389  1.00  0.00     0.266 C 
ATOM     23  O   UNL A   1      44.520  13.879  46.591  1.00  0.00    -0.268 OA
ATOM     24  N   UNL A   1      43.215  13.782  44.798  1.00  0.00    -0.321 N 
ATOM     25  H   UNL A   1      42.626  14.350  45.345  1.00  0.00     0.170 HD
BRANCH  24  26
ATOM     26  C   UNL A   1      42.584  13.364  43.609  1.00  0.00     0.041 A 
ATOM     27  C   UNL A   1      42.034  14.355  42.780  1.00  0.00     0.030 A 
ATOM     28  C   UNL A   1      42.427  12.032  43.231  1.00  0.00     0.030 A 
ATOM     29  C   UNL A   1      41.530  14.038  41.511  1.00  0.00     0.048 A 
ATOM     30  C   UNL A   1      41.896  11.707  41.967  1.00  0.00     0.048 A 
ATOM     31  C   UNL A   1      41.517  12.718  41.093  1.00  0.00     0.115 A 
BRANCH  31  32
ATOM     32  O   UNL A   1      41.161  12.454  39.804  1.00  0.00    -0.508 OA
ATOM     33  H   UNL A   1      41.628  11.805  39.313  1.00  0.00     0.293 HD
ENDBRANCH  31  32
ENDBRANCH  24  26
ENDBRANCH  19  22
ENDBRANCH  14  18
ENDBRANCH   8  13
ENDBRANCH   4   7
ENDBRANCH   2   3
ENDBRANCH   1   2
BRANCH   1  34
ATOM     34  C   UNL A   1      46.487  20.713  36.035  1.00  0.00     0.002 C 
BRANCH  34  35
ATOM     35  C   UNL A   1      46.036  21.598  37.205  1.00  0.00     0.002 C 
BRANCH  35  36
ATOM     36  C   UNL A   1      45.379  22.923  36.793  1.00  0.00     0.021 C 
BRANCH  36  37
ATOM     37  C   UNL A   1      46.133  24.139  37.320  1.00  0.00     0.116 C 
BRANCH  37  38
ATOM     38  N   UNL A   1      45.251  24.937  38.154  1.00  0.00    -0.352 N 
ATOM     39  C   UNL A   1      44.508  26.042  37.846  1.00  0.00     0.251 C 
ATOM     40  H   UNL A   1      45.177  24.633  39.087  1.00  0.00     0.163 HD
ATOM     41  O   UNL A   1      44.151  26.797  38.739  1.00  0.00    -0.269 OA
BRANCH  39  42
ATOM     42  C   UNL A   1      44.123  26.331  36.453  1.00  0.00     0.039 A 
ATOM     43  C   UNL A   1      43.051  25.610  35.914  1.00  0.00     0.014 A 
ATOM     44  C   UNL A   1      44.872  27.202  35.655  1.00  0.00     0.014 A 
ATOM     45  C   UNL A   1      42.705  25.792  34.583  1.00  0.00     0.010 A 
ATOM     46  C   UNL A   1      44.515  27.408  34.330  1.00  0.00     0.010 A 
ATOM     47  C   UNL A   1      43.428  26.705  33.802  1.00  0.00    -0.014 A 
BRANCH  47  48
ATOM     48  C   UNL A   1      42.900  27.050  32.469  1.00  0.00     0.031 A 
ATOM     49  C   UNL A   1      41.736  28.069  32.604  1.00  0.00     0.074 A 
ATOM     50  C   UNL A   1      43.479  26.405  31.405  1.00  0.00     0.049 A 
ATOM     51  N   UNL A   1      40.692  28.251  31.857  1.00  0.00    -0.248 NA
ATOM     52  C   UNL A   1      41.692  28.981  33.787  1.00  0.00     0.031 C 
ATOM     53  C   UNL A   1      44.655  25.504  31.495  1.00  0.00     0.029 A 
ATOM     54  N   UNL A   1      43.218  26.353  30.049  1.00  0.00    -0.354 N 
ATOM     55  C   UNL A   1      39.987  29.380  32.348  1.00  0.00     0.074 A 
ATOM     56  C   UNL A   1      40.587  29.712  33.603  1.00  0.00     0.031 C 
ATOM     57  C   UNL A   1      44.938  24.941  30.298  1.00  0.00     0.029 A 
ATOM     58  C   UNL A   1      43.991  25.408  29.305  1.00  0.00     0.049 A 
ATOM     59  H   UNL A   1      42.545  26.930  29.622  1.00  0.00     0.167 HD
ATOM     60  C   UNL A   1      39.045  30.043  31.608  1.00  0.00     0.037 A 
ATOM     61  C   UNL A   1      43.830  24.996  28.004  1.00  0.00     0.037 A 
ATOM     62  C   UNL A   1      38.907  29.396  30.348  1.00  0.00     0.049 A 
ATOM     63  C   UNL A   1      42.786  25.880  27.478  1.00  0.00     0.074 A 
ATOM     64  C   UNL A   1      38.333  28.204  30.001  1.00  0.00     0.029 A 
ATOM     65  N   UNL A   1      39.767  29.803  29.358  1.00  0.00    -0.354 N 
ATOM     66  N   UNL A   1      42.962  27.131  27.179  1.00  0.00    -0.248 NA
ATOM     67  C   UNL A   1      41.416  25.362  27.390  1.00  0.00     0.031 C 
ATOM     68  C   UNL A   1      39.261  27.679  29.082  1.00  0.00     0.029 A 
ATOM     69  C   UNL A   1      40.159  28.677  28.684  1.00  0.00     0.049 A 
ATOM     70  H   UNL A   1      40.046  30.727  29.167  1.00  0.00     0.167 HD
ATOM     71  C   UNL A   1      41.675  27.607  27.206  1.00  0.00     0.074 A 
ATOM     72  C   UNL A   1      40.802  26.473  26.995  1.00  0.00     0.031 C 
ATOM     73  C   UNL A   1      41.394  28.713  27.942  1.00  0.00     0.037 A 
BRANCH  60  74
ATOM     74  C   UNL A   1      38.360  31.377  31.731  1.00  0.00     0.064 A 
ATOM     75  C   UNL A   1      37.011  31.389  32.177  1.00  0.00     0.173 A 
ATOM     76  C   UNL A   1      38.802  32.528  31.072  1.00  0.00     0.173 A 
ATOM     77  F   UNL A   1      36.507  30.356  32.871  1.00  0.00    -0.203 F 
ATOM     78  C   UNL A   1      36.125  32.408  31.832  1.00  0.00     0.198 A 
ATOM     79  C   UNL A   1      37.920  33.574  30.772  1.00  0.00     0.198 A 
ATOM     80  F   UNL A   1      40.055  32.619  30.610  1.00  0.00    -0.203 F 
ATOM     81  F   UNL A   1      34.823  32.295  32.133  1.00  0.00    -0.200 F 
ATOM     82  C   UNL A   1      36.577  33.492  31.108  1.00  0.00     0.200 A 
ATOM     83  F   UNL A   1      38.362  34.632  30.078  1.00  0.00    -0.200 F 
ATOM     84  F   UNL A   1      35.717  34.436  30.703  1.00  0.00    -0.200 F 
ENDBRANCH  60  74
BRANCH  61  85
ATOM     85  C   UNL A   1      44.309  23.910  27.055  1.00  0.00     0.064 A 
ATOM     86  C   UNL A   1      43.735  22.648  26.871  1.00  0.00     0.173 A 
ATOM     87  C   UNL A   1      45.412  24.169  26.181  1.00  0.00     0.173 A 
ATOM     88  F   UNL A   1      42.787  22.199  27.701  1.00  0.00    -0.203 F 
ATOM     89  C   UNL A   1      44.139  21.788  25.825  1.00  0.00     0.198 A 
ATOM     90  C   UNL A   1      45.771  23.350  25.111  1.00  0.00     0.198 A 
ATOM     91  F   UNL A   1      46.200  25.241  26.332  1.00  0.00    -0.203 F 
ATOM     92  F   UNL A   1      43.559  20.588  25.687  1.00  0.00    -0.200 F 
ATOM     93  C   UNL A   1      45.119  22.160  24.919  1.00  0.00     0.200 A 
ATOM     94  F   UNL A   1      46.739  23.743  24.269  1.00  0.00    -0.200 F 
ATOM     95  F   UNL A   1      45.446  21.375  23.884  1.00  0.00    -0.200 F 
ENDBRANCH  61  85
BRANCH  73  96
ATOM     96  C   UNL A   1      42.576  29.638  28.170  1.00  0.00     0.064 A 
ATOM     97  C   UNL A   1      43.197  30.250  27.070  1.00  0.00     0.173 A 
ATOM     98  C   UNL A   1      43.192  29.855  29.414  1.00  0.00     0.173 A 
ATOM     99  F   UNL A   1      42.664  30.121  25.846  1.00  0.00    -0.203 F 
ATOM    100  C   UNL A   1      44.366  31.006  27.205  1.00  0.00     0.198 A 
ATOM    101  C   UNL A   1      44.361  30.611  29.556  1.00  0.00     0.198 A 
ATOM    102  F   UNL A   1      42.673  29.346  30.529  1.00  0.00    -0.203 F 
ATOM    103  F   UNL A   1      44.922  31.571  26.125  1.00  0.00    -0.200 F 
ATOM    104  C   UNL A   1      44.950  31.183  28.447  1.00  0.00     0.200 A 
ATOM    105  F   UNL A   1      44.904  30.788  30.770  1.00  0.00    -0.200 F 
ATOM    106  F   UNL A   1      46.064  31.918  28.578  1.00  0.00    -0.200 F 
ENDBRANCH  73  96
ENDBRANCH  47  48
ENDBRANCH  39  42
ENDBRANCH  37  38
ENDBRANCH  36  37
ENDBRANCH  35  36
ENDBRANCH  34  35
ENDBRANCH   1  34
TORSDOF 19
ENDMDL
