MODEL 1
REMARK VINA RESULT:     -12.6      0.000      0.000
REMARK SMILES COc1cc([C@@H]2CC(=O)Nc3c(C(=O)NCCCCCCNC(=O)c4ccc(-c5c6nc(c(-c7c(F)c(F)c(F)c(F)c7F)c7ccc([nH]7)c(-c7c(F)c(F)c(F)c(F)c7F)c7nc(c(-c8c(F)c(F)c(F)c(F)c8F)c8ccc5[nH]8)C=C7)C=C6)cc4)cn(-c4ccccc4)c32)cc(OC)c1OC
REMARK SMILES IDX 18 1 17 2 16 3 15 4 13 5 14 6 12 8 6 9 7 10 96 11 8 12 11 13
REMARK SMILES IDX 89 14 9 15 10 16 88 17 5 19 3 20 4 21 101 22 98 23 97 24
REMARK SMILES IDX 2 25 1 26 102 27 103 28 99 29 100 30 90 31 91 32 95 33 92 34
REMARK SMILES IDX 94 35 93 36 19 37 20 38 21 39 22 40 23 41 24 43 25 44 26 45
REMARK SMILES IDX 87 46 27 47 86 48 28 49 29 50 30 51 80 52 31 53 85 54 79 55
REMARK SMILES IDX 81 56 32 57 84 58 78 59 77 60 33 62 65 63 45 64 64 65 46 66
REMARK SMILES IDX 49 67 63 68 82 69 47 70 48 71 62 73 83 74 50 75 34 76 35 77
REMARK SMILES IDX 43 78 36 79 37 80 41 81 44 82 38 83 39 84 42 85 40 86 66 87
REMARK SMILES IDX 67 88 75 89 68 90 69 91 73 92 76 93 70 94 71 95 74 96 72 97
REMARK SMILES IDX 51 98 52 99 60 100 53 101 54 102 58 103 61 104 55 105 56 106
REMARK SMILES IDX 59 107 57 108
REMARK H PARENT 15 7 10 18 22 42 81 61 49 72
REMARK Flexibility Score: inf
ROOT
ATOM      1  C   UNL A   1      34.524  28.949  27.292  1.00  0.00     0.002 C 
ENDROOT
BRANCH   1   2
ATOM      2  C   UNL A   1      33.472  29.276  26.228  1.00  0.00     0.021 C 
BRANCH   2   3
ATOM      3  C   UNL A   1      32.104  28.638  26.501  1.00  0.00     0.116 C 
BRANCH   3   4
ATOM      4  N   UNL A   1      31.442  28.343  25.259  1.00  0.00    -0.352 N 
ATOM      5  C   UNL A   1      31.349  27.217  24.492  1.00  0.00     0.254 C 
ATOM      6  O   UNL A   1      30.666  27.347  23.471  1.00  0.00    -0.269 OA
ATOM      7  H   UNL A   1      30.955  29.112  24.884  1.00  0.00     0.163 HD
BRANCH   5   8
ATOM      8  C   UNL A   1      31.950  25.918  24.824  1.00  0.00     0.081 A 
ATOM      9  C   UNL A   1      32.742  22.536  26.240  1.00  0.00     0.078 C 
ATOM     10  C   UNL A   1      31.749  22.566  27.412  1.00  0.00     0.115 C 
ATOM     11  C   UNL A   1      32.655  23.832  25.477  1.00  0.00     0.055 A 
ATOM     12  C   UNL A   1      30.445  23.266  27.091  1.00  0.00     0.225 C 
ATOM     13  C   UNL A   1      31.607  24.733  25.550  1.00  0.00     0.076 A 
ATOM     14  N   UNL A   1      33.688  24.438  24.796  1.00  0.00    -0.317 N 
ATOM     15  O   UNL A   1      29.381  22.955  27.627  1.00  0.00    -0.275 OA
ATOM     16  N   UNL A   1      30.509  24.381  26.299  1.00  0.00    -0.324 N 
ATOM     17  C   UNL A   1      33.278  25.701  24.453  1.00  0.00     0.107 A 
ATOM     18  H   UNL A   1      29.720  24.967  26.264  1.00  0.00     0.170 HD
BRANCH   9  19
ATOM     19  C   UNL A   1      32.537  21.251  25.448  1.00  0.00    -0.031 A 
ATOM     20  C   UNL A   1      32.204  20.197  23.263  1.00  0.00     0.164 A 
ATOM     21  C   UNL A   1      32.211  21.335  24.084  1.00  0.00     0.055 A 
ATOM     22  C   UNL A   1      32.570  18.939  23.771  1.00  0.00     0.203 A 
ATOM     23  C   UNL A   1      32.847  18.842  25.153  1.00  0.00     0.164 A 
ATOM     24  C   UNL A   1      32.808  19.987  25.973  1.00  0.00     0.055 A 
BRANCH  20  25
ATOM     25  O   UNL A   1      31.971  20.414  21.929  1.00  0.00    -0.493 OA
ATOM     26  C   UNL A   1      32.240  21.768  21.557  1.00  0.00     0.278 C 
ENDBRANCH  20  25
BRANCH  22  27
ATOM     27  O   UNL A   1      32.730  17.797  23.037  1.00  0.00    -0.490 OA
ATOM     28  C   UNL A   1      34.009  17.226  22.832  1.00  0.00     0.278 C 
ENDBRANCH  22  27
BRANCH  23  29
ATOM     29  O   UNL A   1      33.190  17.723  25.876  1.00  0.00    -0.493 OA
ATOM     30  C   UNL A   1      32.343  16.585  25.832  1.00  0.00     0.278 C 
ENDBRANCH  23  29
ENDBRANCH   9  19
BRANCH  14  31
ATOM     31  C   UNL A   1      34.991  23.935  24.621  1.00  0.00     0.045 A 
ATOM     32  C   UNL A   1      35.311  23.239  23.454  1.00  0.00     0.026 A 
ATOM     33  C   UNL A   1      35.923  24.068  25.655  1.00  0.00     0.026 A 
ATOM     34  C   UNL A   1      36.544  22.602  23.350  1.00  0.00     0.002 A 
ATOM     35  C   UNL A   1      37.150  23.415  25.548  1.00  0.00     0.002 A 
ATOM     36  C   UNL A   1      37.452  22.670  24.405  1.00  0.00     0.000 A 
ENDBRANCH  14  31
ENDBRANCH   5   8
ENDBRANCH   3   4
ENDBRANCH   2   3
ENDBRANCH   1   2
BRANCH   1  37
ATOM     37  C   UNL A   1      35.434  30.125  27.686  1.00  0.00     0.002 C 
BRANCH  37  38
ATOM     38  C   UNL A   1      34.794  31.522  27.647  1.00  0.00     0.021 C 
BRANCH  38  39
ATOM     39  C   UNL A   1      35.672  32.598  28.263  1.00  0.00     0.116 C 
BRANCH  39  40
ATOM     40  N   UNL A   1      35.254  32.917  29.635  1.00  0.00    -0.352 N 
ATOM     41  C   UNL A   1      35.561  32.280  30.818  1.00  0.00     0.251 C 
ATOM     42  H   UNL A   1      34.668  33.703  29.723  1.00  0.00     0.163 HD
ATOM     43  O   UNL A   1      34.888  32.461  31.831  1.00  0.00    -0.269 OA
BRANCH  41  44
ATOM     44  C   UNL A   1      36.721  31.382  30.854  1.00  0.00     0.039 A 
ATOM     45  C   UNL A   1      36.592  29.991  30.913  1.00  0.00     0.014 A 
ATOM     46  C   UNL A   1      37.973  31.978  30.797  1.00  0.00     0.014 A 
ATOM     47  C   UNL A   1      37.745  29.212  30.854  1.00  0.00     0.010 A 
ATOM     48  C   UNL A   1      39.062  31.222  30.490  1.00  0.00     0.010 A 
ATOM     49  C   UNL A   1      38.976  29.846  30.637  1.00  0.00    -0.014 A 
BRANCH  49  50
ATOM     50  C   UNL A   1      40.226  29.112  30.537  1.00  0.00     0.031 A 
ATOM     51  C   UNL A   1      40.919  28.867  31.829  1.00  0.00     0.074 A 
ATOM     52  C   UNL A   1      40.557  28.471  29.394  1.00  0.00     0.049 A 
ATOM     53  N   UNL A   1      42.088  29.272  32.195  1.00  0.00    -0.248 NA
ATOM     54  C   UNL A   1      40.167  28.181  32.893  1.00  0.00     0.031 C 
ATOM     55  C   UNL A   1      39.773  28.330  28.155  1.00  0.00     0.029 A 
ATOM     56  N   UNL A   1      41.636  27.689  29.142  1.00  0.00    -0.354 N 
ATOM     57  C   UNL A   1      42.298  28.750  33.471  1.00  0.00     0.074 A 
ATOM     58  C   UNL A   1      41.026  28.245  33.913  1.00  0.00     0.031 C 
ATOM     59  C   UNL A   1      40.284  27.332  27.402  1.00  0.00     0.029 A 
ATOM     60  C   UNL A   1      41.527  26.898  28.006  1.00  0.00     0.049 A 
ATOM     61  H   UNL A   1      42.434  27.683  29.718  1.00  0.00     0.167 HD
ATOM     62  C   UNL A   1      43.557  28.577  33.963  1.00  0.00     0.037 A 
ATOM     63  C   UNL A   1      42.390  25.928  27.622  1.00  0.00     0.037 A 
ATOM     64  C   UNL A   1      44.515  29.326  33.186  1.00  0.00     0.049 A 
ATOM     65  C   UNL A   1      43.655  26.153  28.367  1.00  0.00     0.074 A 
ATOM     66  C   UNL A   1      44.707  30.666  32.919  1.00  0.00     0.029 A 
ATOM     67  N   UNL A   1      45.232  28.649  32.229  1.00  0.00    -0.354 N 
ATOM     68  N   UNL A   1      44.429  27.189  28.183  1.00  0.00    -0.248 NA
ATOM     69  C   UNL A   1      43.803  25.482  29.650  1.00  0.00     0.031 C 
ATOM     70  C   UNL A   1      45.102  30.714  31.550  1.00  0.00     0.029 A 
ATOM     71  C   UNL A   1      45.198  29.402  31.084  1.00  0.00     0.049 A 
ATOM     72  H   UNL A   1      45.686  27.783  32.344  1.00  0.00     0.167 HD
ATOM     73  C   UNL A   1      44.850  27.548  29.456  1.00  0.00     0.074 A 
ATOM     74  C   UNL A   1      44.493  26.417  30.310  1.00  0.00     0.031 C 
ATOM     75  C   UNL A   1      45.179  28.840  29.754  1.00  0.00     0.037 A 
BRANCH  62  76
ATOM     76  C   UNL A   1      43.988  27.474  34.902  1.00  0.00     0.064 A 
ATOM     77  C   UNL A   1      44.628  27.821  36.112  1.00  0.00     0.173 A 
ATOM     78  C   UNL A   1      44.078  26.111  34.546  1.00  0.00     0.173 A 
ATOM     79  F   UNL A   1      44.608  29.085  36.560  1.00  0.00    -0.203 F 
ATOM     80  C   UNL A   1      45.384  26.901  36.843  1.00  0.00     0.198 A 
ATOM     81  C   UNL A   1      44.789  25.184  35.308  1.00  0.00     0.198 A 
ATOM     82  F   UNL A   1      43.584  25.635  33.399  1.00  0.00    -0.203 F 
ATOM     83  F   UNL A   1      46.087  27.314  37.906  1.00  0.00    -0.200 F 
ATOM     84  C   UNL A   1      45.475  25.586  36.433  1.00  0.00     0.200 A 
ATOM     85  F   UNL A   1      44.873  23.913  34.887  1.00  0.00    -0.200 F 
ATOM     86  F   UNL A   1      46.255  24.718  37.090  1.00  0.00    -0.200 F 
ENDBRANCH  62  76
BRANCH  63  87
ATOM     87  C   UNL A   1      42.086  24.663  26.915  1.00  0.00     0.064 A 
ATOM     88  C   UNL A   1      42.920  24.177  25.898  1.00  0.00     0.173 A 
ATOM     89  C   UNL A   1      41.111  23.773  27.410  1.00  0.00     0.173 A 
ATOM     90  F   UNL A   1      43.901  24.949  25.408  1.00  0.00    -0.203 F 
ATOM     91  C   UNL A   1      42.798  22.870  25.414  1.00  0.00     0.198 A 
ATOM     92  C   UNL A   1      40.989  22.469  26.924  1.00  0.00     0.198 A 
ATOM     93  F   UNL A   1      40.322  24.121  28.437  1.00  0.00    -0.203 F 
ATOM     94  F   UNL A   1      43.647  22.422  24.479  1.00  0.00    -0.200 F 
ATOM     95  C   UNL A   1      41.841  22.014  25.934  1.00  0.00     0.200 A 
ATOM     96  F   UNL A   1      40.085  21.639  27.464  1.00  0.00    -0.200 F 
ATOM     97  F   UNL A   1      41.764  20.744  25.513  1.00  0.00    -0.200 F 
ENDBRANCH  63  87
BRANCH  75  98
ATOM     98  C   UNL A   1      45.298  29.821  28.619  1.00  0.00     0.064 A 
ATOM     99  C   UNL A   1      44.252  30.655  28.190  1.00  0.00     0.173 A 
ATOM    100  C   UNL A   1      46.571  30.058  28.084  1.00  0.00     0.173 A 
ATOM    101  F   UNL A   1      43.028  30.556  28.720  1.00  0.00    -0.203 F 
ATOM    102  C   UNL A   1      44.468  31.665  27.252  1.00  0.00     0.198 A 
ATOM    103  C   UNL A   1      46.792  31.089  27.175  1.00  0.00     0.198 A 
ATOM    104  F   UNL A   1      47.618  29.329  28.497  1.00  0.00    -0.203 F 
ATOM    105  F   UNL A   1      43.453  32.451  26.865  1.00  0.00    -0.200 F 
ATOM    106  C   UNL A   1      45.740  31.889  26.756  1.00  0.00     0.200 A 
ATOM    107  F   UNL A   1      48.034  31.334  26.736  1.00  0.00    -0.200 F 
ATOM    108  F   UNL A   1      45.960  32.893  25.896  1.00  0.00    -0.200 F 
ENDBRANCH  75  98
ENDBRANCH  49  50
ENDBRANCH  41  44
ENDBRANCH  39  40
ENDBRANCH  38  39
ENDBRANCH  37  38
ENDBRANCH   1  37
TORSDOF 18
ENDMDL
MODEL 2
REMARK VINA RESULT:     -11.3      5.644     12.652
REMARK SMILES COc1cc([C@@H]2CC(=O)Nc3c(C(=O)NCCCCCCNC(=O)c4ccc(-c5c6nc(c(-c7c(F)c(F)c(F)c(F)c7F)c7ccc([nH]7)c(-c7c(F)c(F)c(F)c(F)c7F)c7nc(c(-c8c(F)c(F)c(F)c(F)c8F)c8ccc5[nH]8)C=C7)C=C6)cc4)cn(-c4ccccc4)c32)cc(OC)c1OC
REMARK SMILES IDX 18 1 17 2 16 3 15 4 13 5 14 6 12 8 6 9 7 10 96 11 8 12 11 13
REMARK SMILES IDX 89 14 9 15 10 16 88 17 5 19 3 20 4 21 101 22 98 23 97 24
REMARK SMILES IDX 2 25 1 26 102 27 103 28 99 29 100 30 90 31 91 32 95 33 92 34
REMARK SMILES IDX 94 35 93 36 19 37 20 38 21 39 22 40 23 41 24 43 25 44 26 45
REMARK SMILES IDX 87 46 27 47 86 48 28 49 29 50 30 51 80 52 31 53 85 54 79 55
REMARK SMILES IDX 81 56 32 57 84 58 78 59 77 60 33 62 65 63 45 64 64 65 46 66
REMARK SMILES IDX 49 67 63 68 82 69 47 70 48 71 62 73 83 74 50 75 34 76 35 77
REMARK SMILES IDX 43 78 36 79 37 80 41 81 44 82 38 83 39 84 42 85 40 86 66 87
REMARK SMILES IDX 67 88 75 89 68 90 69 91 73 92 76 93 70 94 71 95 74 96 72 97
REMARK SMILES IDX 51 98 52 99 60 100 53 101 54 102 58 103 61 104 55 105 56 106
REMARK SMILES IDX 59 107 57 108
REMARK H PARENT 15 7 10 18 22 42 81 61 49 72
REMARK Flexibility Score: inf
ROOT
ATOM      1  C   UNL A   1      45.238  24.508  26.188  1.00  0.00     0.002 C 
ENDROOT
BRANCH   1   2
ATOM      2  C   UNL A   1      46.116  24.819  24.973  1.00  0.00     0.021 C 
BRANCH   2   3
ATOM      3  C   UNL A   1      47.501  25.365  25.340  1.00  0.00     0.116 C 
BRANCH   3   4
ATOM      4  N   UNL A   1      47.425  26.780  25.584  1.00  0.00    -0.352 N 
ATOM      5  C   UNL A   1      47.392  27.532  26.723  1.00  0.00     0.254 C 
ATOM      6  O   UNL A   1      47.335  28.751  26.531  1.00  0.00    -0.269 OA
ATOM      7  H   UNL A   1      47.391  27.317  24.760  1.00  0.00     0.163 HD
BRANCH   5   8
ATOM      8  C   UNL A   1      47.459  26.997  28.091  1.00  0.00     0.081 A 
ATOM      9  C   UNL A   1      48.555  25.633  31.408  1.00  0.00     0.078 C 
ATOM     10  C   UNL A   1      50.004  25.298  31.025  1.00  0.00     0.115 C 
ATOM     11  C   UNL A   1      47.838  26.201  30.211  1.00  0.00     0.055 A 
ATOM     12  C   UNL A   1      50.628  26.289  30.065  1.00  0.00     0.225 C 
ATOM     13  C   UNL A   1      48.453  26.711  29.080  1.00  0.00     0.076 A 
ATOM     14  N   UNL A   1      46.493  26.078  29.942  1.00  0.00    -0.317 N 
ATOM     15  O   UNL A   1      51.836  26.526  30.055  1.00  0.00    -0.275 OA
ATOM     16  N   UNL A   1      49.825  26.802  29.081  1.00  0.00    -0.324 N 
ATOM     17  C   UNL A   1      46.282  26.508  28.658  1.00  0.00     0.107 A 
ATOM     18  H   UNL A   1      50.257  27.264  28.327  1.00  0.00     0.170 HD
BRANCH   9  19
ATOM     19  C   UNL A   1      48.559  26.477  32.676  1.00  0.00    -0.031 A 
ATOM     20  C   UNL A   1      48.560  28.713  33.676  1.00  0.00     0.164 A 
ATOM     21  C   UNL A   1      48.741  27.866  32.572  1.00  0.00     0.055 A 
ATOM     22  C   UNL A   1      48.143  28.201  34.915  1.00  0.00     0.203 A 
ATOM     23  C   UNL A   1      48.010  26.800  35.039  1.00  0.00     0.164 A 
ATOM     24  C   UNL A   1      48.238  25.959  33.932  1.00  0.00     0.055 A 
BRANCH  20  25
ATOM     25  O   UNL A   1      48.664  30.059  33.431  1.00  0.00    -0.493 OA
ATOM     26  C   UNL A   1      50.016  30.512  33.530  1.00  0.00     0.278 C 
ENDBRANCH  20  25
BRANCH  22  27
ATOM     27  O   UNL A   1      47.805  28.943  36.013  1.00  0.00    -0.490 OA
ATOM     28  C   UNL A   1      46.594  29.674  36.063  1.00  0.00     0.278 C 
ENDBRANCH  22  27
BRANCH  23  29
ATOM     29  O   UNL A   1      47.651  26.073  36.150  1.00  0.00    -0.493 OA
ATOM     30  C   UNL A   1      48.133  24.746  36.294  1.00  0.00     0.278 C 
ENDBRANCH  23  29
ENDBRANCH   9  19
BRANCH  14  31
ATOM     31  C   UNL A   1      45.523  25.468  30.761  1.00  0.00     0.045 A 
ATOM     32  C   UNL A   1      45.176  26.058  31.977  1.00  0.00     0.026 A 
ATOM     33  C   UNL A   1      44.982  24.236  30.381  1.00  0.00     0.026 A 
ATOM     34  C   UNL A   1      44.343  25.375  32.859  1.00  0.00     0.002 A 
ATOM     35  C   UNL A   1      44.160  23.553  31.276  1.00  0.00     0.002 A 
ATOM     36  C   UNL A   1      43.855  24.115  32.519  1.00  0.00     0.000 A 
ENDBRANCH  14  31
ENDBRANCH   5   8
ENDBRANCH   3   4
ENDBRANCH   2   3
ENDBRANCH   1   2
BRANCH   1  37
ATOM     37  C   UNL A   1      45.120  23.014  26.536  1.00  0.00     0.002 C 
BRANCH  37  38
ATOM     38  C   UNL A   1      44.283  22.156  25.573  1.00  0.00     0.021 C 
BRANCH  38  39
ATOM     39  C   UNL A   1      43.066  22.885  25.028  1.00  0.00     0.116 C 
BRANCH  39  40
ATOM     40  N   UNL A   1      41.817  22.318  25.552  1.00  0.00    -0.352 N 
ATOM     41  C   UNL A   1      41.012  22.765  26.578  1.00  0.00     0.251 C 
ATOM     42  H   UNL A   1      41.508  21.498  25.104  1.00  0.00     0.163 HD
ATOM     43  O   UNL A   1      40.188  22.022  27.109  1.00  0.00    -0.269 OA
BRANCH  41  44
ATOM     44  C   UNL A   1      41.145  24.156  27.024  1.00  0.00     0.039 A 
ATOM     45  C   UNL A   1      40.417  25.202  26.446  1.00  0.00     0.014 A 
ATOM     46  C   UNL A   1      42.015  24.393  28.078  1.00  0.00     0.014 A 
ATOM     47  C   UNL A   1      40.539  26.478  26.991  1.00  0.00     0.010 A 
ATOM     48  C   UNL A   1      41.941  25.570  28.756  1.00  0.00     0.010 A 
ATOM     49  C   UNL A   1      41.304  26.644  28.153  1.00  0.00    -0.014 A 
BRANCH  49  50
ATOM     50  C   UNL A   1      41.467  27.933  28.803  1.00  0.00     0.031 A 
ATOM     51  C   UNL A   1      42.665  28.705  28.382  1.00  0.00     0.074 A 
ATOM     52  C   UNL A   1      40.452  28.480  29.508  1.00  0.00     0.049 A 
ATOM     53  N   UNL A   1      43.661  29.089  29.106  1.00  0.00    -0.248 NA
ATOM     54  C   UNL A   1      42.830  28.988  26.946  1.00  0.00     0.031 C 
ATOM     55  C   UNL A   1      39.080  27.977  29.692  1.00  0.00     0.029 A 
ATOM     56  N   UNL A   1      40.399  29.690  30.119  1.00  0.00    -0.354 N 
ATOM     57  C   UNL A   1      44.502  29.812  28.260  1.00  0.00     0.074 A 
ATOM     58  C   UNL A   1      44.034  29.565  26.923  1.00  0.00     0.031 C 
ATOM     59  C   UNL A   1      38.286  28.971  30.144  1.00  0.00     0.029 A 
ATOM     60  C   UNL A   1      39.121  30.112  30.461  1.00  0.00     0.049 A 
ATOM     61  H   UNL A   1      41.203  30.227  30.305  1.00  0.00     0.167 HD
ATOM     62  C   UNL A   1      45.376  30.733  28.754  1.00  0.00     0.037 A 
ATOM     63  C   UNL A   1      38.783  31.334  30.936  1.00  0.00     0.037 A 
ATOM     64  C   UNL A   1      45.553  30.556  30.175  1.00  0.00     0.049 A 
ATOM     65  C   UNL A   1      40.033  31.971  31.424  1.00  0.00     0.074 A 
ATOM     66  C   UNL A   1      46.040  29.538  30.969  1.00  0.00     0.029 A 
ATOM     67  N   UNL A   1      44.841  31.377  31.016  1.00  0.00    -0.354 N 
ATOM     68  N   UNL A   1      40.712  31.540  32.453  1.00  0.00    -0.248 NA
ATOM     69  C   UNL A   1      40.783  32.780  30.475  1.00  0.00     0.031 C 
ATOM     70  C   UNL A   1      45.190  29.529  32.114  1.00  0.00     0.029 A 
ATOM     71  C   UNL A   1      44.285  30.584  31.987  1.00  0.00     0.049 A 
ATOM     72  H   UNL A   1      44.746  32.354  30.936  1.00  0.00     0.167 HD
ATOM     73  C   UNL A   1      42.042  31.666  32.080  1.00  0.00     0.074 A 
ATOM     74  C   UNL A   1      42.025  32.503  30.882  1.00  0.00     0.031 C 
ATOM     75  C   UNL A   1      43.002  30.844  32.597  1.00  0.00     0.037 A 
BRANCH  62  76
ATOM     76  C   UNL A   1      45.797  32.006  28.055  1.00  0.00     0.064 A 
ATOM     77  C   UNL A   1      44.801  32.917  27.642  1.00  0.00     0.173 A 
ATOM     78  C   UNL A   1      47.080  32.232  27.512  1.00  0.00     0.173 A 
ATOM     79  F   UNL A   1      43.542  32.808  28.094  1.00  0.00    -0.203 F 
ATOM     80  C   UNL A   1      45.046  33.900  26.681  1.00  0.00     0.198 A 
ATOM     81  C   UNL A   1      47.333  33.251  26.593  1.00  0.00     0.198 A 
ATOM     82  F   UNL A   1      48.115  31.421  27.751  1.00  0.00    -0.203 F 
ATOM     83  F   UNL A   1      44.033  34.646  26.219  1.00  0.00    -0.200 F 
ATOM     84  C   UNL A   1      46.310  34.059  26.148  1.00  0.00     0.200 A 
ATOM     85  F   UNL A   1      48.565  33.382  26.080  1.00  0.00    -0.200 F 
ATOM     86  F   UNL A   1      46.533  34.952  25.176  1.00  0.00    -0.200 F 
ENDBRANCH  62  76
BRANCH  63  87
ATOM     87  C   UNL A   1      37.533  32.090  30.701  1.00  0.00     0.064 A 
ATOM     88  C   UNL A   1      37.244  32.652  29.449  1.00  0.00     0.173 A 
ATOM     89  C   UNL A   1      36.474  32.049  31.632  1.00  0.00     0.173 A 
ATOM     90  F   UNL A   1      38.186  32.686  28.496  1.00  0.00    -0.203 F 
ATOM     91  C   UNL A   1      35.966  33.129  29.138  1.00  0.00     0.198 A 
ATOM     92  C   UNL A   1      35.199  32.527  31.321  1.00  0.00     0.198 A 
ATOM     93  F   UNL A   1      36.633  31.458  32.825  1.00  0.00    -0.203 F 
ATOM     94  F   UNL A   1      35.712  33.611  27.914  1.00  0.00    -0.200 F 
ATOM     95  C   UNL A   1      34.942  33.058  30.070  1.00  0.00     0.200 A 
ATOM     96  F   UNL A   1      34.209  32.415  32.217  1.00  0.00    -0.200 F 
ATOM     97  F   UNL A   1      33.705  33.460  29.751  1.00  0.00    -0.200 F 
ENDBRANCH  63  87
BRANCH  75  98
ATOM     98  C   UNL A   1      42.627  29.953  33.751  1.00  0.00     0.064 A 
ATOM     99  C   UNL A   1      42.163  28.635  33.607  1.00  0.00     0.173 A 
ATOM    100  C   UNL A   1      42.938  30.388  35.046  1.00  0.00     0.173 A 
ATOM    101  F   UNL A   1      41.933  28.113  32.397  1.00  0.00    -0.203 F 
ATOM    102  C   UNL A   1      41.996  27.799  34.711  1.00  0.00     0.198 A 
ATOM    103  C   UNL A   1      42.804  29.541  36.144  1.00  0.00     0.198 A 
ATOM    104  F   UNL A   1      43.436  31.618  35.240  1.00  0.00    -0.203 F 
ATOM    105  F   UNL A   1      41.557  26.543  34.544  1.00  0.00    -0.200 F 
ATOM    106  C   UNL A   1      42.330  28.250  35.977  1.00  0.00     0.200 A 
ATOM    107  F   UNL A   1      43.175  29.965  37.359  1.00  0.00    -0.200 F 
ATOM    108  F   UNL A   1      42.222  27.431  37.032  1.00  0.00    -0.200 F 
ENDBRANCH  75  98
ENDBRANCH  49  50
ENDBRANCH  41  44
ENDBRANCH  39  40
ENDBRANCH  38  39
ENDBRANCH  37  38
ENDBRANCH   1  37
TORSDOF 18
ENDMDL
MODEL 3
REMARK VINA RESULT:     -11.2      5.129      8.645
REMARK SMILES COc1cc([C@@H]2CC(=O)Nc3c(C(=O)NCCCCCCNC(=O)c4ccc(-c5c6nc(c(-c7c(F)c(F)c(F)c(F)c7F)c7ccc([nH]7)c(-c7c(F)c(F)c(F)c(F)c7F)c7nc(c(-c8c(F)c(F)c(F)c(F)c8F)c8ccc5[nH]8)C=C7)C=C6)cc4)cn(-c4ccccc4)c32)cc(OC)c1OC
REMARK SMILES IDX 18 1 17 2 16 3 15 4 13 5 14 6 12 8 6 9 7 10 96 11 8 12 11 13
REMARK SMILES IDX 89 14 9 15 10 16 88 17 5 19 3 20 4 21 101 22 98 23 97 24
REMARK SMILES IDX 2 25 1 26 102 27 103 28 99 29 100 30 90 31 91 32 95 33 92 34
REMARK SMILES IDX 94 35 93 36 19 37 20 38 21 39 22 40 23 41 24 43 25 44 26 45
REMARK SMILES IDX 87 46 27 47 86 48 28 49 29 50 30 51 80 52 31 53 85 54 79 55
REMARK SMILES IDX 81 56 32 57 84 58 78 59 77 60 33 62 65 63 45 64 64 65 46 66
REMARK SMILES IDX 49 67 63 68 82 69 47 70 48 71 62 73 83 74 50 75 34 76 35 77
REMARK SMILES IDX 43 78 36 79 37 80 41 81 44 82 38 83 39 84 42 85 40 86 66 87
REMARK SMILES IDX 67 88 75 89 68 90 69 91 73 92 76 93 70 94 71 95 74 96 72 97
REMARK SMILES IDX 51 98 52 99 60 100 53 101 54 102 58 103 61 104 55 105 56 106
REMARK SMILES IDX 59 107 57 108
REMARK H PARENT 15 7 10 18 22 42 81 61 49 72
REMARK Flexibility Score: inf
ROOT
ATOM      1  C   UNL A   1      36.939  31.980  29.490  1.00  0.00     0.002 C 
ENDROOT
BRANCH   1   2
ATOM      2  C   UNL A   1      36.927  30.921  28.384  1.00  0.00     0.021 C 
BRANCH   2   3
ATOM      3  C   UNL A   1      38.177  30.032  28.371  1.00  0.00     0.116 C 
BRANCH   3   4
ATOM      4  N   UNL A   1      38.193  29.187  29.534  1.00  0.00    -0.352 N 
ATOM      5  C   UNL A   1      38.701  27.943  29.780  1.00  0.00     0.254 C 
ATOM      6  O   UNL A   1      38.526  27.536  30.933  1.00  0.00    -0.269 OA
ATOM      7  H   UNL A   1      37.747  29.587  30.315  1.00  0.00     0.163 HD
BRANCH   5   8
ATOM      8  C   UNL A   1      39.442  27.127  28.808  1.00  0.00     0.081 A 
ATOM      9  C   UNL A   1      41.662  25.880  26.054  1.00  0.00     0.078 C 
ATOM     10  C   UNL A   1      41.925  27.231  25.373  1.00  0.00     0.115 C 
ATOM     11  C   UNL A   1      40.743  26.081  27.230  1.00  0.00     0.055 A 
ATOM     12  C   UNL A   1      42.041  28.391  26.341  1.00  0.00     0.225 C 
ATOM     13  C   UNL A   1      40.490  27.295  27.847  1.00  0.00     0.076 A 
ATOM     14  N   UNL A   1      39.833  25.165  27.710  1.00  0.00    -0.317 N 
ATOM     15  O   UNL A   1      42.741  29.376  26.107  1.00  0.00    -0.275 OA
ATOM     16  N   UNL A   1      41.205  28.391  27.424  1.00  0.00    -0.324 N 
ATOM     17  C   UNL A   1      39.028  25.808  28.615  1.00  0.00     0.107 A 
ATOM     18  H   UNL A   1      41.108  29.228  27.933  1.00  0.00     0.170 HD
BRANCH   9  19
ATOM     19  C   UNL A   1      42.994  25.193  26.327  1.00  0.00    -0.031 A 
ATOM     20  C   UNL A   1      45.067  24.259  25.417  1.00  0.00     0.164 A 
ATOM     21  C   UNL A   1      43.752  24.719  25.244  1.00  0.00     0.055 A 
ATOM     22  C   UNL A   1      45.685  24.301  26.677  1.00  0.00     0.203 A 
ATOM     23  C   UNL A   1      44.908  24.728  27.779  1.00  0.00     0.164 A 
ATOM     24  C   UNL A   1      43.575  25.146  27.595  1.00  0.00     0.055 A 
BRANCH  20  25
ATOM     25  O   UNL A   1      45.744  23.917  24.274  1.00  0.00    -0.493 OA
ATOM     26  C   UNL A   1      46.078  22.527  24.252  1.00  0.00     0.278 C 
ENDBRANCH  20  25
BRANCH  22  27
ATOM     27  O   UNL A   1      46.995  24.010  26.934  1.00  0.00    -0.490 OA
ATOM     28  C   UNL A   1      48.005  24.995  26.820  1.00  0.00     0.278 C 
ENDBRANCH  22  27
BRANCH  23  29
ATOM     29  O   UNL A   1      45.282  24.820  29.099  1.00  0.00    -0.493 OA
ATOM     30  C   UNL A   1      45.875  26.022  29.567  1.00  0.00     0.278 C 
ENDBRANCH  23  29
ENDBRANCH   9  19
BRANCH  14  31
ATOM     31  C   UNL A   1      39.639  23.849  27.247  1.00  0.00     0.045 A 
ATOM     32  C   UNL A   1      40.533  22.846  27.625  1.00  0.00     0.026 A 
ATOM     33  C   UNL A   1      38.601  23.584  26.349  1.00  0.00     0.026 A 
ATOM     34  C   UNL A   1      40.438  21.586  27.040  1.00  0.00     0.002 A 
ATOM     35  C   UNL A   1      38.523  22.324  25.758  1.00  0.00     0.002 A 
ATOM     36  C   UNL A   1      39.450  21.333  26.091  1.00  0.00     0.000 A 
ENDBRANCH  14  31
ENDBRANCH   5   8
ENDBRANCH   3   4
ENDBRANCH   2   3
ENDBRANCH   1   2
BRANCH   1  37
ATOM     37  C   UNL A   1      36.988  33.435  28.992  1.00  0.00     0.002 C 
BRANCH  37  38
ATOM     38  C   UNL A   1      35.631  34.128  28.785  1.00  0.00     0.021 C 
BRANCH  38  39
ATOM     39  C   UNL A   1      34.465  33.337  29.352  1.00  0.00     0.116 C 
BRANCH  39  40
ATOM     40  N   UNL A   1      33.653  34.150  30.268  1.00  0.00    -0.352 N 
ATOM     41  C   UNL A   1      33.770  34.317  31.631  1.00  0.00     0.251 C 
ATOM     42  H   UNL A   1      32.918  34.650  29.846  1.00  0.00     0.163 HD
ATOM     43  O   UNL A   1      32.838  34.762  32.298  1.00  0.00    -0.269 OA
BRANCH  41  44
ATOM     44  C   UNL A   1      35.038  33.965  32.278  1.00  0.00     0.039 A 
ATOM     45  C   UNL A   1      35.281  32.695  32.813  1.00  0.00     0.014 A 
ATOM     46  C   UNL A   1      36.015  34.950  32.314  1.00  0.00     0.014 A 
ATOM     47  C   UNL A   1      36.545  32.421  33.329  1.00  0.00     0.010 A 
ATOM     48  C   UNL A   1      37.303  34.607  32.585  1.00  0.00     0.010 A 
ATOM     49  C   UNL A   1      37.549  33.390  33.203  1.00  0.00    -0.014 A 
BRANCH  49  50
ATOM     50  C   UNL A   1      38.902  33.181  33.690  1.00  0.00     0.031 A 
ATOM     51  C   UNL A   1      39.247  33.923  34.930  1.00  0.00     0.074 A 
ATOM     52  C   UNL A   1      39.660  32.173  33.203  1.00  0.00     0.049 A 
ATOM     53  N   UNL A   1      40.160  34.820  35.094  1.00  0.00    -0.248 NA
ATOM     54  C   UNL A   1      38.390  33.726  36.111  1.00  0.00     0.031 C 
ATOM     55  C   UNL A   1      39.294  31.132  32.228  1.00  0.00     0.029 A 
ATOM     56  N   UNL A   1      40.904  31.788  33.582  1.00  0.00    -0.354 N 
ATOM     57  C   UNL A   1      40.114  35.181  36.440  1.00  0.00     0.074 A 
ATOM     58  C   UNL A   1      38.902  34.613  36.967  1.00  0.00     0.031 C 
ATOM     59  C   UNL A   1      40.187  30.121  32.283  1.00  0.00     0.029 A 
ATOM     60  C   UNL A   1      41.278  30.524  33.147  1.00  0.00     0.049 A 
ATOM     61  H   UNL A   1      41.496  32.361  34.122  1.00  0.00     0.167 HD
ATOM     62  C   UNL A   1      41.196  35.731  37.060  1.00  0.00     0.037 A 
ATOM     63  C   UNL A   1      42.395  29.851  33.512  1.00  0.00     0.037 A 
ATOM     64  C   UNL A   1      42.155  36.201  36.090  1.00  0.00     0.049 A 
ATOM     65  C   UNL A   1      43.331  30.847  34.094  1.00  0.00     0.074 A 
ATOM     66  C   UNL A   1      42.131  37.153  35.091  1.00  0.00     0.029 A 
ATOM     67  N   UNL A   1      43.231  35.394  35.810  1.00  0.00    -0.354 N 
ATOM     68  N   UNL A   1      43.893  31.802  33.402  1.00  0.00    -0.248 NA
ATOM     69  C   UNL A   1      43.255  31.076  35.529  1.00  0.00     0.031 C 
ATOM     70  C   UNL A   1      42.869  36.575  34.017  1.00  0.00     0.029 A 
ATOM     71  C   UNL A   1      43.359  35.340  34.446  1.00  0.00     0.049 A 
ATOM     72  H   UNL A   1      43.805  34.938  36.468  1.00  0.00     0.167 HD
ATOM     73  C   UNL A   1      43.865  32.910  34.237  1.00  0.00     0.074 A 
ATOM     74  C   UNL A   1      43.527  32.384  35.558  1.00  0.00     0.031 C 
ATOM     75  C   UNL A   1      43.825  34.177  33.729  1.00  0.00     0.037 A 
BRANCH  62  76
ATOM     76  C   UNL A   1      41.571  35.532  38.512  1.00  0.00     0.064 A 
ATOM     77  C   UNL A   1      41.757  34.218  38.993  1.00  0.00     0.173 A 
ATOM     78  C   UNL A   1      41.461  36.526  39.508  1.00  0.00     0.173 A 
ATOM     79  F   UNL A   1      41.880  33.188  38.142  1.00  0.00    -0.203 F 
ATOM     80  C   UNL A   1      41.726  33.915  40.356  1.00  0.00     0.198 A 
ATOM     81  C   UNL A   1      41.485  36.225  40.870  1.00  0.00     0.198 A 
ATOM     82  F   UNL A   1      41.215  37.808  39.220  1.00  0.00    -0.203 F 
ATOM     83  F   UNL A   1      41.766  32.636  40.754  1.00  0.00    -0.200 F 
ATOM     84  C   UNL A   1      41.577  34.918  41.293  1.00  0.00     0.200 A 
ATOM     85  F   UNL A   1      41.329  37.213  41.764  1.00  0.00    -0.200 F 
ATOM     86  F   UNL A   1      41.475  34.625  42.596  1.00  0.00    -0.200 F 
ENDBRANCH  62  76
BRANCH  63  87
ATOM     87  C   UNL A   1      42.565  28.391  33.683  1.00  0.00     0.064 A 
ATOM     88  C   UNL A   1      43.579  27.691  33.012  1.00  0.00     0.173 A 
ATOM     89  C   UNL A   1      41.900  27.698  34.715  1.00  0.00     0.173 A 
ATOM     90  F   UNL A   1      44.289  28.297  32.049  1.00  0.00    -0.203 F 
ATOM     91  C   UNL A   1      43.920  26.381  33.365  1.00  0.00     0.198 A 
ATOM     92  C   UNL A   1      42.240  26.390  35.065  1.00  0.00     0.198 A 
ATOM     93  F   UNL A   1      40.972  28.312  35.465  1.00  0.00    -0.203 F 
ATOM     94  F   UNL A   1      44.930  25.761  32.738  1.00  0.00    -0.200 F 
ATOM     95  C   UNL A   1      43.258  25.735  34.396  1.00  0.00     0.200 A 
ATOM     96  F   UNL A   1      41.618  25.791  36.090  1.00  0.00    -0.200 F 
ATOM     97  F   UNL A   1      43.625  24.502  34.773  1.00  0.00    -0.200 F 
ENDBRANCH  63  87
BRANCH  75  98
ATOM     98  C   UNL A   1      44.046  34.356  32.251  1.00  0.00     0.064 A 
ATOM     99  C   UNL A   1      43.012  34.375  31.299  1.00  0.00     0.173 A 
ATOM    100  C   UNL A   1      45.328  34.715  31.816  1.00  0.00     0.173 A 
ATOM    101  F   UNL A   1      41.745  34.136  31.652  1.00  0.00    -0.203 F 
ATOM    102  C   UNL A   1      43.257  34.717  29.969  1.00  0.00     0.198 A 
ATOM    103  C   UNL A   1      45.564  35.089  30.496  1.00  0.00     0.198 A 
ATOM    104  F   UNL A   1      46.343  34.766  32.691  1.00  0.00    -0.203 F 
ATOM    105  F   UNL A   1      42.251  34.734  29.083  1.00  0.00    -0.200 F 
ATOM    106  C   UNL A   1      44.531  35.086  29.573  1.00  0.00     0.200 A 
ATOM    107  F   UNL A   1      46.788  35.494  30.129  1.00  0.00    -0.200 F 
ATOM    108  F   UNL A   1      44.758  35.468  28.308  1.00  0.00    -0.200 F 
ENDBRANCH  75  98
ENDBRANCH  49  50
ENDBRANCH  41  44
ENDBRANCH  39  40
ENDBRANCH  38  39
ENDBRANCH  37  38
ENDBRANCH   1  37
TORSDOF 18
ENDMDL
