MODEL 1
REMARK VINA RESULT:     -10.6      0.000      0.000
REMARK SMILES C=CCN(CC(=O)NCCCCCCNC(=O)c1ccc(-c2c3nc(c(-c4c(F)c(F)c(F)c(F)c4F)c4ccc([nH]4)c(-c4c(F)c(F)c(F)c(F)c4F)c4nc(c(-c5c(F)c(F)c(F)c(F)c5F)c5ccc2[nH]5)C=C4)C=C3)cc1)C(=O)N1CC[C@@H](C(=O)OC)C1
REMARK SMILES IDX 10 1 9 2 8 3 6 4 7 5 5 7 4 8 3 9 2 10 1 11 81 12 82 13 83 14
REMARK SMILES IDX 84 15 91 16 85 17 86 18 87 19 88 20 89 21 90 22 11 23 12 24
REMARK SMILES IDX 13 25 14 26 15 27 16 28 17 30 18 31 19 32 80 33 20 34 79 35
REMARK SMILES IDX 21 36 22 37 23 38 73 39 24 40 78 41 72 42 74 43 25 44 77 45
REMARK SMILES IDX 71 46 70 47 26 49 58 50 38 51 57 52 39 53 42 54 56 55 75 56
REMARK SMILES IDX 40 57 41 58 55 60 76 61 43 62 27 63 28 64 36 65 29 66 30 67
REMARK SMILES IDX 34 68 37 69 31 70 32 71 35 72 33 73 59 74 60 75 68 76 61 77
REMARK SMILES IDX 62 78 66 79 69 80 63 81 64 82 67 83 65 84 44 85 45 86 53 87
REMARK SMILES IDX 46 88 47 89 51 90 54 91 48 92 49 93 52 94 50 95
REMARK H PARENT 8 6 15 29 74 48 42 59
REMARK Flexibility Score: inf
ROOT
ATOM      1  C   UNL A   1      31.740  28.693  27.403  1.00  0.00     0.021 C 
ENDROOT
BRANCH   1   2
ATOM      2  C   UNL A   1      32.052  27.410  26.637  1.00  0.00     0.116 C 
BRANCH   2   3
ATOM      3  N   UNL A   1      31.160  26.316  26.934  1.00  0.00    -0.355 N 
ATOM      4  C   UNL A   1      30.510  25.459  26.098  1.00  0.00     0.239 C 
ATOM      5  O   UNL A   1      30.116  24.399  26.600  1.00  0.00    -0.273 OA
ATOM      6  H   UNL A   1      30.993  26.165  27.892  1.00  0.00     0.163 HD
BRANCH   4   7
ATOM      7  C   UNL A   1      30.351  25.694  24.583  1.00  0.00     0.221 C 
BRANCH   7   8
ATOM      8  N   UNL A   1      31.521  25.572  23.703  1.00  0.00    -0.312 N 
BRANCH   8   9
ATOM      9  C   UNL A   1      31.657  26.571  22.645  1.00  0.00     0.149 C 
BRANCH   9  10
ATOM     10  C   UNL A   1      31.314  27.945  23.139  1.00  0.00    -0.013 C 
ATOM     11  C   UNL A   1      30.510  28.783  22.468  1.00  0.00     0.006 C 
ENDBRANCH   9  10
ENDBRANCH   8   9
BRANCH   8  12
ATOM     12  C   UNL A   1      32.632  24.770  23.952  1.00  0.00     0.320 C 
ATOM     13  O   UNL A   1      33.659  25.225  24.458  1.00  0.00    -0.248 OA
BRANCH  12  14
ATOM     14  N   UNL A   1      32.512  23.420  23.746  1.00  0.00    -0.324 N 
ATOM     15  C   UNL A   1      32.961  22.674  22.594  1.00  0.00     0.122 C 
ATOM     16  C   UNL A   1      32.403  22.499  24.875  1.00  0.00     0.136 C 
ATOM     17  C   UNL A   1      32.180  21.386  22.740  1.00  0.00     0.039 C 
ATOM     18  C   UNL A   1      32.313  21.097  24.246  1.00  0.00     0.120 C 
BRANCH  18  19
ATOM     19  C   UNL A   1      33.530  20.266  24.616  1.00  0.00     0.310 C 
ATOM     20  O   UNL A   1      33.714  19.116  24.242  1.00  0.00    -0.252 OA
BRANCH  19  21
ATOM     21  O   UNL A   1      34.420  20.985  25.354  1.00  0.00    -0.469 OA
ATOM     22  C   UNL A   1      35.793  20.757  25.036  1.00  0.00     0.282 C 
ENDBRANCH  19  21
ENDBRANCH  18  19
ENDBRANCH  12  14
ENDBRANCH   8  12
ENDBRANCH   7   8
ENDBRANCH   4   7
ENDBRANCH   2   3
ENDBRANCH   1   2
BRANCH   1  23
ATOM     23  C   UNL A   1      32.336  29.973  26.803  1.00  0.00     0.002 C 
BRANCH  23  24
ATOM     24  C   UNL A   1      31.365  30.870  26.028  1.00  0.00     0.002 C 
BRANCH  24  25
ATOM     25  C   UNL A   1      31.271  32.322  26.503  1.00  0.00     0.021 C 
BRANCH  25  26
ATOM     26  C   UNL A   1      32.534  32.877  27.152  1.00  0.00     0.116 C 
BRANCH  26  27
ATOM     27  N   UNL A   1      32.366  34.249  27.597  1.00  0.00    -0.352 N 
ATOM     28  C   UNL A   1      32.992  34.925  28.613  1.00  0.00     0.251 C 
ATOM     29  H   UNL A   1      31.702  34.774  27.093  1.00  0.00     0.163 HD
ATOM     30  O   UNL A   1      32.584  36.032  28.952  1.00  0.00    -0.269 OA
BRANCH  28  31
ATOM     31  C   UNL A   1      34.151  34.330  29.319  1.00  0.00     0.039 A 
ATOM     32  C   UNL A   1      35.432  34.533  28.796  1.00  0.00     0.014 A 
ATOM     33  C   UNL A   1      33.984  33.527  30.452  1.00  0.00     0.014 A 
ATOM     34  C   UNL A   1      36.544  33.966  29.425  1.00  0.00     0.010 A 
ATOM     35  C   UNL A   1      35.098  33.017  31.116  1.00  0.00     0.010 A 
ATOM     36  C   UNL A   1      36.387  33.215  30.599  1.00  0.00    -0.014 A 
BRANCH  36  37
ATOM     37  C   UNL A   1      37.553  32.587  31.273  1.00  0.00     0.031 A 
ATOM     38  C   UNL A   1      38.291  31.462  30.598  1.00  0.00     0.074 A 
ATOM     39  C   UNL A   1      37.916  32.987  32.506  1.00  0.00     0.049 A 
ATOM     40  N   UNL A   1      39.279  30.729  31.048  1.00  0.00    -0.248 NA
ATOM     41  C   UNL A   1      37.841  31.093  29.247  1.00  0.00     0.031 C 
ATOM     42  C   UNL A   1      37.260  34.041  33.282  1.00  0.00     0.029 A 
ATOM     43  N   UNL A   1      38.923  32.547  33.330  1.00  0.00    -0.354 N 
ATOM     44  C   UNL A   1      39.549  29.803  30.049  1.00  0.00     0.074 A 
ATOM     45  C   UNL A   1      38.595  30.036  28.987  1.00  0.00     0.031 C 
ATOM     46  C   UNL A   1      37.888  34.173  34.461  1.00  0.00     0.029 A 
ATOM     47  C   UNL A   1      38.972  33.197  34.538  1.00  0.00     0.049 A 
ATOM     48  H   UNL A   1      39.551  31.833  33.077  1.00  0.00     0.167 HD
ATOM     49  C   UNL A   1      40.519  28.859  30.010  1.00  0.00     0.037 A 
ATOM     50  C   UNL A   1      39.793  33.020  35.591  1.00  0.00     0.037 A 
ATOM     51  C   UNL A   1      41.494  28.656  31.049  1.00  0.00     0.049 A 
ATOM     52  C   UNL A   1      40.878  31.978  35.511  1.00  0.00     0.074 A 
ATOM     53  C   UNL A   1      42.551  27.762  31.078  1.00  0.00     0.029 A 
ATOM     54  N   UNL A   1      41.537  29.366  32.239  1.00  0.00    -0.354 N 
ATOM     55  N   UNL A   1      41.158  31.147  34.537  1.00  0.00    -0.248 NA
ATOM     56  C   UNL A   1      41.768  31.858  36.675  1.00  0.00     0.031 C 
ATOM     57  C   UNL A   1      43.214  27.908  32.301  1.00  0.00     0.029 A 
ATOM     58  C   UNL A   1      42.597  28.924  33.014  1.00  0.00     0.049 A 
ATOM     59  H   UNL A   1      40.908  30.078  32.495  1.00  0.00     0.167 HD
ATOM     60  C   UNL A   1      42.275  30.434  34.953  1.00  0.00     0.074 A 
ATOM     61  C   UNL A   1      42.627  30.936  36.264  1.00  0.00     0.031 C 
ATOM     62  C   UNL A   1      42.948  29.452  34.306  1.00  0.00     0.037 A 
BRANCH  49  63
ATOM     63  C   UNL A   1      40.582  27.974  28.800  1.00  0.00     0.064 A 
ATOM     64  C   UNL A   1      41.382  28.297  27.694  1.00  0.00     0.173 A 
ATOM     65  C   UNL A   1      39.870  26.765  28.765  1.00  0.00     0.173 A 
ATOM     66  F   UNL A   1      42.073  29.446  27.674  1.00  0.00    -0.203 F 
ATOM     67  C   UNL A   1      41.448  27.454  26.588  1.00  0.00     0.198 A 
ATOM     68  C   UNL A   1      39.961  25.911  27.668  1.00  0.00     0.198 A 
ATOM     69  F   UNL A   1      39.094  26.405  29.799  1.00  0.00    -0.203 F 
ATOM     70  F   UNL A   1      42.186  27.804  25.525  1.00  0.00    -0.200 F 
ATOM     71  C   UNL A   1      40.745  26.259  26.579  1.00  0.00     0.200 A 
ATOM     72  F   UNL A   1      39.291  24.750  27.667  1.00  0.00    -0.200 F 
ATOM     73  F   UNL A   1      40.819  25.444  25.517  1.00  0.00    -0.200 F 
ENDBRANCH  49  63
BRANCH  50  74
ATOM     74  C   UNL A   1      39.644  33.865  36.803  1.00  0.00     0.064 A 
ATOM     75  C   UNL A   1      38.869  33.435  37.890  1.00  0.00     0.173 A 
ATOM     76  C   UNL A   1      40.253  35.125  36.894  1.00  0.00     0.173 A 
ATOM     77  F   UNL A   1      38.249  32.247  37.840  1.00  0.00    -0.203 F 
ATOM     78  C   UNL A   1      38.686  34.244  39.010  1.00  0.00     0.198 A 
ATOM     79  C   UNL A   1      40.093  35.921  38.027  1.00  0.00     0.198 A 
ATOM     80  F   UNL A   1      41.009  35.581  35.885  1.00  0.00    -0.203 F 
ATOM     81  F   UNL A   1      37.898  33.830  40.010  1.00  0.00    -0.200 F 
ATOM     82  C   UNL A   1      39.302  35.485  39.079  1.00  0.00     0.200 A 
ATOM     83  F   UNL A   1      40.699  37.114  38.096  1.00  0.00    -0.200 F 
ATOM     84  F   UNL A   1      39.124  36.263  40.155  1.00  0.00    -0.200 F 
ENDBRANCH  50  74
BRANCH  62  85
ATOM     85  C   UNL A   1      44.166  28.893  34.979  1.00  0.00     0.064 A 
ATOM     86  C   UNL A   1      44.094  27.785  35.836  1.00  0.00     0.173 A 
ATOM     87  C   UNL A   1      45.430  29.451  34.730  1.00  0.00     0.173 A 
ATOM     88  F   UNL A   1      42.907  27.226  36.117  1.00  0.00    -0.203 F 
ATOM     89  C   UNL A   1      45.238  27.272  36.438  1.00  0.00     0.198 A 
ATOM     90  C   UNL A   1      46.575  28.917  35.312  1.00  0.00     0.198 A 
ATOM     91  F   UNL A   1      45.553  30.508  33.912  1.00  0.00    -0.203 F 
ATOM     92  F   UNL A   1      45.141  26.241  37.289  1.00  0.00    -0.200 F 
ATOM     93  C   UNL A   1      46.479  27.833  36.170  1.00  0.00     0.200 A 
ATOM     94  F   UNL A   1      47.774  29.453  35.043  1.00  0.00    -0.200 F 
ATOM     95  F   UNL A   1      47.581  27.333  36.746  1.00  0.00    -0.200 F 
ENDBRANCH  62  85
ENDBRANCH  36  37
ENDBRANCH  28  31
ENDBRANCH  26  27
ENDBRANCH  25  26
ENDBRANCH  24  25
ENDBRANCH  23  24
ENDBRANCH   1  23
TORSDOF 20
ENDMDL
MODEL 2
REMARK VINA RESULT:     -10.4      1.832      7.718
REMARK SMILES C=CCN(CC(=O)NCCCCCCNC(=O)c1ccc(-c2c3nc(c(-c4c(F)c(F)c(F)c(F)c4F)c4ccc([nH]4)c(-c4c(F)c(F)c(F)c(F)c4F)c4nc(c(-c5c(F)c(F)c(F)c(F)c5F)c5ccc2[nH]5)C=C4)C=C3)cc1)C(=O)N1CC[C@@H](C(=O)OC)C1
REMARK SMILES IDX 10 1 9 2 8 3 6 4 7 5 5 7 4 8 3 9 2 10 1 11 81 12 82 13 83 14
REMARK SMILES IDX 84 15 91 16 85 17 86 18 87 19 88 20 89 21 90 22 11 23 12 24
REMARK SMILES IDX 13 25 14 26 15 27 16 28 17 30 18 31 19 32 80 33 20 34 79 35
REMARK SMILES IDX 21 36 22 37 23 38 73 39 24 40 78 41 72 42 74 43 25 44 77 45
REMARK SMILES IDX 71 46 70 47 26 49 58 50 38 51 57 52 39 53 42 54 56 55 75 56
REMARK SMILES IDX 40 57 41 58 55 60 76 61 43 62 27 63 28 64 36 65 29 66 30 67
REMARK SMILES IDX 34 68 37 69 31 70 32 71 35 72 33 73 59 74 60 75 68 76 61 77
REMARK SMILES IDX 62 78 66 79 69 80 63 81 64 82 67 83 65 84 44 85 45 86 53 87
REMARK SMILES IDX 46 88 47 89 51 90 54 91 48 92 49 93 52 94 50 95
REMARK H PARENT 8 6 15 29 74 48 42 59
REMARK Flexibility Score: inf
ROOT
ATOM      1  C   UNL A   1      35.252  31.081  27.962  1.00  0.00     0.021 C 
ENDROOT
BRANCH   1   2
ATOM      2  C   UNL A   1      34.480  30.152  27.029  1.00  0.00     0.116 C 
BRANCH   2   3
ATOM      3  N   UNL A   1      33.291  29.584  27.614  1.00  0.00    -0.355 N 
ATOM      4  C   UNL A   1      32.102  29.247  27.041  1.00  0.00     0.239 C 
ATOM      5  O   UNL A   1      31.399  28.447  27.670  1.00  0.00    -0.273 OA
ATOM      6  H   UNL A   1      33.346  29.412  28.582  1.00  0.00     0.163 HD
BRANCH   4   7
ATOM      7  C   UNL A   1      31.663  29.715  25.639  1.00  0.00     0.221 C 
BRANCH   7   8
ATOM      8  N   UNL A   1      31.787  28.799  24.497  1.00  0.00    -0.312 N 
BRANCH   8   9
ATOM      9  C   UNL A   1      30.551  28.441  23.802  1.00  0.00     0.149 C 
BRANCH   9  10
ATOM     10  C   UNL A   1      29.725  29.654  23.489  1.00  0.00    -0.013 C 
ATOM     11  C   UNL A   1      28.849  29.698  22.475  1.00  0.00     0.006 C 
ENDBRANCH   9  10
ENDBRANCH   8   9
BRANCH   8  12
ATOM     12  C   UNL A   1      32.981  28.465  23.862  1.00  0.00     0.320 C 
ATOM     13  O   UNL A   1      33.720  29.324  23.380  1.00  0.00    -0.248 OA
BRANCH  12  14
ATOM     14  N   UNL A   1      33.388  27.156  23.902  1.00  0.00    -0.324 N 
ATOM     15  C   UNL A   1      33.228  26.231  24.999  1.00  0.00     0.122 C 
ATOM     16  C   UNL A   1      33.548  26.386  22.672  1.00  0.00     0.136 C 
ATOM     17  C   UNL A   1      34.225  25.152  24.637  1.00  0.00     0.039 C 
ATOM     18  C   UNL A   1      33.983  24.982  23.127  1.00  0.00     0.120 C 
BRANCH  18  19
ATOM     19  C   UNL A   1      32.920  23.953  22.780  1.00  0.00     0.310 C 
ATOM     20  O   UNL A   1      33.153  22.771  22.571  1.00  0.00    -0.252 OA
BRANCH  19  21
ATOM     21  O   UNL A   1      31.673  24.498  22.800  1.00  0.00    -0.469 OA
ATOM     22  C   UNL A   1      30.684  23.722  23.476  1.00  0.00     0.282 C 
ENDBRANCH  19  21
ENDBRANCH  18  19
ENDBRANCH  12  14
ENDBRANCH   8  12
ENDBRANCH   7   8
ENDBRANCH   4   7
ENDBRANCH   2   3
ENDBRANCH   1   2
BRANCH   1  23
ATOM     23  C   UNL A   1      34.390  32.057  28.772  1.00  0.00     0.002 C 
BRANCH  23  24
ATOM     24  C   UNL A   1      34.451  33.527  28.344  1.00  0.00     0.002 C 
BRANCH  24  25
ATOM     25  C   UNL A   1      33.157  34.327  28.511  1.00  0.00     0.021 C 
BRANCH  25  26
ATOM     26  C   UNL A   1      33.337  35.761  28.993  1.00  0.00     0.116 C 
BRANCH  26  27
ATOM     27  N   UNL A   1      32.578  36.035  30.201  1.00  0.00    -0.352 N 
ATOM     28  C   UNL A   1      32.762  35.570  31.478  1.00  0.00     0.251 C 
ATOM     29  H   UNL A   1      31.815  36.647  30.085  1.00  0.00     0.163 HD
ATOM     30  O   UNL A   1      31.903  35.775  32.332  1.00  0.00    -0.269 OA
BRANCH  28  31
ATOM     31  C   UNL A   1      33.981  34.809  31.840  1.00  0.00     0.039 A 
ATOM     32  C   UNL A   1      33.844  33.483  32.260  1.00  0.00     0.014 A 
ATOM     33  C   UNL A   1      35.245  35.406  31.825  1.00  0.00     0.014 A 
ATOM     34  C   UNL A   1      34.973  32.746  32.631  1.00  0.00     0.010 A 
ATOM     35  C   UNL A   1      36.377  34.651  32.130  1.00  0.00     0.010 A 
ATOM     36  C   UNL A   1      36.251  33.320  32.555  1.00  0.00    -0.014 A 
BRANCH  36  37
ATOM     37  C   UNL A   1      37.461  32.561  32.962  1.00  0.00     0.031 A 
ATOM     38  C   UNL A   1      38.125  32.860  34.279  1.00  0.00     0.074 A 
ATOM     39  C   UNL A   1      37.994  31.644  32.131  1.00  0.00     0.049 A 
ATOM     40  N   UNL A   1      39.231  32.370  34.782  1.00  0.00    -0.248 NA
ATOM     41  C   UNL A   1      37.473  33.865  35.133  1.00  0.00     0.031 C 
ATOM     42  C   UNL A   1      37.467  31.289  30.813  1.00  0.00     0.029 A 
ATOM     43  N   UNL A   1      39.105  30.849  32.270  1.00  0.00    -0.354 N 
ATOM     44  C   UNL A   1      39.416  33.022  35.994  1.00  0.00     0.074 A 
ATOM     45  C   UNL A   1      38.336  33.974  36.133  1.00  0.00     0.031 C 
ATOM     46  C   UNL A   1      38.247  30.339  30.270  1.00  0.00     0.029 A 
ATOM     47  C   UNL A   1      39.344  30.040  31.187  1.00  0.00     0.049 A 
ATOM     48  H   UNL A   1      39.677  30.859  33.071  1.00  0.00     0.167 HD
ATOM     49  C   UNL A   1      40.387  32.830  36.918  1.00  0.00     0.037 A 
ATOM     50  C   UNL A   1      40.338  29.161  30.958  1.00  0.00     0.037 A 
ATOM     51  C   UNL A   1      41.438  31.854  36.799  1.00  0.00     0.049 A 
ATOM     52  C   UNL A   1      41.392  28.950  32.013  1.00  0.00     0.074 A 
ATOM     53  C   UNL A   1      42.436  31.544  37.706  1.00  0.00     0.029 A 
ATOM     54  N   UNL A   1      41.619  31.021  35.705  1.00  0.00    -0.354 N 
ATOM     55  N   UNL A   1      41.524  29.533  33.180  1.00  0.00    -0.248 NA
ATOM     56  C   UNL A   1      42.429  27.949  31.723  1.00  0.00     0.031 C 
ATOM     57  C   UNL A   1      43.242  30.547  37.147  1.00  0.00     0.029 A 
ATOM     58  C   UNL A   1      42.718  30.204  35.911  1.00  0.00     0.049 A 
ATOM     59  H   UNL A   1      41.050  31.012  34.901  1.00  0.00     0.167 HD
ATOM     60  C   UNL A   1      42.632  28.945  33.776  1.00  0.00     0.074 A 
ATOM     61  C   UNL A   1      43.132  27.955  32.848  1.00  0.00     0.031 C 
ATOM     62  C   UNL A   1      43.186  29.205  34.986  1.00  0.00     0.037 A 
BRANCH  49  63
ATOM     63  C   UNL A   1      40.358  33.687  38.149  1.00  0.00     0.064 A 
ATOM     64  C   UNL A   1      41.168  34.826  38.270  1.00  0.00     0.173 A 
ATOM     65  C   UNL A   1      39.476  33.394  39.200  1.00  0.00     0.173 A 
ATOM     66  F   UNL A   1      42.036  35.144  37.299  1.00  0.00    -0.203 F 
ATOM     67  C   UNL A   1      41.113  35.626  39.409  1.00  0.00     0.198 A 
ATOM     68  C   UNL A   1      39.403  34.213  40.325  1.00  0.00     0.198 A 
ATOM     69  F   UNL A   1      38.674  32.320  39.132  1.00  0.00    -0.203 F 
ATOM     70  F   UNL A   1      41.927  36.685  39.521  1.00  0.00    -0.200 F 
ATOM     71  C   UNL A   1      40.225  35.324  40.430  1.00  0.00     0.200 A 
ATOM     72  F   UNL A   1      38.536  33.927  41.306  1.00  0.00    -0.200 F 
ATOM     73  F   UNL A   1      40.167  36.101  41.521  1.00  0.00    -0.200 F 
ENDBRANCH  49  63
BRANCH  50  74
ATOM     74  C   UNL A   1      40.375  28.390  29.689  1.00  0.00     0.064 A 
ATOM     75  C   UNL A   1      41.145  28.828  28.602  1.00  0.00     0.173 A 
ATOM     76  C   UNL A   1      39.627  27.215  29.527  1.00  0.00     0.173 A 
ATOM     77  F   UNL A   1      41.860  29.958  28.702  1.00  0.00    -0.203 F 
ATOM     78  C   UNL A   1      41.145  28.136  27.393  1.00  0.00     0.198 A 
ATOM     79  C   UNL A   1      39.650  26.507  28.326  1.00  0.00     0.198 A 
ATOM     80  F   UNL A   1      38.878  26.750  30.537  1.00  0.00    -0.203 F 
ATOM     81  F   UNL A   1      41.849  28.606  26.355  1.00  0.00    -0.200 F 
ATOM     82  C   UNL A   1      40.401  26.973  27.257  1.00  0.00     0.200 A 
ATOM     83  F   UNL A   1      38.939  25.378  28.203  1.00  0.00    -0.200 F 
ATOM     84  F   UNL A   1      40.400  26.309  26.094  1.00  0.00    -0.200 F 
ENDBRANCH  50  74
BRANCH  62  85
ATOM     85  C   UNL A   1      44.360  28.368  35.399  1.00  0.00     0.064 A 
ATOM     86  C   UNL A   1      45.678  28.756  35.123  1.00  0.00     0.173 A 
ATOM     87  C   UNL A   1      44.161  27.180  36.120  1.00  0.00     0.173 A 
ATOM     88  F   UNL A   1      45.919  29.876  34.424  1.00  0.00    -0.203 F 
ATOM     89  C   UNL A   1      46.754  27.973  35.529  1.00  0.00     0.198 A 
ATOM     90  C   UNL A   1      45.241  26.414  36.550  1.00  0.00     0.198 A 
ATOM     91  F   UNL A   1      42.919  26.768  36.416  1.00  0.00    -0.203 F 
ATOM     92  F   UNL A   1      48.004  28.340  35.215  1.00  0.00    -0.200 F 
ATOM     93  C   UNL A   1      46.536  26.807  36.249  1.00  0.00     0.200 A 
ATOM     94  F   UNL A   1      45.028  25.294  37.255  1.00  0.00    -0.200 F 
ATOM     95  F   UNL A   1      47.573  26.058  36.645  1.00  0.00    -0.200 F 
ENDBRANCH  62  85
ENDBRANCH  36  37
ENDBRANCH  28  31
ENDBRANCH  26  27
ENDBRANCH  25  26
ENDBRANCH  24  25
ENDBRANCH  23  24
ENDBRANCH   1  23
TORSDOF 20
ENDMDL
MODEL 3
REMARK VINA RESULT:     -10.4      6.235     10.892
REMARK SMILES C=CCN(CC(=O)NCCCCCCNC(=O)c1ccc(-c2c3nc(c(-c4c(F)c(F)c(F)c(F)c4F)c4ccc([nH]4)c(-c4c(F)c(F)c(F)c(F)c4F)c4nc(c(-c5c(F)c(F)c(F)c(F)c5F)c5ccc2[nH]5)C=C4)C=C3)cc1)C(=O)N1CC[C@@H](C(=O)OC)C1
REMARK SMILES IDX 10 1 9 2 8 3 6 4 7 5 5 7 4 8 3 9 2 10 1 11 81 12 82 13 83 14
REMARK SMILES IDX 84 15 91 16 85 17 86 18 87 19 88 20 89 21 90 22 11 23 12 24
REMARK SMILES IDX 13 25 14 26 15 27 16 28 17 30 18 31 19 32 80 33 20 34 79 35
REMARK SMILES IDX 21 36 22 37 23 38 73 39 24 40 78 41 72 42 74 43 25 44 77 45
REMARK SMILES IDX 71 46 70 47 26 49 58 50 38 51 57 52 39 53 42 54 56 55 75 56
REMARK SMILES IDX 40 57 41 58 55 60 76 61 43 62 27 63 28 64 36 65 29 66 30 67
REMARK SMILES IDX 34 68 37 69 31 70 32 71 35 72 33 73 59 74 60 75 68 76 61 77
REMARK SMILES IDX 62 78 66 79 69 80 63 81 64 82 67 83 65 84 44 85 45 86 53 87
REMARK SMILES IDX 46 88 47 89 51 90 54 91 48 92 49 93 52 94 50 95
REMARK H PARENT 8 6 15 29 74 48 42 59
REMARK Flexibility Score: inf
ROOT
ATOM      1  C   UNL A   1      39.689  21.217  26.312  1.00  0.00     0.021 C 
ENDROOT
BRANCH   1   2
ATOM      2  C   UNL A   1      38.905  22.519  26.174  1.00  0.00     0.116 C 
BRANCH   2   3
ATOM      3  N   UNL A   1      38.028  22.560  25.029  1.00  0.00    -0.355 N 
ATOM      4  C   UNL A   1      36.814  23.156  24.871  1.00  0.00     0.239 C 
ATOM      5  O   UNL A   1      36.452  23.360  23.706  1.00  0.00    -0.273 OA
ATOM      6  H   UNL A   1      38.359  22.081  24.235  1.00  0.00     0.163 HD
BRANCH   4   7
ATOM      7  C   UNL A   1      35.952  23.672  26.041  1.00  0.00     0.221 C 
BRANCH   7   8
ATOM      8  N   UNL A   1      34.558  23.226  26.168  1.00  0.00    -0.312 N 
BRANCH   8   9
ATOM      9  C   UNL A   1      33.526  24.154  25.708  1.00  0.00     0.149 C 
BRANCH   9  10
ATOM     10  C   UNL A   1      34.085  25.526  25.473  1.00  0.00    -0.013 C 
ATOM     11  C   UNL A   1      33.338  26.554  25.044  1.00  0.00     0.006 C 
ENDBRANCH   9  10
ENDBRANCH   8   9
BRANCH   8  12
ATOM     12  C   UNL A   1      34.154  21.918  26.426  1.00  0.00     0.320 C 
ATOM     13  O   UNL A   1      34.245  21.422  27.549  1.00  0.00    -0.248 OA
BRANCH  12  14
ATOM     14  N   UNL A   1      33.522  21.230  25.422  1.00  0.00    -0.324 N 
ATOM     15  C   UNL A   1      33.679  21.430  24.001  1.00  0.00     0.122 C 
ATOM     16  C   UNL A   1      33.030  19.873  25.644  1.00  0.00     0.136 C 
ATOM     17  C   UNL A   1      32.453  20.727  23.457  1.00  0.00     0.039 C 
ATOM     18  C   UNL A   1      32.418  19.439  24.300  1.00  0.00     0.120 C 
BRANCH  18  19
ATOM     19  C   UNL A   1      33.203  18.283  23.702  1.00  0.00     0.310 C 
ATOM     20  O   UNL A   1      32.864  17.669  22.701  1.00  0.00    -0.252 OA
BRANCH  19  21
ATOM     21  O   UNL A   1      34.364  18.066  24.380  1.00  0.00    -0.469 OA
ATOM     22  C   UNL A   1      34.687  16.692  24.600  1.00  0.00     0.282 C 
ENDBRANCH  19  21
ENDBRANCH  18  19
ENDBRANCH  12  14
ENDBRANCH   8  12
ENDBRANCH   7   8
ENDBRANCH   4   7
ENDBRANCH   2   3
ENDBRANCH   1   2
BRANCH   1  23
ATOM     23  C   UNL A   1      40.875  21.268  27.282  1.00  0.00     0.002 C 
BRANCH  23  24
ATOM     24  C   UNL A   1      42.232  20.844  26.712  1.00  0.00     0.002 C 
BRANCH  24  25
ATOM     25  C   UNL A   1      42.230  19.579  25.850  1.00  0.00     0.021 C 
BRANCH  25  26
ATOM     26  C   UNL A   1      43.426  18.655  26.050  1.00  0.00     0.116 C 
BRANCH  26  27
ATOM     27  N   UNL A   1      44.216  18.509  24.840  1.00  0.00    -0.352 N 
ATOM     28  C   UNL A   1      44.859  19.462  24.090  1.00  0.00     0.251 C 
ATOM     29  H   UNL A   1      44.303  17.586  24.506  1.00  0.00     0.163 HD
ATOM     30  O   UNL A   1      45.327  19.163  22.995  1.00  0.00    -0.269 OA
BRANCH  28  31
ATOM     31  C   UNL A   1      44.984  20.854  24.580  1.00  0.00     0.039 A 
ATOM     32  C   UNL A   1      44.472  21.891  23.794  1.00  0.00     0.014 A 
ATOM     33  C   UNL A   1      45.651  21.152  25.773  1.00  0.00     0.014 A 
ATOM     34  C   UNL A   1      44.595  23.218  24.218  1.00  0.00     0.010 A 
ATOM     35  C   UNL A   1      45.714  22.469  26.227  1.00  0.00     0.010 A 
ATOM     36  C   UNL A   1      45.205  23.516  25.445  1.00  0.00    -0.014 A 
BRANCH  36  37
ATOM     37  C   UNL A   1      45.363  24.920  25.905  1.00  0.00     0.031 A 
ATOM     38  C   UNL A   1      46.711  25.585  25.830  1.00  0.00     0.074 A 
ATOM     39  C   UNL A   1      44.315  25.579  26.436  1.00  0.00     0.049 A 
ATOM     40  N   UNL A   1      47.077  26.770  26.252  1.00  0.00    -0.248 NA
ATOM     41  C   UNL A   1      47.800  24.803  25.225  1.00  0.00     0.031 C 
ATOM     42  C   UNL A   1      42.967  25.033  26.599  1.00  0.00     0.029 A 
ATOM     43  N   UNL A   1      44.223  26.849  26.948  1.00  0.00    -0.354 N 
ATOM     44  C   UNL A   1      48.437  26.863  25.984  1.00  0.00     0.074 A 
ATOM     45  C   UNL A   1      48.842  25.601  25.404  1.00  0.00     0.031 C 
ATOM     46  C   UNL A   1      42.181  25.967  27.159  1.00  0.00     0.029 A 
ATOM     47  C   UNL A   1      42.974  27.165  27.421  1.00  0.00     0.049 A 
ATOM     48  H   UNL A   1      44.982  27.476  26.973  1.00  0.00     0.167 HD
ATOM     49  C   UNL A   1      49.268  27.913  26.183  1.00  0.00     0.037 A 
ATOM     50  C   UNL A   1      42.522  28.290  28.007  1.00  0.00     0.037 A 
ATOM     51  C   UNL A   1      48.856  29.183  26.720  1.00  0.00     0.049 A 
ATOM     52  C   UNL A   1      43.463  29.452  28.194  1.00  0.00     0.074 A 
ATOM     53  C   UNL A   1      49.611  30.327  26.908  1.00  0.00     0.029 A 
ATOM     54  N   UNL A   1      47.570  29.478  27.146  1.00  0.00    -0.354 N 
ATOM     55  N   UNL A   1      44.733  29.547  27.885  1.00  0.00    -0.248 NA
ATOM     56  C   UNL A   1      42.902  30.667  28.803  1.00  0.00     0.031 C 
ATOM     57  C   UNL A   1      48.790  31.305  27.480  1.00  0.00     0.029 A 
ATOM     58  C   UNL A   1      47.513  30.783  27.606  1.00  0.00     0.049 A 
ATOM     59  H   UNL A   1      46.811  28.851  27.126  1.00  0.00     0.167 HD
ATOM     60  C   UNL A   1      45.113  30.838  28.225  1.00  0.00     0.074 A 
ATOM     61  C   UNL A   1      43.937  31.494  28.757  1.00  0.00     0.031 C 
ATOM     62  C   UNL A   1      46.328  31.428  28.108  1.00  0.00     0.037 A 
BRANCH  49  63
ATOM     63  C   UNL A   1      50.711  27.740  25.810  1.00  0.00     0.064 A 
ATOM     64  C   UNL A   1      51.157  27.924  24.492  1.00  0.00     0.173 A 
ATOM     65  C   UNL A   1      51.668  27.432  26.789  1.00  0.00     0.173 A 
ATOM     66  F   UNL A   1      50.282  28.209  23.517  1.00  0.00    -0.203 F 
ATOM     67  C   UNL A   1      52.503  27.783  24.166  1.00  0.00     0.198 A 
ATOM     68  C   UNL A   1      53.017  27.320  26.463  1.00  0.00     0.198 A 
ATOM     69  F   UNL A   1      51.296  27.251  28.066  1.00  0.00    -0.203 F 
ATOM     70  F   UNL A   1      52.899  27.922  22.893  1.00  0.00    -0.200 F 
ATOM     71  C   UNL A   1      53.432  27.489  25.152  1.00  0.00     0.200 A 
ATOM     72  F   UNL A   1      53.916  27.048  27.420  1.00  0.00    -0.200 F 
ATOM     73  F   UNL A   1      54.729  27.364  24.836  1.00  0.00    -0.200 F 
ENDBRANCH  49  63
BRANCH  50  74
ATOM     74  C   UNL A   1      41.103  28.391  28.435  1.00  0.00     0.064 A 
ATOM     75  C   UNL A   1      40.127  28.914  27.574  1.00  0.00     0.173 A 
ATOM     76  C   UNL A   1      40.696  27.989  29.715  1.00  0.00     0.173 A 
ATOM     77  F   UNL A   1      40.472  29.331  26.347  1.00  0.00    -0.203 F 
ATOM     78  C   UNL A   1      38.804  29.056  27.986  1.00  0.00     0.198 A 
ATOM     79  C   UNL A   1      39.366  28.105  30.117  1.00  0.00     0.198 A 
ATOM     80  F   UNL A   1      41.588  27.478  30.575  1.00  0.00    -0.203 F 
ATOM     81  F   UNL A   1      37.904  29.606  27.161  1.00  0.00    -0.200 F 
ATOM     82  C   UNL A   1      38.423  28.648  29.256  1.00  0.00     0.200 A 
ATOM     83  F   UNL A   1      39.000  27.699  31.340  1.00  0.00    -0.200 F 
ATOM     84  F   UNL A   1      37.151  28.786  29.652  1.00  0.00    -0.200 F 
ENDBRANCH  50  74
BRANCH  62  85
ATOM     85  C   UNL A   1      46.435  32.869  28.509  1.00  0.00     0.064 A 
ATOM     86  C   UNL A   1      46.166  33.909  27.607  1.00  0.00     0.173 A 
ATOM     87  C   UNL A   1      46.773  33.212  29.827  1.00  0.00     0.173 A 
ATOM     88  F   UNL A   1      45.854  33.632  26.332  1.00  0.00    -0.203 F 
ATOM     89  C   UNL A   1      46.257  35.240  28.004  1.00  0.00     0.198 A 
ATOM     90  C   UNL A   1      46.834  34.543  30.227  1.00  0.00     0.198 A 
ATOM     91  F   UNL A   1      47.032  32.254  30.730  1.00  0.00    -0.203 F 
ATOM     92  F   UNL A   1      46.039  36.218  27.114  1.00  0.00    -0.200 F 
ATOM     93  C   UNL A   1      46.582  35.556  29.315  1.00  0.00     0.200 A 
ATOM     94  F   UNL A   1      47.138  34.846  31.497  1.00  0.00    -0.200 F 
ATOM     95  F   UNL A   1      46.662  36.838  29.696  1.00  0.00    -0.200 F 
ENDBRANCH  62  85
ENDBRANCH  36  37
ENDBRANCH  28  31
ENDBRANCH  26  27
ENDBRANCH  25  26
ENDBRANCH  24  25
ENDBRANCH  23  24
ENDBRANCH   1  23
TORSDOF 20
ENDMDL
