MODEL 1
REMARK VINA RESULT:     -13.0      0.000      0.000
REMARK SMILES CC(C)=Cc1c(C(=O)NCCCCCCNC(=O)c2ccc(-c3c4nc(c(-c5c(F)c(F)c(F)c(F)c5F)c5ccc([nH]5)c(-c5c(F)c(F)c(F)c(F)c5F)c5nc(c(-c6c(F)c(F)c(F)c(F)c6F)c6ccc3[nH]6)C=C5)C=C4)cc2)nnn1-c1ccc(C(C)C)cc1
REMARK SMILES IDX 12 1 11 2 10 3 9 4 7 5 8 6 6 8 5 9 84 10 82 11 83 12 4 13
REMARK SMILES IDX 1 14 2 15 3 16 85 17 86 18 93 19 87 20 92 21 88 22 89 23
REMARK SMILES IDX 90 24 91 25 13 26 14 27 15 28 16 29 17 30 18 32 19 33 20 34
REMARK SMILES IDX 81 35 21 36 80 37 22 38 23 39 24 40 74 41 25 42 79 43 73 44
REMARK SMILES IDX 75 45 26 46 78 47 72 48 71 49 27 51 59 52 39 53 58 54 40 55
REMARK SMILES IDX 43 56 57 57 76 58 41 59 42 60 56 62 77 63 44 64 28 65 29 66
REMARK SMILES IDX 37 67 30 68 31 69 35 70 38 71 32 72 33 73 36 74 34 75 60 76
REMARK SMILES IDX 61 77 69 78 62 79 63 80 67 81 70 82 64 83 65 84 68 85 66 86
REMARK SMILES IDX 45 87 46 88 54 89 47 90 48 91 52 92 55 93 49 94 50 95 53 96
REMARK SMILES IDX 51 97
REMARK H PARENT 9 7 16 31 75 50 43 61
REMARK Flexibility Score: inf
ROOT
ATOM      1  C   UNL A   1      36.605  23.718  24.610  1.00  0.00     0.002 C 
ENDROOT
BRANCH   1   2
ATOM      2  C   UNL A   1      35.196  23.148  24.495  1.00  0.00     0.021 C 
BRANCH   2   3
ATOM      3  C   UNL A   1      34.265  23.315  25.684  1.00  0.00     0.116 C 
BRANCH   3   4
ATOM      4  N   UNL A   1      33.162  22.400  25.769  1.00  0.00    -0.351 N 
ATOM      5  C   UNL A   1      31.807  22.643  25.668  1.00  0.00     0.274 C 
ATOM      6  O   UNL A   1      31.083  21.653  25.807  1.00  0.00    -0.267 OA
ATOM      7  H   UNL A   1      33.409  21.459  25.921  1.00  0.00     0.163 HD
BRANCH   5   8
ATOM      8  C   UNL A   1      31.222  23.976  25.446  1.00  0.00     0.178 A 
ATOM      9  C   UNL A   1      31.012  24.780  24.322  1.00  0.00     0.100 A 
ATOM     10  N   UNL A   1      30.321  25.887  24.825  1.00  0.00    -0.213 N 
ATOM     11  N   UNL A   1      30.761  24.666  26.552  1.00  0.00    -0.124 NA
ATOM     12  N   UNL A   1      30.321  25.852  26.174  1.00  0.00    -0.061 NA
BRANCH   9  13
ATOM     13  C   UNL A   1      31.357  24.709  22.944  1.00  0.00     0.029 C 
ATOM     14  C   UNL A   1      33.462  26.136  23.201  1.00  0.00     0.039 C 
ATOM     15  C   UNL A   1      32.469  25.291  22.434  1.00  0.00    -0.074 C 
ATOM     16  C   UNL A   1      32.845  25.077  20.992  1.00  0.00     0.039 C 
ENDBRANCH   9  13
BRANCH  10  17
ATOM     17  C   UNL A   1      29.750  26.987  24.133  1.00  0.00     0.067 A 
ATOM     18  C   UNL A   1      28.414  26.911  23.727  1.00  0.00     0.029 A 
ATOM     19  C   UNL A   1      30.477  28.165  23.932  1.00  0.00     0.029 A 
ATOM     20  C   UNL A   1      27.785  28.047  23.218  1.00  0.00     0.006 A 
ATOM     21  C   UNL A   1      29.850  29.289  23.397  1.00  0.00     0.006 A 
ATOM     22  C   UNL A   1      28.491  29.252  23.060  1.00  0.00    -0.045 A 
BRANCH  22  23
ATOM     23  C   UNL A   1      27.816  30.507  22.541  1.00  0.00     0.013 C 
ATOM     24  C   UNL A   1      27.563  31.507  23.669  1.00  0.00     0.012 C 
ATOM     25  C   UNL A   1      28.624  31.139  21.403  1.00  0.00     0.012 C 
ENDBRANCH  22  23
ENDBRANCH  10  17
ENDBRANCH   5   8
ENDBRANCH   3   4
ENDBRANCH   2   3
ENDBRANCH   1   2
BRANCH   1  26
ATOM     26  C   UNL A   1      37.505  23.187  25.734  1.00  0.00     0.002 C 
BRANCH  26  27
ATOM     27  C   UNL A   1      38.356  21.939  25.464  1.00  0.00     0.021 C 
BRANCH  27  28
ATOM     28  C   UNL A   1      39.469  21.679  26.465  1.00  0.00     0.116 C 
BRANCH  28  29
ATOM     29  N   UNL A   1      40.797  21.594  25.861  1.00  0.00    -0.352 N 
ATOM     30  C   UNL A   1      41.759  22.588  25.751  1.00  0.00     0.251 C 
ATOM     31  H   UNL A   1      41.041  20.718  25.482  1.00  0.00     0.163 HD
ATOM     32  O   UNL A   1      42.660  22.513  24.936  1.00  0.00    -0.269 OA
BRANCH  30  33
ATOM     33  C   UNL A   1      41.670  23.750  26.657  1.00  0.00     0.039 A 
ATOM     34  C   UNL A   1      42.309  23.773  27.901  1.00  0.00     0.014 A 
ATOM     35  C   UNL A   1      40.948  24.848  26.213  1.00  0.00     0.014 A 
ATOM     36  C   UNL A   1      42.278  24.947  28.652  1.00  0.00     0.010 A 
ATOM     37  C   UNL A   1      41.095  26.051  26.845  1.00  0.00     0.010 A 
ATOM     38  C   UNL A   1      41.680  26.090  28.105  1.00  0.00    -0.014 A 
BRANCH  38  39
ATOM     39  C   UNL A   1      41.715  27.385  28.780  1.00  0.00     0.031 A 
ATOM     40  C   UNL A   1      42.839  28.276  28.381  1.00  0.00     0.074 A 
ATOM     41  C   UNL A   1      40.650  27.827  29.490  1.00  0.00     0.049 A 
ATOM     42  N   UNL A   1      43.738  28.810  29.140  1.00  0.00    -0.248 NA
ATOM     43  C   UNL A   1      43.055  28.526  26.944  1.00  0.00     0.031 C 
ATOM     44  C   UNL A   1      39.356  27.160  29.696  1.00  0.00     0.029 A 
ATOM     45  N   UNL A   1      40.444  29.041  30.065  1.00  0.00    -0.354 N 
ATOM     46  C   UNL A   1      44.521  29.611  28.311  1.00  0.00     0.074 A 
ATOM     47  C   UNL A   1      44.166  29.265  26.961  1.00  0.00     0.031 C 
ATOM     48  C   UNL A   1      38.439  28.061  30.107  1.00  0.00     0.029 A 
ATOM     49  C   UNL A   1      39.113  29.317  30.365  1.00  0.00     0.049 A 
ATOM     50  H   UNL A   1      41.174  29.673  30.254  1.00  0.00     0.167 HD
ATOM     51  C   UNL A   1      45.220  30.668  28.813  1.00  0.00     0.037 A 
ATOM     52  C   UNL A   1      38.598  30.505  30.764  1.00  0.00     0.037 A 
ATOM     53  C   UNL A   1      45.378  30.551  30.242  1.00  0.00     0.049 A 
ATOM     54  C   UNL A   1      39.731  31.326  31.259  1.00  0.00     0.074 A 
ATOM     55  C   UNL A   1      45.952  29.610  31.075  1.00  0.00     0.029 A 
ATOM     56  N   UNL A   1      44.569  31.311  31.049  1.00  0.00    -0.354 N 
ATOM     57  N   UNL A   1      40.407  31.048  32.338  1.00  0.00    -0.248 NA
ATOM     58  C   UNL A   1      40.411  32.180  30.296  1.00  0.00     0.031 C 
ATOM     59  C   UNL A   1      45.076  29.534  32.199  1.00  0.00     0.029 A 
ATOM     60  C   UNL A   1      44.070  30.482  32.020  1.00  0.00     0.049 A 
ATOM     61  H   UNL A   1      44.381  32.272  30.948  1.00  0.00     0.167 HD
ATOM     62  C   UNL A   1      41.727  31.311  32.002  1.00  0.00     0.074 A 
ATOM     63  C   UNL A   1      41.659  32.086  30.765  1.00  0.00     0.031 C 
ATOM     64  C   UNL A   1      42.750  30.623  32.588  1.00  0.00     0.037 A 
BRANCH  51  65
ATOM     65  C   UNL A   1      45.420  31.982  28.091  1.00  0.00     0.064 A 
ATOM     66  C   UNL A   1      44.286  32.723  27.695  1.00  0.00     0.173 A 
ATOM     67  C   UNL A   1      46.639  32.382  27.500  1.00  0.00     0.173 A 
ATOM     68  F   UNL A   1      43.073  32.430  28.185  1.00  0.00    -0.203 F 
ATOM     69  C   UNL A   1      44.356  33.712  26.711  1.00  0.00     0.198 A 
ATOM     70  C   UNL A   1      46.712  33.407  26.559  1.00  0.00     0.198 A 
ATOM     71  F   UNL A   1      47.788  31.733  27.717  1.00  0.00    -0.203 F 
ATOM     72  F   UNL A   1      43.230  34.289  26.267  1.00  0.00    -0.200 F 
ATOM     73  C   UNL A   1      45.567  34.046  26.135  1.00  0.00     0.200 A 
ATOM     74  F   UNL A   1      47.895  33.706  26.003  1.00  0.00    -0.200 F 
ATOM     75  F   UNL A   1      45.627  34.943  25.143  1.00  0.00    -0.200 F 
ENDBRANCH  51  65
BRANCH  52  76
ATOM     76  C   UNL A   1      37.257  31.073  30.485  1.00  0.00     0.064 A 
ATOM     77  C   UNL A   1      36.395  31.449  31.528  1.00  0.00     0.173 A 
ATOM     78  C   UNL A   1      36.902  31.512  29.194  1.00  0.00     0.173 A 
ATOM     79  F   UNL A   1      36.683  31.111  32.793  1.00  0.00    -0.203 F 
ATOM     80  C   UNL A   1      35.261  32.236  31.297  1.00  0.00     0.198 A 
ATOM     81  C   UNL A   1      35.766  32.291  28.963  1.00  0.00     0.198 A 
ATOM     82  F   UNL A   1      37.700  31.275  28.142  1.00  0.00    -0.203 F 
ATOM     83  F   UNL A   1      34.499  32.627  32.328  1.00  0.00    -0.200 F 
ATOM     84  C   UNL A   1      34.954  32.665  30.017  1.00  0.00     0.200 A 
ATOM     85  F   UNL A   1      35.504  32.731  27.724  1.00  0.00    -0.200 F 
ATOM     86  F   UNL A   1      33.906  33.472  29.805  1.00  0.00    -0.200 F 
ENDBRANCH  52  76
BRANCH  64  87
ATOM     87  C   UNL A   1      42.428  29.757  33.776  1.00  0.00     0.064 A 
ATOM     88  C   UNL A   1      42.038  28.409  33.687  1.00  0.00     0.173 A 
ATOM     89  C   UNL A   1      42.668  30.270  35.056  1.00  0.00     0.173 A 
ATOM     90  F   UNL A   1      41.890  27.810  32.500  1.00  0.00    -0.203 F 
ATOM     91  C   UNL A   1      41.853  27.628  34.826  1.00  0.00     0.198 A 
ATOM     92  C   UNL A   1      42.518  29.478  36.193  1.00  0.00     0.198 A 
ATOM     93  F   UNL A   1      43.098  31.532  35.204  1.00  0.00    -0.203 F 
ATOM     94  F   UNL A   1      41.470  26.348  34.709  1.00  0.00    -0.200 F 
ATOM     95  C   UNL A   1      42.101  28.162  36.078  1.00  0.00     0.200 A 
ATOM     96  F   UNL A   1      42.810  29.984  37.398  1.00  0.00    -0.200 F 
ATOM     97  F   UNL A   1      41.964  27.401  37.173  1.00  0.00    -0.200 F 
ENDBRANCH  64  87
ENDBRANCH  38  39
ENDBRANCH  30  33
ENDBRANCH  28  29
ENDBRANCH  27  28
ENDBRANCH  26  27
ENDBRANCH   1  26
TORSDOF 16
ENDMDL
MODEL 2
REMARK VINA RESULT:     -12.8      3.381      8.899
REMARK SMILES CC(C)=Cc1c(C(=O)NCCCCCCNC(=O)c2ccc(-c3c4nc(c(-c5c(F)c(F)c(F)c(F)c5F)c5ccc([nH]5)c(-c5c(F)c(F)c(F)c(F)c5F)c5nc(c(-c6c(F)c(F)c(F)c(F)c6F)c6ccc3[nH]6)C=C5)C=C4)cc2)nnn1-c1ccc(C(C)C)cc1
REMARK SMILES IDX 12 1 11 2 10 3 9 4 7 5 8 6 6 8 5 9 84 10 82 11 83 12 4 13
REMARK SMILES IDX 1 14 2 15 3 16 85 17 86 18 93 19 87 20 92 21 88 22 89 23
REMARK SMILES IDX 90 24 91 25 13 26 14 27 15 28 16 29 17 30 18 32 19 33 20 34
REMARK SMILES IDX 81 35 21 36 80 37 22 38 23 39 24 40 74 41 25 42 79 43 73 44
REMARK SMILES IDX 75 45 26 46 78 47 72 48 71 49 27 51 59 52 39 53 58 54 40 55
REMARK SMILES IDX 43 56 57 57 76 58 41 59 42 60 56 62 77 63 44 64 28 65 29 66
REMARK SMILES IDX 37 67 30 68 31 69 35 70 38 71 32 72 33 73 36 74 34 75 60 76
REMARK SMILES IDX 61 77 69 78 62 79 63 80 67 81 70 82 64 83 65 84 68 85 66 86
REMARK SMILES IDX 45 87 46 88 54 89 47 90 48 91 52 92 55 93 49 94 50 95 53 96
REMARK SMILES IDX 51 97
REMARK H PARENT 9 7 16 31 75 50 43 61
REMARK Flexibility Score: inf
ROOT
ATOM      1  C   UNL A   1      32.277  28.333  27.091  1.00  0.00     0.002 C 
ENDROOT
BRANCH   1   2
ATOM      2  C   UNL A   1      31.661  28.287  25.698  1.00  0.00     0.021 C 
BRANCH   2   3
ATOM      3  C   UNL A   1      32.404  27.515  24.621  1.00  0.00     0.116 C 
BRANCH   3   4
ATOM      4  N   UNL A   1      31.771  27.437  23.334  1.00  0.00    -0.351 N 
ATOM      5  C   UNL A   1      31.692  26.377  22.454  1.00  0.00     0.274 C 
ATOM      6  O   UNL A   1      31.096  26.611  21.399  1.00  0.00    -0.267 OA
ATOM      7  H   UNL A   1      31.326  28.264  23.036  1.00  0.00     0.163 HD
BRANCH   5   8
ATOM      8  C   UNL A   1      32.290  25.054  22.701  1.00  0.00     0.178 A 
ATOM      9  C   UNL A   1      31.970  23.970  23.523  1.00  0.00     0.100 A 
ATOM     10  N   UNL A   1      32.918  22.999  23.184  1.00  0.00    -0.213 N 
ATOM     11  N   UNL A   1      33.445  24.734  22.010  1.00  0.00    -0.124 NA
ATOM     12  N   UNL A   1      33.864  23.542  22.390  1.00  0.00    -0.061 NA
BRANCH   9  13
ATOM     13  C   UNL A   1      31.005  23.716  24.537  1.00  0.00     0.029 C 
ATOM     14  C   UNL A   1      32.592  24.286  26.458  1.00  0.00     0.039 C 
ATOM     15  C   UNL A   1      31.265  23.880  25.856  1.00  0.00    -0.074 C 
ATOM     16  C   UNL A   1      30.167  23.713  26.873  1.00  0.00     0.039 C 
ENDBRANCH   9  13
BRANCH  10  17
ATOM     17  C   UNL A   1      33.027  21.653  23.618  1.00  0.00     0.067 A 
ATOM     18  C   UNL A   1      32.276  20.668  22.967  1.00  0.00     0.029 A 
ATOM     19  C   UNL A   1      33.932  21.293  24.623  1.00  0.00     0.029 A 
ATOM     20  C   UNL A   1      32.512  19.324  23.253  1.00  0.00     0.006 A 
ATOM     21  C   UNL A   1      34.143  19.948  24.923  1.00  0.00     0.006 A 
ATOM     22  C   UNL A   1      33.457  18.948  24.223  1.00  0.00    -0.045 A 
BRANCH  22  23
ATOM     23  C   UNL A   1      33.752  17.491  24.523  1.00  0.00     0.013 C 
ATOM     24  C   UNL A   1      32.698  16.893  25.456  1.00  0.00     0.012 C 
ATOM     25  C   UNL A   1      33.885  16.676  23.234  1.00  0.00     0.012 C 
ENDBRANCH  22  23
ENDBRANCH  10  17
ENDBRANCH   5   8
ENDBRANCH   3   4
ENDBRANCH   2   3
ENDBRANCH   1   2
BRANCH   1  26
ATOM     26  C   UNL A   1      33.634  29.030  27.254  1.00  0.00     0.002 C 
BRANCH  26  27
ATOM     27  C   UNL A   1      33.726  30.534  26.961  1.00  0.00     0.021 C 
BRANCH  27  28
ATOM     28  C   UNL A   1      34.906  31.252  27.593  1.00  0.00     0.116 C 
BRANCH  28  29
ATOM     29  N   UNL A   1      34.546  32.072  28.749  1.00  0.00    -0.352 N 
ATOM     30  C   UNL A   1      35.016  31.978  30.051  1.00  0.00     0.251 C 
ATOM     31  H   UNL A   1      33.885  32.782  28.582  1.00  0.00     0.163 HD
ATOM     32  O   UNL A   1      34.402  32.461  30.984  1.00  0.00    -0.269 OA
BRANCH  30  33
ATOM     33  C   UNL A   1      36.293  31.274  30.285  1.00  0.00     0.039 A 
ATOM     34  C   UNL A   1      36.340  29.931  30.674  1.00  0.00     0.014 A 
ATOM     35  C   UNL A   1      37.461  31.991  30.073  1.00  0.00     0.014 A 
ATOM     36  C   UNL A   1      37.581  29.301  30.764  1.00  0.00     0.010 A 
ATOM     37  C   UNL A   1      38.648  31.324  29.957  1.00  0.00     0.010 A 
ATOM     38  C   UNL A   1      38.732  30.005  30.386  1.00  0.00    -0.014 A 
BRANCH  38  39
ATOM     39  C   UNL A   1      40.048  29.373  30.339  1.00  0.00     0.031 A 
ATOM     40  C   UNL A   1      40.712  29.199  31.661  1.00  0.00     0.074 A 
ATOM     41  C   UNL A   1      40.481  28.751  29.218  1.00  0.00     0.049 A 
ATOM     42  N   UNL A   1      41.873  29.633  32.031  1.00  0.00    -0.248 NA
ATOM     43  C   UNL A   1      39.953  28.548  32.744  1.00  0.00     0.031 C 
ATOM     44  C   UNL A   1      39.774  28.590  27.939  1.00  0.00     0.029 A 
ATOM     45  N   UNL A   1      41.598  28.000  29.027  1.00  0.00    -0.354 N 
ATOM     46  C   UNL A   1      42.072  29.155  33.324  1.00  0.00     0.074 A 
ATOM     47  C   UNL A   1      40.802  28.648  33.768  1.00  0.00     0.031 C 
ATOM     48  C   UNL A   1      40.345  27.598  27.224  1.00  0.00     0.029 A 
ATOM     49  C   UNL A   1      41.554  27.180  27.903  1.00  0.00     0.049 A 
ATOM     50  H   UNL A   1      42.374  28.034  29.632  1.00  0.00     0.167 HD
ATOM     51  C   UNL A   1      43.328  28.994  33.827  1.00  0.00     0.037 A 
ATOM     52  C   UNL A   1      42.434  26.203  27.575  1.00  0.00     0.037 A 
ATOM     53  C   UNL A   1      44.289  29.756  33.068  1.00  0.00     0.049 A 
ATOM     54  C   UNL A   1      43.672  26.452  28.353  1.00  0.00     0.074 A 
ATOM     55  C   UNL A   1      44.440  31.097  32.770  1.00  0.00     0.029 A 
ATOM     56  N   UNL A   1      45.078  29.089  32.164  1.00  0.00    -0.354 N 
ATOM     57  N   UNL A   1      44.455  27.476  28.156  1.00  0.00    -0.248 NA
ATOM     58  C   UNL A   1      43.781  25.823  29.662  1.00  0.00     0.031 C 
ATOM     59  C   UNL A   1      44.884  31.124  31.415  1.00  0.00     0.029 A 
ATOM     60  C   UNL A   1      45.051  29.805  30.995  1.00  0.00     0.049 A 
ATOM     61  H   UNL A   1      45.570  28.252  32.325  1.00  0.00     0.167 HD
ATOM     62  C   UNL A   1      44.819  27.889  29.429  1.00  0.00     0.074 A 
ATOM     63  C   UNL A   1      44.446  26.783  30.311  1.00  0.00     0.031 C 
ATOM     64  C   UNL A   1      45.108  29.197  29.686  1.00  0.00     0.037 A 
BRANCH  51  65
ATOM     65  C   UNL A   1      43.746  27.865  34.743  1.00  0.00     0.064 A 
ATOM     66  C   UNL A   1      43.507  26.535  34.339  1.00  0.00     0.173 A 
ATOM     67  C   UNL A   1      44.071  28.032  36.107  1.00  0.00     0.173 A 
ATOM     68  F   UNL A   1      43.184  26.254  33.068  1.00  0.00    -0.203 F 
ATOM     69  C   UNL A   1      43.493  25.476  35.251  1.00  0.00     0.198 A 
ATOM     70  C   UNL A   1      44.109  26.965  37.003  1.00  0.00     0.198 A 
ATOM     71  F   UNL A   1      44.252  29.237  36.658  1.00  0.00    -0.203 F 
ATOM     72  F   UNL A   1      43.121  24.254  34.844  1.00  0.00    -0.200 F 
ATOM     73  C   UNL A   1      43.783  25.693  36.585  1.00  0.00     0.200 A 
ATOM     74  F   UNL A   1      44.380  27.201  38.295  1.00  0.00    -0.200 F 
ATOM     75  F   UNL A   1      43.702  24.695  37.473  1.00  0.00    -0.200 F 
ENDBRANCH  51  65
BRANCH  52  76
ATOM     76  C   UNL A   1      42.177  24.928  26.863  1.00  0.00     0.064 A 
ATOM     77  C   UNL A   1      42.925  24.563  25.733  1.00  0.00     0.173 A 
ATOM     78  C   UNL A   1      41.378  23.917  27.435  1.00  0.00     0.173 A 
ATOM     79  F   UNL A   1      43.745  25.451  25.153  1.00  0.00    -0.203 F 
ATOM     80  C   UNL A   1      42.897  23.260  25.220  1.00  0.00     0.198 A 
ATOM     81  C   UNL A   1      41.344  22.620  26.920  1.00  0.00     0.198 A 
ATOM     82  F   UNL A   1      40.689  24.141  28.563  1.00  0.00    -0.203 F 
ATOM     83  F   UNL A   1      43.675  22.934  24.179  1.00  0.00    -0.200 F 
ATOM     84  C   UNL A   1      42.114  22.288  25.821  1.00  0.00     0.200 A 
ATOM     85  F   UNL A   1      40.613  21.680  27.535  1.00  0.00    -0.200 F 
ATOM     86  F   UNL A   1      42.137  21.026  25.372  1.00  0.00    -0.200 F 
ENDBRANCH  52  76
BRANCH  64  87
ATOM     87  C   UNL A   1      45.262  30.128  28.514  1.00  0.00     0.064 A 
ATOM     88  C   UNL A   1      44.205  30.855  27.938  1.00  0.00     0.173 A 
ATOM     89  C   UNL A   1      46.555  30.407  28.054  1.00  0.00     0.173 A 
ATOM     90  F   UNL A   1      42.953  30.728  28.391  1.00  0.00    -0.203 F 
ATOM     91  C   UNL A   1      44.427  31.780  26.921  1.00  0.00     0.198 A 
ATOM     92  C   UNL A   1      46.780  31.359  27.062  1.00  0.00     0.198 A 
ATOM     93  F   UNL A   1      47.611  29.789  28.603  1.00  0.00    -0.203 F 
ATOM     94  F   UNL A   1      43.397  32.450  26.384  1.00  0.00    -0.200 F 
ATOM     95  C   UNL A   1      45.716  32.037  26.489  1.00  0.00     0.200 A 
ATOM     96  F   UNL A   1      48.034  31.642  26.684  1.00  0.00    -0.200 F 
ATOM     97  F   UNL A   1      45.937  32.957  25.539  1.00  0.00    -0.200 F 
ENDBRANCH  64  87
ENDBRANCH  38  39
ENDBRANCH  30  33
ENDBRANCH  28  29
ENDBRANCH  27  28
ENDBRANCH  26  27
ENDBRANCH   1  26
TORSDOF 16
ENDMDL
MODEL 3
REMARK VINA RESULT:     -12.6      1.162      2.418
REMARK SMILES CC(C)=Cc1c(C(=O)NCCCCCCNC(=O)c2ccc(-c3c4nc(c(-c5c(F)c(F)c(F)c(F)c5F)c5ccc([nH]5)c(-c5c(F)c(F)c(F)c(F)c5F)c5nc(c(-c6c(F)c(F)c(F)c(F)c6F)c6ccc3[nH]6)C=C5)C=C4)cc2)nnn1-c1ccc(C(C)C)cc1
REMARK SMILES IDX 12 1 11 2 10 3 9 4 7 5 8 6 6 8 5 9 84 10 82 11 83 12 4 13
REMARK SMILES IDX 1 14 2 15 3 16 85 17 86 18 93 19 87 20 92 21 88 22 89 23
REMARK SMILES IDX 90 24 91 25 13 26 14 27 15 28 16 29 17 30 18 32 19 33 20 34
REMARK SMILES IDX 81 35 21 36 80 37 22 38 23 39 24 40 74 41 25 42 79 43 73 44
REMARK SMILES IDX 75 45 26 46 78 47 72 48 71 49 27 51 59 52 39 53 58 54 40 55
REMARK SMILES IDX 43 56 57 57 76 58 41 59 42 60 56 62 77 63 44 64 28 65 29 66
REMARK SMILES IDX 37 67 30 68 31 69 35 70 38 71 32 72 33 73 36 74 34 75 60 76
REMARK SMILES IDX 61 77 69 78 62 79 63 80 67 81 70 82 64 83 65 84 68 85 66 86
REMARK SMILES IDX 45 87 46 88 54 89 47 90 48 91 52 92 55 93 49 94 50 95 53 96
REMARK SMILES IDX 51 97
REMARK H PARENT 9 7 16 31 75 50 43 61
REMARK Flexibility Score: inf
ROOT
ATOM      1  C   UNL A   1      34.498  21.063  24.439  1.00  0.00     0.002 C 
ENDROOT
BRANCH   1   2
ATOM      2  C   UNL A   1      33.115  21.242  23.824  1.00  0.00     0.021 C 
BRANCH   2   3
ATOM      3  C   UNL A   1      31.938  21.415  24.769  1.00  0.00     0.116 C 
BRANCH   3   4
ATOM      4  N   UNL A   1      32.252  21.603  26.158  1.00  0.00    -0.351 N 
ATOM      5  C   UNL A   1      32.020  22.691  26.973  1.00  0.00     0.274 C 
ATOM      6  O   UNL A   1      32.424  22.576  28.134  1.00  0.00    -0.267 OA
ATOM      7  H   UNL A   1      32.698  20.840  26.593  1.00  0.00     0.163 HD
BRANCH   5   8
ATOM      8  C   UNL A   1      31.370  23.934  26.525  1.00  0.00     0.178 A 
ATOM      9  C   UNL A   1      31.730  24.973  25.661  1.00  0.00     0.100 A 
ATOM     10  N   UNL A   1      30.594  25.789  25.626  1.00  0.00    -0.213 N 
ATOM     11  N   UNL A   1      30.119  24.224  27.037  1.00  0.00    -0.124 NA
ATOM     12  N   UNL A   1      29.715  25.390  26.568  1.00  0.00    -0.061 NA
BRANCH   9  13
ATOM     13  C   UNL A   1      32.899  25.329  24.934  1.00  0.00     0.029 C 
ATOM     14  C   UNL A   1      31.964  24.562  22.682  1.00  0.00     0.039 C 
ATOM     15  C   UNL A   1      33.005  25.175  23.592  1.00  0.00    -0.074 C 
ATOM     16  C   UNL A   1      34.220  25.684  22.862  1.00  0.00     0.039 C 
ENDBRANCH   9  13
BRANCH  10  17
ATOM     17  C   UNL A   1      30.333  26.939  24.837  1.00  0.00     0.067 A 
ATOM     18  C   UNL A   1      29.278  26.906  23.919  1.00  0.00     0.029 A 
ATOM     19  C   UNL A   1      31.058  28.121  25.028  1.00  0.00     0.029 A 
ATOM     20  C   UNL A   1      28.889  28.081  23.277  1.00  0.00     0.006 A 
ATOM     21  C   UNL A   1      30.680  29.286  24.361  1.00  0.00     0.006 A 
ATOM     22  C   UNL A   1      29.576  29.286  23.500  1.00  0.00    -0.045 A 
BRANCH  22  23
ATOM     23  C   UNL A   1      29.147  30.581  22.836  1.00  0.00     0.013 C 
ATOM     24  C   UNL A   1      29.291  30.498  21.317  1.00  0.00     0.012 C 
ATOM     25  C   UNL A   1      27.722  30.966  23.244  1.00  0.00     0.012 C 
ENDBRANCH  22  23
ENDBRANCH  10  17
ENDBRANCH   5   8
ENDBRANCH   3   4
ENDBRANCH   2   3
ENDBRANCH   1   2
BRANCH   1  26
ATOM     26  C   UNL A   1      35.382  22.307  24.595  1.00  0.00     0.002 C 
BRANCH  26  27
ATOM     27  C   UNL A   1      36.888  22.177  24.325  1.00  0.00     0.021 C 
BRANCH  27  28
ATOM     28  C   UNL A   1      37.794  22.842  25.347  1.00  0.00     0.116 C 
BRANCH  28  29
ATOM     29  N   UNL A   1      38.507  21.897  26.205  1.00  0.00    -0.352 N 
ATOM     30  C   UNL A   1      39.649  22.115  26.962  1.00  0.00     0.251 C 
ATOM     31  H   UNL A   1      38.129  20.989  26.251  1.00  0.00     0.163 HD
ATOM     32  O   UNL A   1      40.343  21.192  27.344  1.00  0.00    -0.269 OA
BRANCH  30  33
ATOM     33  C   UNL A   1      40.008  23.506  27.303  1.00  0.00     0.039 A 
ATOM     34  C   UNL A   1      39.086  24.554  27.213  1.00  0.00     0.014 A 
ATOM     35  C   UNL A   1      41.300  23.737  27.753  1.00  0.00     0.014 A 
ATOM     36  C   UNL A   1      39.460  25.820  27.662  1.00  0.00     0.010 A 
ATOM     37  C   UNL A   1      41.593  24.915  28.381  1.00  0.00     0.010 A 
ATOM     38  C   UNL A   1      40.716  25.986  28.261  1.00  0.00    -0.014 A 
BRANCH  38  39
ATOM     39  C   UNL A   1      41.129  27.252  28.861  1.00  0.00     0.031 A 
ATOM     40  C   UNL A   1      42.334  27.878  28.250  1.00  0.00     0.074 A 
ATOM     41  C   UNL A   1      40.310  27.920  29.707  1.00  0.00     0.049 A 
ATOM     42  N   UNL A   1      43.436  28.218  28.834  1.00  0.00    -0.248 NA
ATOM     43  C   UNL A   1      42.361  28.058  26.787  1.00  0.00     0.031 C 
ATOM     44  C   UNL A   1      38.956  27.547  30.143  1.00  0.00     0.029 A 
ATOM     45  N   UNL A   1      40.456  29.158  30.249  1.00  0.00    -0.354 N 
ATOM     46  C   UNL A   1      44.223  28.823  27.856  1.00  0.00     0.074 A 
ATOM     47  C   UNL A   1      43.589  28.543  26.596  1.00  0.00     0.031 C 
ATOM     48  C   UNL A   1      38.325  28.628  30.649  1.00  0.00     0.029 A 
ATOM     49  C   UNL A   1      39.279  29.714  30.739  1.00  0.00     0.049 A 
ATOM     50  H   UNL A   1      41.323  29.622  30.292  1.00  0.00     0.167 HD
ATOM     51  C   UNL A   1      45.198  29.714  28.192  1.00  0.00     0.037 A 
ATOM     52  C   UNL A   1      39.094  30.990  31.157  1.00  0.00     0.037 A 
ATOM     53  C   UNL A   1      45.558  29.584  29.583  1.00  0.00     0.049 A 
ATOM     54  C   UNL A   1      40.438  31.558  31.430  1.00  0.00     0.074 A 
ATOM     55  C   UNL A   1      46.051  28.554  30.361  1.00  0.00     0.029 A 
ATOM     56  N   UNL A   1      45.067  30.510  30.470  1.00  0.00    -0.354 N 
ATOM     57  N   UNL A   1      41.208  31.156  32.403  1.00  0.00    -0.248 NA
ATOM     58  C   UNL A   1      41.115  32.235  30.334  1.00  0.00     0.031 C 
ATOM     59  C   UNL A   1      45.374  28.681  31.609  1.00  0.00     0.029 A 
ATOM     60  C   UNL A   1      44.571  29.820  31.545  1.00  0.00     0.049 A 
ATOM     61  H   UNL A   1      45.069  31.488  30.354  1.00  0.00     0.167 HD
ATOM     62  C   UNL A   1      42.480  31.127  31.853  1.00  0.00     0.074 A 
ATOM     63  C   UNL A   1      42.375  31.884  30.606  1.00  0.00     0.031 C 
ATOM     64  C   UNL A   1      43.420  30.246  32.304  1.00  0.00     0.037 A 
BRANCH  51  65
ATOM     65  C   UNL A   1      45.548  30.945  27.387  1.00  0.00     0.064 A 
ATOM     66  C   UNL A   1      46.901  31.194  27.073  1.00  0.00     0.173 A 
ATOM     67  C   UNL A   1      44.672  32.034  27.186  1.00  0.00     0.173 A 
ATOM     68  F   UNL A   1      47.827  30.236  27.230  1.00  0.00    -0.203 F 
ATOM     69  C   UNL A   1      47.351  32.461  26.692  1.00  0.00     0.198 A 
ATOM     70  C   UNL A   1      45.117  33.282  26.752  1.00  0.00     0.198 A 
ATOM     71  F   UNL A   1      43.375  31.979  27.505  1.00  0.00    -0.203 F 
ATOM     72  F   UNL A   1      48.665  32.683  26.544  1.00  0.00    -0.200 F 
ATOM     73  C   UNL A   1      46.460  33.507  26.542  1.00  0.00     0.200 A 
ATOM     74  F   UNL A   1      44.238  34.286  26.627  1.00  0.00    -0.200 F 
ATOM     75  F   UNL A   1      46.896  34.738  26.246  1.00  0.00    -0.200 F 
ENDBRANCH  51  65
BRANCH  52  76
ATOM     76  C   UNL A   1      37.874  31.827  31.064  1.00  0.00     0.064 A 
ATOM     77  C   UNL A   1      37.407  32.297  29.826  1.00  0.00     0.173 A 
ATOM     78  C   UNL A   1      36.990  31.958  32.154  1.00  0.00     0.173 A 
ATOM     79  F   UNL A   1      38.168  32.171  28.729  1.00  0.00    -0.203 F 
ATOM     80  C   UNL A   1      36.125  32.841  29.681  1.00  0.00     0.198 A 
ATOM     81  C   UNL A   1      35.714  32.507  32.011  1.00  0.00     0.198 A 
ATOM     82  F   UNL A   1      37.308  31.468  33.361  1.00  0.00    -0.203 F 
ATOM     83  F   UNL A   1      35.693  33.218  28.470  1.00  0.00    -0.200 F 
ATOM     84  C   UNL A   1      35.277  32.935  30.772  1.00  0.00     0.200 A 
ATOM     85  F   UNL A   1      34.890  32.556  33.067  1.00  0.00    -0.200 F 
ATOM     86  F   UNL A   1      34.027  33.394  30.621  1.00  0.00    -0.200 F 
ENDBRANCH  52  76
BRANCH  64  87
ATOM     87  C   UNL A   1      43.121  29.483  33.567  1.00  0.00     0.064 A 
ATOM     88  C   UNL A   1      43.350  29.980  34.862  1.00  0.00     0.173 A 
ATOM     89  C   UNL A   1      42.439  28.265  33.461  1.00  0.00     0.173 A 
ATOM     90  F   UNL A   1      43.899  31.185  35.053  1.00  0.00    -0.203 F 
ATOM     91  C   UNL A   1      42.957  29.269  35.994  1.00  0.00     0.198 A 
ATOM     92  C   UNL A   1      42.014  27.573  34.592  1.00  0.00     0.198 A 
ATOM     93  F   UNL A   1      42.140  27.767  32.252  1.00  0.00    -0.203 F 
ATOM     94  F   UNL A   1      43.199  29.764  37.217  1.00  0.00    -0.200 F 
ATOM     95  C   UNL A   1      42.282  28.069  35.858  1.00  0.00     0.200 A 
ATOM     96  F   UNL A   1      41.315  26.438  34.454  1.00  0.00    -0.200 F 
ATOM     97  F   UNL A   1      41.866  27.403  36.944  1.00  0.00    -0.200 F 
ENDBRANCH  64  87
ENDBRANCH  38  39
ENDBRANCH  30  33
ENDBRANCH  28  29
ENDBRANCH  27  28
ENDBRANCH  26  27
ENDBRANCH   1  26
TORSDOF 16
ENDMDL
