MODEL 1
REMARK VINA RESULT:     -11.7      0.000      0.000
REMARK SMILES CC(C)C[C@@H](NC(=O)Cn1nc(O)ccc1=O)C(=O)NCCCCCCNC(=O)c1ccc(-c2c3nc(c(-c4c(F)c(F)c(F)c(F)c4F)c4ccc([nH]4)c(-c4c(F)c(F)c(F)c(F)c4F)c4nc(c(-c5c(F)c(F)c(F)c(F)c5F)c5ccc2[nH]5)C=C4)C=C3)cc1
REMARK SMILES IDX 22 1 21 2 20 3 18 4 19 5 5 7 4 8 2 9 1 10 3 11 6 12 7 13
REMARK SMILES IDX 8 15 9 16 10 17 11 18 16 19 12 20 15 21 17 22 14 23 13 24
REMARK SMILES IDX 23 26 24 27 25 28 26 29 27 30 28 31 29 33 30 34 31 35 92 36
REMARK SMILES IDX 32 37 91 38 33 39 34 40 35 41 85 42 36 43 90 44 84 45 86 46
REMARK SMILES IDX 37 47 89 48 83 49 82 50 38 52 70 53 50 54 69 55 51 56 54 57
REMARK SMILES IDX 68 58 87 59 52 60 53 61 67 63 88 64 55 65 39 66 40 67 48 68
REMARK SMILES IDX 41 69 42 70 46 71 49 72 43 73 44 74 47 75 45 76 71 77 72 78
REMARK SMILES IDX 80 79 73 80 74 81 78 82 81 83 75 84 76 85 79 86 77 87 56 88
REMARK SMILES IDX 57 89 65 90 58 91 59 92 63 93 66 94 60 95 61 96 64 97 62 98
REMARK H PARENT 20 6 6 14 13 25 27 32 86 51 54 62
REMARK Flexibility Score: inf
ROOT
ATOM      1  C   UNL A   1      33.958  26.325  25.508  1.00  0.00     0.021 C 
ENDROOT
BRANCH   1   2
ATOM      2  C   UNL A   1      34.397  24.909  25.142  1.00  0.00     0.116 C 
BRANCH   2   3
ATOM      3  N   UNL A   1      34.232  23.996  26.264  1.00  0.00    -0.354 N 
ATOM      4  C   UNL A   1      34.393  22.639  26.318  1.00  0.00     0.242 C 
ATOM      5  O   UNL A   1      34.053  22.063  27.358  1.00  0.00    -0.273 OA
ATOM      6  H   UNL A   1      33.964  24.419  27.113  1.00  0.00     0.163 HD
BRANCH   4   7
ATOM      7  C   UNL A   1      34.717  21.837  25.043  1.00  0.00     0.171 C 
BRANCH   7   8
ATOM      8  C   UNL A   1      36.140  21.310  25.368  1.00  0.00     0.038 C 
BRANCH   8   9
ATOM      9  C   UNL A   1      37.366  21.931  24.693  1.00  0.00    -0.015 C 
ATOM     10  C   UNL A   1      36.979  22.815  23.512  1.00  0.00     0.007 C 
ATOM     11  C   UNL A   1      38.104  22.772  25.748  1.00  0.00     0.007 C 
ENDBRANCH   8   9
ENDBRANCH   7   8
BRANCH   7  12
ATOM     12  N   UNL A   1      33.764  20.766  24.740  1.00  0.00    -0.343 N 
ATOM     13  C   UNL A   1      32.630  20.755  23.977  1.00  0.00     0.242 C 
ATOM     14  H   UNL A   1      33.977  19.901  25.160  1.00  0.00     0.164 HD
ATOM     15  O   UNL A   1      32.173  19.635  23.718  1.00  0.00    -0.273 OA
BRANCH  13  16
ATOM     16  C   UNL A   1      31.995  22.011  23.361  1.00  0.00     0.248 C 
BRANCH  16  17
ATOM     17  N   UNL A   1      31.385  22.958  24.287  1.00  0.00    -0.217 N 
ATOM     18  N   UNL A   1      31.188  22.516  25.582  1.00  0.00    -0.131 NA
ATOM     19  C   UNL A   1      31.128  24.267  23.883  1.00  0.00     0.267 A 
ATOM     20  C   UNL A   1      30.634  23.350  26.385  1.00  0.00     0.229 A 
ATOM     21  C   UNL A   1      30.523  25.163  24.903  1.00  0.00     0.079 A 
ATOM     22  O   UNL A   1      31.327  24.708  22.755  1.00  0.00    -0.268 OA
ATOM     23  C   UNL A   1      30.247  24.726  26.132  1.00  0.00     0.075 A 
BRANCH  20  24
ATOM     24  O   UNL A   1      30.286  22.956  27.613  1.00  0.00    -0.492 OA
ATOM     25  H   UNL A   1      30.869  22.423  28.117  1.00  0.00     0.295 HD
ENDBRANCH  20  24
ENDBRANCH  16  17
ENDBRANCH  13  16
ENDBRANCH   7  12
ENDBRANCH   4   7
ENDBRANCH   2   3
ENDBRANCH   1   2
BRANCH   1  26
ATOM     26  C   UNL A   1      33.632  27.202  24.296  1.00  0.00     0.002 C 
BRANCH  26  27
ATOM     27  C   UNL A   1      33.557  28.702  24.597  1.00  0.00     0.002 C 
BRANCH  27  28
ATOM     28  C   UNL A   1      32.312  29.165  25.345  1.00  0.00     0.021 C 
BRANCH  28  29
ATOM     29  C   UNL A   1      32.578  29.647  26.757  1.00  0.00     0.116 C 
BRANCH  29  30
ATOM     30  N   UNL A   1      32.337  31.071  26.959  1.00  0.00    -0.352 N 
ATOM     31  C   UNL A   1      33.253  31.998  27.420  1.00  0.00     0.251 C 
ATOM     32  H   UNL A   1      31.436  31.404  26.747  1.00  0.00     0.163 HD
ATOM     33  O   UNL A   1      32.964  33.166  27.613  1.00  0.00    -0.269 OA
BRANCH  31  34
ATOM     34  C   UNL A   1      34.604  31.483  27.715  1.00  0.00     0.039 A 
ATOM     35  C   UNL A   1      34.747  30.124  27.992  1.00  0.00     0.014 A 
ATOM     36  C   UNL A   1      35.630  32.392  27.980  1.00  0.00     0.014 A 
ATOM     37  C   UNL A   1      35.843  29.706  28.730  1.00  0.00     0.010 A 
ATOM     38  C   UNL A   1      36.781  31.943  28.629  1.00  0.00     0.010 A 
ATOM     39  C   UNL A   1      36.867  30.610  29.067  1.00  0.00    -0.014 A 
BRANCH  39  40
ATOM     40  C   UNL A   1      38.005  30.138  29.896  1.00  0.00     0.031 A 
ATOM     41  C   UNL A   1      39.077  29.253  29.318  1.00  0.00     0.074 A 
ATOM     42  C   UNL A   1      38.103  30.578  31.165  1.00  0.00     0.049 A 
ATOM     43  N   UNL A   1      40.112  28.715  29.915  1.00  0.00    -0.248 NA
ATOM     44  C   UNL A   1      38.981  28.924  27.886  1.00  0.00     0.031 C 
ATOM     45  C   UNL A   1      37.143  31.469  31.819  1.00  0.00     0.029 A 
ATOM     46  N   UNL A   1      39.066  30.371  32.117  1.00  0.00    -0.354 N 
ATOM     47  C   UNL A   1      40.763  27.957  28.949  1.00  0.00     0.074 A 
ATOM     48  C   UNL A   1      40.007  28.098  27.723  1.00  0.00     0.031 C 
ATOM     49  C   UNL A   1      37.601  31.792  33.035  1.00  0.00     0.029 A 
ATOM     50  C   UNL A   1      38.834  31.056  33.283  1.00  0.00     0.049 A 
ATOM     51  H   UNL A   1      39.848  29.789  31.978  1.00  0.00     0.167 HD
ATOM     52  C   UNL A   1      41.889  27.215  29.080  1.00  0.00     0.037 A 
ATOM     53  C   UNL A   1      39.521  31.068  34.440  1.00  0.00     0.037 A 
ATOM     54  C   UNL A   1      42.657  27.115  30.295  1.00  0.00     0.049 A 
ATOM     55  C   UNL A   1      40.742  30.209  34.567  1.00  0.00     0.074 A 
ATOM     56  C   UNL A   1      43.817  26.397  30.527  1.00  0.00     0.029 A 
ATOM     57  N   UNL A   1      42.347  27.765  31.481  1.00  0.00    -0.354 N 
ATOM     58  N   UNL A   1      41.316  29.455  33.663  1.00  0.00    -0.248 NA
ATOM     59  C   UNL A   1      41.393  30.178  35.882  1.00  0.00     0.031 C 
ATOM     60  C   UNL A   1      44.189  26.584  31.862  1.00  0.00     0.029 A 
ATOM     61  C   UNL A   1      43.285  27.452  32.452  1.00  0.00     0.049 A 
ATOM     62  H   UNL A   1      41.575  28.362  31.613  1.00  0.00     0.167 HD
ATOM     63  C   UNL A   1      42.391  28.852  34.297  1.00  0.00     0.074 A 
ATOM     64  C   UNL A   1      42.409  29.356  35.656  1.00  0.00     0.031 C 
ATOM     65  C   UNL A   1      43.275  27.954  33.803  1.00  0.00     0.037 A 
BRANCH  52  66
ATOM     66  C   UNL A   1      42.364  26.432  27.889  1.00  0.00     0.064 A 
ATOM     67  C   UNL A   1      41.830  25.176  27.570  1.00  0.00     0.173 A 
ATOM     68  C   UNL A   1      43.308  26.986  27.009  1.00  0.00     0.173 A 
ATOM     69  F   UNL A   1      40.932  24.598  28.384  1.00  0.00    -0.203 F 
ATOM     70  C   UNL A   1      42.228  24.499  26.419  1.00  0.00     0.198 A 
ATOM     71  C   UNL A   1      43.686  26.317  25.848  1.00  0.00     0.198 A 
ATOM     72  F   UNL A   1      43.845  28.189  27.264  1.00  0.00    -0.203 F 
ATOM     73  F   UNL A   1      41.720  23.290  26.145  1.00  0.00    -0.200 F 
ATOM     74  C   UNL A   1      43.148  25.074  25.555  1.00  0.00     0.200 A 
ATOM     75  F   UNL A   1      44.565  26.881  25.008  1.00  0.00    -0.200 F 
ATOM     76  F   UNL A   1      43.516  24.429  24.439  1.00  0.00    -0.200 F 
ENDBRANCH  52  66
BRANCH  53  77
ATOM     77  C   UNL A   1      39.037  31.909  35.564  1.00  0.00     0.064 A 
ATOM     78  C   UNL A   1      38.220  31.368  36.565  1.00  0.00     0.173 A 
ATOM     79  C   UNL A   1      39.430  33.249  35.692  1.00  0.00     0.173 A 
ATOM     80  F   UNL A   1      37.803  30.096  36.475  1.00  0.00    -0.203 F 
ATOM     81  C   UNL A   1      37.819  32.136  37.656  1.00  0.00     0.198 A 
ATOM     82  C   UNL A   1      39.054  34.006  36.798  1.00  0.00     0.198 A 
ATOM     83  F   UNL A   1      40.217  33.810  34.762  1.00  0.00    -0.203 F 
ATOM     84  F   UNL A   1      37.022  31.602  38.590  1.00  0.00    -0.200 F 
ATOM     85  C   UNL A   1      38.247  33.450  37.777  1.00  0.00     0.200 A 
ATOM     86  F   UNL A   1      39.488  35.268  36.922  1.00  0.00    -0.200 F 
ATOM     87  F   UNL A   1      37.882  34.180  38.840  1.00  0.00    -0.200 F 
ENDBRANCH  53  77
BRANCH  65  88
ATOM     88  C   UNL A   1      44.332  27.453  34.739  1.00  0.00     0.064 A 
ATOM     89  C   UNL A   1      44.145  26.280  35.484  1.00  0.00     0.173 A 
ATOM     90  C   UNL A   1      45.555  28.128  34.862  1.00  0.00     0.173 A 
ATOM     91  F   UNL A   1      42.984  25.612  35.412  1.00  0.00    -0.203 F 
ATOM     92  C   UNL A   1      45.141  25.809  36.334  1.00  0.00     0.198 A 
ATOM     93  C   UNL A   1      46.557  27.641  35.694  1.00  0.00     0.198 A 
ATOM     94  F   UNL A   1      45.780  29.252  34.166  1.00  0.00    -0.203 F 
ATOM     95  F   UNL A   1      44.928  24.708  37.067  1.00  0.00    -0.200 F 
ATOM     96  C   UNL A   1      46.348  26.485  36.433  1.00  0.00     0.200 A 
ATOM     97  F   UNL A   1      47.727  28.288  35.782  1.00  0.00    -0.200 F 
ATOM     98  F   UNL A   1      47.308  26.026  37.247  1.00  0.00    -0.200 F 
ENDBRANCH  65  88
ENDBRANCH  39  40
ENDBRANCH  31  34
ENDBRANCH  29  30
ENDBRANCH  28  29
ENDBRANCH  27  28
ENDBRANCH  26  27
ENDBRANCH   1  26
TORSDOF 19
ENDMDL
MODEL 2
REMARK VINA RESULT:     -11.6      4.516      9.557
REMARK SMILES CC(C)C[C@@H](NC(=O)Cn1nc(O)ccc1=O)C(=O)NCCCCCCNC(=O)c1ccc(-c2c3nc(c(-c4c(F)c(F)c(F)c(F)c4F)c4ccc([nH]4)c(-c4c(F)c(F)c(F)c(F)c4F)c4nc(c(-c5c(F)c(F)c(F)c(F)c5F)c5ccc2[nH]5)C=C4)C=C3)cc1
REMARK SMILES IDX 22 1 21 2 20 3 18 4 19 5 5 7 4 8 2 9 1 10 3 11 6 12 7 13
REMARK SMILES IDX 8 15 9 16 10 17 11 18 16 19 12 20 15 21 17 22 14 23 13 24
REMARK SMILES IDX 23 26 24 27 25 28 26 29 27 30 28 31 29 33 30 34 31 35 92 36
REMARK SMILES IDX 32 37 91 38 33 39 34 40 35 41 85 42 36 43 90 44 84 45 86 46
REMARK SMILES IDX 37 47 89 48 83 49 82 50 38 52 70 53 50 54 69 55 51 56 54 57
REMARK SMILES IDX 68 58 87 59 52 60 53 61 67 63 88 64 55 65 39 66 40 67 48 68
REMARK SMILES IDX 41 69 42 70 46 71 49 72 43 73 44 74 47 75 45 76 71 77 72 78
REMARK SMILES IDX 80 79 73 80 74 81 78 82 81 83 75 84 76 85 79 86 77 87 56 88
REMARK SMILES IDX 57 89 65 90 58 91 59 92 63 93 66 94 60 95 61 96 64 97 62 98
REMARK H PARENT 20 6 6 14 13 25 27 32 86 51 54 62
REMARK Flexibility Score: inf
ROOT
ATOM      1  C   UNL A   1      35.438  23.296  26.100  1.00  0.00     0.021 C 
ENDROOT
BRANCH   1   2
ATOM      2  C   UNL A   1      34.424  24.414  25.876  1.00  0.00     0.116 C 
BRANCH   2   3
ATOM      3  N   UNL A   1      33.240  24.231  26.703  1.00  0.00    -0.354 N 
ATOM      4  C   UNL A   1      31.937  24.039  26.335  1.00  0.00     0.242 C 
ATOM      5  O   UNL A   1      31.082  24.053  27.228  1.00  0.00    -0.273 OA
ATOM      6  H   UNL A   1      33.402  24.248  27.675  1.00  0.00     0.163 HD
BRANCH   4   7
ATOM      7  C   UNL A   1      31.526  24.086  24.850  1.00  0.00     0.171 C 
BRANCH   7   8
ATOM      8  C   UNL A   1      31.456  22.575  24.506  1.00  0.00     0.038 C 
BRANCH   8   9
ATOM      9  C   UNL A   1      32.697  21.842  23.990  1.00  0.00    -0.015 C 
ATOM     10  C   UNL A   1      32.390  20.397  23.614  1.00  0.00     0.007 C 
ATOM     11  C   UNL A   1      33.206  22.601  22.753  1.00  0.00     0.007 C 
ENDBRANCH   8   9
ENDBRANCH   7   8
BRANCH   7  12
ATOM     12  N   UNL A   1      30.271  24.795  24.589  1.00  0.00    -0.343 N 
ATOM     13  C   UNL A   1      30.025  26.045  24.097  1.00  0.00     0.242 C 
ATOM     14  H   UNL A   1      29.461  24.279  24.806  1.00  0.00     0.164 HD
ATOM     15  O   UNL A   1      28.854  26.266  23.763  1.00  0.00    -0.273 OA
BRANCH  13  16
ATOM     16  C   UNL A   1      31.113  27.100  23.845  1.00  0.00     0.248 C 
BRANCH  16  17
ATOM     17  N   UNL A   1      31.885  27.534  25.004  1.00  0.00    -0.217 N 
ATOM     18  N   UNL A   1      31.238  27.500  26.225  1.00  0.00    -0.131 NA
ATOM     19  C   UNL A   1      33.235  27.853  24.866  1.00  0.00     0.267 A 
ATOM     20  C   UNL A   1      31.921  27.901  27.236  1.00  0.00     0.229 A 
ATOM     21  C   UNL A   1      33.943  28.265  26.107  1.00  0.00     0.079 A 
ATOM     22  O   UNL A   1      33.854  27.855  23.807  1.00  0.00    -0.268 OA
ATOM     23  C   UNL A   1      33.309  28.321  27.279  1.00  0.00     0.075 A 
BRANCH  20  24
ATOM     24  O   UNL A   1      31.328  28.028  28.426  1.00  0.00    -0.492 OA
ATOM     25  H   UNL A   1      31.530  28.762  28.974  1.00  0.00     0.295 HD
ENDBRANCH  20  24
ENDBRANCH  16  17
ENDBRANCH  13  16
ENDBRANCH   7  12
ENDBRANCH   4   7
ENDBRANCH   2   3
ENDBRANCH   1   2
BRANCH   1  26
ATOM     26  C   UNL A   1      36.878  23.690  25.760  1.00  0.00     0.002 C 
BRANCH  26  27
ATOM     27  C   UNL A   1      37.589  22.737  24.795  1.00  0.00     0.002 C 
BRANCH  27  28
ATOM     28  C   UNL A   1      37.931  21.362  25.357  1.00  0.00     0.021 C 
BRANCH  28  29
ATOM     29  C   UNL A   1      39.314  21.266  25.969  1.00  0.00     0.116 C 
BRANCH  29  30
ATOM     30  N   UNL A   1      39.919  19.942  25.880  1.00  0.00    -0.352 N 
ATOM     31  C   UNL A   1      41.252  19.636  26.076  1.00  0.00     0.251 C 
ATOM     32  H   UNL A   1      39.319  19.193  25.659  1.00  0.00     0.163 HD
ATOM     33  O   UNL A   1      41.695  18.510  25.933  1.00  0.00    -0.269 OA
BRANCH  31  34
ATOM     34  C   UNL A   1      42.132  20.768  26.425  1.00  0.00     0.039 A 
ATOM     35  C   UNL A   1      42.272  21.106  27.771  1.00  0.00     0.014 A 
ATOM     36  C   UNL A   1      42.564  21.625  25.411  1.00  0.00     0.014 A 
ATOM     37  C   UNL A   1      42.657  22.396  28.098  1.00  0.00     0.010 A 
ATOM     38  C   UNL A   1      43.053  22.887  25.754  1.00  0.00     0.010 A 
ATOM     39  C   UNL A   1      43.042  23.305  27.095  1.00  0.00    -0.014 A 
BRANCH  39  40
ATOM     40  C   UNL A   1      43.407  24.693  27.478  1.00  0.00     0.031 A 
ATOM     41  C   UNL A   1      42.360  25.681  27.918  1.00  0.00     0.074 A 
ATOM     42  C   UNL A   1      44.710  25.034  27.496  1.00  0.00     0.049 A 
ATOM     43  N   UNL A   1      42.503  26.944  28.241  1.00  0.00    -0.248 NA
ATOM     44  C   UNL A   1      40.972  25.199  28.008  1.00  0.00     0.031 C 
ATOM     45  C   UNL A   1      45.813  24.146  27.126  1.00  0.00     0.029 A 
ATOM     46  N   UNL A   1      45.330  26.196  27.871  1.00  0.00    -0.354 N 
ATOM     47  C   UNL A   1      41.228  27.413  28.532  1.00  0.00     0.074 A 
ATOM     48  C   UNL A   1      40.318  26.304  28.343  1.00  0.00     0.031 C 
ATOM     49  C   UNL A   1      46.976  24.767  27.363  1.00  0.00     0.029 A 
ATOM     50  C   UNL A   1      46.699  26.127  27.808  1.00  0.00     0.049 A 
ATOM     51  H   UNL A   1      44.842  27.001  28.159  1.00  0.00     0.167 HD
ATOM     52  C   UNL A   1      40.858  28.657  28.920  1.00  0.00     0.037 A 
ATOM     53  C   UNL A   1      47.633  27.065  28.050  1.00  0.00     0.037 A 
ATOM     54  C   UNL A   1      41.779  29.743  29.144  1.00  0.00     0.049 A 
ATOM     55  C   UNL A   1      47.192  28.442  28.444  1.00  0.00     0.074 A 
ATOM     56  C   UNL A   1      41.504  31.038  29.547  1.00  0.00     0.029 A 
ATOM     57  N   UNL A   1      43.155  29.655  28.995  1.00  0.00    -0.354 N 
ATOM     58  N   UNL A   1      45.980  28.888  28.662  1.00  0.00    -0.248 NA
ATOM     59  C   UNL A   1      48.244  29.454  28.594  1.00  0.00     0.031 C 
ATOM     60  C   UNL A   1      42.711  31.744  29.609  1.00  0.00     0.029 A 
ATOM     61  C   UNL A   1      43.741  30.877  29.283  1.00  0.00     0.049 A 
ATOM     62  H   UNL A   1      43.644  28.844  28.725  1.00  0.00     0.167 HD
ATOM     63  C   UNL A   1      46.118  30.233  28.968  1.00  0.00     0.074 A 
ATOM     64  C   UNL A   1      47.538  30.522  28.940  1.00  0.00     0.031 C 
ATOM     65  C   UNL A   1      45.156  31.147  29.235  1.00  0.00     0.037 A 
BRANCH  52  66
ATOM     66  C   UNL A   1      39.395  28.932  29.117  1.00  0.00     0.064 A 
ATOM     67  C   UNL A   1      38.787  28.829  30.376  1.00  0.00     0.173 A 
ATOM     68  C   UNL A   1      38.610  29.387  28.045  1.00  0.00     0.173 A 
ATOM     69  F   UNL A   1      39.490  28.390  31.431  1.00  0.00    -0.203 F 
ATOM     70  C   UNL A   1      37.445  29.163  30.554  1.00  0.00     0.198 A 
ATOM     71  C   UNL A   1      37.276  29.742  28.231  1.00  0.00     0.198 A 
ATOM     72  F   UNL A   1      39.145  29.511  26.821  1.00  0.00    -0.203 F 
ATOM     73  F   UNL A   1      36.879  29.036  31.761  1.00  0.00    -0.200 F 
ATOM     74  C   UNL A   1      36.695  29.628  29.484  1.00  0.00     0.200 A 
ATOM     75  F   UNL A   1      36.558  30.204  27.198  1.00  0.00    -0.200 F 
ATOM     76  F   UNL A   1      35.410  29.966  29.660  1.00  0.00    -0.200 F 
ENDBRANCH  52  66
BRANCH  53  77
ATOM     77  C   UNL A   1      49.068  26.718  27.897  1.00  0.00     0.064 A 
ATOM     78  C   UNL A   1      49.858  26.421  29.015  1.00  0.00     0.173 A 
ATOM     79  C   UNL A   1      49.661  26.618  26.630  1.00  0.00     0.173 A 
ATOM     80  F   UNL A   1      49.339  26.522  30.247  1.00  0.00    -0.203 F 
ATOM     81  C   UNL A   1      51.187  26.029  28.869  1.00  0.00     0.198 A 
ATOM     82  C   UNL A   1      50.980  26.197  26.484  1.00  0.00     0.198 A 
ATOM     83  F   UNL A   1      48.943  26.887  25.529  1.00  0.00    -0.203 F 
ATOM     84  F   UNL A   1      51.928  25.769  29.954  1.00  0.00    -0.200 F 
ATOM     85  C   UNL A   1      51.742  25.906  27.604  1.00  0.00     0.200 A 
ATOM     86  F   UNL A   1      51.505  26.058  25.259  1.00  0.00    -0.200 F 
ATOM     87  F   UNL A   1      53.013  25.504  27.464  1.00  0.00    -0.200 F 
ENDBRANCH  53  77
BRANCH  65  88
ATOM     88  C   UNL A   1      45.608  32.548  29.512  1.00  0.00     0.064 A 
ATOM     89  C   UNL A   1      45.695  33.499  28.485  1.00  0.00     0.173 A 
ATOM     90  C   UNL A   1      45.916  32.954  30.818  1.00  0.00     0.173 A 
ATOM     91  F   UNL A   1      45.427  33.150  27.218  1.00  0.00    -0.203 F 
ATOM     92  C   UNL A   1      46.093  34.805  28.755  1.00  0.00     0.198 A 
ATOM     93  C   UNL A   1      46.290  34.267  31.087  1.00  0.00     0.198 A 
ATOM     94  F   UNL A   1      45.843  32.080  31.833  1.00  0.00    -0.203 F 
ATOM     95  F   UNL A   1      46.208  35.688  27.754  1.00  0.00    -0.200 F 
ATOM     96  C   UNL A   1      46.383  35.189  30.055  1.00  0.00     0.200 A 
ATOM     97  F   UNL A   1      46.560  34.641  32.346  1.00  0.00    -0.200 F 
ATOM     98  F   UNL A   1      46.760  36.449  30.314  1.00  0.00    -0.200 F 
ENDBRANCH  65  88
ENDBRANCH  39  40
ENDBRANCH  31  34
ENDBRANCH  29  30
ENDBRANCH  28  29
ENDBRANCH  27  28
ENDBRANCH  26  27
ENDBRANCH   1  26
TORSDOF 19
ENDMDL
MODEL 3
REMARK VINA RESULT:     -11.5      4.295      9.707
REMARK SMILES CC(C)C[C@@H](NC(=O)Cn1nc(O)ccc1=O)C(=O)NCCCCCCNC(=O)c1ccc(-c2c3nc(c(-c4c(F)c(F)c(F)c(F)c4F)c4ccc([nH]4)c(-c4c(F)c(F)c(F)c(F)c4F)c4nc(c(-c5c(F)c(F)c(F)c(F)c5F)c5ccc2[nH]5)C=C4)C=C3)cc1
REMARK SMILES IDX 22 1 21 2 20 3 18 4 19 5 5 7 4 8 2 9 1 10 3 11 6 12 7 13
REMARK SMILES IDX 8 15 9 16 10 17 11 18 16 19 12 20 15 21 17 22 14 23 13 24
REMARK SMILES IDX 23 26 24 27 25 28 26 29 27 30 28 31 29 33 30 34 31 35 92 36
REMARK SMILES IDX 32 37 91 38 33 39 34 40 35 41 85 42 36 43 90 44 84 45 86 46
REMARK SMILES IDX 37 47 89 48 83 49 82 50 38 52 70 53 50 54 69 55 51 56 54 57
REMARK SMILES IDX 68 58 87 59 52 60 53 61 67 63 88 64 55 65 39 66 40 67 48 68
REMARK SMILES IDX 41 69 42 70 46 71 49 72 43 73 44 74 47 75 45 76 71 77 72 78
REMARK SMILES IDX 80 79 73 80 74 81 78 82 81 83 75 84 76 85 79 86 77 87 56 88
REMARK SMILES IDX 57 89 65 90 58 91 59 92 63 93 66 94 60 95 61 96 64 97 62 98
REMARK H PARENT 20 6 6 14 13 25 27 32 86 51 54 62
REMARK Flexibility Score: inf
ROOT
ATOM      1  C   UNL A   1      35.692  23.839  25.663  1.00  0.00     0.021 C 
ENDROOT
BRANCH   1   2
ATOM      2  C   UNL A   1      34.504  24.775  25.461  1.00  0.00     0.116 C 
BRANCH   2   3
ATOM      3  N   UNL A   1      33.442  24.499  26.418  1.00  0.00    -0.354 N 
ATOM      4  C   UNL A   1      32.139  24.144  26.201  1.00  0.00     0.242 C 
ATOM      5  O   UNL A   1      31.386  24.104  27.181  1.00  0.00    -0.273 OA
ATOM      6  H   UNL A   1      33.701  24.579  27.366  1.00  0.00     0.163 HD
BRANCH   4   7
ATOM      7  C   UNL A   1      31.573  24.076  24.770  1.00  0.00     0.171 C 
BRANCH   7   8
ATOM      8  C   UNL A   1      31.412  22.544  24.579  1.00  0.00     0.038 C 
BRANCH   8   9
ATOM      9  C   UNL A   1      32.143  21.827  23.441  1.00  0.00    -0.015 C 
ATOM     10  C   UNL A   1      33.069  22.767  22.677  1.00  0.00     0.007 C 
ATOM     11  C   UNL A   1      32.964  20.683  24.061  1.00  0.00     0.007 C 
ENDBRANCH   8   9
ENDBRANCH   7   8
BRANCH   7  12
ATOM     12  N   UNL A   1      30.323  24.814  24.574  1.00  0.00    -0.343 N 
ATOM     13  C   UNL A   1      30.082  26.078  24.115  1.00  0.00     0.242 C 
ATOM     14  H   UNL A   1      29.512  24.310  24.816  1.00  0.00     0.164 HD
ATOM     15  O   UNL A   1      28.903  26.328  23.835  1.00  0.00    -0.273 OA
BRANCH  13  16
ATOM     16  C   UNL A   1      31.180  27.116  23.836  1.00  0.00     0.248 C 
BRANCH  16  17
ATOM     17  N   UNL A   1      31.844  27.695  24.999  1.00  0.00    -0.217 N 
ATOM     18  N   UNL A   1      31.253  27.463  26.226  1.00  0.00    -0.131 NA
ATOM     19  C   UNL A   1      33.067  28.348  24.854  1.00  0.00     0.267 A 
ATOM     20  C   UNL A   1      31.835  27.992  27.241  1.00  0.00     0.229 A 
ATOM     21  C   UNL A   1      33.675  28.888  26.098  1.00  0.00     0.079 A 
ATOM     22  O   UNL A   1      33.642  28.537  23.786  1.00  0.00    -0.268 OA
ATOM     23  C   UNL A   1      33.074  28.747  27.280  1.00  0.00     0.075 A 
BRANCH  20  24
ATOM     24  O   UNL A   1      31.256  27.931  28.443  1.00  0.00    -0.492 OA
ATOM     25  H   UNL A   1      31.784  27.912  29.217  1.00  0.00     0.295 HD
ENDBRANCH  20  24
ENDBRANCH  16  17
ENDBRANCH  13  16
ENDBRANCH   7  12
ENDBRANCH   4   7
ENDBRANCH   2   3
ENDBRANCH   1   2
BRANCH   1  26
ATOM     26  C   UNL A   1      36.597  23.716  24.434  1.00  0.00     0.002 C 
BRANCH  26  27
ATOM     27  C   UNL A   1      36.535  22.357  23.731  1.00  0.00     0.002 C 
BRANCH  27  28
ATOM     28  C   UNL A   1      37.136  21.187  24.501  1.00  0.00     0.021 C 
BRANCH  28  29
ATOM     29  C   UNL A   1      38.137  21.590  25.565  1.00  0.00     0.116 C 
BRANCH  29  30
ATOM     30  N   UNL A   1      39.149  20.580  25.849  1.00  0.00    -0.352 N 
ATOM     31  C   UNL A   1      40.281  20.752  26.624  1.00  0.00     0.251 C 
ATOM     32  H   UNL A   1      39.014  19.690  25.452  1.00  0.00     0.163 HD
ATOM     33  O   UNL A   1      41.113  19.873  26.775  1.00  0.00    -0.269 OA
BRANCH  31  34
ATOM     34  C   UNL A   1      40.458  22.087  27.226  1.00  0.00     0.039 A 
ATOM     35  C   UNL A   1      39.799  23.168  26.642  1.00  0.00     0.014 A 
ATOM     36  C   UNL A   1      41.474  22.275  28.165  1.00  0.00     0.014 A 
ATOM     37  C   UNL A   1      40.302  24.443  26.844  1.00  0.00     0.010 A 
ATOM     38  C   UNL A   1      41.905  23.573  28.445  1.00  0.00     0.010 A 
ATOM     39  C   UNL A   1      41.366  24.661  27.738  1.00  0.00    -0.014 A 
BRANCH  39  40
ATOM     40  C   UNL A   1      41.909  26.034  27.897  1.00  0.00     0.031 A 
ATOM     41  C   UNL A   1      41.173  27.076  28.696  1.00  0.00     0.074 A 
ATOM     42  C   UNL A   1      43.117  26.314  27.371  1.00  0.00     0.049 A 
ATOM     43  N   UNL A   1      41.483  28.334  28.895  1.00  0.00    -0.248 NA
ATOM     44  C   UNL A   1      39.926  26.661  29.360  1.00  0.00     0.031 C 
ATOM     45  C   UNL A   1      43.937  25.371  26.609  1.00  0.00     0.029 A 
ATOM     46  N   UNL A   1      43.880  27.450  27.425  1.00  0.00    -0.354 N 
ATOM     47  C   UNL A   1      40.458  28.866  29.667  1.00  0.00     0.074 A 
ATOM     48  C   UNL A   1      39.509  27.799  29.900  1.00  0.00     0.031 C 
ATOM     49  C   UNL A   1      45.117  25.939  26.332  1.00  0.00     0.029 A 
ATOM     50  C   UNL A   1      45.099  27.316  26.810  1.00  0.00     0.049 A 
ATOM     51  H   UNL A   1      43.584  28.281  27.863  1.00  0.00     0.167 HD
ATOM     52  C   UNL A   1      40.327  30.131  30.135  1.00  0.00     0.037 A 
ATOM     53  C   UNL A   1      46.086  28.211  26.622  1.00  0.00     0.037 A 
ATOM     54  C   UNL A   1      41.299  31.175  29.930  1.00  0.00     0.049 A 
ATOM     55  C   UNL A   1      45.897  29.612  27.119  1.00  0.00     0.074 A 
ATOM     56  C   UNL A   1      41.264  32.486  30.371  1.00  0.00     0.029 A 
ATOM     57  N   UNL A   1      42.490  31.021  29.235  1.00  0.00    -0.354 N 
ATOM     58  N   UNL A   1      44.899  30.117  27.800  1.00  0.00    -0.248 NA
ATOM     59  C   UNL A   1      46.957  30.575  26.796  1.00  0.00     0.031 C 
ATOM     60  C   UNL A   1      42.416  33.135  29.914  1.00  0.00     0.029 A 
ATOM     61  C   UNL A   1      43.189  32.217  29.222  1.00  0.00     0.049 A 
ATOM     62  H   UNL A   1      42.794  30.184  28.814  1.00  0.00     0.167 HD
ATOM     63  C   UNL A   1      45.202  31.457  27.983  1.00  0.00     0.074 A 
ATOM     64  C   UNL A   1      46.495  31.679  27.368  1.00  0.00     0.031 C 
ATOM     65  C   UNL A   1      44.469  32.419  28.592  1.00  0.00     0.037 A 
BRANCH  52  66
ATOM     66  C   UNL A   1      39.085  30.477  30.904  1.00  0.00     0.064 A 
ATOM     67  C   UNL A   1      39.021  30.356  32.300  1.00  0.00     0.173 A 
ATOM     68  C   UNL A   1      37.970  31.018  30.242  1.00  0.00     0.173 A 
ATOM     69  F   UNL A   1      40.055  29.836  32.979  1.00  0.00    -0.203 F 
ATOM     70  C   UNL A   1      37.886  30.755  33.003  1.00  0.00     0.198 A 
ATOM     71  C   UNL A   1      36.847  31.437  30.950  1.00  0.00     0.198 A 
ATOM     72  F   UNL A   1      37.982  31.163  28.908  1.00  0.00    -0.203 F 
ATOM     73  F   UNL A   1      37.839  30.609  34.334  1.00  0.00    -0.200 F 
ATOM     74  C   UNL A   1      36.805  31.303  32.329  1.00  0.00     0.200 A 
ATOM     75  F   UNL A   1      35.810  31.979  30.298  1.00  0.00    -0.200 F 
ATOM     76  F   UNL A   1      35.722  31.703  33.010  1.00  0.00    -0.200 F 
ENDBRANCH  52  66
BRANCH  53  77
ATOM     77  C   UNL A   1      47.318  27.795  25.906  1.00  0.00     0.064 A 
ATOM     78  C   UNL A   1      48.434  27.327  26.611  1.00  0.00     0.173 A 
ATOM     79  C   UNL A   1      47.382  27.800  24.505  1.00  0.00     0.173 A 
ATOM     80  F   UNL A   1      48.426  27.323  27.952  1.00  0.00    -0.203 F 
ATOM     81  C   UNL A   1      49.567  26.873  25.939  1.00  0.00     0.198 A 
ATOM     82  C   UNL A   1      48.502  27.317  23.834  1.00  0.00     0.198 A 
ATOM     83  F   UNL A   1      46.335  28.233  23.786  1.00  0.00    -0.203 F 
ATOM     84  F   UNL A   1      50.629  26.449  26.635  1.00  0.00    -0.200 F 
ATOM     85  C   UNL A   1      49.595  26.856  24.552  1.00  0.00     0.200 A 
ATOM     86  F   UNL A   1      48.516  27.282  22.495  1.00  0.00    -0.200 F 
ATOM     87  F   UNL A   1      50.675  26.395  23.907  1.00  0.00    -0.200 F 
ENDBRANCH  53  77
BRANCH  65  88
ATOM     88  C   UNL A   1      45.048  33.800  28.618  1.00  0.00     0.064 A 
ATOM     89  C   UNL A   1      44.729  34.740  27.627  1.00  0.00     0.173 A 
ATOM     90  C   UNL A   1      45.894  34.201  29.662  1.00  0.00     0.173 A 
ATOM     91  F   UNL A   1      43.938  34.395  26.600  1.00  0.00    -0.203 F 
ATOM     92  C   UNL A   1      45.252  36.029  27.672  1.00  0.00     0.198 A 
ATOM     93  C   UNL A   1      46.395  35.497  29.716  1.00  0.00     0.198 A 
ATOM     94  F   UNL A   1      46.224  33.338  30.634  1.00  0.00    -0.203 F 
ATOM     95  F   UNL A   1      44.967  36.899  26.694  1.00  0.00    -0.200 F 
ATOM     96  C   UNL A   1      46.079  36.408  28.718  1.00  0.00     0.200 A 
ATOM     97  F   UNL A   1      47.186  35.867  30.733  1.00  0.00    -0.200 F 
ATOM     98  F   UNL A   1      46.576  37.652  28.763  1.00  0.00    -0.200 F 
ENDBRANCH  65  88
ENDBRANCH  39  40
ENDBRANCH  31  34
ENDBRANCH  29  30
ENDBRANCH  28  29
ENDBRANCH  27  28
ENDBRANCH  26  27
ENDBRANCH   1  26
TORSDOF 19
ENDMDL
