MODEL 1
REMARK VINA RESULT:     -11.8      0.000      0.000
REMARK SMILES CC(C)c1cc(OCC(=O)NCCCCCCNC(=O)c2ccc(-c3c4nc(c(-c5c(F)c(F)c(F)c(F)c5F)c5ccc([nH]5)c(-c5c(F)c(F)c(F)c(F)c5F)c5nc(c(-c6c(F)c(F)c(F)c(F)c6F)c6ccc3[nH]6)C=C5)C=C4)cc2)nc(Nc2ccc(F)cc2F)n1
REMARK SMILES IDX 13 1 12 2 11 3 9 4 10 5 8 7 7 8 6 9 4 10 5 11 95 12 85 13
REMARK SMILES IDX 84 14 2 15 1 16 3 17 86 18 87 20 88 21 93 22 89 23 92 24
REMARK SMILES IDX 94 25 90 26 91 27 14 28 15 29 16 30 17 31 18 32 19 33 20 35
REMARK SMILES IDX 21 36 22 37 83 38 23 39 82 40 24 41 25 42 26 43 76 44 27 45
REMARK SMILES IDX 81 46 75 47 77 48 28 49 80 50 74 51 73 52 29 54 61 55 41 56
REMARK SMILES IDX 60 57 42 58 45 59 59 60 78 61 43 62 44 63 58 65 79 66 46 67
REMARK SMILES IDX 30 68 31 69 39 70 32 71 33 72 37 73 40 74 34 75 35 76 38 77
REMARK SMILES IDX 36 78 62 79 63 80 71 81 64 82 65 83 69 84 72 85 66 86 67 87
REMARK SMILES IDX 70 88 68 89 47 90 48 91 56 92 49 93 50 94 54 95 57 96 51 97
REMARK SMILES IDX 52 98 55 99 53 100
REMARK H PARENT 11 6 86 19 18 34 77 53 45 64
REMARK Flexibility Score: inf
ROOT
ATOM      1  C   UNL A   1      40.745  21.913  27.167  1.00  0.00     0.021 C 
ENDROOT
BRANCH   1   2
ATOM      2  C   UNL A   1      39.682  21.488  26.155  1.00  0.00     0.116 C 
BRANCH   2   3
ATOM      3  N   UNL A   1      38.859  22.605  25.737  1.00  0.00    -0.353 N 
ATOM      4  C   UNL A   1      37.560  22.592  25.327  1.00  0.00     0.258 C 
ATOM      5  O   UNL A   1      37.029  23.654  24.999  1.00  0.00    -0.271 OA
ATOM      6  H   UNL A   1      39.294  23.487  25.753  1.00  0.00     0.163 HD
BRANCH   4   7
ATOM      7  C   UNL A   1      36.781  21.270  25.302  1.00  0.00     0.331 C 
BRANCH   7   8
ATOM      8  O   UNL A   1      35.628  21.166  26.120  1.00  0.00    -0.467 OA
BRANCH   8   9
ATOM      9  C   UNL A   1      34.477  20.696  25.553  1.00  0.00     0.218 A 
ATOM     10  C   UNL A   1      33.127  19.202  24.359  1.00  0.00     0.052 A 
ATOM     11  C   UNL A   1      34.389  19.578  24.757  1.00  0.00     0.092 A 
ATOM     12  N   UNL A   1      32.048  19.939  24.670  1.00  0.00    -0.217 NA
ATOM     13  C   UNL A   1      32.220  21.051  25.398  1.00  0.00     0.230 A 
ATOM     14  N   UNL A   1      33.410  21.454  25.859  1.00  0.00    -0.177 NA
BRANCH  10  15
ATOM     15  C   UNL A   1      32.870  17.969  23.517  1.00  0.00     0.032 C 
ATOM     16  C   UNL A   1      32.308  18.381  22.156  1.00  0.00     0.014 C 
ATOM     17  C   UNL A   1      34.091  17.061  23.352  1.00  0.00     0.014 C 
ENDBRANCH  10  15
BRANCH  13  18
ATOM     18  N   UNL A   1      31.146  21.915  25.600  1.00  0.00    -0.322 N 
ATOM     19  H   UNL A   1      30.300  21.494  25.879  1.00  0.00     0.170 HD
BRANCH  18  20
ATOM     20  C   UNL A   1      31.118  23.306  25.454  1.00  0.00     0.077 A 
ATOM     21  C   UNL A   1      31.438  24.119  26.552  1.00  0.00     0.032 A 
ATOM     22  C   UNL A   1      30.898  23.931  24.213  1.00  0.00     0.149 A 
ATOM     23  C   UNL A   1      31.542  25.506  26.405  1.00  0.00     0.041 A 
ATOM     24  C   UNL A   1      30.984  25.311  24.061  1.00  0.00     0.080 A 
ATOM     25  F   UNL A   1      30.540  23.202  23.144  1.00  0.00    -0.205 F 
ATOM     26  C   UNL A   1      31.315  26.086  25.162  1.00  0.00     0.126 A 
ATOM     27  F   UNL A   1      31.420  27.414  25.025  1.00  0.00    -0.207 F 
ENDBRANCH  18  20
ENDBRANCH  13  18
ENDBRANCH   8   9
ENDBRANCH   7   8
ENDBRANCH   4   7
ENDBRANCH   2   3
ENDBRANCH   1   2
BRANCH   1  28
ATOM     28  C   UNL A   1      42.080  21.164  27.050  1.00  0.00     0.002 C 
BRANCH  28  29
ATOM     29  C   UNL A   1      42.095  19.743  27.623  1.00  0.00     0.002 C 
BRANCH  29  30
ATOM     30  C   UNL A   1      42.681  18.672  26.701  1.00  0.00     0.021 C 
BRANCH  30  31
ATOM     31  C   UNL A   1      42.759  19.066  25.231  1.00  0.00     0.116 C 
BRANCH  31  32
ATOM     32  N   UNL A   1      44.043  18.734  24.636  1.00  0.00    -0.352 N 
ATOM     33  C   UNL A   1      45.106  19.552  24.343  1.00  0.00     0.251 C 
ATOM     34  H   UNL A   1      44.171  17.784  24.410  1.00  0.00     0.163 HD
ATOM     35  O   UNL A   1      46.048  19.128  23.677  1.00  0.00    -0.269 OA
BRANCH  33  36
ATOM     36  C   UNL A   1      45.109  20.956  24.805  1.00  0.00     0.039 A 
ATOM     37  C   UNL A   1      45.493  21.235  26.119  1.00  0.00     0.014 A 
ATOM     38  C   UNL A   1      44.729  21.996  23.952  1.00  0.00     0.014 A 
ATOM     39  C   UNL A   1      45.558  22.559  26.558  1.00  0.00     0.010 A 
ATOM     40  C   UNL A   1      44.867  23.319  24.365  1.00  0.00     0.010 A 
ATOM     41  C   UNL A   1      45.281  23.614  25.674  1.00  0.00    -0.014 A 
BRANCH  41  42
ATOM     42  C   UNL A   1      45.422  25.031  26.099  1.00  0.00     0.031 A 
ATOM     43  C   UNL A   1      46.761  25.713  26.032  1.00  0.00     0.074 A 
ATOM     44  C   UNL A   1      44.357  25.684  26.604  1.00  0.00     0.049 A 
ATOM     45  N   UNL A   1      47.096  26.920  26.417  1.00  0.00    -0.248 NA
ATOM     46  C   UNL A   1      47.878  24.927  25.486  1.00  0.00     0.031 C 
ATOM     47  C   UNL A   1      43.017  25.118  26.761  1.00  0.00     0.029 A 
ATOM     48  N   UNL A   1      44.236  26.963  27.087  1.00  0.00    -0.354 N 
ATOM     49  C   UNL A   1      48.459  27.029  26.172  1.00  0.00     0.074 A 
ATOM     50  C   UNL A   1      48.900  25.752  25.658  1.00  0.00     0.031 C 
ATOM     51  C   UNL A   1      42.203  26.052  27.280  1.00  0.00     0.029 A 
ATOM     52  C   UNL A   1      42.972  27.266  27.532  1.00  0.00     0.049 A 
ATOM     53  H   UNL A   1      44.985  27.602  27.114  1.00  0.00     0.167 HD
ATOM     54  C   UNL A   1      49.264  28.106  26.342  1.00  0.00     0.037 A 
ATOM     55  C   UNL A   1      42.491  28.394  28.089  1.00  0.00     0.037 A 
ATOM     56  C   UNL A   1      48.815  29.383  26.832  1.00  0.00     0.049 A 
ATOM     57  C   UNL A   1      43.411  29.570  28.281  1.00  0.00     0.074 A 
ATOM     58  C   UNL A   1      49.539  30.553  26.977  1.00  0.00     0.029 A 
ATOM     59  N   UNL A   1      47.525  29.655  27.264  1.00  0.00    -0.354 N 
ATOM     60  N   UNL A   1      44.681  29.687  27.976  1.00  0.00    -0.248 NA
ATOM     61  C   UNL A   1      42.829  30.773  28.890  1.00  0.00     0.031 C 
ATOM     62  C   UNL A   1      48.703  31.518  27.550  1.00  0.00     0.029 A 
ATOM     63  C   UNL A   1      47.440  30.967  27.704  1.00  0.00     0.049 A 
ATOM     64  H   UNL A   1      46.780  29.012  27.260  1.00  0.00     0.167 HD
ATOM     65  C   UNL A   1      45.040  30.982  28.323  1.00  0.00     0.074 A 
ATOM     66  C   UNL A   1      43.850  31.618  28.850  1.00  0.00     0.031 C 
ATOM     67  C   UNL A   1      46.247  31.590  28.215  1.00  0.00     0.037 A 
BRANCH  54  68
ATOM     68  C   UNL A   1      50.718  27.950  25.999  1.00  0.00     0.064 A 
ATOM     69  C   UNL A   1      51.684  27.685  26.983  1.00  0.00     0.173 A 
ATOM     70  C   UNL A   1      51.145  28.022  24.665  1.00  0.00     0.173 A 
ATOM     71  F   UNL A   1      51.332  27.616  28.275  1.00  0.00    -0.203 F 
ATOM     72  C   UNL A   1      53.026  27.528  26.645  1.00  0.00     0.198 A 
ATOM     73  C   UNL A   1      52.483  27.832  24.328  1.00  0.00     0.198 A 
ATOM     74  F   UNL A   1      50.263  28.265  23.684  1.00  0.00    -0.203 F 
ATOM     75  F   UNL A   1      53.938  27.326  27.606  1.00  0.00    -0.200 F 
ATOM     76  C   UNL A   1      53.423  27.593  25.318  1.00  0.00     0.200 A 
ATOM     77  F   UNL A   1      52.861  27.878  23.043  1.00  0.00    -0.200 F 
ATOM     78  F   UNL A   1      54.714  27.431  24.994  1.00  0.00    -0.200 F 
ENDBRANCH  54  68
BRANCH  55  79
ATOM     79  C   UNL A   1      41.060  28.478  28.487  1.00  0.00     0.064 A 
ATOM     80  C   UNL A   1      40.092  28.960  27.594  1.00  0.00     0.173 A 
ATOM     81  C   UNL A   1      40.633  28.097  29.767  1.00  0.00     0.173 A 
ATOM     82  F   UNL A   1      40.454  29.358  26.366  1.00  0.00    -0.203 F 
ATOM     83  C   UNL A   1      38.757  29.081  27.976  1.00  0.00     0.198 A 
ATOM     84  C   UNL A   1      39.293  28.188  30.137  1.00  0.00     0.198 A 
ATOM     85  F   UNL A   1      41.517  27.624  30.658  1.00  0.00    -0.203 F 
ATOM     86  F   UNL A   1      37.862  29.595  27.120  1.00  0.00    -0.200 F 
ATOM     87  C   UNL A   1      38.357  28.690  29.245  1.00  0.00     0.200 A 
ATOM     88  F   UNL A   1      38.908  27.795  31.358  1.00  0.00    -0.200 F 
ATOM     89  F   UNL A   1      37.073  28.806  29.610  1.00  0.00    -0.200 F 
ENDBRANCH  55  79
BRANCH  67  90
ATOM     90  C   UNL A   1      46.334  33.030  28.635  1.00  0.00     0.064 A 
ATOM     91  C   UNL A   1      46.689  33.400  29.941  1.00  0.00     0.173 A 
ATOM     92  C   UNL A   1      46.095  34.054  27.706  1.00  0.00     0.173 A 
ATOM     93  F   UNL A   1      46.911  32.459  30.872  1.00  0.00    -0.203 F 
ATOM     94  C   UNL A   1      46.774  34.741  30.308  1.00  0.00     0.198 A 
ATOM     95  C   UNL A   1      46.216  35.393  28.066  1.00  0.00     0.198 A 
ATOM     96  F   UNL A   1      45.760  33.756  26.441  1.00  0.00    -0.203 F 
ATOM     97  F   UNL A   1      47.064  35.070  31.574  1.00  0.00    -0.200 F 
ATOM     98  C   UNL A   1      46.546  35.735  29.368  1.00  0.00     0.200 A 
ATOM     99  F   UNL A   1      46.011  36.353  27.153  1.00  0.00    -0.200 F 
ATOM    100  F   UNL A   1      46.638  37.025  29.721  1.00  0.00    -0.200 F 
ENDBRANCH  67  90
ENDBRANCH  41  42
ENDBRANCH  33  36
ENDBRANCH  31  32
ENDBRANCH  30  31
ENDBRANCH  29  30
ENDBRANCH  28  29
ENDBRANCH   1  28
TORSDOF 18
ENDMDL
MODEL 2
REMARK VINA RESULT:     -11.7      3.639      8.571
REMARK SMILES CC(C)c1cc(OCC(=O)NCCCCCCNC(=O)c2ccc(-c3c4nc(c(-c5c(F)c(F)c(F)c(F)c5F)c5ccc([nH]5)c(-c5c(F)c(F)c(F)c(F)c5F)c5nc(c(-c6c(F)c(F)c(F)c(F)c6F)c6ccc3[nH]6)C=C5)C=C4)cc2)nc(Nc2ccc(F)cc2F)n1
REMARK SMILES IDX 13 1 12 2 11 3 9 4 10 5 8 7 7 8 6 9 4 10 5 11 95 12 85 13
REMARK SMILES IDX 84 14 2 15 1 16 3 17 86 18 87 20 88 21 93 22 89 23 92 24
REMARK SMILES IDX 94 25 90 26 91 27 14 28 15 29 16 30 17 31 18 32 19 33 20 35
REMARK SMILES IDX 21 36 22 37 83 38 23 39 82 40 24 41 25 42 26 43 76 44 27 45
REMARK SMILES IDX 81 46 75 47 77 48 28 49 80 50 74 51 73 52 29 54 61 55 41 56
REMARK SMILES IDX 60 57 42 58 45 59 59 60 78 61 43 62 44 63 58 65 79 66 46 67
REMARK SMILES IDX 30 68 31 69 39 70 32 71 33 72 37 73 40 74 34 75 35 76 38 77
REMARK SMILES IDX 36 78 62 79 63 80 71 81 64 82 65 83 69 84 72 85 66 86 67 87
REMARK SMILES IDX 70 88 68 89 47 90 48 91 56 92 49 93 50 94 54 95 57 96 51 97
REMARK SMILES IDX 52 98 55 99 53 100
REMARK H PARENT 11 6 86 19 18 34 77 53 45 64
REMARK Flexibility Score: inf
ROOT
ATOM      1  C   UNL A   1      33.723  25.814  23.053  1.00  0.00     0.021 C 
ENDROOT
BRANCH   1   2
ATOM      2  C   UNL A   1      34.056  24.544  23.834  1.00  0.00     0.116 C 
BRANCH   2   3
ATOM      3  N   UNL A   1      35.168  23.825  23.245  1.00  0.00    -0.353 N 
ATOM      4  C   UNL A   1      36.076  23.019  23.862  1.00  0.00     0.258 C 
ATOM      5  O   UNL A   1      36.965  22.498  23.186  1.00  0.00    -0.271 OA
ATOM      6  H   UNL A   1      35.281  23.933  22.273  1.00  0.00     0.163 HD
BRANCH   4   7
ATOM      7  C   UNL A   1      35.965  22.758  25.370  1.00  0.00     0.331 C 
BRANCH   7   8
ATOM      8  O   UNL A   1      35.701  21.433  25.795  1.00  0.00    -0.467 OA
BRANCH   8   9
ATOM      9  C   UNL A   1      34.548  20.837  25.368  1.00  0.00     0.218 A 
ATOM     10  C   UNL A   1      33.226  19.160  24.408  1.00  0.00     0.052 A 
ATOM     11  C   UNL A   1      34.483  19.658  24.664  1.00  0.00     0.092 A 
ATOM     12  N   UNL A   1      32.121  19.839  24.761  1.00  0.00    -0.217 NA
ATOM     13  C   UNL A   1      32.265  21.013  25.391  1.00  0.00     0.230 A 
ATOM     14  N   UNL A   1      33.453  21.536  25.714  1.00  0.00    -0.177 NA
BRANCH  10  15
ATOM     15  C   UNL A   1      32.998  17.851  23.681  1.00  0.00     0.032 C 
ATOM     16  C   UNL A   1      32.372  18.121  22.313  1.00  0.00     0.014 C 
ATOM     17  C   UNL A   1      34.255  16.987  23.546  1.00  0.00     0.014 C 
ENDBRANCH  10  15
BRANCH  13  18
ATOM     18  N   UNL A   1      31.145  21.809  25.626  1.00  0.00    -0.322 N 
ATOM     19  H   UNL A   1      30.442  21.408  26.187  1.00  0.00     0.170 HD
BRANCH  18  20
ATOM     20  C   UNL A   1      30.896  23.105  25.163  1.00  0.00     0.077 A 
ATOM     21  C   UNL A   1      30.746  23.326  23.786  1.00  0.00     0.032 A 
ATOM     22  C   UNL A   1      30.671  24.188  26.033  1.00  0.00     0.149 A 
ATOM     23  C   UNL A   1      30.373  24.584  23.303  1.00  0.00     0.041 A 
ATOM     24  C   UNL A   1      30.315  25.446  25.560  1.00  0.00     0.080 A 
ATOM     25  F   UNL A   1      30.852  24.041  27.355  1.00  0.00    -0.205 F 
ATOM     26  C   UNL A   1      30.160  25.629  24.195  1.00  0.00     0.126 A 
ATOM     27  F   UNL A   1      29.799  26.831  23.728  1.00  0.00    -0.207 F 
ENDBRANCH  18  20
ENDBRANCH  13  18
ENDBRANCH   8   9
ENDBRANCH   7   8
ENDBRANCH   4   7
ENDBRANCH   2   3
ENDBRANCH   1   2
BRANCH   1  28
ATOM     28  C   UNL A   1      33.808  27.112  23.869  1.00  0.00     0.002 C 
BRANCH  28  29
ATOM     29  C   UNL A   1      33.381  27.001  25.336  1.00  0.00     0.002 C 
BRANCH  29  30
ATOM     30  C   UNL A   1      33.078  28.330  26.032  1.00  0.00     0.021 C 
BRANCH  30  31
ATOM     31  C   UNL A   1      33.906  28.602  27.282  1.00  0.00     0.116 C 
BRANCH  31  32
ATOM     32  N   UNL A   1      33.843  29.994  27.696  1.00  0.00    -0.352 N 
ATOM     33  C   UNL A   1      34.771  30.745  28.372  1.00  0.00     0.251 C 
ATOM     34  H   UNL A   1      33.014  30.468  27.457  1.00  0.00     0.163 HD
ATOM     35  O   UNL A   1      34.475  31.861  28.795  1.00  0.00    -0.269 OA
BRANCH  33  36
ATOM     36  C   UNL A   1      36.125  30.204  28.620  1.00  0.00     0.039 A 
ATOM     37  C   UNL A   1      37.088  30.308  27.613  1.00  0.00     0.014 A 
ATOM     38  C   UNL A   1      36.445  29.590  29.834  1.00  0.00     0.014 A 
ATOM     39  C   UNL A   1      38.388  29.855  27.846  1.00  0.00     0.010 A 
ATOM     40  C   UNL A   1      37.758  29.208  30.093  1.00  0.00     0.010 A 
ATOM     41  C   UNL A   1      38.744  29.335  29.101  1.00  0.00    -0.014 A 
BRANCH  41  42
ATOM     42  C   UNL A   1      40.141  28.921  29.395  1.00  0.00     0.031 A 
ATOM     43  C   UNL A   1      41.051  29.826  30.181  1.00  0.00     0.074 A 
ATOM     44  C   UNL A   1      40.610  27.759  28.900  1.00  0.00     0.049 A 
ATOM     45  N   UNL A   1      42.316  29.670  30.482  1.00  0.00    -0.248 NA
ATOM     46  C   UNL A   1      40.469  31.086  30.670  1.00  0.00     0.031 C 
ATOM     47  C   UNL A   1      39.840  26.816  28.088  1.00  0.00     0.029 A 
ATOM     48  N   UNL A   1      41.849  27.177  29.001  1.00  0.00    -0.354 N 
ATOM     49  C   UNL A   1      42.681  30.814  31.180  1.00  0.00     0.074 A 
ATOM     50  C   UNL A   1      41.522  31.679  31.211  1.00  0.00     0.031 C 
ATOM     51  C   UNL A   1      40.615  25.762  27.784  1.00  0.00     0.029 A 
ATOM     52  C   UNL A   1      41.947  25.975  28.343  1.00  0.00     0.049 A 
ATOM     53  H   UNL A   1      42.596  27.583  29.496  1.00  0.00     0.167 HD
ATOM     54  C   UNL A   1      43.871  31.106  31.760  1.00  0.00     0.037 A 
ATOM     55  C   UNL A   1      42.996  25.143  28.198  1.00  0.00     0.037 A 
ATOM     56  C   UNL A   1      45.013  30.231  31.747  1.00  0.00     0.049 A 
ATOM     57  C   UNL A   1      44.311  25.499  28.840  1.00  0.00     0.074 A 
ATOM     58  C   UNL A   1      46.241  30.407  32.362  1.00  0.00     0.029 A 
ATOM     59  N   UNL A   1      45.073  29.017  31.078  1.00  0.00    -0.354 N 
ATOM     60  N   UNL A   1      44.623  26.548  29.562  1.00  0.00    -0.248 NA
ATOM     61  C   UNL A   1      45.418  24.552  28.651  1.00  0.00     0.031 C 
ATOM     62  C   UNL A   1      47.062  29.327  32.018  1.00  0.00     0.029 A 
ATOM     63  C   UNL A   1      46.326  28.448  31.241  1.00  0.00     0.049 A 
ATOM     64  H   UNL A   1      44.335  28.619  30.563  1.00  0.00     0.167 HD
ATOM     65  C   UNL A   1      45.946  26.372  29.941  1.00  0.00     0.074 A 
ATOM     66  C   UNL A   1      46.376  25.107  29.380  1.00  0.00     0.031 C 
ATOM     67  C   UNL A   1      46.736  27.183  30.686  1.00  0.00     0.037 A 
BRANCH  54  68
ATOM     68  C   UNL A   1      44.000  32.430  32.458  1.00  0.00     0.064 A 
ATOM     69  C   UNL A   1      43.684  32.581  33.818  1.00  0.00     0.173 A 
ATOM     70  C   UNL A   1      44.488  33.551  31.771  1.00  0.00     0.173 A 
ATOM     71  F   UNL A   1      43.204  31.544  34.520  1.00  0.00    -0.203 F 
ATOM     72  C   UNL A   1      43.824  33.812  34.454  1.00  0.00     0.198 A 
ATOM     73  C   UNL A   1      44.658  34.772  32.419  1.00  0.00     0.198 A 
ATOM     74  F   UNL A   1      44.812  33.461  30.473  1.00  0.00    -0.203 F 
ATOM     75  F   UNL A   1      43.469  33.945  35.739  1.00  0.00    -0.200 F 
ATOM     76  C   UNL A   1      44.319  34.904  33.757  1.00  0.00     0.200 A 
ATOM     77  F   UNL A   1      45.152  35.822  31.747  1.00  0.00    -0.200 F 
ATOM     78  F   UNL A   1      44.463  36.086  34.373  1.00  0.00    -0.200 F 
ENDBRANCH  54  68
BRANCH  55  79
ATOM     79  C   UNL A   1      42.845  23.877  27.431  1.00  0.00     0.064 A 
ATOM     80  C   UNL A   1      42.439  22.695  28.066  1.00  0.00     0.173 A 
ATOM     81  C   UNL A   1      43.118  23.818  26.057  1.00  0.00     0.173 A 
ATOM     82  F   UNL A   1      42.188  22.696  29.383  1.00  0.00    -0.203 F 
ATOM     83  C   UNL A   1      42.338  21.497  27.361  1.00  0.00     0.198 A 
ATOM     84  C   UNL A   1      42.984  22.627  25.347  1.00  0.00     0.198 A 
ATOM     85  F   UNL A   1      43.505  24.921  25.400  1.00  0.00    -0.203 F 
ATOM     86  F   UNL A   1      41.999  20.371  28.005  1.00  0.00    -0.200 F 
ATOM     87  C   UNL A   1      42.605  21.465  26.001  1.00  0.00     0.200 A 
ATOM     88  F   UNL A   1      43.229  22.603  24.030  1.00  0.00    -0.200 F 
ATOM     89  F   UNL A   1      42.505  20.312  25.324  1.00  0.00    -0.200 F 
ENDBRANCH  55  79
BRANCH  67  90
ATOM     90  C   UNL A   1      48.132  26.712  30.976  1.00  0.00     0.064 A 
ATOM     91  C   UNL A   1      48.419  25.872  32.064  1.00  0.00     0.173 A 
ATOM     92  C   UNL A   1      49.192  27.074  30.131  1.00  0.00     0.173 A 
ATOM     93  F   UNL A   1      47.444  25.510  32.912  1.00  0.00    -0.203 F 
ATOM     94  C   UNL A   1      49.719  25.438  32.310  1.00  0.00     0.198 A 
ATOM     95  C   UNL A   1      50.484  26.610  30.360  1.00  0.00     0.198 A 
ATOM     96  F   UNL A   1      48.972  27.869  29.072  1.00  0.00    -0.203 F 
ATOM     97  F   UNL A   1      49.977  24.680  33.385  1.00  0.00    -0.200 F 
ATOM     98  C   UNL A   1      50.748  25.800  31.454  1.00  0.00     0.200 A 
ATOM     99  F   UNL A   1      51.475  26.947  29.522  1.00  0.00    -0.200 F 
ATOM    100  F   UNL A   1      51.996  25.372  31.687  1.00  0.00    -0.200 F 
ENDBRANCH  67  90
ENDBRANCH  41  42
ENDBRANCH  33  36
ENDBRANCH  31  32
ENDBRANCH  30  31
ENDBRANCH  29  30
ENDBRANCH  28  29
ENDBRANCH   1  28
TORSDOF 18
ENDMDL
MODEL 3
REMARK VINA RESULT:     -11.6      5.209     10.378
REMARK SMILES CC(C)c1cc(OCC(=O)NCCCCCCNC(=O)c2ccc(-c3c4nc(c(-c5c(F)c(F)c(F)c(F)c5F)c5ccc([nH]5)c(-c5c(F)c(F)c(F)c(F)c5F)c5nc(c(-c6c(F)c(F)c(F)c(F)c6F)c6ccc3[nH]6)C=C5)C=C4)cc2)nc(Nc2ccc(F)cc2F)n1
REMARK SMILES IDX 13 1 12 2 11 3 9 4 10 5 8 7 7 8 6 9 4 10 5 11 95 12 85 13
REMARK SMILES IDX 84 14 2 15 1 16 3 17 86 18 87 20 88 21 93 22 89 23 92 24
REMARK SMILES IDX 94 25 90 26 91 27 14 28 15 29 16 30 17 31 18 32 19 33 20 35
REMARK SMILES IDX 21 36 22 37 83 38 23 39 82 40 24 41 25 42 26 43 76 44 27 45
REMARK SMILES IDX 81 46 75 47 77 48 28 49 80 50 74 51 73 52 29 54 61 55 41 56
REMARK SMILES IDX 60 57 42 58 45 59 59 60 78 61 43 62 44 63 58 65 79 66 46 67
REMARK SMILES IDX 30 68 31 69 39 70 32 71 33 72 37 73 40 74 34 75 35 76 38 77
REMARK SMILES IDX 36 78 62 79 63 80 71 81 64 82 65 83 69 84 72 85 66 86 67 87
REMARK SMILES IDX 70 88 68 89 47 90 48 91 56 92 49 93 50 94 54 95 57 96 51 97
REMARK SMILES IDX 52 98 55 99 53 100
REMARK H PARENT 11 6 86 19 18 34 77 53 45 64
REMARK Flexibility Score: inf
ROOT
ATOM      1  C   UNL A   1      33.688  26.048  24.997  1.00  0.00     0.021 C 
ENDROOT
BRANCH   1   2
ATOM      2  C   UNL A   1      34.647  24.906  25.331  1.00  0.00     0.116 C 
BRANCH   2   3
ATOM      3  N   UNL A   1      35.212  24.310  24.138  1.00  0.00    -0.353 N 
ATOM      4  C   UNL A   1      35.938  23.164  24.026  1.00  0.00     0.258 C 
ATOM      5  O   UNL A   1      36.344  22.822  22.915  1.00  0.00    -0.271 OA
ATOM      6  H   UNL A   1      35.048  24.797  23.298  1.00  0.00     0.163 HD
BRANCH   4   7
ATOM      7  C   UNL A   1      36.216  22.313  25.274  1.00  0.00     0.331 C 
BRANCH   7   8
ATOM      8  O   UNL A   1      36.208  20.903  25.129  1.00  0.00    -0.467 OA
BRANCH   8   9
ATOM      9  C   UNL A   1      34.999  20.271  25.055  1.00  0.00     0.218 A 
ATOM     10  C   UNL A   1      33.531  18.479  24.717  1.00  0.00     0.052 A 
ATOM     11  C   UNL A   1      34.809  18.979  24.625  1.00  0.00     0.092 A 
ATOM     12  N   UNL A   1      32.509  19.247  25.131  1.00  0.00    -0.217 NA
ATOM     13  C   UNL A   1      32.761  20.518  25.476  1.00  0.00     0.230 A 
ATOM     14  N   UNL A   1      33.986  21.058  25.457  1.00  0.00    -0.177 NA
BRANCH  10  15
ATOM     15  C   UNL A   1      33.178  17.060  24.322  1.00  0.00     0.032 C 
ATOM     16  C   UNL A   1      34.028  16.629  23.127  1.00  0.00     0.014 C 
ATOM     17  C   UNL A   1      33.291  16.049  25.465  1.00  0.00     0.014 C 
ENDBRANCH  10  15
BRANCH  13  18
ATOM     18  N   UNL A   1      31.702  21.379  25.757  1.00  0.00    -0.322 N 
ATOM     19  H   UNL A   1      31.088  21.088  26.470  1.00  0.00     0.170 HD
BRANCH  18  20
ATOM     20  C   UNL A   1      31.401  22.602  25.150  1.00  0.00     0.077 A 
ATOM     21  C   UNL A   1      31.731  22.799  23.800  1.00  0.00     0.032 A 
ATOM     22  C   UNL A   1      30.670  23.611  25.804  1.00  0.00     0.149 A 
ATOM     23  C   UNL A   1      31.332  23.961  23.132  1.00  0.00     0.041 A 
ATOM     24  C   UNL A   1      30.283  24.776  25.151  1.00  0.00     0.080 A 
ATOM     25  F   UNL A   1      30.373  23.491  27.108  1.00  0.00    -0.205 F 
ATOM     26  C   UNL A   1      30.611  24.935  23.814  1.00  0.00     0.126 A 
ATOM     27  F   UNL A   1      30.227  26.044  23.169  1.00  0.00    -0.207 F 
ENDBRANCH  18  20
ENDBRANCH  13  18
ENDBRANCH   8   9
ENDBRANCH   7   8
ENDBRANCH   4   7
ENDBRANCH   2   3
ENDBRANCH   1   2
BRANCH   1  28
ATOM     28  C   UNL A   1      33.473  27.059  26.131  1.00  0.00     0.002 C 
BRANCH  28  29
ATOM     29  C   UNL A   1      32.018  27.466  26.390  1.00  0.00     0.002 C 
BRANCH  29  30
ATOM     30  C   UNL A   1      31.776  28.970  26.541  1.00  0.00     0.021 C 
BRANCH  30  31
ATOM     31  C   UNL A   1      32.896  29.855  26.007  1.00  0.00     0.116 C 
BRANCH  31  32
ATOM     32  N   UNL A   1      32.723  31.250  26.376  1.00  0.00    -0.352 N 
ATOM     33  C   UNL A   1      33.418  32.002  27.291  1.00  0.00     0.251 C 
ATOM     34  H   UNL A   1      32.005  31.726  25.902  1.00  0.00     0.163 HD
ATOM     35  O   UNL A   1      33.018  33.122  27.602  1.00  0.00    -0.269 OA
BRANCH  33  36
ATOM     36  C   UNL A   1      34.636  31.457  27.927  1.00  0.00     0.039 A 
ATOM     37  C   UNL A   1      35.752  32.286  28.070  1.00  0.00     0.014 A 
ATOM     38  C   UNL A   1      34.685  30.134  28.375  1.00  0.00     0.014 A 
ATOM     39  C   UNL A   1      36.893  31.809  28.719  1.00  0.00     0.010 A 
ATOM     40  C   UNL A   1      35.792  29.683  29.088  1.00  0.00     0.010 A 
ATOM     41  C   UNL A   1      36.909  30.515  29.266  1.00  0.00    -0.014 A 
BRANCH  41  42
ATOM     42  C   UNL A   1      38.083  30.017  30.030  1.00  0.00     0.031 A 
ATOM     43  C   UNL A   1      38.322  30.480  31.441  1.00  0.00     0.074 A 
ATOM     44  C   UNL A   1      38.969  29.198  29.430  1.00  0.00     0.049 A 
ATOM     45  N   UNL A   1      39.321  30.209  32.244  1.00  0.00    -0.248 NA
ATOM     46  C   UNL A   1      37.319  31.389  32.018  1.00  0.00     0.031 C 
ATOM     47  C   UNL A   1      38.872  28.714  28.052  1.00  0.00     0.029 A 
ATOM     48  N   UNL A   1      40.130  28.635  29.899  1.00  0.00    -0.354 N 
ATOM     49  C   UNL A   1      39.073  30.923  33.409  1.00  0.00     0.074 A 
ATOM     50  C   UNL A   1      37.861  31.681  33.191  1.00  0.00     0.031 C 
ATOM     51  C   UNL A   1      39.915  27.907  27.795  1.00  0.00     0.029 A 
ATOM     52  C   UNL A   1      40.775  27.852  28.973  1.00  0.00     0.049 A 
ATOM     53  H   UNL A   1      40.468  28.779  30.812  1.00  0.00     0.167 HD
ATOM     54  C   UNL A   1      39.783  30.928  34.564  1.00  0.00     0.037 A 
ATOM     55  C   UNL A   1      41.935  27.174  29.061  1.00  0.00     0.037 A 
ATOM     56  C   UNL A   1      40.975  30.154  34.783  1.00  0.00     0.049 A 
ATOM     57  C   UNL A   1      42.712  27.210  30.350  1.00  0.00     0.074 A 
ATOM     58  C   UNL A   1      41.729  30.041  35.939  1.00  0.00     0.029 A 
ATOM     59  N   UNL A   1      41.595  29.365  33.825  1.00  0.00    -0.354 N 
ATOM     60  N   UNL A   1      42.428  27.828  31.471  1.00  0.00    -0.248 NA
ATOM     61  C   UNL A   1      43.967  26.448  30.388  1.00  0.00     0.031 C 
ATOM     62  C   UNL A   1      42.834  29.228  35.664  1.00  0.00     0.029 A 
ATOM     63  C   UNL A   1      42.737  28.785  34.355  1.00  0.00     0.049 A 
ATOM     64  H   UNL A   1      41.271  29.236  32.904  1.00  0.00     0.167 HD
ATOM     65  C   UNL A   1      43.448  27.505  32.355  1.00  0.00     0.074 A 
ATOM     66  C   UNL A   1      44.351  26.623  31.645  1.00  0.00     0.031 C 
ATOM     67  C   UNL A   1      43.621  27.901  33.640  1.00  0.00     0.037 A 
BRANCH  54  68
ATOM     68  C   UNL A   1      39.290  31.803  35.680  1.00  0.00     0.064 A 
ATOM     69  C   UNL A   1      38.378  31.333  36.639  1.00  0.00     0.173 A 
ATOM     70  C   UNL A   1      39.769  33.114  35.821  1.00  0.00     0.173 A 
ATOM     71  F   UNL A   1      37.882  30.090  36.546  1.00  0.00    -0.203 F 
ATOM     72  C   UNL A   1      37.943  32.152  37.677  1.00  0.00     0.198 A 
ATOM     73  C   UNL A   1      39.356  33.920  36.880  1.00  0.00     0.198 A 
ATOM     74  F   UNL A   1      40.646  33.612  34.938  1.00  0.00    -0.203 F 
ATOM     75  F   UNL A   1      37.035  31.698  38.551  1.00  0.00    -0.200 F 
ATOM     76  C   UNL A   1      38.438  33.441  37.802  1.00  0.00     0.200 A 
ATOM     77  F   UNL A   1      39.849  35.160  37.007  1.00  0.00    -0.200 F 
ATOM     78  F   UNL A   1      38.026  34.225  38.809  1.00  0.00    -0.200 F 
ENDBRANCH  54  68
BRANCH  55  79
ATOM     79  C   UNL A   1      42.427  26.382  27.901  1.00  0.00     0.064 A 
ATOM     80  C   UNL A   1      43.342  26.931  26.992  1.00  0.00     0.173 A 
ATOM     81  C   UNL A   1      41.981  25.073  27.667  1.00  0.00     0.173 A 
ATOM     82  F   UNL A   1      43.781  28.186  27.159  1.00  0.00    -0.203 F 
ATOM     83  C   UNL A   1      43.772  26.209  25.879  1.00  0.00     0.198 A 
ATOM     84  C   UNL A   1      42.437  24.341  26.573  1.00  0.00     0.198 A 
ATOM     85  F   UNL A   1      41.109  24.499  28.509  1.00  0.00    -0.203 F 
ATOM     86  F   UNL A   1      44.606  26.778  24.997  1.00  0.00    -0.200 F 
ATOM     87  C   UNL A   1      43.324  24.914  25.673  1.00  0.00     0.200 A 
ATOM     88  F   UNL A   1      42.013  23.085  26.386  1.00  0.00    -0.200 F 
ATOM     89  F   UNL A   1      43.740  24.221  24.605  1.00  0.00    -0.200 F 
ENDBRANCH  55  79
BRANCH  67  90
ATOM     90  C   UNL A   1      44.809  27.353  34.377  1.00  0.00     0.064 A 
ATOM     91  C   UNL A   1      44.751  26.136  35.073  1.00  0.00     0.173 A 
ATOM     92  C   UNL A   1      46.034  28.037  34.355  1.00  0.00     0.173 A 
ATOM     93  F   UNL A   1      43.599  25.451  35.139  1.00  0.00    -0.203 F 
ATOM     94  C   UNL A   1      45.867  25.639  35.743  1.00  0.00     0.198 A 
ATOM     95  C   UNL A   1      47.157  27.521  34.995  1.00  0.00     0.198 A 
ATOM     96  F   UNL A   1      46.147  29.201  33.698  1.00  0.00    -0.203 F 
ATOM     97  F   UNL A   1      45.773  24.502  36.445  1.00  0.00    -0.200 F 
ATOM     98  C   UNL A   1      47.070  26.328  35.696  1.00  0.00     0.200 A 
ATOM     99  F   UNL A   1      48.323  28.179  34.936  1.00  0.00    -0.200 F 
ATOM    100  F   UNL A   1      48.145  25.843  36.333  1.00  0.00    -0.200 F 
ENDBRANCH  67  90
ENDBRANCH  41  42
ENDBRANCH  33  36
ENDBRANCH  31  32
ENDBRANCH  30  31
ENDBRANCH  29  30
ENDBRANCH  28  29
ENDBRANCH   1  28
TORSDOF 18
ENDMDL
