MODEL 1
REMARK VINA RESULT:      -9.2      0.000      0.000
REMARK SMILES C[C@H](C(=O)NCCCCCCNC(=O)c1ccc(-c2c3nc(c(-c4c(F)c(F)c(F)c(F)c4F)c4ccc([nH]4)c(-c4c(F)c(F)c(F)c(F)c4F)c4nc(c(-c5c(F)c(F)c(F)c(F)c5F)c5ccc2[nH]5)C=C4)C=C3)cc1)c1ccc2c3cc(Cl)ccc3n(C(=O)c3ccc(Cl)cc3)c2c1
REMARK SMILES IDX 8 1 7 2 6 3 5 4 3 5 4 6 2 8 1 9 78 10 79 11 100 12 80 13
REMARK SMILES IDX 99 14 81 15 89 16 82 17 88 18 83 19 87 20 84 21 86 22 85 23
REMARK SMILES IDX 90 24 91 25 92 26 93 27 98 28 94 29 97 30 95 31 96 32 9 33
REMARK SMILES IDX 10 34 11 35 12 36 13 37 14 39 15 40 16 41 77 42 17 43 76 44
REMARK SMILES IDX 18 45 19 46 20 47 70 48 21 49 75 50 69 51 71 52 22 53 74 54
REMARK SMILES IDX 68 55 67 56 23 58 55 59 35 60 54 61 36 62 39 63 53 64 72 65
REMARK SMILES IDX 37 66 38 67 52 69 73 70 40 71 24 72 25 73 33 74 26 75 27 76
REMARK SMILES IDX 31 77 34 78 28 79 29 80 32 81 30 82 56 83 57 84 65 85 58 86
REMARK SMILES IDX 59 87 63 88 66 89 60 90 61 91 64 92 62 93 41 94 42 95 50 96
REMARK SMILES IDX 43 97 44 98 48 99 51 100 45 101 46 102 49 103 47 104
REMARK H PARENT 5 7 12 38 71 57 39 68
REMARK Flexibility Score: inf
ROOT
ATOM      1  C   UNL A   1      46.400  22.325  24.614  1.00  0.00     0.002 C 
ENDROOT
BRANCH   1   2
ATOM      2  C   UNL A   1      45.534  23.535  24.251  1.00  0.00     0.021 C 
BRANCH   2   3
ATOM      3  C   UNL A   1      45.783  24.790  25.096  1.00  0.00     0.116 C 
BRANCH   3   4
ATOM      4  N   UNL A   1      44.773  25.799  24.828  1.00  0.00    -0.356 N 
ATOM      5  C   UNL A   1      44.537  27.026  25.372  1.00  0.00     0.227 C 
ATOM      6  O   UNL A   1      43.487  27.568  25.003  1.00  0.00    -0.274 OA
ATOM      7  H   UNL A   1      44.140  25.549  24.118  1.00  0.00     0.163 HD
BRANCH   5   8
ATOM      8  C   UNL A   1      45.541  27.785  26.268  1.00  0.00     0.105 C 
ATOM      9  C   UNL A   1      46.913  27.821  25.576  1.00  0.00     0.023 C 
BRANCH   8  10
ATOM     10  C   UNL A   1      45.172  29.198  26.684  1.00  0.00    -0.034 A 
ATOM     11  C   UNL A   1      43.834  29.565  26.844  1.00  0.00     0.005 A 
ATOM     12  C   UNL A   1      46.171  30.157  26.883  1.00  0.00     0.032 A 
ATOM     13  C   UNL A   1      43.482  30.892  27.115  1.00  0.00     0.011 A 
ATOM     14  C   UNL A   1      45.814  31.514  27.024  1.00  0.00     0.057 A 
ATOM     15  C   UNL A   1      44.483  31.886  27.165  1.00  0.00     0.008 A 
ATOM     16  N   UNL A   1      46.610  32.676  27.017  1.00  0.00    -0.276 N 
ATOM     17  C   UNL A   1      44.449  33.300  27.295  1.00  0.00     0.009 A 
ATOM     18  C   UNL A   1      45.753  33.785  27.107  1.00  0.00     0.057 A 
ATOM     19  C   UNL A   1      43.378  34.205  27.476  1.00  0.00     0.031 A 
ATOM     20  C   UNL A   1      45.973  35.172  26.976  1.00  0.00     0.029 A 
ATOM     21  C   UNL A   1      43.619  35.574  27.414  1.00  0.00     0.041 A 
ATOM     22  C   UNL A   1      44.894  36.052  27.145  1.00  0.00     0.023 A 
ATOM     23  Cl  UNL A   1      42.313  36.674  27.627  1.00  0.00    -0.084 Cl
BRANCH  16  24
ATOM     24  C   UNL A   1      48.021  32.644  26.830  1.00  0.00     0.262 C 
ATOM     25  O   UNL A   1      48.441  33.073  25.752  1.00  0.00    -0.268 OA
BRANCH  24  26
ATOM     26  C   UNL A   1      49.099  32.152  27.717  1.00  0.00     0.040 A 
ATOM     27  C   UNL A   1      49.926  31.134  27.196  1.00  0.00     0.015 A 
ATOM     28  C   UNL A   1      49.200  32.484  29.069  1.00  0.00     0.015 A 
ATOM     29  C   UNL A   1      50.828  30.451  28.009  1.00  0.00     0.021 A 
ATOM     30  C   UNL A   1      50.131  31.815  29.879  1.00  0.00     0.021 A 
ATOM     31  C   UNL A   1      50.925  30.794  29.351  1.00  0.00     0.041 A 
ATOM     32  Cl  UNL A   1      51.999  29.923  30.373  1.00  0.00    -0.084 Cl
ENDBRANCH  24  26
ENDBRANCH  16  24
ENDBRANCH   8  10
ENDBRANCH   5   8
ENDBRANCH   3   4
ENDBRANCH   2   3
ENDBRANCH   1   2
BRANCH   1  33
ATOM     33  C   UNL A   1      45.702  21.256  25.456  1.00  0.00     0.002 C 
BRANCH  33  34
ATOM     34  C   UNL A   1      44.918  20.206  24.665  1.00  0.00     0.021 C 
BRANCH  34  35
ATOM     35  C   UNL A   1      44.323  19.078  25.505  1.00  0.00     0.116 C 
BRANCH  35  36
ATOM     36  N   UNL A   1      42.883  18.970  25.331  1.00  0.00    -0.352 N 
ATOM     37  C   UNL A   1      41.874  19.748  25.837  1.00  0.00     0.251 C 
ATOM     38  H   UNL A   1      42.588  18.222  24.761  1.00  0.00     0.163 HD
ATOM     39  O   UNL A   1      40.710  19.367  25.758  1.00  0.00    -0.269 OA
BRANCH  37  40
ATOM     40  C   UNL A   1      42.173  21.047  26.478  1.00  0.00     0.039 A 
ATOM     41  C   UNL A   1      42.252  22.190  25.678  1.00  0.00     0.014 A 
ATOM     42  C   UNL A   1      42.439  21.134  27.849  1.00  0.00     0.014 A 
ATOM     43  C   UNL A   1      42.565  23.423  26.253  1.00  0.00     0.010 A 
ATOM     44  C   UNL A   1      42.683  22.376  28.432  1.00  0.00     0.010 A 
ATOM     45  C   UNL A   1      42.767  23.529  27.638  1.00  0.00    -0.014 A 
BRANCH  45  46
ATOM     46  C   UNL A   1      43.106  24.832  28.264  1.00  0.00     0.031 A 
ATOM     47  C   UNL A   1      42.029  25.852  28.516  1.00  0.00     0.074 A 
ATOM     48  C   UNL A   1      44.388  25.115  28.566  1.00  0.00     0.049 A 
ATOM     49  N   UNL A   1      42.129  27.057  29.019  1.00  0.00    -0.248 NA
ATOM     50  C   UNL A   1      40.662  25.478  28.125  1.00  0.00     0.031 C 
ATOM     51  C   UNL A   1      45.527  24.228  28.331  1.00  0.00     0.029 A 
ATOM     52  N   UNL A   1      44.948  26.233  29.132  1.00  0.00    -0.354 N 
ATOM     53  C   UNL A   1      40.846  27.589  28.982  1.00  0.00     0.074 A 
ATOM     54  C   UNL A   1      39.994  26.597  28.364  1.00  0.00     0.031 C 
ATOM     55  C   UNL A   1      46.645  24.821  28.777  1.00  0.00     0.029 A 
ATOM     56  C   UNL A   1      46.308  26.143  29.299  1.00  0.00     0.049 A 
ATOM     57  H   UNL A   1      44.424  27.025  29.393  1.00  0.00     0.167 HD
ATOM     58  C   UNL A   1      40.414  28.787  29.445  1.00  0.00     0.037 A 
ATOM     59  C   UNL A   1      47.181  27.026  29.819  1.00  0.00     0.037 A 
ATOM     60  C   UNL A   1      41.257  29.755  30.095  1.00  0.00     0.049 A 
ATOM     61  C   UNL A   1      46.672  28.345  30.334  1.00  0.00     0.074 A 
ATOM     62  C   UNL A   1      40.902  30.965  30.667  1.00  0.00     0.029 A 
ATOM     63  N   UNL A   1      42.628  29.621  30.261  1.00  0.00    -0.354 N 
ATOM     64  N   UNL A   1      45.446  28.806  30.365  1.00  0.00    -0.248 NA
ATOM     65  C   UNL A   1      47.673  29.263  30.898  1.00  0.00     0.031 C 
ATOM     66  C   UNL A   1      42.066  31.584  31.136  1.00  0.00     0.029 A 
ATOM     67  C   UNL A   1      43.138  30.737  30.905  1.00  0.00     0.049 A 
ATOM     68  H   UNL A   1      43.160  28.848  29.964  1.00  0.00     0.167 HD
ATOM     69  C   UNL A   1      45.520  30.048  30.981  1.00  0.00     0.074 A 
ATOM     70  C   UNL A   1      46.912  30.264  31.318  1.00  0.00     0.031 C 
ATOM     71  C   UNL A   1      44.525  30.931  31.246  1.00  0.00     0.037 A 
BRANCH  58  72
ATOM     72  C   UNL A   1      38.961  29.120  29.260  1.00  0.00     0.064 A 
ATOM     73  C   UNL A   1      38.430  29.440  28.000  1.00  0.00     0.173 A 
ATOM     74  C   UNL A   1      38.081  29.095  30.352  1.00  0.00     0.173 A 
ATOM     75  F   UNL A   1      39.228  29.490  26.924  1.00  0.00    -0.203 F 
ATOM     76  C   UNL A   1      37.081  29.756  27.848  1.00  0.00     0.198 A 
ATOM     77  C   UNL A   1      36.727  29.379  30.192  1.00  0.00     0.198 A 
ATOM     78  F   UNL A   1      38.533  28.790  31.578  1.00  0.00    -0.203 F 
ATOM     79  F   UNL A   1      36.610  30.113  26.647  1.00  0.00    -0.200 F 
ATOM     80  C   UNL A   1      36.230  29.719  28.943  1.00  0.00     0.200 A 
ATOM     81  F   UNL A   1      35.904  29.332  31.249  1.00  0.00    -0.200 F 
ATOM     82  F   UNL A   1      34.933  30.020  28.795  1.00  0.00    -0.200 F 
ENDBRANCH  58  72
BRANCH  59  83
ATOM     83  C   UNL A   1      48.621  26.674  29.922  1.00  0.00     0.064 A 
ATOM     84  C   UNL A   1      49.102  25.947  31.020  1.00  0.00     0.173 A 
ATOM     85  C   UNL A   1      49.542  27.055  28.937  1.00  0.00     0.173 A 
ATOM     86  F   UNL A   1      48.262  25.578  31.998  1.00  0.00    -0.203 F 
ATOM     87  C   UNL A   1      50.454  25.634  31.141  1.00  0.00     0.198 A 
ATOM     88  C   UNL A   1      50.890  26.718  29.045  1.00  0.00     0.198 A 
ATOM     89  F   UNL A   1      49.131  27.746  27.864  1.00  0.00    -0.203 F 
ATOM     90  F   UNL A   1      50.894  24.979  32.223  1.00  0.00    -0.200 F 
ATOM     91  C   UNL A   1      51.347  26.015  30.150  1.00  0.00     0.200 A 
ATOM     92  F   UNL A   1      51.747  27.075  28.078  1.00  0.00    -0.200 F 
ATOM     93  F   UNL A   1      52.646  25.711  30.264  1.00  0.00    -0.200 F 
ENDBRANCH  59  83
BRANCH  71  94
ATOM     94  C   UNL A   1      44.898  32.187  31.976  1.00  0.00     0.064 A 
ATOM     95  C   UNL A   1      44.683  32.333  33.354  1.00  0.00     0.173 A 
ATOM     96  C   UNL A   1      45.508  33.250  31.289  1.00  0.00     0.173 A 
ATOM     97  F   UNL A   1      44.091  31.353  34.052  1.00  0.00    -0.203 F 
ATOM     98  C   UNL A   1      45.038  33.508  34.012  1.00  0.00     0.198 A 
ATOM     99  C   UNL A   1      45.889  34.409  31.957  1.00  0.00     0.198 A 
ATOM    100  F   UNL A   1      45.743  33.157  29.972  1.00  0.00    -0.203 F 
ATOM    101  F   UNL A   1      44.775  33.646  35.319  1.00  0.00    -0.200 F 
ATOM    102  C   UNL A   1      45.645  34.542  33.315  1.00  0.00     0.200 A 
ATOM    103  F   UNL A   1      46.489  35.402  31.284  1.00  0.00    -0.200 F 
ATOM    104  F   UNL A   1      45.990  35.670  33.952  1.00  0.00    -0.200 F 
ENDBRANCH  71  94
ENDBRANCH  45  46
ENDBRANCH  37  40
ENDBRANCH  35  36
ENDBRANCH  34  35
ENDBRANCH  33  34
ENDBRANCH   1  33
TORSDOF 16
ENDMDL
MODEL 2
REMARK VINA RESULT:      -9.1      4.029      8.923
REMARK SMILES C[C@H](C(=O)NCCCCCCNC(=O)c1ccc(-c2c3nc(c(-c4c(F)c(F)c(F)c(F)c4F)c4ccc([nH]4)c(-c4c(F)c(F)c(F)c(F)c4F)c4nc(c(-c5c(F)c(F)c(F)c(F)c5F)c5ccc2[nH]5)C=C4)C=C3)cc1)c1ccc2c3cc(Cl)ccc3n(C(=O)c3ccc(Cl)cc3)c2c1
REMARK SMILES IDX 8 1 7 2 6 3 5 4 3 5 4 6 2 8 1 9 78 10 79 11 100 12 80 13
REMARK SMILES IDX 99 14 81 15 89 16 82 17 88 18 83 19 87 20 84 21 86 22 85 23
REMARK SMILES IDX 90 24 91 25 92 26 93 27 98 28 94 29 97 30 95 31 96 32 9 33
REMARK SMILES IDX 10 34 11 35 12 36 13 37 14 39 15 40 16 41 77 42 17 43 76 44
REMARK SMILES IDX 18 45 19 46 20 47 70 48 21 49 75 50 69 51 71 52 22 53 74 54
REMARK SMILES IDX 68 55 67 56 23 58 55 59 35 60 54 61 36 62 39 63 53 64 72 65
REMARK SMILES IDX 37 66 38 67 52 69 73 70 40 71 24 72 25 73 33 74 26 75 27 76
REMARK SMILES IDX 31 77 34 78 28 79 29 80 32 81 30 82 56 83 57 84 65 85 58 86
REMARK SMILES IDX 59 87 63 88 66 89 60 90 61 91 64 92 62 93 41 94 42 95 50 96
REMARK SMILES IDX 43 97 44 98 48 99 51 100 45 101 46 102 49 103 47 104
REMARK H PARENT 5 7 12 38 71 57 39 68
REMARK Flexibility Score: inf
ROOT
ATOM      1  C   UNL A   1      44.087  24.355  24.831  1.00  0.00     0.002 C 
ENDROOT
BRANCH   1   2
ATOM      2  C   UNL A   1      42.642  24.592  25.277  1.00  0.00     0.021 C 
BRANCH   2   3
ATOM      3  C   UNL A   1      42.483  25.195  26.677  1.00  0.00     0.116 C 
BRANCH   3   4
ATOM      4  N   UNL A   1      41.081  25.405  26.991  1.00  0.00    -0.356 N 
ATOM      5  C   UNL A   1      40.415  26.451  27.557  1.00  0.00     0.227 C 
ATOM      6  O   UNL A   1      39.224  26.235  27.815  1.00  0.00    -0.274 OA
ATOM      7  H   UNL A   1      40.501  24.648  26.748  1.00  0.00     0.163 HD
BRANCH   5   8
ATOM      8  C   UNL A   1      41.017  27.861  27.744  1.00  0.00     0.105 C 
ATOM      9  C   UNL A   1      40.634  28.741  26.542  1.00  0.00     0.023 C 
BRANCH   8  10
ATOM     10  C   UNL A   1      40.662  28.606  29.020  1.00  0.00    -0.034 A 
ATOM     11  C   UNL A   1      41.101  28.138  30.260  1.00  0.00     0.005 A 
ATOM     12  C   UNL A   1      39.864  29.754  28.967  1.00  0.00     0.032 A 
ATOM     13  C   UNL A   1      40.684  28.752  31.446  1.00  0.00     0.011 A 
ATOM     14  C   UNL A   1      39.338  30.291  30.159  1.00  0.00     0.057 A 
ATOM     15  C   UNL A   1      39.757  29.817  31.396  1.00  0.00     0.008 A 
ATOM     16  N   UNL A   1      38.357  31.281  30.363  1.00  0.00    -0.276 N 
ATOM     17  C   UNL A   1      39.063  30.554  32.391  1.00  0.00     0.009 A 
ATOM     18  C   UNL A   1      38.134  31.386  31.747  1.00  0.00     0.057 A 
ATOM     19  C   UNL A   1      39.106  30.505  33.803  1.00  0.00     0.031 A 
ATOM     20  C   UNL A   1      37.164  32.075  32.505  1.00  0.00     0.029 A 
ATOM     21  C   UNL A   1      38.189  31.244  34.544  1.00  0.00     0.041 A 
ATOM     22  C   UNL A   1      37.217  32.001  33.905  1.00  0.00     0.023 A 
ATOM     23  Cl  UNL A   1      38.238  31.177  36.262  1.00  0.00    -0.084 Cl
BRANCH  16  24
ATOM     24  C   UNL A   1      37.679  31.929  29.293  1.00  0.00     0.262 C 
ATOM     25  O   UNL A   1      38.126  33.024  28.943  1.00  0.00    -0.268 OA
BRANCH  24  26
ATOM     26  C   UNL A   1      36.484  31.518  28.521  1.00  0.00     0.040 A 
ATOM     27  C   UNL A   1      35.430  32.454  28.449  1.00  0.00     0.015 A 
ATOM     28  C   UNL A   1      36.272  30.218  28.058  1.00  0.00     0.015 A 
ATOM     29  C   UNL A   1      34.184  32.098  27.937  1.00  0.00     0.021 A 
ATOM     30  C   UNL A   1      35.025  29.872  27.514  1.00  0.00     0.021 A 
ATOM     31  C   UNL A   1      33.986  30.804  27.473  1.00  0.00     0.041 A 
ATOM     32  Cl  UNL A   1      32.438  30.343  26.885  1.00  0.00    -0.084 Cl
ENDBRANCH  24  26
ENDBRANCH  16  24
ENDBRANCH   8  10
ENDBRANCH   5   8
ENDBRANCH   3   4
ENDBRANCH   2   3
ENDBRANCH   1   2
BRANCH   1  33
ATOM     33  C   UNL A   1      44.833  23.260  25.596  1.00  0.00     0.002 C 
BRANCH  33  34
ATOM     34  C   UNL A   1      46.348  23.223  25.376  1.00  0.00     0.021 C 
BRANCH  34  35
ATOM     35  C   UNL A   1      47.098  24.469  25.845  1.00  0.00     0.116 C 
BRANCH  35  36
ATOM     36  N   UNL A   1      47.389  25.375  24.746  1.00  0.00    -0.352 N 
ATOM     37  C   UNL A   1      47.071  26.700  24.588  1.00  0.00     0.251 C 
ATOM     38  H   UNL A   1      47.893  24.976  24.000  1.00  0.00     0.163 HD
ATOM     39  O   UNL A   1      47.211  27.236  23.493  1.00  0.00    -0.269 OA
BRANCH  37  40
ATOM     40  C   UNL A   1      46.559  27.493  25.728  1.00  0.00     0.039 A 
ATOM     41  C   UNL A   1      45.177  27.635  25.881  1.00  0.00     0.014 A 
ATOM     42  C   UNL A   1      47.431  28.148  26.604  1.00  0.00     0.014 A 
ATOM     43  C   UNL A   1      44.669  28.405  26.929  1.00  0.00     0.010 A 
ATOM     44  C   UNL A   1      46.922  28.859  27.689  1.00  0.00     0.010 A 
ATOM     45  C   UNL A   1      45.537  29.010  27.852  1.00  0.00    -0.014 A 
BRANCH  45  46
ATOM     46  C   UNL A   1      45.012  29.837  28.968  1.00  0.00     0.031 A 
ATOM     47  C   UNL A   1      44.702  29.203  30.297  1.00  0.00     0.074 A 
ATOM     48  C   UNL A   1      44.773  31.148  28.774  1.00  0.00     0.049 A 
ATOM     49  N   UNL A   1      44.207  29.746  31.380  1.00  0.00    -0.248 NA
ATOM     50  C   UNL A   1      44.959  27.760  30.415  1.00  0.00     0.031 C 
ATOM     51  C   UNL A   1      44.991  31.870  27.519  1.00  0.00     0.029 A 
ATOM     52  N   UNL A   1      44.289  32.106  29.629  1.00  0.00    -0.354 N 
ATOM     53  C   UNL A   1      44.072  28.710  32.295  1.00  0.00     0.074 A 
ATOM     54  C   UNL A   1      44.491  27.498  31.626  1.00  0.00     0.031 C 
ATOM     55  C   UNL A   1      44.672  33.162  27.695  1.00  0.00     0.029 A 
ATOM     56  C   UNL A   1      44.197  33.353  29.063  1.00  0.00     0.049 A 
ATOM     57  H   UNL A   1      44.032  31.916  30.560  1.00  0.00     0.167 HD
ATOM     58  C   UNL A   1      43.659  28.768  33.584  1.00  0.00     0.037 A 
ATOM     59  C   UNL A   1      43.779  34.519  29.591  1.00  0.00     0.037 A 
ATOM     60  C   UNL A   1      43.280  29.982  34.258  1.00  0.00     0.049 A 
ATOM     61  C   UNL A   1      43.335  34.558  31.028  1.00  0.00     0.074 A 
ATOM     62  C   UNL A   1      42.920  30.159  35.583  1.00  0.00     0.029 A 
ATOM     63  N   UNL A   1      43.215  31.230  33.656  1.00  0.00    -0.354 N 
ATOM     64  N   UNL A   1      43.285  33.587  31.907  1.00  0.00    -0.248 NA
ATOM     65  C   UNL A   1      42.899  35.861  31.549  1.00  0.00     0.031 C 
ATOM     66  C   UNL A   1      42.590  31.507  35.770  1.00  0.00     0.029 A 
ATOM     67  C   UNL A   1      42.797  32.179  34.576  1.00  0.00     0.049 A 
ATOM     68  H   UNL A   1      43.432  31.416  32.714  1.00  0.00     0.167 HD
ATOM     69  C   UNL A   1      42.848  34.165  33.091  1.00  0.00     0.074 A 
ATOM     70  C   UNL A   1      42.657  35.576  32.820  1.00  0.00     0.031 C 
ATOM     71  C   UNL A   1      42.625  33.581  34.295  1.00  0.00     0.037 A 
BRANCH  58  72
ATOM     72  C   UNL A   1      43.591  27.478  34.351  1.00  0.00     0.064 A 
ATOM     73  C   UNL A   1      44.737  26.887  34.906  1.00  0.00     0.173 A 
ATOM     74  C   UNL A   1      42.360  26.837  34.556  1.00  0.00     0.173 A 
ATOM     75  F   UNL A   1      45.941  27.451  34.730  1.00  0.00    -0.203 F 
ATOM     76  C   UNL A   1      44.657  25.684  35.605  1.00  0.00     0.198 A 
ATOM     77  C   UNL A   1      42.279  25.652  35.284  1.00  0.00     0.198 A 
ATOM     78  F   UNL A   1      41.232  27.361  34.053  1.00  0.00    -0.203 F 
ATOM     79  F   UNL A   1      45.772  25.110  36.076  1.00  0.00    -0.200 F 
ATOM     80  C   UNL A   1      43.428  25.072  35.799  1.00  0.00     0.200 A 
ATOM     81  F   UNL A   1      41.089  25.068  35.480  1.00  0.00    -0.200 F 
ATOM     82  F   UNL A   1      43.352  23.917  36.475  1.00  0.00    -0.200 F 
ENDBRANCH  58  72
BRANCH  59  83
ATOM     83  C   UNL A   1      43.806  35.758  28.770  1.00  0.00     0.064 A 
ATOM     84  C   UNL A   1      44.959  36.553  28.713  1.00  0.00     0.173 A 
ATOM     85  C   UNL A   1      42.688  36.175  28.035  1.00  0.00     0.173 A 
ATOM     86  F   UNL A   1      46.047  36.205  29.417  1.00  0.00    -0.203 F 
ATOM     87  C   UNL A   1      44.987  37.730  27.968  1.00  0.00     0.198 A 
ATOM     88  C   UNL A   1      42.726  37.338  27.268  1.00  0.00     0.198 A 
ATOM     89  F   UNL A   1      41.562  35.447  28.051  1.00  0.00    -0.203 F 
ATOM     90  F   UNL A   1      46.088  38.494  27.968  1.00  0.00    -0.200 F 
ATOM     91  C   UNL A   1      43.872  38.119  27.241  1.00  0.00     0.200 A 
ATOM     92  F   UNL A   1      41.651  37.703  26.556  1.00  0.00    -0.200 F 
ATOM     93  F   UNL A   1      43.900  39.249  26.523  1.00  0.00    -0.200 F 
ENDBRANCH  59  83
BRANCH  71  94
ATOM     94  C   UNL A   1      42.198  34.475  35.422  1.00  0.00     0.064 A 
ATOM     95  C   UNL A   1      40.845  34.687  35.726  1.00  0.00     0.173 A 
ATOM     96  C   UNL A   1      43.159  35.106  36.228  1.00  0.00     0.173 A 
ATOM     97  F   UNL A   1      39.889  34.118  34.976  1.00  0.00    -0.203 F 
ATOM     98  C   UNL A   1      40.470  35.520  36.776  1.00  0.00     0.198 A 
ATOM     99  C   UNL A   1      42.780  35.913  37.296  1.00  0.00     0.198 A 
ATOM    100  F   UNL A   1      44.466  34.930  35.985  1.00  0.00    -0.203 F 
ATOM    101  F   UNL A   1      39.171  35.749  37.016  1.00  0.00    -0.200 F 
ATOM    102  C   UNL A   1      41.437  36.127  37.564  1.00  0.00     0.200 A 
ATOM    103  F   UNL A   1      43.716  36.487  38.066  1.00  0.00    -0.200 F 
ATOM    104  F   UNL A   1      41.073  36.925  38.578  1.00  0.00    -0.200 F 
ENDBRANCH  71  94
ENDBRANCH  45  46
ENDBRANCH  37  40
ENDBRANCH  35  36
ENDBRANCH  34  35
ENDBRANCH  33  34
ENDBRANCH   1  33
TORSDOF 16
ENDMDL
MODEL 3
REMARK VINA RESULT:      -9.0      8.265     13.576
REMARK SMILES C[C@H](C(=O)NCCCCCCNC(=O)c1ccc(-c2c3nc(c(-c4c(F)c(F)c(F)c(F)c4F)c4ccc([nH]4)c(-c4c(F)c(F)c(F)c(F)c4F)c4nc(c(-c5c(F)c(F)c(F)c(F)c5F)c5ccc2[nH]5)C=C4)C=C3)cc1)c1ccc2c3cc(Cl)ccc3n(C(=O)c3ccc(Cl)cc3)c2c1
REMARK SMILES IDX 8 1 7 2 6 3 5 4 3 5 4 6 2 8 1 9 78 10 79 11 100 12 80 13
REMARK SMILES IDX 99 14 81 15 89 16 82 17 88 18 83 19 87 20 84 21 86 22 85 23
REMARK SMILES IDX 90 24 91 25 92 26 93 27 98 28 94 29 97 30 95 31 96 32 9 33
REMARK SMILES IDX 10 34 11 35 12 36 13 37 14 39 15 40 16 41 77 42 17 43 76 44
REMARK SMILES IDX 18 45 19 46 20 47 70 48 21 49 75 50 69 51 71 52 22 53 74 54
REMARK SMILES IDX 68 55 67 56 23 58 55 59 35 60 54 61 36 62 39 63 53 64 72 65
REMARK SMILES IDX 37 66 38 67 52 69 73 70 40 71 24 72 25 73 33 74 26 75 27 76
REMARK SMILES IDX 31 77 34 78 28 79 29 80 32 81 30 82 56 83 57 84 65 85 58 86
REMARK SMILES IDX 59 87 63 88 66 89 60 90 61 91 64 92 62 93 41 94 42 95 50 96
REMARK SMILES IDX 43 97 44 98 48 99 51 100 45 101 46 102 49 103 47 104
REMARK H PARENT 5 7 12 38 71 57 39 68
REMARK Flexibility Score: inf
ROOT
ATOM      1  C   UNL A   1      51.026  22.508  36.174  1.00  0.00     0.002 C 
ENDROOT
BRANCH   1   2
ATOM      2  C   UNL A   1      51.293  21.010  36.006  1.00  0.00     0.021 C 
BRANCH   2   3
ATOM      3  C   UNL A   1      50.129  20.093  36.393  1.00  0.00     0.116 C 
BRANCH   3   4
ATOM      4  N   UNL A   1      49.100  20.105  35.369  1.00  0.00    -0.356 N 
ATOM      5  C   UNL A   1      47.740  20.087  35.435  1.00  0.00     0.227 C 
ATOM      6  O   UNL A   1      47.164  19.956  34.347  1.00  0.00    -0.274 OA
ATOM      7  H   UNL A   1      49.454  20.131  34.451  1.00  0.00     0.163 HD
BRANCH   5   8
ATOM      8  C   UNL A   1      46.932  20.355  36.724  1.00  0.00     0.105 C 
ATOM      9  C   UNL A   1      45.889  21.451  36.453  1.00  0.00     0.023 C 
BRANCH   8  10
ATOM     10  C   UNL A   1      46.231  19.169  37.365  1.00  0.00    -0.034 A 
ATOM     11  C   UNL A   1      45.273  18.442  36.655  1.00  0.00     0.005 A 
ATOM     12  C   UNL A   1      46.517  18.812  38.687  1.00  0.00     0.032 A 
ATOM     13  C   UNL A   1      44.542  17.422  37.275  1.00  0.00     0.011 A 
ATOM     14  C   UNL A   1      45.693  17.878  39.350  1.00  0.00     0.057 A 
ATOM     15  C   UNL A   1      44.726  17.166  38.651  1.00  0.00     0.008 A 
ATOM     16  N   UNL A   1      45.629  17.516  40.709  1.00  0.00    -0.276 N 
ATOM     17  C   UNL A   1      44.077  16.309  39.580  1.00  0.00     0.009 A 
ATOM     18  C   UNL A   1      44.574  16.601  40.860  1.00  0.00     0.057 A 
ATOM     19  C   UNL A   1      43.038  15.364  39.424  1.00  0.00     0.031 A 
ATOM     20  C   UNL A   1      43.952  16.044  41.997  1.00  0.00     0.029 A 
ATOM     21  C   UNL A   1      42.478  14.768  40.549  1.00  0.00     0.041 A 
ATOM     22  C   UNL A   1      42.912  15.119  41.820  1.00  0.00     0.023 A 
ATOM     23  Cl  UNL A   1      41.208  13.623  40.358  1.00  0.00    -0.084 Cl
BRANCH  16  24
ATOM     24  C   UNL A   1      46.451  18.111  41.707  1.00  0.00     0.262 C 
ATOM     25  O   UNL A   1      47.662  17.890  41.623  1.00  0.00    -0.268 OA
BRANCH  24  26
ATOM     26  C   UNL A   1      46.094  18.952  42.872  1.00  0.00     0.040 A 
ATOM     27  C   UNL A   1      46.855  18.756  44.045  1.00  0.00     0.015 A 
ATOM     28  C   UNL A   1      44.949  19.748  42.931  1.00  0.00     0.015 A 
ATOM     29  C   UNL A   1      46.475  19.331  45.256  1.00  0.00     0.021 A 
ATOM     30  C   UNL A   1      44.586  20.351  44.144  1.00  0.00     0.021 A 
ATOM     31  C   UNL A   1      45.338  20.127  45.301  1.00  0.00     0.041 A 
ATOM     32  Cl  UNL A   1      44.834  20.800  46.800  1.00  0.00    -0.084 Cl
ENDBRANCH  24  26
ENDBRANCH  16  24
ENDBRANCH   8  10
ENDBRANCH   5   8
ENDBRANCH   3   4
ENDBRANCH   2   3
ENDBRANCH   1   2
BRANCH   1  33
ATOM     33  C   UNL A   1      50.796  23.278  34.872  1.00  0.00     0.002 C 
BRANCH  33  34
ATOM     34  C   UNL A   1      49.341  23.349  34.401  1.00  0.00     0.021 C 
BRANCH  34  35
ATOM     35  C   UNL A   1      48.639  24.678  34.677  1.00  0.00     0.116 C 
BRANCH  35  36
ATOM     36  N   UNL A   1      48.339  24.853  36.089  1.00  0.00    -0.352 N 
ATOM     37  C   UNL A   1      47.380  25.622  36.698  1.00  0.00     0.251 C 
ATOM     38  H   UNL A   1      48.915  24.341  36.703  1.00  0.00     0.163 HD
ATOM     39  O   UNL A   1      47.427  25.811  37.910  1.00  0.00    -0.269 OA
BRANCH  37  40
ATOM     40  C   UNL A   1      46.286  26.226  35.907  1.00  0.00     0.039 A 
ATOM     41  C   UNL A   1      46.504  27.461  35.290  1.00  0.00     0.014 A 
ATOM     42  C   UNL A   1      45.029  25.617  35.826  1.00  0.00     0.014 A 
ATOM     43  C   UNL A   1      45.477  28.068  34.565  1.00  0.00     0.010 A 
ATOM     44  C   UNL A   1      44.027  26.190  35.045  1.00  0.00     0.010 A 
ATOM     45  C   UNL A   1      44.235  27.430  34.423  1.00  0.00    -0.014 A 
BRANCH  45  46
ATOM     46  C   UNL A   1      43.131  28.066  33.661  1.00  0.00     0.031 A 
ATOM     47  C   UNL A   1      42.932  27.741  32.205  1.00  0.00     0.074 A 
ATOM     48  C   UNL A   1      42.334  28.969  34.264  1.00  0.00     0.049 A 
ATOM     49  N   UNL A   1      42.051  28.215  31.361  1.00  0.00    -0.248 NA
ATOM     50  C   UNL A   1      43.867  26.771  31.613  1.00  0.00     0.031 C 
ATOM     51  C   UNL A   1      42.453  29.401  35.657  1.00  0.00     0.029 A 
ATOM     52  N   UNL A   1      41.270  29.689  33.781  1.00  0.00    -0.354 N 
ATOM     53  C   UNL A   1      42.340  27.622  30.139  1.00  0.00     0.074 A 
ATOM     54  C   UNL A   1      43.507  26.790  30.338  1.00  0.00     0.031 C 
ATOM     55  C   UNL A   1      41.480  30.287  35.926  1.00  0.00     0.029 A 
ATOM     56  C   UNL A   1      40.691  30.510  34.717  1.00  0.00     0.049 A 
ATOM     57  H   UNL A   1      40.953  29.623  32.852  1.00  0.00     0.167 HD
ATOM     58  C   UNL A   1      41.678  27.741  28.963  1.00  0.00     0.037 A 
ATOM     59  C   UNL A   1      39.641  31.345  34.610  1.00  0.00     0.037 A 
ATOM     60  C   UNL A   1      40.494  28.538  28.779  1.00  0.00     0.049 A 
ATOM     61  C   UNL A   1      38.917  31.450  33.296  1.00  0.00     0.074 A 
ATOM     62  C   UNL A   1      39.705  28.666  27.649  1.00  0.00     0.029 A 
ATOM     63  N   UNL A   1      39.927  29.344  29.755  1.00  0.00    -0.354 N 
ATOM     64  N   UNL A   1      39.151  30.826  32.167  1.00  0.00    -0.248 NA
ATOM     65  C   UNL A   1      37.772  32.372  33.245  1.00  0.00     0.031 C 
ATOM     66  C   UNL A   1      38.688  29.586  27.927  1.00  0.00     0.029 A 
ATOM     67  C   UNL A   1      38.812  29.991  29.246  1.00  0.00     0.049 A 
ATOM     68  H   UNL A   1      40.267  29.444  30.674  1.00  0.00     0.167 HD
ATOM     69  C   UNL A   1      38.167  31.249  31.285  1.00  0.00     0.074 A 
ATOM     70  C   UNL A   1      37.325  32.177  32.013  1.00  0.00     0.031 C 
ATOM     71  C   UNL A   1      37.976  30.901  29.988  1.00  0.00     0.037 A 
BRANCH  58  72
ATOM     72  C   UNL A   1      42.222  26.992  27.780  1.00  0.00     0.064 A 
ATOM     73  C   UNL A   1      43.113  27.589  26.873  1.00  0.00     0.173 A 
ATOM     74  C   UNL A   1      41.869  25.652  27.562  1.00  0.00     0.173 A 
ATOM     75  F   UNL A   1      43.474  28.872  27.026  1.00  0.00    -0.203 F 
ATOM     76  C   UNL A   1      43.600  26.883  25.775  1.00  0.00     0.198 A 
ATOM     77  C   UNL A   1      42.383  24.939  26.482  1.00  0.00     0.198 A 
ATOM     78  F   UNL A   1      41.026  25.030  28.401  1.00  0.00    -0.203 F 
ATOM     79  F   UNL A   1      44.403  27.492  24.893  1.00  0.00    -0.200 F 
ATOM     80  C   UNL A   1      43.240  25.558  25.585  1.00  0.00     0.200 A 
ATOM     81  F   UNL A   1      42.043  23.654  26.306  1.00  0.00    -0.200 F 
ATOM     82  F   UNL A   1      43.712  24.878  24.530  1.00  0.00    -0.200 F 
ENDBRANCH  58  72
BRANCH  59  83
ATOM     83  C   UNL A   1      39.179  32.112  35.796  1.00  0.00     0.064 A 
ATOM     84  C   UNL A   1      38.316  31.529  36.734  1.00  0.00     0.173 A 
ATOM     85  C   UNL A   1      39.582  33.437  36.015  1.00  0.00     0.173 A 
ATOM     86  F   UNL A   1      37.887  30.271  36.556  1.00  0.00    -0.203 F 
ATOM     87  C   UNL A   1      37.855  32.248  37.835  1.00  0.00     0.198 A 
ATOM     88  C   UNL A   1      39.143  34.147  37.131  1.00  0.00     0.198 A 
ATOM     89  F   UNL A   1      40.412  34.039  35.151  1.00  0.00    -0.203 F 
ATOM     90  F   UNL A   1      36.995  31.680  38.691  1.00  0.00    -0.200 F 
ATOM     91  C   UNL A   1      38.274  33.555  38.036  1.00  0.00     0.200 A 
ATOM     92  F   UNL A   1      39.560  35.405  37.330  1.00  0.00    -0.200 F 
ATOM     93  F   UNL A   1      37.833  34.245  39.097  1.00  0.00    -0.200 F 
ENDBRANCH  59  83
BRANCH  71  94
ATOM     94  C   UNL A   1      36.784  31.487  29.288  1.00  0.00     0.064 A 
ATOM     95  C   UNL A   1      36.735  32.838  28.918  1.00  0.00     0.173 A 
ATOM     96  C   UNL A   1      35.688  30.674  28.959  1.00  0.00     0.173 A 
ATOM     97  F   UNL A   1      37.752  33.659  29.224  1.00  0.00    -0.203 F 
ATOM     98  C   UNL A   1      35.620  33.361  28.269  1.00  0.00     0.198 A 
ATOM     99  C   UNL A   1      34.589  31.195  28.282  1.00  0.00     0.198 A 
ATOM    100  F   UNL A   1      35.688  29.373  29.283  1.00  0.00    -0.203 F 
ATOM    101  F   UNL A   1      35.573  34.668  27.971  1.00  0.00    -0.200 F 
ATOM    102  C   UNL A   1      34.551  32.539  27.947  1.00  0.00     0.200 A 
ATOM    103  F   UNL A   1      33.562  30.394  27.959  1.00  0.00    -0.200 F 
ATOM    104  F   UNL A   1      33.481  33.044  27.318  1.00  0.00    -0.200 F 
ENDBRANCH  71  94
ENDBRANCH  45  46
ENDBRANCH  37  40
ENDBRANCH  35  36
ENDBRANCH  34  35
ENDBRANCH  33  34
ENDBRANCH   1  33
TORSDOF 16
ENDMDL
