MODEL 1
REMARK VINA RESULT:     -11.7      0.000      0.000
REMARK SMILES CC[C@@](O)(C(=O)NCCCCCCNC(=O)c1ccc(-c2c3nc(c(-c4c(F)c(F)c(F)c(F)c4F)c4ccc([nH]4)c(-c4c(F)c(F)c(F)c(F)c4F)c4nc(c(-c5c(F)c(F)c(F)c(F)c5F)c5ccc2[nH]5)C=C4)C=C3)cc1)[C@H]1CCc2ccc(OC)cc21
REMARK SMILES IDX 10 1 9 2 8 3 7 4 5 5 6 6 3 8 2 9 1 10 4 11 80 13 81 14 90 15
REMARK SMILES IDX 82 16 83 17 89 18 84 19 86 20 85 21 87 22 88 23 11 24 12 25
REMARK SMILES IDX 13 26 14 27 15 28 16 30 17 31 18 32 79 33 19 34 78 35 20 36
REMARK SMILES IDX 21 37 22 38 72 39 23 40 77 41 71 42 73 43 24 44 76 45 70 46
REMARK SMILES IDX 69 47 25 49 57 50 37 51 56 52 38 53 41 54 55 55 74 56 39 57
REMARK SMILES IDX 40 58 54 60 75 61 42 62 26 63 27 64 35 65 28 66 29 67 33 68
REMARK SMILES IDX 36 69 30 70 31 71 34 72 32 73 58 74 59 75 67 76 60 77 61 78
REMARK SMILES IDX 65 79 68 80 62 81 63 82 66 83 64 84 43 85 44 86 52 87 45 88
REMARK SMILES IDX 46 89 50 90 53 91 47 92 48 93 51 94 49 95
REMARK H PARENT 7 7 4 12 14 29 73 48 41 59
REMARK Flexibility Score: inf
ROOT
ATOM      1  C   UNL A   1      37.516  22.264  24.998  1.00  0.00     0.002 C 
ENDROOT
BRANCH   1   2
ATOM      2  C   UNL A   1      36.455  23.364  24.848  1.00  0.00     0.021 C 
BRANCH   2   3
ATOM      3  C   UNL A   1      35.353  23.036  23.844  1.00  0.00     0.116 C 
BRANCH   3   4
ATOM      4  N   UNL A   1      34.090  23.645  24.202  1.00  0.00    -0.354 N 
ATOM      5  C   UNL A   1      33.006  23.272  24.922  1.00  0.00     0.252 C 
ATOM      6  O   UNL A   1      32.155  24.168  25.035  1.00  0.00    -0.272 OA
ATOM      7  H   UNL A   1      33.996  24.553  23.832  1.00  0.00     0.163 HD
BRANCH   5   8
ATOM      8  C   UNL A   1      32.775  21.886  25.627  1.00  0.00     0.149 C 
BRANCH   8   9
ATOM      9  C   UNL A   1      33.990  21.257  26.331  1.00  0.00     0.043 C 
ATOM     10  C   UNL A   1      34.408  21.848  27.672  1.00  0.00     0.007 C 
ENDBRANCH   8   9
BRANCH   8  11
ATOM     11  O   UNL A   1      31.823  22.193  26.678  1.00  0.00    -0.379 OA
ATOM     12  H   UNL A   1      32.149  22.941  27.200  1.00  0.00     0.212 HD
ENDBRANCH   8  11
BRANCH   8  13
ATOM     13  C   UNL A   1      32.054  20.997  24.559  1.00  0.00     0.061 C 
ATOM     14  C   UNL A   1      32.263  21.503  23.107  1.00  0.00     0.017 C 
ATOM     15  C   UNL A   1      32.432  19.540  24.410  1.00  0.00    -0.035 A 
ATOM     16  C   UNL A   1      32.037  20.303  22.183  1.00  0.00     0.036 C 
ATOM     17  C   UNL A   1      32.480  19.176  23.059  1.00  0.00    -0.044 A 
ATOM     18  C   UNL A   1      32.624  18.583  25.400  1.00  0.00     0.050 A 
ATOM     19  C   UNL A   1      32.824  17.892  22.672  1.00  0.00     0.008 A 
ATOM     20  C   UNL A   1      32.951  17.276  25.025  1.00  0.00     0.119 A 
ATOM     21  C   UNL A   1      33.088  16.949  23.667  1.00  0.00     0.047 A 
BRANCH  20  22
ATOM     22  O   UNL A   1      33.178  16.244  25.897  1.00  0.00    -0.497 OA
ATOM     23  C   UNL A   1      32.691  14.973  25.477  1.00  0.00     0.278 C 
ENDBRANCH  20  22
ENDBRANCH   8  13
ENDBRANCH   5   8
ENDBRANCH   3   4
ENDBRANCH   2   3
ENDBRANCH   1   2
BRANCH   1  24
ATOM     24  C   UNL A   1      37.094  20.866  24.530  1.00  0.00     0.002 C 
BRANCH  24  25
ATOM     25  C   UNL A   1      38.028  19.725  24.939  1.00  0.00     0.021 C 
BRANCH  25  26
ATOM     26  C   UNL A   1      39.118  20.122  25.929  1.00  0.00     0.116 C 
BRANCH  26  27
ATOM     27  N   UNL A   1      40.191  19.144  25.973  1.00  0.00    -0.352 N 
ATOM     28  C   UNL A   1      41.545  19.342  26.073  1.00  0.00     0.251 C 
ATOM     29  H   UNL A   1      39.905  18.203  25.924  1.00  0.00     0.163 HD
ATOM     30  O   UNL A   1      42.321  18.413  25.873  1.00  0.00    -0.269 OA
BRANCH  28  31
ATOM     31  C   UNL A   1      42.075  20.681  26.410  1.00  0.00     0.039 A 
ATOM     32  C   UNL A   1      42.353  21.578  25.376  1.00  0.00     0.014 A 
ATOM     33  C   UNL A   1      42.322  21.042  27.739  1.00  0.00     0.014 A 
ATOM     34  C   UNL A   1      42.834  22.854  25.677  1.00  0.00     0.010 A 
ATOM     35  C   UNL A   1      42.733  22.337  28.041  1.00  0.00     0.010 A 
ATOM     36  C   UNL A   1      43.002  23.253  27.013  1.00  0.00    -0.014 A 
BRANCH  36  37
ATOM     37  C   UNL A   1      43.470  24.621  27.352  1.00  0.00     0.031 A 
ATOM     38  C   UNL A   1      42.509  25.632  27.913  1.00  0.00     0.074 A 
ATOM     39  C   UNL A   1      44.747  24.969  27.101  1.00  0.00     0.049 A 
ATOM     40  N   UNL A   1      42.711  26.890  28.213  1.00  0.00    -0.248 NA
ATOM     41  C   UNL A   1      41.128  25.177  28.139  1.00  0.00     0.031 C 
ATOM     42  C   UNL A   1      45.761  24.092  26.515  1.00  0.00     0.029 A 
ATOM     43  N   UNL A   1      45.407  26.156  27.297  1.00  0.00    -0.354 N 
ATOM     44  C   UNL A   1      41.485  27.376  28.649  1.00  0.00     0.074 A 
ATOM     45  C   UNL A   1      40.532  26.296  28.523  1.00  0.00     0.031 C 
ATOM     46  C   UNL A   1      46.919  24.764  26.417  1.00  0.00     0.029 A 
ATOM     47  C   UNL A   1      46.721  26.127  26.899  1.00  0.00     0.049 A 
ATOM     48  H   UNL A   1      44.979  26.953  27.687  1.00  0.00     0.167 HD
ATOM     49  C   UNL A   1      41.187  28.606  29.131  1.00  0.00     0.037 A 
ATOM     50  C   UNL A   1      47.658  27.095  26.914  1.00  0.00     0.037 A 
ATOM     51  C   UNL A   1      42.146  29.671  29.279  1.00  0.00     0.049 A 
ATOM     52  C   UNL A   1      47.302  28.452  27.459  1.00  0.00     0.074 A 
ATOM     53  C   UNL A   1      41.959  30.932  29.817  1.00  0.00     0.029 A 
ATOM     54  N   UNL A   1      43.474  29.597  28.886  1.00  0.00    -0.354 N 
ATOM     55  N   UNL A   1      46.157  28.878  27.932  1.00  0.00    -0.248 NA
ATOM     56  C   UNL A   1      48.372  29.458  27.478  1.00  0.00     0.031 C 
ATOM     57  C   UNL A   1      43.161  31.639  29.704  1.00  0.00     0.029 A 
ATOM     58  C   UNL A   1      44.113  30.799  29.148  1.00  0.00     0.049 A 
ATOM     59  H   UNL A   1      43.901  28.807  28.481  1.00  0.00     0.167 HD
ATOM     60  C   UNL A   1      46.374  30.190  28.333  1.00  0.00     0.074 A 
ATOM     61  C   UNL A   1      47.767  30.483  28.060  1.00  0.00     0.031 C 
ATOM     62  C   UNL A   1      45.501  31.073  28.876  1.00  0.00     0.037 A 
BRANCH  49  63
ATOM     63  C   UNL A   1      39.765  28.871  29.538  1.00  0.00     0.064 A 
ATOM     64  C   UNL A   1      39.318  28.634  30.847  1.00  0.00     0.173 A 
ATOM     65  C   UNL A   1      38.850  29.405  28.619  1.00  0.00     0.173 A 
ATOM     66  F   UNL A   1      40.150  28.114  31.761  1.00  0.00    -0.203 F 
ATOM     67  C   UNL A   1      38.001  28.896  31.213  1.00  0.00     0.198 A 
ATOM     68  C   UNL A   1      37.542  29.696  28.997  1.00  0.00     0.198 A 
ATOM     69  F   UNL A   1      39.226  29.656  27.356  1.00  0.00    -0.203 F 
ATOM     70  F   UNL A   1      37.584  28.617  32.456  1.00  0.00    -0.200 F 
ATOM     71  C   UNL A   1      37.116  29.435  30.291  1.00  0.00     0.200 A 
ATOM     72  F   UNL A   1      36.692  30.229  28.109  1.00  0.00    -0.200 F 
ATOM     73  F   UNL A   1      35.851  29.695  30.647  1.00  0.00    -0.200 F 
ENDBRANCH  49  63
BRANCH  50  74
ATOM     74  C   UNL A   1      49.029  26.807  26.417  1.00  0.00     0.064 A 
ATOM     75  C   UNL A   1      49.366  27.010  25.071  1.00  0.00     0.173 A 
ATOM     76  C   UNL A   1      50.030  26.324  27.273  1.00  0.00     0.173 A 
ATOM     77  F   UNL A   1      48.437  27.453  24.210  1.00  0.00    -0.203 F 
ATOM     78  C   UNL A   1      50.642  26.720  24.597  1.00  0.00     0.198 A 
ATOM     79  C   UNL A   1      51.314  26.062  26.804  1.00  0.00     0.198 A 
ATOM     80  F   UNL A   1      49.761  26.120  28.572  1.00  0.00    -0.203 F 
ATOM     81  F   UNL A   1      50.923  26.879  23.296  1.00  0.00    -0.200 F 
ATOM     82  C   UNL A   1      51.618  26.252  25.465  1.00  0.00     0.200 A 
ATOM     83  F   UNL A   1      52.259  25.626  27.649  1.00  0.00    -0.200 F 
ATOM     84  F   UNL A   1      52.848  25.978  25.008  1.00  0.00    -0.200 F 
ENDBRANCH  50  74
BRANCH  62  85
ATOM     85  C   UNL A   1      46.031  32.427  29.246  1.00  0.00     0.064 A 
ATOM     86  C   UNL A   1      46.552  32.693  30.521  1.00  0.00     0.173 A 
ATOM     87  C   UNL A   1      46.055  33.462  28.298  1.00  0.00     0.173 A 
ATOM     88  F   UNL A   1      46.538  31.742  31.467  1.00  0.00    -0.203 F 
ATOM     89  C   UNL A   1      47.049  33.952  30.842  1.00  0.00     0.198 A 
ATOM     90  C   UNL A   1      46.584  34.710  28.613  1.00  0.00     0.198 A 
ATOM     91  F   UNL A   1      45.577  33.258  27.061  1.00  0.00    -0.203 F 
ATOM     92  F   UNL A   1      47.495  34.198  32.083  1.00  0.00    -0.200 F 
ATOM     93  C   UNL A   1      47.073  34.957  29.887  1.00  0.00     0.200 A 
ATOM     94  F   UNL A   1      46.618  35.676  27.684  1.00  0.00    -0.200 F 
ATOM     95  F   UNL A   1      47.560  36.167  30.196  1.00  0.00    -0.200 F 
ENDBRANCH  62  85
ENDBRANCH  36  37
ENDBRANCH  28  31
ENDBRANCH  26  27
ENDBRANCH  25  26
ENDBRANCH  24  25
ENDBRANCH   1  24
TORSDOF 17
ENDMDL
MODEL 2
REMARK VINA RESULT:     -11.7      6.228     11.529
REMARK SMILES CC[C@@](O)(C(=O)NCCCCCCNC(=O)c1ccc(-c2c3nc(c(-c4c(F)c(F)c(F)c(F)c4F)c4ccc([nH]4)c(-c4c(F)c(F)c(F)c(F)c4F)c4nc(c(-c5c(F)c(F)c(F)c(F)c5F)c5ccc2[nH]5)C=C4)C=C3)cc1)[C@H]1CCc2ccc(OC)cc21
REMARK SMILES IDX 10 1 9 2 8 3 7 4 5 5 6 6 3 8 2 9 1 10 4 11 80 13 81 14 90 15
REMARK SMILES IDX 82 16 83 17 89 18 84 19 86 20 85 21 87 22 88 23 11 24 12 25
REMARK SMILES IDX 13 26 14 27 15 28 16 30 17 31 18 32 79 33 19 34 78 35 20 36
REMARK SMILES IDX 21 37 22 38 72 39 23 40 77 41 71 42 73 43 24 44 76 45 70 46
REMARK SMILES IDX 69 47 25 49 57 50 37 51 56 52 38 53 41 54 55 55 74 56 39 57
REMARK SMILES IDX 40 58 54 60 75 61 42 62 26 63 27 64 35 65 28 66 29 67 33 68
REMARK SMILES IDX 36 69 30 70 31 71 34 72 32 73 58 74 59 75 67 76 60 77 61 78
REMARK SMILES IDX 65 79 68 80 62 81 63 82 66 83 64 84 43 85 44 86 52 87 45 88
REMARK SMILES IDX 46 89 50 90 53 91 47 92 48 93 51 94 49 95
REMARK H PARENT 7 7 4 12 14 29 73 48 41 59
REMARK Flexibility Score: inf
ROOT
ATOM      1  C   UNL A   1      32.678  30.109  27.123  1.00  0.00     0.002 C 
ENDROOT
BRANCH   1   2
ATOM      2  C   UNL A   1      32.490  28.636  27.512  1.00  0.00     0.021 C 
BRANCH   2   3
ATOM      3  C   UNL A   1      31.350  27.936  26.776  1.00  0.00     0.116 C 
BRANCH   3   4
ATOM      4  N   UNL A   1      31.781  26.704  26.150  1.00  0.00    -0.354 N 
ATOM      5  C   UNL A   1      32.064  26.309  24.886  1.00  0.00     0.252 C 
ATOM      6  O   UNL A   1      32.483  25.143  24.815  1.00  0.00    -0.272 OA
ATOM      7  H   UNL A   1      31.896  25.975  26.802  1.00  0.00     0.163 HD
BRANCH   5   8
ATOM      8  C   UNL A   1      31.956  27.178  23.581  1.00  0.00     0.149 C 
BRANCH   8   9
ATOM      9  C   UNL A   1      32.484  28.620  23.664  1.00  0.00     0.043 C 
ATOM     10  C   UNL A   1      33.736  28.957  22.863  1.00  0.00     0.007 C 
ENDBRANCH   8   9
BRANCH   8  11
ATOM     11  O   UNL A   1      32.823  26.491  22.641  1.00  0.00    -0.379 OA
ATOM     12  H   UNL A   1      32.630  25.541  22.661  1.00  0.00     0.212 HD
ENDBRANCH   8  11
BRANCH   8  13
ATOM     13  C   UNL A   1      30.477  27.007  23.096  1.00  0.00     0.061 C 
ATOM     14  C   UNL A   1      29.601  26.200  24.090  1.00  0.00     0.017 C 
ATOM     15  C   UNL A   1      29.609  28.226  22.877  1.00  0.00    -0.035 A 
ATOM     16  C   UNL A   1      28.146  26.591  23.818  1.00  0.00     0.036 C 
ATOM     17  C   UNL A   1      28.310  28.000  23.347  1.00  0.00    -0.044 A 
ATOM     18  C   UNL A   1      29.920  29.412  22.221  1.00  0.00     0.050 A 
ATOM     19  C   UNL A   1      27.337  28.983  23.271  1.00  0.00     0.008 A 
ATOM     20  C   UNL A   1      28.942  30.406  22.118  1.00  0.00     0.119 A 
ATOM     21  C   UNL A   1      27.672  30.201  22.677  1.00  0.00     0.047 A 
BRANCH  20  22
ATOM     22  O   UNL A   1      29.121  31.622  21.512  1.00  0.00    -0.497 OA
ATOM     23  C   UNL A   1      28.057  32.041  20.662  1.00  0.00     0.278 C 
ENDBRANCH  20  22
ENDBRANCH   8  13
ENDBRANCH   5   8
ENDBRANCH   3   4
ENDBRANCH   2   3
ENDBRANCH   1   2
BRANCH   1  24
ATOM     24  C   UNL A   1      31.460  30.788  26.484  1.00  0.00     0.002 C 
BRANCH  24  25
ATOM     25  C   UNL A   1      31.399  32.310  26.637  1.00  0.00     0.021 C 
BRANCH  25  26
ATOM     26  C   UNL A   1      32.678  32.944  27.171  1.00  0.00     0.116 C 
BRANCH  26  27
ATOM     27  N   UNL A   1      32.458  34.308  27.621  1.00  0.00    -0.352 N 
ATOM     28  C   UNL A   1      33.024  34.978  28.676  1.00  0.00     0.251 C 
ATOM     29  H   UNL A   1      31.809  34.826  27.093  1.00  0.00     0.163 HD
ATOM     30  O   UNL A   1      32.559  36.051  29.047  1.00  0.00    -0.269 OA
BRANCH  28  31
ATOM     31  C   UNL A   1      34.190  34.401  29.380  1.00  0.00     0.039 A 
ATOM     32  C   UNL A   1      33.981  33.688  30.563  1.00  0.00     0.014 A 
ATOM     33  C   UNL A   1      35.488  34.586  28.891  1.00  0.00     0.014 A 
ATOM     34  C   UNL A   1      35.068  33.119  31.230  1.00  0.00     0.010 A 
ATOM     35  C   UNL A   1      36.560  33.958  29.517  1.00  0.00     0.010 A 
ATOM     36  C   UNL A   1      36.363  33.226  30.698  1.00  0.00    -0.014 A 
BRANCH  36  37
ATOM     37  C   UNL A   1      37.524  32.589  31.370  1.00  0.00     0.031 A 
ATOM     38  C   UNL A   1      38.259  31.461  30.702  1.00  0.00     0.074 A 
ATOM     39  C   UNL A   1      37.879  32.989  32.606  1.00  0.00     0.049 A 
ATOM     40  N   UNL A   1      39.255  30.739  31.151  1.00  0.00    -0.248 NA
ATOM     41  C   UNL A   1      37.796  31.073  29.360  1.00  0.00     0.031 C 
ATOM     42  C   UNL A   1      37.213  34.040  33.378  1.00  0.00     0.029 A 
ATOM     43  N   UNL A   1      38.880  32.552  33.437  1.00  0.00    -0.354 N 
ATOM     44  C   UNL A   1      39.525  29.807  30.158  1.00  0.00     0.074 A 
ATOM     45  C   UNL A   1      38.556  30.018  29.105  1.00  0.00     0.031 C 
ATOM     46  C   UNL A   1      37.835  34.179  34.559  1.00  0.00     0.029 A 
ATOM     47  C   UNL A   1      38.919  33.206  34.643  1.00  0.00     0.049 A 
ATOM     48  H   UNL A   1      39.511  31.837  33.190  1.00  0.00     0.167 HD
ATOM     49  C   UNL A   1      40.506  28.875  30.118  1.00  0.00     0.037 A 
ATOM     50  C   UNL A   1      39.734  33.033  35.702  1.00  0.00     0.037 A 
ATOM     51  C   UNL A   1      41.485  28.687  31.157  1.00  0.00     0.049 A 
ATOM     52  C   UNL A   1      40.820  31.993  35.631  1.00  0.00     0.074 A 
ATOM     53  C   UNL A   1      42.558  27.814  31.184  1.00  0.00     0.029 A 
ATOM     54  N   UNL A   1      41.508  29.385  32.356  1.00  0.00    -0.354 N 
ATOM     55  N   UNL A   1      41.109  31.165  34.657  1.00  0.00    -0.248 NA
ATOM     56  C   UNL A   1      41.696  31.871  36.803  1.00  0.00     0.031 C 
ATOM     57  C   UNL A   1      43.201  27.948  32.420  1.00  0.00     0.029 A 
ATOM     58  C   UNL A   1      42.563  28.944  33.140  1.00  0.00     0.049 A 
ATOM     59  H   UNL A   1      40.868  30.088  32.613  1.00  0.00     0.167 HD
ATOM     60  C   UNL A   1      42.216  30.445  35.084  1.00  0.00     0.074 A 
ATOM     61  C   UNL A   1      42.555  30.946  36.401  1.00  0.00     0.031 C 
ATOM     62  C   UNL A   1      42.891  29.458  34.446  1.00  0.00     0.037 A 
BRANCH  49  63
ATOM     63  C   UNL A   1      40.576  27.986  28.909  1.00  0.00     0.064 A 
ATOM     64  C   UNL A   1      39.830  26.799  28.825  1.00  0.00     0.173 A 
ATOM     65  C   UNL A   1      41.364  28.343  27.807  1.00  0.00     0.173 A 
ATOM     66  F   UNL A   1      39.069  26.406  29.857  1.00  0.00    -0.203 F 
ATOM     67  C   UNL A   1      39.895  25.991  27.694  1.00  0.00     0.198 A 
ATOM     68  C   UNL A   1      41.402  27.549  26.663  1.00  0.00     0.198 A 
ATOM     69  F   UNL A   1      42.092  29.470  27.831  1.00  0.00    -0.203 F 
ATOM     70  F   UNL A   1      39.212  24.838  27.656  1.00  0.00    -0.200 F 
ATOM     71  C   UNL A   1      40.673  26.370  26.610  1.00  0.00     0.200 A 
ATOM     72  F   UNL A   1      42.144  27.923  25.612  1.00  0.00    -0.200 F 
ATOM     73  F   UNL A   1      40.727  25.595  25.518  1.00  0.00    -0.200 F 
ENDBRANCH  49  63
BRANCH  50  74
ATOM     74  C   UNL A   1      39.568  33.881  36.912  1.00  0.00     0.064 A 
ATOM     75  C   UNL A   1      38.815  33.435  38.007  1.00  0.00     0.173 A 
ATOM     76  C   UNL A   1      40.154  35.152  36.999  1.00  0.00     0.173 A 
ATOM     77  F   UNL A   1      38.219  32.234  37.963  1.00  0.00    -0.203 F 
ATOM     78  C   UNL A   1      38.638  34.235  39.133  1.00  0.00     0.198 A 
ATOM     79  C   UNL A   1      40.000  35.940  38.137  1.00  0.00     0.198 A 
ATOM     80  F   UNL A   1      40.890  35.623  35.981  1.00  0.00    -0.203 F 
ATOM     81  F   UNL A   1      37.875  33.802  40.146  1.00  0.00    -0.200 F 
ATOM     82  C   UNL A   1      39.235  35.485  39.199  1.00  0.00     0.200 A 
ATOM     83  F   UNL A   1      40.593  37.140  38.204  1.00  0.00    -0.200 F 
ATOM     84  F   UNL A   1      39.068  36.253  40.286  1.00  0.00    -0.200 F 
ENDBRANCH  50  74
BRANCH  62  85
ATOM     85  C   UNL A   1      44.086  28.877  35.145  1.00  0.00     0.064 A 
ATOM     86  C   UNL A   1      43.975  27.769  35.998  1.00  0.00     0.173 A 
ATOM     87  C   UNL A   1      45.364  29.413  34.926  1.00  0.00     0.173 A 
ATOM     88  F   UNL A   1      42.773  27.230  36.251  1.00  0.00    -0.203 F 
ATOM     89  C   UNL A   1      45.096  27.237  36.628  1.00  0.00     0.198 A 
ATOM     90  C   UNL A   1      46.487  28.857  35.532  1.00  0.00     0.198 A 
ATOM     91  F   UNL A   1      45.526  30.467  34.113  1.00  0.00    -0.203 F 
ATOM     92  F   UNL A   1      44.960  26.210  37.479  1.00  0.00    -0.200 F 
ATOM     93  C   UNL A   1      46.352  27.776  36.389  1.00  0.00     0.200 A 
ATOM     94  F   UNL A   1      47.701  29.371  35.289  1.00  0.00    -0.200 F 
ATOM     95  F   UNL A   1      47.431  27.257  36.991  1.00  0.00    -0.200 F 
ENDBRANCH  62  85
ENDBRANCH  36  37
ENDBRANCH  28  31
ENDBRANCH  26  27
ENDBRANCH  25  26
ENDBRANCH  24  25
ENDBRANCH   1  24
TORSDOF 17
ENDMDL
MODEL 3
REMARK VINA RESULT:     -11.7      3.590      9.150
REMARK SMILES CC[C@@](O)(C(=O)NCCCCCCNC(=O)c1ccc(-c2c3nc(c(-c4c(F)c(F)c(F)c(F)c4F)c4ccc([nH]4)c(-c4c(F)c(F)c(F)c(F)c4F)c4nc(c(-c5c(F)c(F)c(F)c(F)c5F)c5ccc2[nH]5)C=C4)C=C3)cc1)[C@H]1CCc2ccc(OC)cc21
REMARK SMILES IDX 10 1 9 2 8 3 7 4 5 5 6 6 3 8 2 9 1 10 4 11 80 13 81 14 90 15
REMARK SMILES IDX 82 16 83 17 89 18 84 19 86 20 85 21 87 22 88 23 11 24 12 25
REMARK SMILES IDX 13 26 14 27 15 28 16 30 17 31 18 32 79 33 19 34 78 35 20 36
REMARK SMILES IDX 21 37 22 38 72 39 23 40 77 41 71 42 73 43 24 44 76 45 70 46
REMARK SMILES IDX 69 47 25 49 57 50 37 51 56 52 38 53 41 54 55 55 74 56 39 57
REMARK SMILES IDX 40 58 54 60 75 61 42 62 26 63 27 64 35 65 28 66 29 67 33 68
REMARK SMILES IDX 36 69 30 70 31 71 34 72 32 73 58 74 59 75 67 76 60 77 61 78
REMARK SMILES IDX 65 79 68 80 62 81 63 82 66 83 64 84 43 85 44 86 52 87 45 88
REMARK SMILES IDX 46 89 50 90 53 91 47 92 48 93 51 94 49 95
REMARK H PARENT 7 7 4 12 14 29 73 48 41 59
REMARK Flexibility Score: inf
ROOT
ATOM      1  C   UNL A   1      34.480  20.627  24.754  1.00  0.00     0.002 C 
ENDROOT
BRANCH   1   2
ATOM      2  C   UNL A   1      33.490  21.049  25.849  1.00  0.00     0.021 C 
BRANCH   2   3
ATOM      3  C   UNL A   1      32.062  21.262  25.351  1.00  0.00     0.116 C 
BRANCH   3   4
ATOM      4  N   UNL A   1      31.295  22.107  26.241  1.00  0.00    -0.354 N 
ATOM      5  C   UNL A   1      30.872  23.393  26.228  1.00  0.00     0.252 C 
ATOM      6  O   UNL A   1      30.153  23.687  27.196  1.00  0.00    -0.272 OA
ATOM      7  H   UNL A   1      31.010  21.630  27.055  1.00  0.00     0.163 HD
BRANCH   5   8
ATOM      8  C   UNL A   1      31.165  24.470  25.121  1.00  0.00     0.149 C 
BRANCH   8   9
ATOM      9  C   UNL A   1      32.498  24.338  24.364  1.00  0.00     0.043 C 
ATOM     10  C   UNL A   1      32.432  24.024  22.874  1.00  0.00     0.007 C 
ENDBRANCH   8   9
BRANCH   8  11
ATOM     11  O   UNL A   1      30.125  24.237  24.136  1.00  0.00    -0.379 OA
ATOM     12  H   UNL A   1      29.257  24.380  24.544  1.00  0.00     0.212 HD
ENDBRANCH   8  11
BRANCH   8  13
ATOM     13  C   UNL A   1      30.889  25.849  25.806  1.00  0.00     0.061 C 
ATOM     14  C   UNL A   1      32.027  26.290  26.764  1.00  0.00     0.017 C 
ATOM     15  C   UNL A   1      30.731  27.094  24.961  1.00  0.00    -0.035 A 
ATOM     16  C   UNL A   1      31.933  27.813  26.894  1.00  0.00     0.036 C 
ATOM     17  C   UNL A   1      31.379  28.183  25.556  1.00  0.00    -0.044 A 
ATOM     18  C   UNL A   1      29.985  27.271  23.800  1.00  0.00     0.050 A 
ATOM     19  C   UNL A   1      31.388  29.430  24.954  1.00  0.00     0.008 A 
ATOM     20  C   UNL A   1      29.967  28.530  23.193  1.00  0.00     0.119 A 
ATOM     21  C   UNL A   1      30.699  29.589  23.751  1.00  0.00     0.047 A 
BRANCH  20  22
ATOM     22  O   UNL A   1      29.287  28.836  22.043  1.00  0.00    -0.497 OA
ATOM     23  C   UNL A   1      28.040  29.498  22.232  1.00  0.00     0.278 C 
ENDBRANCH  20  22
ENDBRANCH   8  13
ENDBRANCH   5   8
ENDBRANCH   3   4
ENDBRANCH   2   3
ENDBRANCH   1   2
BRANCH   1  24
ATOM     24  C   UNL A   1      35.823  21.369  24.752  1.00  0.00     0.002 C 
BRANCH  24  25
ATOM     25  C   UNL A   1      35.732  22.892  24.878  1.00  0.00     0.021 C 
BRANCH  25  26
ATOM     26  C   UNL A   1      36.845  23.526  25.706  1.00  0.00     0.116 C 
BRANCH  26  27
ATOM     27  N   UNL A   1      37.903  22.577  26.006  1.00  0.00    -0.352 N 
ATOM     28  C   UNL A   1      39.170  22.808  26.480  1.00  0.00     0.251 C 
ATOM     29  H   UNL A   1      37.679  21.632  25.846  1.00  0.00     0.163 HD
ATOM     30  O   UNL A   1      40.007  21.911  26.465  1.00  0.00    -0.269 OA
BRANCH  28  31
ATOM     31  C   UNL A   1      39.535  24.144  26.999  1.00  0.00     0.039 A 
ATOM     32  C   UNL A   1      39.231  24.460  28.325  1.00  0.00     0.014 A 
ATOM     33  C   UNL A   1      40.149  25.092  26.174  1.00  0.00     0.014 A 
ATOM     34  C   UNL A   1      39.586  25.709  28.839  1.00  0.00     0.010 A 
ATOM     35  C   UNL A   1      40.567  26.307  26.706  1.00  0.00     0.010 A 
ATOM     36  C   UNL A   1      40.281  26.632  28.042  1.00  0.00    -0.014 A 
BRANCH  36  37
ATOM     37  C   UNL A   1      40.706  27.948  28.584  1.00  0.00     0.031 A 
ATOM     38  C   UNL A   1      42.144  28.184  28.954  1.00  0.00     0.074 A 
ATOM     39  C   UNL A   1      39.787  28.908  28.798  1.00  0.00     0.049 A 
ATOM     40  N   UNL A   1      42.698  29.239  29.498  1.00  0.00    -0.248 NA
ATOM     41  C   UNL A   1      43.082  27.076  28.707  1.00  0.00     0.031 C 
ATOM     42  C   UNL A   1      38.354  28.782  28.525  1.00  0.00     0.029 A 
ATOM     43  N   UNL A   1      39.918  30.177  29.304  1.00  0.00    -0.354 N 
ATOM     44  C   UNL A   1      44.037  28.917  29.669  1.00  0.00     0.074 A 
ATOM     45  C   UNL A   1      44.206  27.551  29.223  1.00  0.00     0.031 C 
ATOM     46  C   UNL A   1      37.742  29.932  28.848  1.00  0.00     0.029 A 
ATOM     47  C   UNL A   1      38.731  30.863  29.383  1.00  0.00     0.049 A 
ATOM     48  H   UNL A   1      40.781  30.560  29.584  1.00  0.00     0.167 HD
ATOM     49  C   UNL A   1      45.041  29.697  30.134  1.00  0.00     0.037 A 
ATOM     50  C   UNL A   1      38.468  32.102  29.843  1.00  0.00     0.037 A 
ATOM     51  C   UNL A   1      44.874  31.065  30.552  1.00  0.00     0.049 A 
ATOM     52  C   UNL A   1      39.602  32.950  30.352  1.00  0.00     0.074 A 
ATOM     53  C   UNL A   1      45.839  31.961  30.979  1.00  0.00     0.029 A 
ATOM     54  N   UNL A   1      43.660  31.735  30.596  1.00  0.00    -0.354 N 
ATOM     55  N   UNL A   1      40.877  32.659  30.444  1.00  0.00    -0.248 NA
ATOM     56  C   UNL A   1      39.261  34.303  30.813  1.00  0.00     0.031 C 
ATOM     57  C   UNL A   1      45.202  33.157  31.329  1.00  0.00     0.029 A 
ATOM     58  C   UNL A   1      43.848  33.025  31.066  1.00  0.00     0.049 A 
ATOM     59  H   UNL A   1      42.792  31.349  30.334  1.00  0.00     0.167 HD
ATOM     60  C   UNL A   1      41.494  33.798  30.943  1.00  0.00     0.074 A 
ATOM     61  C   UNL A   1      40.454  34.791  31.120  1.00  0.00     0.031 C 
ATOM     62  C   UNL A   1      42.803  34.003  31.231  1.00  0.00     0.037 A 
BRANCH  49  63
ATOM     63  C   UNL A   1      46.415  29.094  30.216  1.00  0.00     0.064 A 
ATOM     64  C   UNL A   1      47.318  29.172  29.145  1.00  0.00     0.173 A 
ATOM     65  C   UNL A   1      46.848  28.466  31.393  1.00  0.00     0.173 A 
ATOM     66  F   UNL A   1      46.950  29.752  27.992  1.00  0.00    -0.203 F 
ATOM     67  C   UNL A   1      48.592  28.619  29.239  1.00  0.00     0.198 A 
ATOM     68  C   UNL A   1      48.134  27.943  31.496  1.00  0.00     0.198 A 
ATOM     69  F   UNL A   1      46.027  28.369  32.450  1.00  0.00    -0.203 F 
ATOM     70  F   UNL A   1      49.420  28.663  28.186  1.00  0.00    -0.200 F 
ATOM     71  C   UNL A   1      49.003  28.012  30.417  1.00  0.00     0.200 A 
ATOM     72  F   UNL A   1      48.533  27.369  32.639  1.00  0.00    -0.200 F 
ATOM     73  F   UNL A   1      50.233  27.489  30.510  1.00  0.00    -0.200 F 
ENDBRANCH  49  63
BRANCH  50  74
ATOM     74  C   UNL A   1      37.076  32.621  29.823  1.00  0.00     0.064 A 
ATOM     75  C   UNL A   1      36.578  33.305  28.704  1.00  0.00     0.173 A 
ATOM     76  C   UNL A   1      36.215  32.447  30.916  1.00  0.00     0.173 A 
ATOM     77  F   UNL A   1      37.370  33.513  27.641  1.00  0.00    -0.203 F 
ATOM     78  C   UNL A   1      35.282  33.813  28.689  1.00  0.00     0.198 A 
ATOM     79  C   UNL A   1      34.909  32.930  30.888  1.00  0.00     0.198 A 
ATOM     80  F   UNL A   1      36.639  31.793  32.007  1.00  0.00    -0.203 F 
ATOM     81  F   UNL A   1      34.848  34.503  27.625  1.00  0.00    -0.200 F 
ATOM     82  C   UNL A   1      34.446  33.620  29.778  1.00  0.00     0.200 A 
ATOM     83  F   UNL A   1      34.099  32.727  31.936  1.00  0.00    -0.200 F 
ATOM     84  F   UNL A   1      33.196  34.105  29.761  1.00  0.00    -0.200 F 
ENDBRANCH  50  74
BRANCH  62  85
ATOM     85  C   UNL A   1      43.192  35.363  31.733  1.00  0.00     0.064 A 
ATOM     86  C   UNL A   1      43.667  36.361  30.868  1.00  0.00     0.173 A 
ATOM     87  C   UNL A   1      43.050  35.685  33.092  1.00  0.00     0.173 A 
ATOM     88  F   UNL A   1      43.834  36.098  29.563  1.00  0.00    -0.203 F 
ATOM     89  C   UNL A   1      44.012  37.619  31.350  1.00  0.00     0.198 A 
ATOM     90  C   UNL A   1      43.366  36.955  33.564  1.00  0.00     0.198 A 
ATOM     91  F   UNL A   1      42.593  34.770  33.959  1.00  0.00    -0.203 F 
ATOM     92  F   UNL A   1      44.512  38.541  30.514  1.00  0.00    -0.200 F 
ATOM     93  C   UNL A   1      43.854  37.919  32.695  1.00  0.00     0.200 A 
ATOM     94  F   UNL A   1      43.198  37.247  34.862  1.00  0.00    -0.200 F 
ATOM     95  F   UNL A   1      44.180  39.135  33.156  1.00  0.00    -0.200 F 
ENDBRANCH  62  85
ENDBRANCH  36  37
ENDBRANCH  28  31
ENDBRANCH  26  27
ENDBRANCH  25  26
ENDBRANCH  24  25
ENDBRANCH   1  24
TORSDOF 17
ENDMDL
