MODEL 1
REMARK VINA RESULT:     -11.2      0.000      0.000
REMARK SMILES Cc1cc(CS(=O)(=O)NC[C@@H]2CC[C@H](C(=O)NCCCCCCNC(=O)c3ccc(-c4c5nc(c(-c6c(F)c(F)c(F)c(F)c6F)c6ccc([nH]6)c(-c6c(F)c(F)c(F)c(F)c6F)c6nc(c(-c7c(F)c(F)c(F)c(F)c7F)c7ccc4[nH]7)C=C6)C=C5)cc3)O2)no1
REMARK SMILES IDX 19 1 18 2 17 3 15 4 16 5 14 7 11 8 12 9 90 10 13 11 10 12
REMARK SMILES IDX 9 13 6 15 7 16 8 17 5 18 4 19 1 20 2 21 3 22 92 23 91 24
REMARK SMILES IDX 20 25 21 26 22 27 23 28 24 29 25 30 26 32 27 33 28 34 89 35
REMARK SMILES IDX 29 36 88 37 30 38 31 39 32 40 82 41 33 42 87 43 81 44 83 45
REMARK SMILES IDX 34 46 86 47 80 48 79 49 35 51 67 52 47 53 66 54 48 55 51 56
REMARK SMILES IDX 65 57 84 58 49 59 50 60 64 62 85 63 52 64 36 65 37 66 45 67
REMARK SMILES IDX 38 68 39 69 43 70 46 71 40 72 41 73 44 74 42 75 68 76 69 77
REMARK SMILES IDX 77 78 70 79 71 80 75 81 78 82 72 83 73 84 76 85 74 86 53 87
REMARK SMILES IDX 54 88 62 89 55 90 56 91 60 92 63 93 57 94 58 95 61 96 59 97
REMARK H PARENT 17 6 9 14 24 31 83 50 51 61
REMARK Flexibility Score: inf
ROOT
ATOM      1  C   UNL A   1      35.890  32.159  27.841  1.00  0.00     0.021 C 
ENDROOT
BRANCH   1   2
ATOM      2  C   UNL A   1      34.876  31.027  28.054  1.00  0.00     0.116 C 
BRANCH   2   3
ATOM      3  N   UNL A   1      33.696  31.168  27.224  1.00  0.00    -0.354 N 
ATOM      4  C   UNL A   1      32.757  30.251  26.848  1.00  0.00     0.249 C 
ATOM      5  O   UNL A   1      31.783  30.679  26.219  1.00  0.00    -0.272 OA
ATOM      6  H   UNL A   1      33.546  32.076  26.875  1.00  0.00     0.163 HD
BRANCH   4   7
ATOM      7  C   UNL A   1      32.907  28.727  27.097  1.00  0.00     0.207 C 
ATOM      8  C   UNL A   1      32.697  26.611  26.122  1.00  0.00     0.134 C 
ATOM      9  C   UNL A   1      31.316  27.012  26.613  1.00  0.00     0.037 C 
ATOM     10  O   UNL A   1      33.378  27.899  26.031  1.00  0.00    -0.364 OA
ATOM     11  C   UNL A   1      31.620  28.101  27.615  1.00  0.00     0.045 C 
BRANCH   8  12
ATOM     12  C   UNL A   1      32.771  25.980  24.733  1.00  0.00     0.130 C 
BRANCH  12  13
ATOM     13  N   UNL A   1      33.610  24.792  24.503  1.00  0.00    -0.212 NA
ATOM     14  H   UNL A   1      34.501  25.012  24.949  1.00  0.00     0.141 HD
BRANCH  13  15
ATOM     15  S   UNL A   1      34.022  24.112  23.043  1.00  0.00     0.217 S 
ATOM     16  O   UNL A   1      35.394  23.665  23.133  1.00  0.00    -0.212 OA
ATOM     17  O   UNL A   1      33.677  25.147  22.090  1.00  0.00    -0.212 OA
BRANCH  15  18
ATOM     18  C   UNL A   1      32.920  22.706  22.698  1.00  0.00     0.213 C 
BRANCH  18  19
ATOM     19  C   UNL A   1      32.773  21.782  23.837  1.00  0.00     0.100 A 
ATOM     20  C   UNL A   1      32.674  18.467  25.235  1.00  0.00     0.091 C 
ATOM     21  C   UNL A   1      32.760  19.910  24.956  1.00  0.00     0.133 A 
ATOM     22  C   UNL A   1      33.549  20.629  24.098  1.00  0.00     0.073 A 
ATOM     23  O   UNL A   1      31.755  20.704  25.414  1.00  0.00    -0.361 OA
ATOM     24  N   UNL A   1      31.773  21.905  24.718  1.00  0.00    -0.084 NA
ENDBRANCH  18  19
ENDBRANCH  15  18
ENDBRANCH  13  15
ENDBRANCH  12  13
ENDBRANCH   8  12
ENDBRANCH   4   7
ENDBRANCH   2   3
ENDBRANCH   1   2
BRANCH   1  25
ATOM     25  C   UNL A   1      35.441  33.557  28.295  1.00  0.00     0.002 C 
BRANCH  25  26
ATOM     26  C   UNL A   1      34.229  33.641  29.240  1.00  0.00     0.002 C 
BRANCH  26  27
ATOM     27  C   UNL A   1      33.151  34.692  28.958  1.00  0.00     0.021 C 
BRANCH  27  28
ATOM     28  C   UNL A   1      33.378  36.107  29.474  1.00  0.00     0.116 C 
BRANCH  28  29
ATOM     29  N   UNL A   1      32.530  36.392  30.615  1.00  0.00    -0.352 N 
ATOM     30  C   UNL A   1      32.526  35.812  31.861  1.00  0.00     0.251 C 
ATOM     31  H   UNL A   1      31.862  37.102  30.477  1.00  0.00     0.163 HD
ATOM     32  O   UNL A   1      31.529  35.911  32.571  1.00  0.00    -0.269 OA
BRANCH  30  33
ATOM     33  C   UNL A   1      33.710  35.073  32.373  1.00  0.00     0.039 A 
ATOM     34  C   UNL A   1      34.969  35.683  32.321  1.00  0.00     0.014 A 
ATOM     35  C   UNL A   1      33.612  33.745  32.801  1.00  0.00     0.014 A 
ATOM     36  C   UNL A   1      36.115  34.975  32.705  1.00  0.00     0.010 A 
ATOM     37  C   UNL A   1      34.741  33.069  33.263  1.00  0.00     0.010 A 
ATOM     38  C   UNL A   1      36.012  33.661  33.187  1.00  0.00    -0.014 A 
BRANCH  38  39
ATOM     39  C   UNL A   1      37.217  32.854  33.534  1.00  0.00     0.031 A 
ATOM     40  C   UNL A   1      37.948  33.127  34.826  1.00  0.00     0.074 A 
ATOM     41  C   UNL A   1      37.687  31.921  32.684  1.00  0.00     0.049 A 
ATOM     42  N   UNL A   1      39.081  32.634  35.262  1.00  0.00    -0.248 NA
ATOM     43  C   UNL A   1      37.335  34.107  35.736  1.00  0.00     0.031 C 
ATOM     44  C   UNL A   1      37.088  31.567  31.399  1.00  0.00     0.029 A 
ATOM     45  N   UNL A   1      38.794  31.108  32.769  1.00  0.00    -0.354 N 
ATOM     46  C   UNL A   1      39.321  33.258  36.480  1.00  0.00     0.074 A 
ATOM     47  C   UNL A   1      38.251  34.208  36.687  1.00  0.00     0.031 C 
ATOM     48  C   UNL A   1      37.827  30.607  30.819  1.00  0.00     0.029 A 
ATOM     49  C   UNL A   1      38.978  30.308  31.667  1.00  0.00     0.049 A 
ATOM     50  H   UNL A   1      39.397  31.101  33.547  1.00  0.00     0.167 HD
ATOM     51  C   UNL A   1      40.327  33.042  37.362  1.00  0.00     0.037 A 
ATOM     52  C   UNL A   1      39.971  29.448  31.366  1.00  0.00     0.037 A 
ATOM     53  C   UNL A   1      41.378  32.077  37.170  1.00  0.00     0.049 A 
ATOM     54  C   UNL A   1      41.096  29.246  32.350  1.00  0.00     0.074 A 
ATOM     55  C   UNL A   1      42.424  31.760  38.018  1.00  0.00     0.029 A 
ATOM     56  N   UNL A   1      41.513  31.271  36.049  1.00  0.00    -0.354 N 
ATOM     57  N   UNL A   1      41.290  29.815  33.516  1.00  0.00    -0.248 NA
ATOM     58  C   UNL A   1      42.137  28.276  31.980  1.00  0.00     0.031 C 
ATOM     59  C   UNL A   1      43.221  30.799  37.390  1.00  0.00     0.029 A 
ATOM     60  C   UNL A   1      42.634  30.468  36.179  1.00  0.00     0.049 A 
ATOM     61  H   UNL A   1      40.902  31.270  35.277  1.00  0.00     0.167 HD
ATOM     62  C   UNL A   1      42.444  29.241  34.035  1.00  0.00     0.074 A 
ATOM     63  C   UNL A   1      42.906  28.277  33.060  1.00  0.00     0.031 C 
ATOM     64  C   UNL A   1      43.064  29.490  35.213  1.00  0.00     0.037 A 
BRANCH  51  65
ATOM     65  C   UNL A   1      40.339  33.858  38.624  1.00  0.00     0.064 A 
ATOM     66  C   UNL A   1      41.066  35.055  38.721  1.00  0.00     0.173 A 
ATOM     67  C   UNL A   1      39.577  33.466  39.736  1.00  0.00     0.173 A 
ATOM     68  F   UNL A   1      41.819  35.472  37.692  1.00  0.00    -0.203 F 
ATOM     69  C   UNL A   1      41.054  35.810  39.891  1.00  0.00     0.198 A 
ATOM     70  C   UNL A   1      39.539  34.242  40.891  1.00  0.00     0.198 A 
ATOM     71  F   UNL A   1      38.855  32.335  39.696  1.00  0.00    -0.203 F 
ATOM     72  F   UNL A   1      41.798  36.922  39.975  1.00  0.00    -0.200 F 
ATOM     73  C   UNL A   1      40.284  35.408  40.972  1.00  0.00     0.200 A 
ATOM     74  F   UNL A   1      38.779  33.862  41.928  1.00  0.00    -0.200 F 
ATOM     75  F   UNL A   1      40.263  36.143  42.091  1.00  0.00    -0.200 F 
ENDBRANCH  51  65
BRANCH  52  76
ATOM     76  C   UNL A   1      39.956  28.710  30.074  1.00  0.00     0.064 A 
ATOM     77  C   UNL A   1      39.372  27.439  29.971  1.00  0.00     0.173 A 
ATOM     78  C   UNL A   1      40.551  29.246  28.922  1.00  0.00     0.173 A 
ATOM     79  F   UNL A   1      38.806  26.874  31.047  1.00  0.00    -0.203 F 
ATOM     80  C   UNL A   1      39.414  26.720  28.778  1.00  0.00     0.198 A 
ATOM     81  C   UNL A   1      40.562  28.541  27.719  1.00  0.00     0.198 A 
ATOM     82  F   UNL A   1      41.118  30.462  28.960  1.00  0.00    -0.203 F 
ATOM     83  F   UNL A   1      38.903  25.482  28.726  1.00  0.00    -0.200 F 
ATOM     84  C   UNL A   1      40.006  27.273  27.652  1.00  0.00     0.200 A 
ATOM     85  F   UNL A   1      41.117  29.088  26.630  1.00  0.00    -0.200 F 
ATOM     86  F   UNL A   1      40.046  26.581  26.505  1.00  0.00    -0.200 F 
ENDBRANCH  52  76
BRANCH  64  87
ATOM     87  C   UNL A   1      44.271  28.664  35.558  1.00  0.00     0.064 A 
ATOM     88  C   UNL A   1      45.569  29.065  35.215  1.00  0.00     0.173 A 
ATOM     89  C   UNL A   1      44.124  27.482  36.301  1.00  0.00     0.173 A 
ATOM     90  F   UNL A   1      45.764  30.180  34.495  1.00  0.00    -0.203 F 
ATOM     91  C   UNL A   1      46.675  28.302  35.586  1.00  0.00     0.198 A 
ATOM     92  C   UNL A   1      45.232  26.740  36.698  1.00  0.00     0.198 A 
ATOM     93  F   UNL A   1      42.902  27.056  36.662  1.00  0.00    -0.203 F 
ATOM     94  F   UNL A   1      47.905  28.682  35.210  1.00  0.00    -0.200 F 
ATOM     95  C   UNL A   1      46.506  27.147  36.335  1.00  0.00     0.200 A 
ATOM     96  F   UNL A   1      45.067  25.635  37.438  1.00  0.00    -0.200 F 
ATOM     97  F   UNL A   1      47.573  26.424  36.704  1.00  0.00    -0.200 F 
ENDBRANCH  64  87
ENDBRANCH  38  39
ENDBRANCH  30  33
ENDBRANCH  28  29
ENDBRANCH  27  28
ENDBRANCH  26  27
ENDBRANCH  25  26
ENDBRANCH   1  25
TORSDOF 18
ENDMDL
MODEL 2
REMARK VINA RESULT:     -11.0      5.951     10.791
REMARK SMILES Cc1cc(CS(=O)(=O)NC[C@@H]2CC[C@H](C(=O)NCCCCCCNC(=O)c3ccc(-c4c5nc(c(-c6c(F)c(F)c(F)c(F)c6F)c6ccc([nH]6)c(-c6c(F)c(F)c(F)c(F)c6F)c6nc(c(-c7c(F)c(F)c(F)c(F)c7F)c7ccc4[nH]7)C=C6)C=C5)cc3)O2)no1
REMARK SMILES IDX 19 1 18 2 17 3 15 4 16 5 14 7 11 8 12 9 90 10 13 11 10 12
REMARK SMILES IDX 9 13 6 15 7 16 8 17 5 18 4 19 1 20 2 21 3 22 92 23 91 24
REMARK SMILES IDX 20 25 21 26 22 27 23 28 24 29 25 30 26 32 27 33 28 34 89 35
REMARK SMILES IDX 29 36 88 37 30 38 31 39 32 40 82 41 33 42 87 43 81 44 83 45
REMARK SMILES IDX 34 46 86 47 80 48 79 49 35 51 67 52 47 53 66 54 48 55 51 56
REMARK SMILES IDX 65 57 84 58 49 59 50 60 64 62 85 63 52 64 36 65 37 66 45 67
REMARK SMILES IDX 38 68 39 69 43 70 46 71 40 72 41 73 44 74 42 75 68 76 69 77
REMARK SMILES IDX 77 78 70 79 71 80 75 81 78 82 72 83 73 84 76 85 74 86 53 87
REMARK SMILES IDX 54 88 62 89 55 90 56 91 60 92 63 93 57 94 58 95 61 96 59 97
REMARK H PARENT 17 6 9 14 24 31 83 50 51 61
REMARK Flexibility Score: inf
ROOT
ATOM      1  C   UNL A   1      36.502  23.618  24.793  1.00  0.00     0.021 C 
ENDROOT
BRANCH   1   2
ATOM      2  C   UNL A   1      35.187  23.913  25.529  1.00  0.00     0.116 C 
BRANCH   2   3
ATOM      3  N   UNL A   1      34.925  22.978  26.605  1.00  0.00    -0.354 N 
ATOM      4  C   UNL A   1      33.772  22.351  26.979  1.00  0.00     0.249 C 
ATOM      5  O   UNL A   1      33.864  21.508  27.878  1.00  0.00    -0.272 OA
ATOM      6  H   UNL A   1      35.710  22.758  27.157  1.00  0.00     0.163 HD
BRANCH   4   7
ATOM      7  C   UNL A   1      32.380  22.709  26.395  1.00  0.00     0.207 C 
ATOM      8  C   UNL A   1      31.269  23.611  24.543  1.00  0.00     0.134 C 
ATOM      9  C   UNL A   1      31.706  24.780  25.410  1.00  0.00     0.037 C 
ATOM     10  O   UNL A   1      32.160  22.544  24.992  1.00  0.00    -0.364 OA
ATOM     11  C   UNL A   1      31.956  24.127  26.749  1.00  0.00     0.045 C 
BRANCH   8  12
ATOM     12  C   UNL A   1      31.489  23.757  23.039  1.00  0.00     0.130 C 
BRANCH  12  13
ATOM     13  N   UNL A   1      31.702  25.089  22.447  1.00  0.00    -0.212 NA
ATOM     14  H   UNL A   1      30.968  25.183  21.745  1.00  0.00     0.141 HD
BRANCH  13  15
ATOM     15  S   UNL A   1      33.076  25.658  21.704  1.00  0.00     0.217 S 
ATOM     16  O   UNL A   1      33.029  25.256  20.316  1.00  0.00    -0.212 OA
ATOM     17  O   UNL A   1      34.139  25.154  22.550  1.00  0.00    -0.212 OA
BRANCH  15  18
ATOM     18  C   UNL A   1      33.129  27.471  21.836  1.00  0.00     0.213 C 
BRANCH  18  19
ATOM     19  C   UNL A   1      32.907  27.966  23.206  1.00  0.00     0.100 A 
ATOM     20  C   UNL A   1      33.724  28.065  26.710  1.00  0.00     0.091 C 
ATOM     21  C   UNL A   1      33.241  28.288  25.338  1.00  0.00     0.133 A 
ATOM     22  C   UNL A   1      33.899  28.354  24.138  1.00  0.00     0.073 A 
ATOM     23  O   UNL A   1      31.904  28.184  25.112  1.00  0.00    -0.361 OA
ATOM     24  N   UNL A   1      31.686  28.000  23.754  1.00  0.00    -0.084 NA
ENDBRANCH  18  19
ENDBRANCH  15  18
ENDBRANCH  13  15
ENDBRANCH  12  13
ENDBRANCH   8  12
ENDBRANCH   4   7
ENDBRANCH   2   3
ENDBRANCH   1   2
BRANCH   1  25
ATOM     25  C   UNL A   1      37.320  22.433  25.328  1.00  0.00     0.002 C 
BRANCH  25  26
ATOM     26  C   UNL A   1      37.240  21.107  24.551  1.00  0.00     0.002 C 
BRANCH  26  27
ATOM     27  C   UNL A   1      38.217  19.984  24.913  1.00  0.00     0.021 C 
BRANCH  27  28
ATOM     28  C   UNL A   1      39.215  20.237  26.034  1.00  0.00     0.116 C 
BRANCH  28  29
ATOM     29  N   UNL A   1      40.288  19.262  26.012  1.00  0.00    -0.352 N 
ATOM     30  C   UNL A   1      41.647  19.467  26.002  1.00  0.00     0.251 C 
ATOM     31  H   UNL A   1      40.002  18.320  26.003  1.00  0.00     0.163 HD
ATOM     32  O   UNL A   1      42.391  18.566  25.621  1.00  0.00    -0.269 OA
BRANCH  30  33
ATOM     33  C   UNL A   1      42.238  20.755  26.451  1.00  0.00     0.039 A 
ATOM     34  C   UNL A   1      42.287  21.040  27.820  1.00  0.00     0.014 A 
ATOM     35  C   UNL A   1      42.643  21.731  25.535  1.00  0.00     0.014 A 
ATOM     36  C   UNL A   1      42.748  22.286  28.267  1.00  0.00     0.010 A 
ATOM     37  C   UNL A   1      43.181  22.937  25.982  1.00  0.00     0.010 A 
ATOM     38  C   UNL A   1      43.207  23.246  27.352  1.00  0.00    -0.014 A 
BRANCH  38  39
ATOM     39  C   UNL A   1      43.634  24.606  27.787  1.00  0.00     0.031 A 
ATOM     40  C   UNL A   1      42.589  25.646  28.111  1.00  0.00     0.074 A 
ATOM     41  C   UNL A   1      44.940  24.931  27.845  1.00  0.00     0.049 A 
ATOM     42  N   UNL A   1      42.737  26.919  28.385  1.00  0.00    -0.248 NA
ATOM     43  C   UNL A   1      41.187  25.198  28.098  1.00  0.00     0.031 C 
ATOM     44  C   UNL A   1      46.051  24.030  27.544  1.00  0.00     0.029 A 
ATOM     45  N   UNL A   1      45.554  26.121  28.162  1.00  0.00    -0.354 N 
ATOM     46  C   UNL A   1      41.452  27.421  28.555  1.00  0.00     0.074 A 
ATOM     47  C   UNL A   1      40.534  26.334  28.295  1.00  0.00     0.031 C 
ATOM     48  C   UNL A   1      47.208  24.693  27.697  1.00  0.00     0.029 A 
ATOM     49  C   UNL A   1      46.923  26.079  28.061  1.00  0.00     0.049 A 
ATOM     50  H   UNL A   1      45.058  26.926  28.435  1.00  0.00     0.167 HD
ATOM     51  C   UNL A   1      41.068  28.668  28.922  1.00  0.00     0.037 A 
ATOM     52  C   UNL A   1      47.843  27.051  28.222  1.00  0.00     0.037 A 
ATOM     53  C   UNL A   1      41.981  29.744  29.208  1.00  0.00     0.049 A 
ATOM     54  C   UNL A   1      47.390  28.439  28.601  1.00  0.00     0.074 A 
ATOM     55  C   UNL A   1      41.694  31.033  29.618  1.00  0.00     0.029 A 
ATOM     56  N   UNL A   1      43.362  29.651  29.115  1.00  0.00    -0.354 N 
ATOM     57  N   UNL A   1      46.174  28.890  28.796  1.00  0.00    -0.248 NA
ATOM     58  C   UNL A   1      48.438  29.452  28.790  1.00  0.00     0.031 C 
ATOM     59  C   UNL A   1      42.897  31.737  29.725  1.00  0.00     0.029 A 
ATOM     60  C   UNL A   1      43.938  30.866  29.447  1.00  0.00     0.049 A 
ATOM     61  H   UNL A   1      43.858  28.842  28.854  1.00  0.00     0.167 HD
ATOM     62  C   UNL A   1      46.315  30.220  29.172  1.00  0.00     0.074 A 
ATOM     63  C   UNL A   1      47.734  30.504  29.183  1.00  0.00     0.031 C 
ATOM     64  C   UNL A   1      45.355  31.125  29.483  1.00  0.00     0.037 A 
BRANCH  51  65
ATOM     65  C   UNL A   1      39.595  28.940  29.044  1.00  0.00     0.064 A 
ATOM     66  C   UNL A   1      38.932  28.862  30.278  1.00  0.00     0.173 A 
ATOM     67  C   UNL A   1      38.845  29.331  27.924  1.00  0.00     0.173 A 
ATOM     68  F   UNL A   1      39.598  28.484  31.381  1.00  0.00    -0.203 F 
ATOM     69  C   UNL A   1      37.570  29.133  30.381  1.00  0.00     0.198 A 
ATOM     70  C   UNL A   1      37.492  29.637  28.037  1.00  0.00     0.198 A 
ATOM     71  F   UNL A   1      39.430  29.431  26.720  1.00  0.00    -0.203 F 
ATOM     72  F   UNL A   1      36.949  29.001  31.562  1.00  0.00    -0.200 F 
ATOM     73  C   UNL A   1      36.853  29.530  29.262  1.00  0.00     0.200 A 
ATOM     74  F   UNL A   1      36.804  30.037  26.958  1.00  0.00    -0.200 F 
ATOM     75  F   UNL A   1      35.546  29.804  29.365  1.00  0.00    -0.200 F 
ENDBRANCH  51  65
BRANCH  52  76
ATOM     76  C   UNL A   1      49.288  26.756  28.025  1.00  0.00     0.064 A 
ATOM     77  C   UNL A   1      49.854  26.722  26.742  1.00  0.00     0.173 A 
ATOM     78  C   UNL A   1      50.128  26.471  29.112  1.00  0.00     0.173 A 
ATOM     79  F   UNL A   1      49.090  26.969  25.668  1.00  0.00    -0.203 F 
ATOM     80  C   UNL A   1      51.192  26.383  26.552  1.00  0.00     0.198 A 
ATOM     81  C   UNL A   1      51.475  26.166  28.924  1.00  0.00     0.198 A 
ATOM     82  F   UNL A   1      49.643  26.496  30.363  1.00  0.00    -0.203 F 
ATOM     83  F   UNL A   1      51.689  26.297  25.310  1.00  0.00    -0.200 F 
ATOM     84  C   UNL A   1      52.003  26.109  27.643  1.00  0.00     0.200 A 
ATOM     85  F   UNL A   1      52.258  25.922  29.983  1.00  0.00    -0.200 F 
ATOM     86  F   UNL A   1      53.289  25.782  27.460  1.00  0.00    -0.200 F 
ENDBRANCH  52  76
BRANCH  64  87
ATOM     87  C   UNL A   1      45.797  32.489  29.931  1.00  0.00     0.064 A 
ATOM     88  C   UNL A   1      45.949  33.554  29.032  1.00  0.00     0.173 A 
ATOM     89  C   UNL A   1      46.008  32.746  31.295  1.00  0.00     0.173 A 
ATOM     90  F   UNL A   1      45.771  33.358  27.716  1.00  0.00    -0.203 F 
ATOM     91  C   UNL A   1      46.316  34.821  29.480  1.00  0.00     0.198 A 
ATOM     92  C   UNL A   1      46.342  34.021  31.742  1.00  0.00     0.198 A 
ATOM     93  F   UNL A   1      45.868  31.764  32.199  1.00  0.00    -0.203 F 
ATOM     94  F   UNL A   1      46.499  35.814  28.598  1.00  0.00    -0.200 F 
ATOM     95  C   UNL A   1      46.503  35.056  30.834  1.00  0.00     0.200 A 
ATOM     96  F   UNL A   1      46.504  34.249  33.053  1.00  0.00    -0.200 F 
ATOM     97  F   UNL A   1      46.841  36.279  31.263  1.00  0.00    -0.200 F 
ENDBRANCH  64  87
ENDBRANCH  38  39
ENDBRANCH  30  33
ENDBRANCH  28  29
ENDBRANCH  27  28
ENDBRANCH  26  27
ENDBRANCH  25  26
ENDBRANCH   1  25
TORSDOF 18
ENDMDL
MODEL 3
REMARK VINA RESULT:     -10.8      6.911     12.760
REMARK SMILES Cc1cc(CS(=O)(=O)NC[C@@H]2CC[C@H](C(=O)NCCCCCCNC(=O)c3ccc(-c4c5nc(c(-c6c(F)c(F)c(F)c(F)c6F)c6ccc([nH]6)c(-c6c(F)c(F)c(F)c(F)c6F)c6nc(c(-c7c(F)c(F)c(F)c(F)c7F)c7ccc4[nH]7)C=C6)C=C5)cc3)O2)no1
REMARK SMILES IDX 19 1 18 2 17 3 15 4 16 5 14 7 11 8 12 9 90 10 13 11 10 12
REMARK SMILES IDX 9 13 6 15 7 16 8 17 5 18 4 19 1 20 2 21 3 22 92 23 91 24
REMARK SMILES IDX 20 25 21 26 22 27 23 28 24 29 25 30 26 32 27 33 28 34 89 35
REMARK SMILES IDX 29 36 88 37 30 38 31 39 32 40 82 41 33 42 87 43 81 44 83 45
REMARK SMILES IDX 34 46 86 47 80 48 79 49 35 51 67 52 47 53 66 54 48 55 51 56
REMARK SMILES IDX 65 57 84 58 49 59 50 60 64 62 85 63 52 64 36 65 37 66 45 67
REMARK SMILES IDX 38 68 39 69 43 70 46 71 40 72 41 73 44 74 42 75 68 76 69 77
REMARK SMILES IDX 77 78 70 79 71 80 75 81 78 82 72 83 73 84 76 85 74 86 53 87
REMARK SMILES IDX 54 88 62 89 55 90 56 91 60 92 63 93 57 94 58 95 61 96 59 97
REMARK H PARENT 17 6 9 14 24 31 83 50 51 61
REMARK Flexibility Score: inf
ROOT
ATOM      1  C   UNL A   1      39.974  23.017  26.638  1.00  0.00     0.021 C 
ENDROOT
BRANCH   1   2
ATOM      2  C   UNL A   1      38.514  23.441  26.431  1.00  0.00     0.116 C 
BRANCH   2   3
ATOM      3  N   UNL A   1      37.640  22.322  26.139  1.00  0.00    -0.354 N 
ATOM      4  C   UNL A   1      36.675  22.171  25.186  1.00  0.00     0.249 C 
ATOM      5  O   UNL A   1      36.155  21.053  25.093  1.00  0.00    -0.272 OA
ATOM      6  H   UNL A   1      37.765  21.541  26.725  1.00  0.00     0.163 HD
BRANCH   4   7
ATOM      7  C   UNL A   1      36.160  23.338  24.303  1.00  0.00     0.207 C 
ATOM      8  C   UNL A   1      34.459  24.924  24.049  1.00  0.00     0.134 C 
ATOM      9  C   UNL A   1      33.958  23.633  23.423  1.00  0.00     0.037 C 
ATOM     10  O   UNL A   1      35.516  24.447  24.935  1.00  0.00    -0.364 OA
ATOM     11  C   UNL A   1      35.234  22.855  23.196  1.00  0.00     0.045 C 
BRANCH   8  12
ATOM     12  C   UNL A   1      33.468  25.687  24.926  1.00  0.00     0.130 C 
BRANCH  12  13
ATOM     13  N   UNL A   1      33.678  27.117  25.210  1.00  0.00    -0.212 NA
ATOM     14  H   UNL A   1      33.602  27.195  26.224  1.00  0.00     0.141 HD
BRANCH  13  15
ATOM     15  S   UNL A   1      32.807  28.404  24.619  1.00  0.00     0.217 S 
ATOM     16  O   UNL A   1      33.522  28.940  23.483  1.00  0.00    -0.212 OA
ATOM     17  O   UNL A   1      32.615  29.235  25.790  1.00  0.00    -0.212 OA
BRANCH  15  18
ATOM     18  C   UNL A   1      31.154  27.836  24.114  1.00  0.00     0.213 C 
BRANCH  18  19
ATOM     19  C   UNL A   1      30.423  28.815  23.292  1.00  0.00     0.100 A 
ATOM     20  C   UNL A   1      27.691  31.099  22.764  1.00  0.00     0.091 C 
ATOM     21  C   UNL A   1      28.940  30.320  22.748  1.00  0.00     0.133 A 
ATOM     22  C   UNL A   1      29.849  30.031  23.731  1.00  0.00     0.073 A 
ATOM     23  O   UNL A   1      29.176  29.525  21.670  1.00  0.00    -0.361 OA
ATOM     24  N   UNL A   1      30.134  28.579  22.005  1.00  0.00    -0.084 NA
ENDBRANCH  18  19
ENDBRANCH  15  18
ENDBRANCH  13  15
ENDBRANCH  12  13
ENDBRANCH   8  12
ENDBRANCH   4   7
ENDBRANCH   2   3
ENDBRANCH   1   2
BRANCH   1  25
ATOM     25  C   UNL A   1      40.237  21.503  26.661  1.00  0.00     0.002 C 
BRANCH  25  26
ATOM     26  C   UNL A   1      41.653  21.024  26.296  1.00  0.00     0.002 C 
BRANCH  26  27
ATOM     27  C   UNL A   1      41.838  19.581  25.815  1.00  0.00     0.021 C 
BRANCH  27  28
ATOM     28  C   UNL A   1      43.117  18.854  26.207  1.00  0.00     0.116 C 
BRANCH  28  29
ATOM     29  N   UNL A   1      43.919  18.537  25.041  1.00  0.00    -0.352 N 
ATOM     30  C   UNL A   1      44.539  19.387  24.157  1.00  0.00     0.251 C 
ATOM     31  H   UNL A   1      44.036  17.577  24.858  1.00  0.00     0.163 HD
ATOM     32  O   UNL A   1      44.862  18.973  23.046  1.00  0.00    -0.269 OA
BRANCH  30  33
ATOM     33  C   UNL A   1      44.837  20.797  24.520  1.00  0.00     0.039 A 
ATOM     34  C   UNL A   1      45.461  21.068  25.743  1.00  0.00     0.014 A 
ATOM     35  C   UNL A   1      44.409  21.862  23.720  1.00  0.00     0.014 A 
ATOM     36  C   UNL A   1      45.665  22.392  26.155  1.00  0.00     0.010 A 
ATOM     37  C   UNL A   1      44.688  23.178  24.091  1.00  0.00     0.010 A 
ATOM     38  C   UNL A   1      45.286  23.462  25.329  1.00  0.00    -0.014 A 
BRANCH  38  39
ATOM     39  C   UNL A   1      45.421  24.880  25.768  1.00  0.00     0.031 A 
ATOM     40  C   UNL A   1      46.770  25.554  25.700  1.00  0.00     0.074 A 
ATOM     41  C   UNL A   1      44.365  25.548  26.269  1.00  0.00     0.049 A 
ATOM     42  N   UNL A   1      47.137  26.731  26.145  1.00  0.00    -0.248 NA
ATOM     43  C   UNL A   1      47.860  24.788  25.074  1.00  0.00     0.031 C 
ATOM     44  C   UNL A   1      43.012  25.013  26.404  1.00  0.00     0.029 A 
ATOM     45  N   UNL A   1      44.270  26.823  26.777  1.00  0.00    -0.354 N 
ATOM     46  C   UNL A   1      48.495  26.834  25.869  1.00  0.00     0.074 A 
ATOM     47  C   UNL A   1      48.902  25.580  25.275  1.00  0.00     0.031 C 
ATOM     48  C   UNL A   1      42.221  25.952  26.950  1.00  0.00     0.029 A 
ATOM     49  C   UNL A   1      43.019  27.138  27.248  1.00  0.00     0.049 A 
ATOM     50  H   UNL A   1      45.029  27.450  26.800  1.00  0.00     0.167 HD
ATOM     51  C   UNL A   1      49.325  27.887  26.067  1.00  0.00     0.037 A 
ATOM     52  C   UNL A   1      42.571  28.249  27.867  1.00  0.00     0.037 A 
ATOM     53  C   UNL A   1      48.915  29.145  26.633  1.00  0.00     0.049 A 
ATOM     54  C   UNL A   1      43.520  29.396  28.103  1.00  0.00     0.074 A 
ATOM     55  C   UNL A   1      49.671  30.284  26.844  1.00  0.00     0.029 A 
ATOM     56  N   UNL A   1      47.631  29.429  27.075  1.00  0.00    -0.354 N 
ATOM     57  N   UNL A   1      44.793  29.494  27.802  1.00  0.00    -0.248 NA
ATOM     58  C   UNL A   1      42.969  30.592  28.758  1.00  0.00     0.031 C 
ATOM     59  C   UNL A   1      48.860  31.240  27.460  1.00  0.00     0.029 A 
ATOM     60  C   UNL A   1      47.580  30.721  27.571  1.00  0.00     0.049 A 
ATOM     61  H   UNL A   1      46.870  28.806  27.040  1.00  0.00     0.167 HD
ATOM     62  C   UNL A   1      45.181  30.771  28.188  1.00  0.00     0.074 A 
ATOM     63  C   UNL A   1      44.008  31.414  28.742  1.00  0.00     0.031 C 
ATOM     64  C   UNL A   1      46.398  31.359  28.092  1.00  0.00     0.037 A 
BRANCH  51  65
ATOM     65  C   UNL A   1      50.763  27.730  25.661  1.00  0.00     0.064 A 
ATOM     66  C   UNL A   1      51.181  27.927  24.335  1.00  0.00     0.173 A 
ATOM     67  C   UNL A   1      51.747  27.427  26.615  1.00  0.00     0.173 A 
ATOM     68  F   UNL A   1      50.281  28.209  23.379  1.00  0.00    -0.203 F 
ATOM     69  C   UNL A   1      52.519  27.796  23.975  1.00  0.00     0.198 A 
ATOM     70  C   UNL A   1      53.090  27.333  26.259  1.00  0.00     0.198 A 
ATOM     71  F   UNL A   1      51.407  27.237  27.900  1.00  0.00    -0.203 F 
ATOM     72  F   UNL A   1      52.884  27.938  22.693  1.00  0.00    -0.200 F 
ATOM     73  C   UNL A   1      53.474  27.508  24.939  1.00  0.00     0.200 A 
ATOM     74  F   UNL A   1      54.013  27.072  27.195  1.00  0.00    -0.200 F 
ATOM     75  F   UNL A   1      54.764  27.396  24.594  1.00  0.00    -0.200 F 
ENDBRANCH  51  65
BRANCH  52  76
ATOM     76  C   UNL A   1      41.153  28.337  28.314  1.00  0.00     0.064 A 
ATOM     77  C   UNL A   1      40.164  28.885  27.485  1.00  0.00     0.173 A 
ATOM     78  C   UNL A   1      40.764  27.902  29.590  1.00  0.00     0.173 A 
ATOM     79  F   UNL A   1      40.487  29.332  26.263  1.00  0.00    -0.203 F 
ATOM     80  C   UNL A   1      38.850  29.026  27.927  1.00  0.00     0.198 A 
ATOM     81  C   UNL A   1      39.443  28.011  30.019  1.00  0.00     0.198 A 
ATOM     82  F   UNL A   1      41.668  27.362  30.422  1.00  0.00    -0.203 F 
ATOM     83  F   UNL A   1      37.939  29.611  27.137  1.00  0.00    -0.200 F 
ATOM     84  C   UNL A   1      38.489  28.586  29.192  1.00  0.00     0.200 A 
ATOM     85  F   UNL A   1      39.096  27.566  31.233  1.00  0.00    -0.200 F 
ATOM     86  F   UNL A   1      37.226  28.722  29.617  1.00  0.00    -0.200 F 
ENDBRANCH  52  76
BRANCH  64  87
ATOM     87  C   UNL A   1      46.520  32.792  28.526  1.00  0.00     0.064 A 
ATOM     88  C   UNL A   1      46.894  33.144  29.830  1.00  0.00     0.173 A 
ATOM     89  C   UNL A   1      46.321  33.827  27.598  1.00  0.00     0.173 A 
ATOM     90  F   UNL A   1      47.083  32.194  30.759  1.00  0.00    -0.203 F 
ATOM     91  C   UNL A   1      47.044  34.480  30.195  1.00  0.00     0.198 A 
ATOM     92  C   UNL A   1      46.504  35.158  27.958  1.00  0.00     0.198 A 
ATOM     93  F   UNL A   1      45.970  33.544  26.334  1.00  0.00    -0.203 F 
ATOM     94  F   UNL A   1      47.359  34.796  31.460  1.00  0.00    -0.200 F 
ATOM     95  C   UNL A   1      46.859  35.485  29.257  1.00  0.00     0.200 A 
ATOM     96  F   UNL A   1      46.343  36.126  27.044  1.00  0.00    -0.200 F 
ATOM     97  F   UNL A   1      47.019  36.769  29.607  1.00  0.00    -0.200 F 
ENDBRANCH  64  87
ENDBRANCH  38  39
ENDBRANCH  30  33
ENDBRANCH  28  29
ENDBRANCH  27  28
ENDBRANCH  26  27
ENDBRANCH  25  26
ENDBRANCH   1  25
TORSDOF 18
ENDMDL
