MODEL 1
REMARK VINA RESULT:     -11.1      0.000      0.000
REMARK SMILES CCC[NH2+][C@@H]1COC[C@@H]1C(=O)N[C@@](C)(CC)C(=O)NCCCCCCNC(=O)c1ccc(-c2c3nc(c(-c4c(F)c(F)c(F)c(F)c4F)c4ccc([nH]4)c(-c4c(F)c(F)c(F)c(F)c4F)c4nc(c(-c5c(F)c(F)c(F)c(F)c5F)c5ccc2[nH]5)C=C4)C=C3)cc1
REMARK SMILES IDX 21 1 20 2 19 3 17 4 18 5 13 7 14 8 12 9 10 10 11 11 9 13
REMARK SMILES IDX 5 14 6 15 7 16 8 17 4 18 3 21 2 22 1 23 15 24 16 25 22 26
REMARK SMILES IDX 23 27 24 28 25 29 26 30 27 31 28 33 29 34 30 35 91 36 31 37
REMARK SMILES IDX 90 38 32 39 33 40 34 41 84 42 35 43 89 44 83 45 85 46 36 47
REMARK SMILES IDX 88 48 82 49 81 50 37 52 69 53 49 54 68 55 50 56 53 57 67 58
REMARK SMILES IDX 86 59 51 60 52 61 66 63 87 64 54 65 38 66 39 67 47 68 40 69
REMARK SMILES IDX 41 70 45 71 48 72 42 73 43 74 46 75 44 76 70 77 71 78 79 79
REMARK SMILES IDX 72 80 73 81 77 82 80 83 74 84 75 85 78 86 76 87 55 88 56 89
REMARK SMILES IDX 64 90 57 91 58 92 62 93 65 94 59 95 60 96 63 97 61 98
REMARK H PARENT 19 6 12 12 4 19 4 20 26 32 85 51 53 62
REMARK Flexibility Score: inf
ROOT
ATOM      1  C   UNL A   1      34.856  21.407  26.093  1.00  0.00     0.021 C 
ENDROOT
BRANCH   1   2
ATOM      2  C   UNL A   1      33.339  21.366  25.962  1.00  0.00     0.116 C 
BRANCH   2   3
ATOM      3  N   UNL A   1      32.691  22.203  26.945  1.00  0.00    -0.354 N 
ATOM      4  C   UNL A   1      31.858  23.259  26.780  1.00  0.00     0.245 C 
ATOM      5  O   UNL A   1      30.917  23.280  27.583  1.00  0.00    -0.272 OA
ATOM      6  H   UNL A   1      32.885  21.970  27.882  1.00  0.00     0.163 HD
BRANCH   4   7
ATOM      7  C   UNL A   1      31.986  24.308  25.627  1.00  0.00     0.116 C 
ATOM      8  C   UNL A   1      31.766  23.453  24.354  1.00  0.00     0.045 C 
BRANCH   7   9
ATOM      9  N   UNL A   1      30.901  25.337  25.616  1.00  0.00    -0.341 N 
ATOM     10  C   UNL A   1      30.445  26.185  24.639  1.00  0.00     0.232 C 
ATOM     11  O   UNL A   1      29.234  26.416  24.618  1.00  0.00    -0.274 OA
ATOM     12  H   UNL A   1      30.423  25.421  26.471  1.00  0.00     0.164 HD
BRANCH  10  13
ATOM     13  C   UNL A   1      31.425  26.885  23.706  1.00  0.00     0.164 C 
ATOM     14  C   UNL A   1      31.637  28.355  24.106  1.00  0.00     0.223 C 
ATOM     15  C   UNL A   1      30.616  29.074  23.232  1.00  0.00     0.225 C 
ATOM     16  O   UNL A   1      30.584  28.359  21.993  1.00  0.00    -0.374 OA
ATOM     17  C   UNL A   1      30.902  26.988  22.276  1.00  0.00     0.180 C 
BRANCH  14  18
ATOM     18  N   UNL A   1      31.553  28.603  25.548  1.00  0.00    -0.341 N 
ATOM     19  H   UNL A   1      30.593  28.418  25.839  1.00  0.00     0.346 HD
ATOM     20  H   UNL A   1      32.247  27.986  25.971  1.00  0.00     0.346 HD
BRANCH  18  21
ATOM     21  C   UNL A   1      31.901  29.940  25.993  1.00  0.00     0.260 C 
BRANCH  21  22
ATOM     22  C   UNL A   1      33.296  29.933  26.632  1.00  0.00     0.058 C 
ATOM     23  C   UNL A   1      33.698  28.585  27.216  1.00  0.00     0.010 C 
ENDBRANCH  21  22
ENDBRANCH  18  21
ENDBRANCH  14  18
ENDBRANCH  10  13
ENDBRANCH   7   9
BRANCH   7  24
ATOM     24  C   UNL A   1      33.336  25.056  25.486  1.00  0.00     0.035 C 
ATOM     25  C   UNL A   1      34.241  24.599  24.353  1.00  0.00     0.007 C 
ENDBRANCH   7  24
ENDBRANCH   4   7
ENDBRANCH   2   3
ENDBRANCH   1   2
BRANCH   1  26
ATOM     26  C   UNL A   1      35.610  20.635  24.999  1.00  0.00     0.002 C 
BRANCH  26  27
ATOM     27  C   UNL A   1      37.075  21.037  24.796  1.00  0.00     0.002 C 
BRANCH  27  28
ATOM     28  C   UNL A   1      38.092  19.910  24.977  1.00  0.00     0.021 C 
BRANCH  28  29
ATOM     29  C   UNL A   1      39.209  20.221  25.961  1.00  0.00     0.116 C 
BRANCH  29  30
ATOM     30  N   UNL A   1      40.220  19.179  25.991  1.00  0.00    -0.352 N 
ATOM     31  C   UNL A   1      41.581  19.310  26.099  1.00  0.00     0.251 C 
ATOM     32  H   UNL A   1      39.885  18.256  25.924  1.00  0.00     0.163 HD
ATOM     33  O   UNL A   1      42.317  18.342  25.922  1.00  0.00    -0.269 OA
BRANCH  31  34
ATOM     34  C   UNL A   1      42.160  20.633  26.407  1.00  0.00     0.039 A 
ATOM     35  C   UNL A   1      42.576  21.449  25.353  1.00  0.00     0.014 A 
ATOM     36  C   UNL A   1      42.273  21.070  27.730  1.00  0.00     0.014 A 
ATOM     37  C   UNL A   1      43.059  22.729  25.626  1.00  0.00     0.010 A 
ATOM     38  C   UNL A   1      42.674  22.375  27.992  1.00  0.00     0.010 A 
ATOM     39  C   UNL A   1      43.082  23.213  26.944  1.00  0.00    -0.014 A 
BRANCH  39  40
ATOM     40  C   UNL A   1      43.540  24.593  27.245  1.00  0.00     0.031 A 
ATOM     41  C   UNL A   1      42.565  25.620  27.743  1.00  0.00     0.074 A 
ATOM     42  C   UNL A   1      44.820  24.935  27.006  1.00  0.00     0.049 A 
ATOM     43  N   UNL A   1      42.760  26.887  28.012  1.00  0.00    -0.248 NA
ATOM     44  C   UNL A   1      41.176  25.174  27.931  1.00  0.00     0.031 C 
ATOM     45  C   UNL A   1      45.843  24.043  26.462  1.00  0.00     0.029 A 
ATOM     46  N   UNL A   1      45.473  26.130  27.174  1.00  0.00    -0.354 N 
ATOM     47  C   UNL A   1      41.521  27.387  28.387  1.00  0.00     0.074 A 
ATOM     48  C   UNL A   1      40.569  26.308  28.244  1.00  0.00     0.031 C 
ATOM     49  C   UNL A   1      47.001  24.715  26.356  1.00  0.00     0.029 A 
ATOM     50  C   UNL A   1      46.790  26.093  26.788  1.00  0.00     0.049 A 
ATOM     51  H   UNL A   1      45.039  26.935  27.536  1.00  0.00     0.167 HD
ATOM     52  C   UNL A   1      41.210  28.628  28.835  1.00  0.00     0.037 A 
ATOM     53  C   UNL A   1      47.721  27.067  26.772  1.00  0.00     0.037 A 
ATOM     54  C   UNL A   1      42.167  29.694  28.983  1.00  0.00     0.049 A 
ATOM     55  C   UNL A   1      47.359  28.436  27.274  1.00  0.00     0.074 A 
ATOM     56  C   UNL A   1      41.972  30.965  29.492  1.00  0.00     0.029 A 
ATOM     57  N   UNL A   1      43.501  29.614  28.606  1.00  0.00    -0.354 N 
ATOM     58  N   UNL A   1      46.204  28.878  27.710  1.00  0.00    -0.248 NA
ATOM     59  C   UNL A   1      48.431  29.440  27.293  1.00  0.00     0.031 C 
ATOM     60  C   UNL A   1      43.171  31.675  29.364  1.00  0.00     0.029 A 
ATOM     61  C   UNL A   1      44.133  30.826  28.839  1.00  0.00     0.049 A 
ATOM     62  H   UNL A   1      43.934  28.815  28.229  1.00  0.00     0.167 HD
ATOM     63  C   UNL A   1      46.411  30.202  28.074  1.00  0.00     0.074 A 
ATOM     64  C   UNL A   1      47.810  30.485  27.823  1.00  0.00     0.031 C 
ATOM     65  C   UNL A   1      45.524  31.099  28.573  1.00  0.00     0.037 A 
BRANCH  52  66
ATOM     66  C   UNL A   1      39.770  28.893  29.178  1.00  0.00     0.064 A 
ATOM     67  C   UNL A   1      39.263  28.675  30.470  1.00  0.00     0.173 A 
ATOM     68  C   UNL A   1      38.881  29.364  28.200  1.00  0.00     0.173 A 
ATOM     69  F   UNL A   1      40.065  28.216  31.443  1.00  0.00    -0.203 F 
ATOM     70  C   UNL A   1      37.912  28.865  30.753  1.00  0.00     0.198 A 
ATOM     71  C   UNL A   1      37.539  29.591  28.498  1.00  0.00     0.198 A 
ATOM     72  F   UNL A   1      39.310  29.599  26.951  1.00  0.00    -0.203 F 
ATOM     73  F   UNL A   1      37.439  28.573  31.973  1.00  0.00    -0.200 F 
ATOM     74  C   UNL A   1      37.053  29.326  29.769  1.00  0.00     0.200 A 
ATOM     75  F   UNL A   1      36.713  30.051  27.548  1.00  0.00    -0.200 F 
ATOM     76  F   UNL A   1      35.753  29.504  30.041  1.00  0.00    -0.200 F 
ENDBRANCH  52  66
BRANCH  53  77
ATOM     77  C   UNL A   1      49.087  26.757  26.277  1.00  0.00     0.064 A 
ATOM     78  C   UNL A   1      50.048  26.180  27.116  1.00  0.00     0.173 A 
ATOM     79  C   UNL A   1      49.443  26.991  24.940  1.00  0.00     0.173 A 
ATOM     80  F   UNL A   1      49.762  25.952  28.407  1.00  0.00    -0.203 F 
ATOM     81  C   UNL A   1      51.317  25.855  26.639  1.00  0.00     0.198 A 
ATOM     82  C   UNL A   1      50.701  26.640  24.457  1.00  0.00     0.198 A 
ATOM     83  F   UNL A   1      48.554  27.533  24.094  1.00  0.00    -0.203 F 
ATOM     84  F   UNL A   1      52.229  25.331  27.471  1.00  0.00    -0.200 F 
ATOM     85  C   UNL A   1      51.638  26.076  25.309  1.00  0.00     0.200 A 
ATOM     86  F   UNL A   1      50.999  26.836  23.166  1.00  0.00    -0.200 F 
ATOM     87  F   UNL A   1      52.852  25.745  24.846  1.00  0.00    -0.200 F 
ENDBRANCH  53  77
BRANCH  65  88
ATOM     88  C   UNL A   1      46.043  32.471  28.900  1.00  0.00     0.064 A 
ATOM     89  C   UNL A   1      46.595  32.773  30.154  1.00  0.00     0.173 A 
ATOM     90  C   UNL A   1      46.027  33.486  27.929  1.00  0.00     0.173 A 
ATOM     91  F   UNL A   1      46.620  31.844  31.121  1.00  0.00    -0.203 F 
ATOM     92  C   UNL A   1      47.084  34.046  30.433  1.00  0.00     0.198 A 
ATOM     93  C   UNL A   1      46.549  34.747  28.200  1.00  0.00     0.198 A 
ATOM     94  F   UNL A   1      45.519  33.248  26.711  1.00  0.00    -0.203 F 
ATOM     95  F   UNL A   1      47.558  34.326  31.655  1.00  0.00    -0.200 F 
ATOM     96  C   UNL A   1      47.069  35.029  29.454  1.00  0.00     0.200 A 
ATOM     97  F   UNL A   1      46.548  35.689  27.248  1.00  0.00    -0.200 F 
ATOM     98  F   UNL A   1      47.550  36.251  29.722  1.00  0.00    -0.200 F 
ENDBRANCH  65  88
ENDBRANCH  39  40
ENDBRANCH  31  34
ENDBRANCH  29  30
ENDBRANCH  28  29
ENDBRANCH  27  28
ENDBRANCH  26  27
ENDBRANCH   1  26
TORSDOF 19
ENDMDL
MODEL 2
REMARK VINA RESULT:     -11.0      5.343     10.967
REMARK SMILES CCC[NH2+][C@@H]1COC[C@@H]1C(=O)N[C@@](C)(CC)C(=O)NCCCCCCNC(=O)c1ccc(-c2c3nc(c(-c4c(F)c(F)c(F)c(F)c4F)c4ccc([nH]4)c(-c4c(F)c(F)c(F)c(F)c4F)c4nc(c(-c5c(F)c(F)c(F)c(F)c5F)c5ccc2[nH]5)C=C4)C=C3)cc1
REMARK SMILES IDX 21 1 20 2 19 3 17 4 18 5 13 7 14 8 12 9 10 10 11 11 9 13
REMARK SMILES IDX 5 14 6 15 7 16 8 17 4 18 3 21 2 22 1 23 15 24 16 25 22 26
REMARK SMILES IDX 23 27 24 28 25 29 26 30 27 31 28 33 29 34 30 35 91 36 31 37
REMARK SMILES IDX 90 38 32 39 33 40 34 41 84 42 35 43 89 44 83 45 85 46 36 47
REMARK SMILES IDX 88 48 82 49 81 50 37 52 69 53 49 54 68 55 50 56 53 57 67 58
REMARK SMILES IDX 86 59 51 60 52 61 66 63 87 64 54 65 38 66 39 67 47 68 40 69
REMARK SMILES IDX 41 70 45 71 48 72 42 73 43 74 46 75 44 76 70 77 71 78 79 79
REMARK SMILES IDX 72 80 73 81 77 82 80 83 74 84 75 85 78 86 76 87 55 88 56 89
REMARK SMILES IDX 64 90 57 91 58 92 62 93 65 94 59 95 60 96 63 97 61 98
REMARK H PARENT 19 6 12 12 4 19 4 20 26 32 85 51 53 62
REMARK Flexibility Score: inf
ROOT
ATOM      1  C   UNL A   1      33.710  29.256  26.755  1.00  0.00     0.021 C 
ENDROOT
BRANCH   1   2
ATOM      2  C   UNL A   1      33.543  27.795  26.359  1.00  0.00     0.116 C 
BRANCH   2   3
ATOM      3  N   UNL A   1      32.241  27.284  26.720  1.00  0.00    -0.354 N 
ATOM      4  C   UNL A   1      31.429  26.421  26.063  1.00  0.00     0.245 C 
ATOM      5  O   UNL A   1      30.867  25.606  26.803  1.00  0.00    -0.272 OA
ATOM      6  H   UNL A   1      31.889  27.615  27.578  1.00  0.00     0.163 HD
BRANCH   4   7
ATOM      7  C   UNL A   1      31.280  26.367  24.506  1.00  0.00     0.116 C 
ATOM      8  C   UNL A   1      31.255  27.862  24.106  1.00  0.00     0.045 C 
BRANCH   7   9
ATOM      9  N   UNL A   1      32.460  25.778  23.802  1.00  0.00    -0.341 N 
ATOM     10  C   UNL A   1      32.818  24.482  23.527  1.00  0.00     0.232 C 
ATOM     11  O   UNL A   1      33.387  24.274  22.453  1.00  0.00    -0.274 OA
ATOM     12  H   UNL A   1      33.102  26.446  23.472  1.00  0.00     0.164 HD
BRANCH  10  13
ATOM     13  C   UNL A   1      32.609  23.388  24.565  1.00  0.00     0.164 C 
ATOM     14  C   UNL A   1      33.944  22.921  25.172  1.00  0.00     0.223 C 
ATOM     15  C   UNL A   1      34.295  21.728  24.291  1.00  0.00     0.225 C 
ATOM     16  O   UNL A   1      33.053  21.093  23.973  1.00  0.00    -0.374 OA
ATOM     17  C   UNL A   1      32.038  22.107  23.962  1.00  0.00     0.180 C 
BRANCH  14  18
ATOM     18  N   UNL A   1      34.955  23.976  25.279  1.00  0.00    -0.341 N 
ATOM     19  H   UNL A   1      35.312  24.160  24.341  1.00  0.00     0.346 HD
ATOM     20  H   UNL A   1      34.479  24.768  25.711  1.00  0.00     0.346 HD
BRANCH  18  21
ATOM     21  C   UNL A   1      36.092  23.693  26.137  1.00  0.00     0.260 C 
BRANCH  21  22
ATOM     22  C   UNL A   1      37.359  23.525  25.288  1.00  0.00     0.058 C 
ATOM     23  C   UNL A   1      37.893  22.099  25.255  1.00  0.00     0.010 C 
ENDBRANCH  21  22
ENDBRANCH  18  21
ENDBRANCH  14  18
ENDBRANCH  10  13
ENDBRANCH   7   9
BRANCH   7  24
ATOM     24  C   UNL A   1      30.011  25.686  23.933  1.00  0.00     0.035 C 
ATOM     25  C   UNL A   1      28.772  26.562  23.822  1.00  0.00     0.007 C 
ENDBRANCH   7  24
ENDBRANCH   4   7
ENDBRANCH   2   3
ENDBRANCH   1   2
BRANCH   1  26
ATOM     26  C   UNL A   1      32.423  29.933  27.249  1.00  0.00     0.002 C 
BRANCH  26  27
ATOM     27  C   UNL A   1      31.703  30.815  26.223  1.00  0.00     0.002 C 
BRANCH  27  28
ATOM     28  C   UNL A   1      31.484  32.267  26.649  1.00  0.00     0.021 C 
BRANCH  28  29
ATOM     29  C   UNL A   1      32.686  32.914  27.318  1.00  0.00     0.116 C 
BRANCH  29  30
ATOM     30  N   UNL A   1      32.428  34.293  27.695  1.00  0.00    -0.352 N 
ATOM     31  C   UNL A   1      33.008  35.030  28.695  1.00  0.00     0.251 C 
ATOM     32  H   UNL A   1      31.746  34.761  27.161  1.00  0.00     0.163 HD
ATOM     33  O   UNL A   1      32.550  36.127  29.008  1.00  0.00    -0.269 OA
BRANCH  31  34
ATOM     34  C   UNL A   1      34.177  34.485  29.414  1.00  0.00     0.039 A 
ATOM     35  C   UNL A   1      33.978  33.843  30.638  1.00  0.00     0.014 A 
ATOM     36  C   UNL A   1      35.460  34.591  28.869  1.00  0.00     0.014 A 
ATOM     37  C   UNL A   1      35.063  33.262  31.293  1.00  0.00     0.010 A 
ATOM     38  C   UNL A   1      36.524  33.938  29.481  1.00  0.00     0.010 A 
ATOM     39  C   UNL A   1      36.339  33.277  30.704  1.00  0.00    -0.014 A 
BRANCH  39  40
ATOM     40  C   UNL A   1      37.492  32.614  31.361  1.00  0.00     0.031 A 
ATOM     41  C   UNL A   1      38.172  31.450  30.699  1.00  0.00     0.074 A 
ATOM     42  C   UNL A   1      37.885  33.019  32.584  1.00  0.00     0.049 A 
ATOM     43  N   UNL A   1      39.159  30.709  31.135  1.00  0.00    -0.248 NA
ATOM     44  C   UNL A   1      37.649  31.042  29.387  1.00  0.00     0.031 C 
ATOM     45  C   UNL A   1      37.262  34.096  33.354  1.00  0.00     0.029 A 
ATOM     46  N   UNL A   1      38.889  32.562  33.398  1.00  0.00    -0.354 N 
ATOM     47  C   UNL A   1      39.364  29.744  30.159  1.00  0.00     0.074 A 
ATOM     48  C   UNL A   1      38.356  29.950  29.142  1.00  0.00     0.031 C 
ATOM     49  C   UNL A   1      37.908  34.229  34.524  1.00  0.00     0.029 A 
ATOM     50  C   UNL A   1      38.963  33.223  34.600  1.00  0.00     0.049 A 
ATOM     51  H   UNL A   1      39.498  31.832  33.146  1.00  0.00     0.167 HD
ATOM     52  C   UNL A   1      40.324  28.788  30.102  1.00  0.00     0.037 A 
ATOM     53  C   UNL A   1      39.783  33.031  35.651  1.00  0.00     0.037 A 
ATOM     54  C   UNL A   1      41.330  28.596  31.114  1.00  0.00     0.049 A 
ATOM     55  C   UNL A   1      40.843  31.967  35.570  1.00  0.00     0.074 A 
ATOM     56  C   UNL A   1      42.388  27.706  31.123  1.00  0.00     0.029 A 
ATOM     57  N   UNL A   1      41.392  29.302  32.309  1.00  0.00    -0.354 N 
ATOM     58  N   UNL A   1      41.086  31.115  34.604  1.00  0.00    -0.248 NA
ATOM     59  C   UNL A   1      41.748  31.846  36.720  1.00  0.00     0.031 C 
ATOM     60  C   UNL A   1      43.051  27.827  32.349  1.00  0.00     0.029 A 
ATOM     61  C   UNL A   1      42.449  28.841  33.077  1.00  0.00     0.049 A 
ATOM     62  H   UNL A   1      40.775  30.023  32.571  1.00  0.00     0.167 HD
ATOM     63  C   UNL A   1      42.182  30.370  35.016  1.00  0.00     0.074 A 
ATOM     64  C   UNL A   1      42.567  30.884  36.316  1.00  0.00     0.031 C 
ATOM     65  C   UNL A   1      42.814  29.354  34.376  1.00  0.00     0.037 A 
BRANCH  52  66
ATOM     66  C   UNL A   1      40.312  27.873  28.909  1.00  0.00     0.064 A 
ATOM     67  C   UNL A   1      39.605  26.659  28.911  1.00  0.00     0.173 A 
ATOM     68  C   UNL A   1      41.024  28.209  27.747  1.00  0.00     0.173 A 
ATOM     69  F   UNL A   1      38.915  26.281  29.998  1.00  0.00    -0.203 F 
ATOM     70  C   UNL A   1      39.658  25.794  27.821  1.00  0.00     0.198 A 
ATOM     71  C   UNL A   1      41.041  27.360  26.643  1.00  0.00     0.198 A 
ATOM     72  F   UNL A   1      41.710  29.360  27.683  1.00  0.00    -0.203 F 
ATOM     73  F   UNL A   1      39.040  24.606  27.881  1.00  0.00    -0.200 F 
ATOM     74  C   UNL A   1      40.372  26.147  26.686  1.00  0.00     0.200 A 
ATOM     75  F   UNL A   1      41.719  27.710  25.542  1.00  0.00    -0.200 F 
ATOM     76  F   UNL A   1      40.425  25.313  25.640  1.00  0.00    -0.200 F 
ENDBRANCH  52  66
BRANCH  53  77
ATOM     77  C   UNL A   1      39.633  33.887  36.855  1.00  0.00     0.064 A 
ATOM     78  C   UNL A   1      40.254  35.139  36.937  1.00  0.00     0.173 A 
ATOM     79  C   UNL A   1      38.825  33.487  37.931  1.00  0.00     0.173 A 
ATOM     80  F   UNL A   1      41.049  35.559  35.942  1.00  0.00    -0.203 F 
ATOM     81  C   UNL A   1      40.080  35.957  38.052  1.00  0.00     0.198 A 
ATOM     82  C   UNL A   1      38.629  34.317  39.032  1.00  0.00     0.198 A 
ATOM     83  F   UNL A   1      38.200  32.300  37.897  1.00  0.00    -0.203 F 
ATOM     84  F   UNL A   1      40.710  37.139  38.119  1.00  0.00    -0.200 F 
ATOM     85  C   UNL A   1      39.260  35.550  39.094  1.00  0.00     0.200 A 
ATOM     86  F   UNL A   1      37.819  33.927  40.026  1.00  0.00    -0.200 F 
ATOM     87  F   UNL A   1      39.077  36.345  40.157  1.00  0.00    -0.200 F 
ENDBRANCH  53  77
BRANCH  65  88
ATOM     88  C   UNL A   1      44.002  28.741  35.062  1.00  0.00     0.064 A 
ATOM     89  C   UNL A   1      45.300  29.236  34.876  1.00  0.00     0.173 A 
ATOM     90  C   UNL A   1      43.831  27.668  35.952  1.00  0.00     0.173 A 
ATOM     91  F   UNL A   1      45.520  30.250  34.025  1.00  0.00    -0.203 F 
ATOM     92  C   UNL A   1      46.387  28.664  35.533  1.00  0.00     0.198 A 
ATOM     93  C   UNL A   1      44.914  27.120  36.633  1.00  0.00     0.198 A 
ATOM     94  F   UNL A   1      42.610  27.160  36.173  1.00  0.00    -0.203 F 
ATOM     95  F   UNL A   1      47.625  29.121  35.299  1.00  0.00    -0.200 F 
ATOM     96  C   UNL A   1      46.192  27.613  36.417  1.00  0.00     0.200 A 
ATOM     97  F   UNL A   1      44.722  26.116  37.499  1.00  0.00    -0.200 F 
ATOM     98  F   UNL A   1      47.238  27.069  37.055  1.00  0.00    -0.200 F 
ENDBRANCH  65  88
ENDBRANCH  39  40
ENDBRANCH  31  34
ENDBRANCH  29  30
ENDBRANCH  28  29
ENDBRANCH  27  28
ENDBRANCH  26  27
ENDBRANCH   1  26
TORSDOF 19
ENDMDL
MODEL 3
REMARK VINA RESULT:     -10.9      5.346     11.098
REMARK SMILES CCC[NH2+][C@@H]1COC[C@@H]1C(=O)N[C@@](C)(CC)C(=O)NCCCCCCNC(=O)c1ccc(-c2c3nc(c(-c4c(F)c(F)c(F)c(F)c4F)c4ccc([nH]4)c(-c4c(F)c(F)c(F)c(F)c4F)c4nc(c(-c5c(F)c(F)c(F)c(F)c5F)c5ccc2[nH]5)C=C4)C=C3)cc1
REMARK SMILES IDX 21 1 20 2 19 3 17 4 18 5 13 7 14 8 12 9 10 10 11 11 9 13
REMARK SMILES IDX 5 14 6 15 7 16 8 17 4 18 3 21 2 22 1 23 15 24 16 25 22 26
REMARK SMILES IDX 23 27 24 28 25 29 26 30 27 31 28 33 29 34 30 35 91 36 31 37
REMARK SMILES IDX 90 38 32 39 33 40 34 41 84 42 35 43 89 44 83 45 85 46 36 47
REMARK SMILES IDX 88 48 82 49 81 50 37 52 69 53 49 54 68 55 50 56 53 57 67 58
REMARK SMILES IDX 86 59 51 60 52 61 66 63 87 64 54 65 38 66 39 67 47 68 40 69
REMARK SMILES IDX 41 70 45 71 48 72 42 73 43 74 46 75 44 76 70 77 71 78 79 79
REMARK SMILES IDX 72 80 73 81 77 82 80 83 74 84 75 85 78 86 76 87 55 88 56 89
REMARK SMILES IDX 64 90 57 91 58 92 62 93 65 94 59 95 60 96 63 97 61 98
REMARK H PARENT 19 6 12 12 4 19 4 20 26 32 85 51 53 62
REMARK Flexibility Score: inf
ROOT
ATOM      1  C   UNL A   1      32.267  28.436  25.733  1.00  0.00     0.021 C 
ENDROOT
BRANCH   1   2
ATOM      2  C   UNL A   1      33.289  27.369  26.108  1.00  0.00     0.116 C 
BRANCH   2   3
ATOM      3  N   UNL A   1      33.661  26.558  24.972  1.00  0.00    -0.354 N 
ATOM      4  C   UNL A   1      32.953  25.615  24.303  1.00  0.00     0.245 C 
ATOM      5  O   UNL A   1      33.106  25.657  23.076  1.00  0.00    -0.272 OA
ATOM      6  H   UNL A   1      34.571  26.714  24.631  1.00  0.00     0.163 HD
BRANCH   4   7
ATOM      7  C   UNL A   1      31.947  24.627  24.979  1.00  0.00     0.116 C 
ATOM      8  C   UNL A   1      31.491  23.734  23.799  1.00  0.00     0.045 C 
BRANCH   7   9
ATOM      9  N   UNL A   1      32.576  23.700  25.969  1.00  0.00    -0.341 N 
ATOM     10  C   UNL A   1      33.808  23.098  26.015  1.00  0.00     0.232 C 
ATOM     11  O   UNL A   1      34.324  22.962  27.126  1.00  0.00    -0.274 OA
ATOM     12  H   UNL A   1      31.997  23.480  26.733  1.00  0.00     0.164 HD
BRANCH  10  13
ATOM     13  C   UNL A   1      34.438  22.532  24.749  1.00  0.00     0.164 C 
ATOM     14  C   UNL A   1      34.791  21.043  24.909  1.00  0.00     0.223 C 
ATOM     15  C   UNL A   1      36.247  21.106  25.354  1.00  0.00     0.225 C 
ATOM     16  O   UNL A   1      36.826  22.212  24.654  1.00  0.00    -0.374 OA
ATOM     17  C   UNL A   1      35.784  23.173  24.426  1.00  0.00     0.180 C 
BRANCH  14  18
ATOM     18  N   UNL A   1      33.874  20.299  25.776  1.00  0.00    -0.341 N 
ATOM     19  H   UNL A   1      34.399  19.533  26.199  1.00  0.00     0.346 HD
ATOM     20  H   UNL A   1      33.517  20.982  26.445  1.00  0.00     0.346 HD
BRANCH  18  21
ATOM     21  C   UNL A   1      32.701  19.732  25.137  1.00  0.00     0.260 C 
BRANCH  21  22
ATOM     22  C   UNL A   1      32.914  18.233  24.886  1.00  0.00     0.058 C 
ATOM     23  C   UNL A   1      32.906  17.848  23.412  1.00  0.00     0.010 C 
ENDBRANCH  21  22
ENDBRANCH  18  21
ENDBRANCH  14  18
ENDBRANCH  10  13
ENDBRANCH   7   9
BRANCH   7  24
ATOM     24  C   UNL A   1      30.688  25.234  25.648  1.00  0.00     0.035 C 
ATOM     25  C   UNL A   1      29.724  25.964  24.724  1.00  0.00     0.007 C 
ENDBRANCH   7  24
ENDBRANCH   4   7
ENDBRANCH   2   3
ENDBRANCH   1   2
BRANCH   1  26
ATOM     26  C   UNL A   1      32.545  29.822  26.335  1.00  0.00     0.002 C 
BRANCH  26  27
ATOM     27  C   UNL A   1      31.606  30.942  25.875  1.00  0.00     0.002 C 
BRANCH  27  28
ATOM     28  C   UNL A   1      31.403  32.077  26.879  1.00  0.00     0.021 C 
BRANCH  28  29
ATOM     29  C   UNL A   1      32.676  32.819  27.256  1.00  0.00     0.116 C 
BRANCH  29  30
ATOM     30  N   UNL A   1      32.418  34.202  27.619  1.00  0.00    -0.352 N 
ATOM     31  C   UNL A   1      32.992  34.946  28.618  1.00  0.00     0.251 C 
ATOM     32  H   UNL A   1      31.742  34.667  27.076  1.00  0.00     0.163 HD
ATOM     33  O   UNL A   1      32.534  36.046  28.918  1.00  0.00    -0.269 OA
BRANCH  31  34
ATOM     34  C   UNL A   1      34.154  34.404  29.350  1.00  0.00     0.039 A 
ATOM     35  C   UNL A   1      33.936  33.691  30.530  1.00  0.00     0.014 A 
ATOM     36  C   UNL A   1      35.451  34.583  28.859  1.00  0.00     0.014 A 
ATOM     37  C   UNL A   1      35.018  33.114  31.194  1.00  0.00     0.010 A 
ATOM     38  C   UNL A   1      36.516  33.936  29.476  1.00  0.00     0.010 A 
ATOM     39  C   UNL A   1      36.312  33.205  30.655  1.00  0.00    -0.014 A 
BRANCH  39  40
ATOM     40  C   UNL A   1      37.466  32.548  31.318  1.00  0.00     0.031 A 
ATOM     41  C   UNL A   1      38.158  31.391  30.658  1.00  0.00     0.074 A 
ATOM     42  C   UNL A   1      37.846  32.952  32.545  1.00  0.00     0.049 A 
ATOM     43  N   UNL A   1      39.148  30.655  31.099  1.00  0.00    -0.248 NA
ATOM     44  C   UNL A   1      37.648  30.983  29.340  1.00  0.00     0.031 C 
ATOM     45  C   UNL A   1      37.210  34.022  33.314  1.00  0.00     0.029 A 
ATOM     46  N   UNL A   1      38.848  32.500  33.365  1.00  0.00    -0.354 N 
ATOM     47  C   UNL A   1      39.367  29.695  30.122  1.00  0.00     0.074 A 
ATOM     48  C   UNL A   1      38.365  29.897  29.098  1.00  0.00     0.031 C 
ATOM     49  C   UNL A   1      37.847  34.156  34.488  1.00  0.00     0.029 A 
ATOM     50  C   UNL A   1      38.908  33.158  34.569  1.00  0.00     0.049 A 
ATOM     51  H   UNL A   1      39.464  31.775  33.116  1.00  0.00     0.167 HD
ATOM     52  C   UNL A   1      40.334  28.745  30.069  1.00  0.00     0.037 A 
ATOM     53  C   UNL A   1      39.722  32.969  35.626  1.00  0.00     0.037 A 
ATOM     54  C   UNL A   1      41.333  28.558  31.089  1.00  0.00     0.049 A 
ATOM     55  C   UNL A   1      40.789  31.913  35.550  1.00  0.00     0.074 A 
ATOM     56  C   UNL A   1      42.398  27.675  31.103  1.00  0.00     0.029 A 
ATOM     57  N   UNL A   1      41.381  29.261  32.286  1.00  0.00    -0.354 N 
ATOM     58  N   UNL A   1      41.046  31.065  34.583  1.00  0.00    -0.248 NA
ATOM     59  C   UNL A   1      41.687  31.795  36.706  1.00  0.00     0.031 C 
ATOM     60  C   UNL A   1      43.051  27.798  32.334  1.00  0.00     0.029 A 
ATOM     61  C   UNL A   1      42.437  28.805  33.061  1.00  0.00     0.049 A 
ATOM     62  H   UNL A   1      40.757  29.976  32.546  1.00  0.00     0.167 HD
ATOM     63  C   UNL A   1      42.144  30.327  35.002  1.00  0.00     0.074 A 
ATOM     64  C   UNL A   1      42.516  30.840  36.306  1.00  0.00     0.031 C 
ATOM     65  C   UNL A   1      42.788  29.317  34.363  1.00  0.00     0.037 A 
BRANCH  52  66
ATOM     66  C   UNL A   1      40.337  27.833  28.874  1.00  0.00     0.064 A 
ATOM     67  C   UNL A   1      39.617  26.627  28.858  1.00  0.00     0.173 A 
ATOM     68  C   UNL A   1      41.077  28.165  27.729  1.00  0.00     0.173 A 
ATOM     69  F   UNL A   1      38.899  26.254  29.929  1.00  0.00    -0.203 F 
ATOM     70  C   UNL A   1      39.683  25.765  27.766  1.00  0.00     0.198 A 
ATOM     71  C   UNL A   1      41.108  27.319  26.623  1.00  0.00     0.198 A 
ATOM     72  F   UNL A   1      41.777  29.309  27.682  1.00  0.00    -0.203 F 
ATOM     73  F   UNL A   1      39.051  24.584  27.810  1.00  0.00    -0.200 F 
ATOM     74  C   UNL A   1      40.425  26.113  26.648  1.00  0.00     0.200 A 
ATOM     75  F   UNL A   1      41.814  27.664  25.537  1.00  0.00    -0.200 F 
ATOM     76  F   UNL A   1      40.492  25.281  25.601  1.00  0.00    -0.200 F 
ENDBRANCH  52  66
BRANCH  53  77
ATOM     77  C   UNL A   1      39.556  33.820  36.832  1.00  0.00     0.064 A 
ATOM     78  C   UNL A   1      40.148  35.087  36.912  1.00  0.00     0.173 A 
ATOM     79  C   UNL A   1      38.763  33.401  37.911  1.00  0.00     0.173 A 
ATOM     80  F   UNL A   1      40.929  35.526  35.913  1.00  0.00    -0.203 F 
ATOM     81  C   UNL A   1      39.960  35.900  38.028  1.00  0.00     0.198 A 
ATOM     82  C   UNL A   1      38.552  34.225  39.013  1.00  0.00     0.198 A 
ATOM     83  F   UNL A   1      38.166  32.199  37.879  1.00  0.00    -0.203 F 
ATOM     84  F   UNL A   1      40.561  37.096  38.092  1.00  0.00    -0.200 F 
ATOM     85  C   UNL A   1      39.154  35.473  39.073  1.00  0.00     0.200 A 
ATOM     86  F   UNL A   1      37.756  33.816  40.010  1.00  0.00    -0.200 F 
ATOM     87  F   UNL A   1      38.957  36.263  40.137  1.00  0.00    -0.200 F 
ENDBRANCH  53  77
BRANCH  65  88
ATOM     88  C   UNL A   1      43.975  28.710  35.057  1.00  0.00     0.064 A 
ATOM     89  C   UNL A   1      43.848  27.597  35.901  1.00  0.00     0.173 A 
ATOM     90  C   UNL A   1      45.263  29.225  34.840  1.00  0.00     0.173 A 
ATOM     91  F   UNL A   1      42.638  27.076  36.154  1.00  0.00    -0.203 F 
ATOM     92  C   UNL A   1      44.962  27.040  36.523  1.00  0.00     0.198 A 
ATOM     93  C   UNL A   1      46.379  28.644  35.436  1.00  0.00     0.198 A 
ATOM     94  F   UNL A   1      45.442  30.284  34.036  1.00  0.00    -0.203 F 
ATOM     95  F   UNL A   1      44.811  26.009  37.366  1.00  0.00    -0.200 F 
ATOM     96  C   UNL A   1      46.227  27.558  36.283  1.00  0.00     0.200 A 
ATOM     97  F   UNL A   1      47.600  29.136  35.190  1.00  0.00    -0.200 F 
ATOM     98  F   UNL A   1      47.299  27.013  36.876  1.00  0.00    -0.200 F 
ENDBRANCH  65  88
ENDBRANCH  39  40
ENDBRANCH  31  34
ENDBRANCH  29  30
ENDBRANCH  28  29
ENDBRANCH  27  28
ENDBRANCH  26  27
ENDBRANCH   1  26
TORSDOF 19
ENDMDL
