MODEL 1
REMARK VINA RESULT:     -12.1      0.000      0.000
REMARK SMILES O=C(NCCCCCCNC(=O)c1ccc(-c2c3nc(c(-c4c(F)c(F)c(F)c(F)c4F)c4ccc([nH]4)c(-c4c(F)c(F)c(F)c(F)c4F)c4nc(c(-c5c(F)c(F)c(F)c(F)c5F)c5ccc2[nH]5)C=C4)C=C3)cc1)c1ccc(NCn2c(=S)sc3cc([N+](=O)[O-])ccc32)cc1
REMARK SMILES IDX 5 1 4 2 3 3 1 4 2 5 76 7 77 8 96 9 78 10 95 11 79 12 80 13
REMARK SMILES IDX 81 15 82 16 83 17 94 18 84 19 85 20 86 21 93 22 87 23 92 24
REMARK SMILES IDX 88 25 89 26 90 27 91 28 6 29 7 30 8 31 9 32 10 33 11 34
REMARK SMILES IDX 12 36 13 37 14 38 75 39 15 40 74 41 16 42 17 43 18 44 68 45
REMARK SMILES IDX 19 46 73 47 67 48 69 49 20 50 72 51 66 52 65 53 21 55 53 56
REMARK SMILES IDX 33 57 52 58 34 59 37 60 51 61 70 62 35 63 36 64 50 66 71 67
REMARK SMILES IDX 38 68 22 69 23 70 31 71 24 72 25 73 29 74 32 75 26 76 27 77
REMARK SMILES IDX 30 78 28 79 54 80 55 81 63 82 56 83 57 84 61 85 64 86 58 87
REMARK SMILES IDX 59 88 62 89 60 90 39 91 40 92 48 93 41 94 42 95 46 96 49 97
REMARK SMILES IDX 43 98 44 99 47 100 45 101
REMARK H PARENT 3 6 80 14 10 35 69 54 37 65
REMARK Flexibility Score: inf
ROOT
ATOM      1  C   UNL A   1      35.367  31.539  28.226  1.00  0.00     0.021 C 
ENDROOT
BRANCH   1   2
ATOM      2  C   UNL A   1      34.402  30.668  27.425  1.00  0.00     0.116 C 
BRANCH   2   3
ATOM      3  N   UNL A   1      33.100  31.297  27.316  1.00  0.00    -0.352 N 
ATOM      4  O   UNL A   1      31.075  31.683  26.427  1.00  0.00    -0.269 OA
ATOM      5  C   UNL A   1      31.981  30.882  26.643  1.00  0.00     0.251 C 
ATOM      6  H   UNL A   1      33.005  32.149  27.799  1.00  0.00     0.163 HD
BRANCH   5   7
ATOM      7  C   UNL A   1      31.821  29.475  26.216  1.00  0.00     0.039 A 
ATOM      8  C   UNL A   1      31.851  28.436  27.138  1.00  0.00     0.016 A 
ATOM      9  C   UNL A   1      31.473  29.202  24.891  1.00  0.00     0.016 A 
ATOM     10  C   UNL A   1      31.504  27.148  26.736  1.00  0.00     0.026 A 
ATOM     11  C   UNL A   1      31.062  27.911  24.526  1.00  0.00     0.026 A 
ATOM     12  C   UNL A   1      31.006  26.876  25.466  1.00  0.00     0.035 A 
BRANCH  12  13
ATOM     13  N   UNL A   1      30.345  25.702  25.155  1.00  0.00    -0.367 N 
ATOM     14  H   UNL A   1      29.371  25.683  25.297  1.00  0.00     0.162 HD
BRANCH  13  15
ATOM     15  C   UNL A   1      30.961  24.499  24.640  1.00  0.00     0.241 C 
BRANCH  15  16
ATOM     16  N   UNL A   1      32.304  24.692  24.071  1.00  0.00    -0.305 N 
ATOM     17  C   UNL A   1      32.404  24.584  22.668  1.00  0.00     0.163 A 
ATOM     18  C   UNL A   1      33.374  23.952  24.669  1.00  0.00     0.062 A 
ATOM     19  S   UNL A   1      32.310  25.815  21.547  1.00  0.00    -0.048 S 
ATOM     20  S   UNL A   1      33.067  22.997  22.253  1.00  0.00    -0.105 S 
ATOM     21  C   UNL A   1      33.921  22.999  23.798  1.00  0.00     0.061 A 
ATOM     22  C   UNL A   1      34.009  24.252  25.866  1.00  0.00     0.035 A 
ATOM     23  C   UNL A   1      35.087  22.315  24.072  1.00  0.00     0.106 A 
ATOM     24  C   UNL A   1      35.237  23.616  26.139  1.00  0.00     0.088 A 
ATOM     25  C   UNL A   1      35.769  22.664  25.237  1.00  0.00     0.270 A 
BRANCH  25  26
ATOM     26  N   UNL A   1      37.109  22.105  25.452  1.00  0.00     0.062 N 
ATOM     27  O   UNL A   1      37.943  22.821  26.025  1.00  0.00    -0.258 OA
ATOM     28  O   UNL A   1      37.319  20.947  25.067  1.00  0.00    -0.258 OA
ENDBRANCH  25  26
ENDBRANCH  15  16
ENDBRANCH  13  15
ENDBRANCH  12  13
ENDBRANCH   5   7
ENDBRANCH   2   3
ENDBRANCH   1   2
BRANCH   1  29
ATOM     29  C   UNL A   1      35.192  33.049  28.027  1.00  0.00     0.002 C 
BRANCH  29  30
ATOM     30  C   UNL A   1      34.745  33.829  29.267  1.00  0.00     0.002 C 
BRANCH  30  31
ATOM     31  C   UNL A   1      33.411  34.564  29.134  1.00  0.00     0.021 C 
BRANCH  31  32
ATOM     32  C   UNL A   1      33.409  36.001  29.643  1.00  0.00     0.116 C 
BRANCH  32  33
ATOM     33  N   UNL A   1      32.495  36.202  30.753  1.00  0.00    -0.352 N 
ATOM     34  C   UNL A   1      32.577  35.742  32.044  1.00  0.00     0.251 C 
ATOM     35  H   UNL A   1      31.700  36.747  30.551  1.00  0.00     0.163 HD
ATOM     36  O   UNL A   1      31.634  35.886  32.813  1.00  0.00    -0.269 OA
BRANCH  34  37
ATOM     37  C   UNL A   1      33.798  35.044  32.504  1.00  0.00     0.039 A 
ATOM     38  C   UNL A   1      33.688  33.724  32.949  1.00  0.00     0.014 A 
ATOM     39  C   UNL A   1      35.040  35.683  32.505  1.00  0.00     0.014 A 
ATOM     40  C   UNL A   1      34.834  33.024  33.336  1.00  0.00     0.010 A 
ATOM     41  C   UNL A   1      36.190  34.964  32.824  1.00  0.00     0.010 A 
ATOM     42  C   UNL A   1      36.099  33.628  33.245  1.00  0.00    -0.014 A 
BRANCH  42  43
ATOM     43  C   UNL A   1      37.336  32.877  33.579  1.00  0.00     0.031 A 
ATOM     44  C   UNL A   1      38.075  33.166  34.857  1.00  0.00     0.074 A 
ATOM     45  C   UNL A   1      37.828  31.979  32.704  1.00  0.00     0.049 A 
ATOM     46  N   UNL A   1      39.205  32.667  35.291  1.00  0.00    -0.248 NA
ATOM     47  C   UNL A   1      37.480  34.169  35.753  1.00  0.00     0.031 C 
ATOM     48  C   UNL A   1      37.226  31.640  31.413  1.00  0.00     0.029 A 
ATOM     49  N   UNL A   1      38.954  31.196  32.761  1.00  0.00    -0.354 N 
ATOM     50  C   UNL A   1      39.464  33.308  36.495  1.00  0.00     0.074 A 
ATOM     51  C   UNL A   1      38.398  34.264  36.704  1.00  0.00     0.031 C 
ATOM     52  C   UNL A   1      37.975  30.701  30.813  1.00  0.00     0.029 A 
ATOM     53  C   UNL A   1      39.128  30.400  31.655  1.00  0.00     0.049 A 
ATOM     54  H   UNL A   1      39.577  31.203  33.523  1.00  0.00     0.167 HD
ATOM     55  C   UNL A   1      40.489  33.104  37.357  1.00  0.00     0.037 A 
ATOM     56  C   UNL A   1      40.113  29.532  31.352  1.00  0.00     0.037 A 
ATOM     57  C   UNL A   1      41.528  32.125  37.165  1.00  0.00     0.049 A 
ATOM     58  C   UNL A   1      41.240  29.329  32.328  1.00  0.00     0.074 A 
ATOM     59  C   UNL A   1      42.562  31.788  38.019  1.00  0.00     0.029 A 
ATOM     60  N   UNL A   1      41.664  31.330  36.038  1.00  0.00    -0.354 N 
ATOM     61  N   UNL A   1      41.433  29.885  33.500  1.00  0.00    -0.248 NA
ATOM     62  C   UNL A   1      42.288  28.374  31.939  1.00  0.00     0.031 C 
ATOM     63  C   UNL A   1      43.355  30.823  37.389  1.00  0.00     0.029 A 
ATOM     64  C   UNL A   1      42.783  30.522  36.162  1.00  0.00     0.049 A 
ATOM     65  H   UNL A   1      41.056  31.337  35.263  1.00  0.00     0.167 HD
ATOM     66  C   UNL A   1      42.599  29.323  34.001  1.00  0.00     0.074 A 
ATOM     67  C   UNL A   1      43.065  28.374  33.012  1.00  0.00     0.031 C 
ATOM     68  C   UNL A   1      43.227  29.571  35.176  1.00  0.00     0.037 A 
BRANCH  55  69
ATOM     69  C   UNL A   1      40.542  33.954  38.594  1.00  0.00     0.064 A 
ATOM     70  C   UNL A   1      41.256  35.161  38.629  1.00  0.00     0.173 A 
ATOM     71  C   UNL A   1      39.825  33.582  39.741  1.00  0.00     0.173 A 
ATOM     72  F   UNL A   1      41.966  35.558  37.562  1.00  0.00    -0.203 F 
ATOM     73  C   UNL A   1      41.269  35.952  39.775  1.00  0.00     0.198 A 
ATOM     74  C   UNL A   1      39.816  34.390  40.874  1.00  0.00     0.198 A 
ATOM     75  F   UNL A   1      39.121  32.441  39.758  1.00  0.00    -0.203 F 
ATOM     76  F   UNL A   1      41.992  37.080  39.800  1.00  0.00    -0.200 F 
ATOM     77  C   UNL A   1      40.543  35.570  40.893  1.00  0.00     0.200 A 
ATOM     78  F   UNL A   1      39.104  34.026  41.950  1.00  0.00    -0.200 F 
ATOM     79  F   UNL A   1      40.548  36.339  41.991  1.00  0.00    -0.200 F 
ENDBRANCH  55  69
BRANCH  56  80
ATOM     80  C   UNL A   1      40.067  28.765  30.079  1.00  0.00     0.064 A 
ATOM     81  C   UNL A   1      39.452  27.507  30.022  1.00  0.00     0.173 A 
ATOM     82  C   UNL A   1      40.654  29.258  28.905  1.00  0.00     0.173 A 
ATOM     83  F   UNL A   1      38.897  26.982  31.125  1.00  0.00    -0.203 F 
ATOM     84  C   UNL A   1      39.448  26.759  28.846  1.00  0.00     0.198 A 
ATOM     85  C   UNL A   1      40.623  28.523  27.722  1.00  0.00     0.198 A 
ATOM     86  F   UNL A   1      41.253  30.458  28.906  1.00  0.00    -0.203 F 
ATOM     87  F   UNL A   1      38.899  25.537  28.834  1.00  0.00    -0.200 F 
ATOM     88  C   UNL A   1      40.030  27.270  27.696  1.00  0.00     0.200 A 
ATOM     89  F   UNL A   1      41.176  29.025  26.609  1.00  0.00    -0.200 F 
ATOM     90  F   UNL A   1      40.027  26.551  26.565  1.00  0.00    -0.200 F 
ENDBRANCH  56  80
BRANCH  68  91
ATOM     91  C   UNL A   1      44.463  28.774  35.479  1.00  0.00     0.064 A 
ATOM     92  C   UNL A   1      45.732  29.194  35.060  1.00  0.00     0.173 A 
ATOM     93  C   UNL A   1      44.376  27.593  36.232  1.00  0.00     0.173 A 
ATOM     94  F   UNL A   1      45.867  30.308  34.324  1.00  0.00    -0.203 F 
ATOM     95  C   UNL A   1      46.868  28.448  35.362  1.00  0.00     0.198 A 
ATOM     96  C   UNL A   1      45.517  26.866  36.559  1.00  0.00     0.198 A 
ATOM     97  F   UNL A   1      43.185  27.151  36.663  1.00  0.00    -0.203 F 
ATOM     98  F   UNL A   1      48.067  28.844  34.911  1.00  0.00    -0.200 F 
ATOM     99  C   UNL A   1      46.761  27.290  36.117  1.00  0.00     0.200 A 
ATOM    100  F   UNL A   1      45.413  25.755  37.300  1.00  0.00    -0.200 F 
ATOM    101  F   UNL A   1      47.857  26.578  36.415  1.00  0.00    -0.200 F 
ENDBRANCH  68  91
ENDBRANCH  42  43
ENDBRANCH  34  37
ENDBRANCH  32  33
ENDBRANCH  31  32
ENDBRANCH  30  31
ENDBRANCH  29  30
ENDBRANCH   1  29
TORSDOF 17
ENDMDL
MODEL 2
REMARK VINA RESULT:     -11.8      4.736      9.531
REMARK SMILES O=C(NCCCCCCNC(=O)c1ccc(-c2c3nc(c(-c4c(F)c(F)c(F)c(F)c4F)c4ccc([nH]4)c(-c4c(F)c(F)c(F)c(F)c4F)c4nc(c(-c5c(F)c(F)c(F)c(F)c5F)c5ccc2[nH]5)C=C4)C=C3)cc1)c1ccc(NCn2c(=S)sc3cc([N+](=O)[O-])ccc32)cc1
REMARK SMILES IDX 5 1 4 2 3 3 1 4 2 5 76 7 77 8 96 9 78 10 95 11 79 12 80 13
REMARK SMILES IDX 81 15 82 16 83 17 94 18 84 19 85 20 86 21 93 22 87 23 92 24
REMARK SMILES IDX 88 25 89 26 90 27 91 28 6 29 7 30 8 31 9 32 10 33 11 34
REMARK SMILES IDX 12 36 13 37 14 38 75 39 15 40 74 41 16 42 17 43 18 44 68 45
REMARK SMILES IDX 19 46 73 47 67 48 69 49 20 50 72 51 66 52 65 53 21 55 53 56
REMARK SMILES IDX 33 57 52 58 34 59 37 60 51 61 70 62 35 63 36 64 50 66 71 67
REMARK SMILES IDX 38 68 22 69 23 70 31 71 24 72 25 73 29 74 32 75 26 76 27 77
REMARK SMILES IDX 30 78 28 79 54 80 55 81 63 82 56 83 57 84 61 85 64 86 58 87
REMARK SMILES IDX 59 88 62 89 60 90 39 91 40 92 48 93 41 94 42 95 46 96 49 97
REMARK SMILES IDX 43 98 44 99 47 100 45 101
REMARK H PARENT 3 6 80 14 10 35 69 54 37 65
REMARK Flexibility Score: inf
ROOT
ATOM      1  C   UNL A   1      33.525  22.218  23.887  1.00  0.00     0.021 C 
ENDROOT
BRANCH   1   2
ATOM      2  C   UNL A   1      32.181  22.935  23.990  1.00  0.00     0.116 C 
BRANCH   2   3
ATOM      3  N   UNL A   1      31.523  22.631  25.246  1.00  0.00    -0.352 N 
ATOM      4  O   UNL A   1      31.166  22.755  27.459  1.00  0.00    -0.269 OA
ATOM      5  C   UNL A   1      31.541  23.315  26.432  1.00  0.00     0.251 C 
ATOM      6  H   UNL A   1      30.982  21.808  25.246  1.00  0.00     0.163 HD
BRANCH   5   7
ATOM      7  C   UNL A   1      31.956  24.734  26.491  1.00  0.00     0.039 A 
ATOM      8  C   UNL A   1      33.244  25.121  26.143  1.00  0.00     0.016 A 
ATOM      9  C   UNL A   1      30.993  25.714  26.742  1.00  0.00     0.016 A 
ATOM     10  C   UNL A   1      33.547  26.476  26.021  1.00  0.00     0.026 A 
ATOM     11  C   UNL A   1      31.303  27.068  26.546  1.00  0.00     0.026 A 
ATOM     12  C   UNL A   1      32.573  27.465  26.113  1.00  0.00     0.035 A 
BRANCH  12  13
ATOM     13  N   UNL A   1      32.773  28.758  25.665  1.00  0.00    -0.367 N 
ATOM     14  H   UNL A   1      33.692  29.107  25.694  1.00  0.00     0.162 HD
BRANCH  13  15
ATOM     15  C   UNL A   1      31.746  29.642  25.157  1.00  0.00     0.241 C 
BRANCH  15  16
ATOM     16  N   UNL A   1      31.367  29.400  23.756  1.00  0.00    -0.305 N 
ATOM     17  C   UNL A   1      29.983  29.374  23.485  1.00  0.00     0.163 A 
ATOM     18  C   UNL A   1      31.988  28.290  23.099  1.00  0.00     0.062 A 
ATOM     19  S   UNL A   1      29.022  30.644  22.991  1.00  0.00    -0.048 S 
ATOM     20  S   UNL A   1      29.452  27.692  23.334  1.00  0.00    -0.105 S 
ATOM     21  C   UNL A   1      31.074  27.277  22.774  1.00  0.00     0.061 A 
ATOM     22  C   UNL A   1      33.279  28.256  22.591  1.00  0.00     0.035 A 
ATOM     23  C   UNL A   1      31.394  26.211  21.960  1.00  0.00     0.106 A 
ATOM     24  C   UNL A   1      33.611  27.214  21.702  1.00  0.00     0.088 A 
ATOM     25  C   UNL A   1      32.665  26.209  21.387  1.00  0.00     0.270 A 
BRANCH  25  26
ATOM     26  N   UNL A   1      32.963  25.204  20.359  1.00  0.00     0.062 N 
ATOM     27  O   UNL A   1      32.940  25.572  19.175  1.00  0.00    -0.258 OA
ATOM     28  O   UNL A   1      33.238  24.058  20.737  1.00  0.00    -0.258 OA
ENDBRANCH  25  26
ENDBRANCH  15  16
ENDBRANCH  13  15
ENDBRANCH  12  13
ENDBRANCH   5   7
ENDBRANCH   2   3
ENDBRANCH   1   2
BRANCH   1  29
ATOM     29  C   UNL A   1      34.612  22.989  23.129  1.00  0.00     0.002 C 
BRANCH  29  30
ATOM     30  C   UNL A   1      36.039  22.805  23.655  1.00  0.00     0.002 C 
BRANCH  30  31
ATOM     31  C   UNL A   1      36.472  23.796  24.736  1.00  0.00     0.021 C 
BRANCH  31  32
ATOM     32  C   UNL A   1      36.712  23.187  26.114  1.00  0.00     0.116 C 
BRANCH  32  33
ATOM     33  N   UNL A   1      37.899  22.351  26.158  1.00  0.00    -0.352 N 
ATOM     34  C   UNL A   1      39.197  22.694  26.448  1.00  0.00     0.251 C 
ATOM     35  H   UNL A   1      37.752  21.400  25.951  1.00  0.00     0.163 HD
ATOM     36  O   UNL A   1      40.101  21.882  26.292  1.00  0.00    -0.269 OA
BRANCH  34  37
ATOM     37  C   UNL A   1      39.512  24.060  26.922  1.00  0.00     0.039 A 
ATOM     38  C   UNL A   1      39.278  24.375  28.263  1.00  0.00     0.014 A 
ATOM     39  C   UNL A   1      40.028  25.027  26.055  1.00  0.00     0.014 A 
ATOM     40  C   UNL A   1      39.619  25.640  28.749  1.00  0.00     0.010 A 
ATOM     41  C   UNL A   1      40.431  26.263  26.555  1.00  0.00     0.010 A 
ATOM     42  C   UNL A   1      40.229  26.583  27.906  1.00  0.00    -0.014 A 
BRANCH  42  43
ATOM     43  C   UNL A   1      40.668  27.905  28.422  1.00  0.00     0.031 A 
ATOM     44  C   UNL A   1      42.120  28.158  28.721  1.00  0.00     0.074 A 
ATOM     45  C   UNL A   1      39.750  28.857  28.682  1.00  0.00     0.049 A 
ATOM     46  N   UNL A   1      42.687  29.219  29.239  1.00  0.00    -0.248 NA
ATOM     47  C   UNL A   1      43.057  27.064  28.423  1.00  0.00     0.031 C 
ATOM     48  C   UNL A   1      38.307  28.719  28.474  1.00  0.00     0.029 A 
ATOM     49  N   UNL A   1      39.893  30.125  29.187  1.00  0.00    -0.354 N 
ATOM     50  C   UNL A   1      44.036  28.912  29.347  1.00  0.00     0.074 A 
ATOM     51  C   UNL A   1      44.200  27.552  28.882  1.00  0.00     0.031 C 
ATOM     52  C   UNL A   1      37.702  29.864  28.825  1.00  0.00     0.029 A 
ATOM     53  C   UNL A   1      38.705  30.802  29.319  1.00  0.00     0.049 A 
ATOM     54  H   UNL A   1      40.764  30.513  29.431  1.00  0.00     0.167 HD
ATOM     55  C   UNL A   1      45.050  29.702  29.777  1.00  0.00     0.037 A 
ATOM     56  C   UNL A   1      38.454  32.038  29.793  1.00  0.00     0.037 A 
ATOM     57  C   UNL A   1      44.889  31.068  30.204  1.00  0.00     0.049 A 
ATOM     58  C   UNL A   1      39.600  32.891  30.268  1.00  0.00     0.074 A 
ATOM     59  C   UNL A   1      45.865  31.973  30.580  1.00  0.00     0.029 A 
ATOM     60  N   UNL A   1      43.672  31.722  30.312  1.00  0.00    -0.354 N 
ATOM     61  N   UNL A   1      40.882  32.617  30.292  1.00  0.00    -0.248 NA
ATOM     62  C   UNL A   1      39.263  34.227  30.780  1.00  0.00     0.031 C 
ATOM     63  C   UNL A   1      45.235  33.162  30.964  1.00  0.00     0.029 A 
ATOM     64  C   UNL A   1      43.870  33.013  30.778  1.00  0.00     0.049 A 
ATOM     65  H   UNL A   1      42.796  31.330  30.092  1.00  0.00     0.167 HD
ATOM     66  C   UNL A   1      41.505  33.755  30.786  1.00  0.00     0.074 A 
ATOM     67  C   UNL A   1      40.462  34.727  31.038  1.00  0.00     0.031 C 
ATOM     68  C   UNL A   1      42.824  33.975  31.010  1.00  0.00     0.037 A 
BRANCH  55  69
ATOM     69  C   UNL A   1      46.430  29.111  29.810  1.00  0.00     0.064 A 
ATOM     70  C   UNL A   1      46.924  28.454  30.946  1.00  0.00     0.173 A 
ATOM     71  C   UNL A   1      47.248  29.157  28.671  1.00  0.00     0.173 A 
ATOM     72  F   UNL A   1      46.186  28.390  32.065  1.00  0.00    -0.203 F 
ATOM     73  C   UNL A   1      48.196  27.885  30.949  1.00  0.00     0.198 A 
ATOM     74  C   UNL A   1      48.506  28.562  28.667  1.00  0.00     0.198 A 
ATOM     75  F   UNL A   1      46.821  29.769  27.556  1.00  0.00    -0.203 F 
ATOM     76  F   UNL A   1      48.664  27.299  32.060  1.00  0.00    -0.200 F 
ATOM     77  C   UNL A   1      48.981  27.932  29.807  1.00  0.00     0.200 A 
ATOM     78  F   UNL A   1      49.259  28.597  27.559  1.00  0.00    -0.200 F 
ATOM     79  F   UNL A   1      50.200  27.375  29.808  1.00  0.00    -0.200 F 
ENDBRANCH  55  69
BRANCH  56  80
ATOM     80  C   UNL A   1      37.062  32.560  29.820  1.00  0.00     0.064 A 
ATOM     81  C   UNL A   1      36.543  33.272  28.728  1.00  0.00     0.173 A 
ATOM     82  C   UNL A   1      36.234  32.382  30.937  1.00  0.00     0.173 A 
ATOM     83  F   UNL A   1      37.305  33.489  27.647  1.00  0.00    -0.203 F 
ATOM     84  C   UNL A   1      35.256  33.807  28.764  1.00  0.00     0.198 A 
ATOM     85  C   UNL A   1      34.937  32.892  30.959  1.00  0.00     0.198 A 
ATOM     86  F   UNL A   1      36.682  31.706  32.005  1.00  0.00    -0.203 F 
ATOM     87  F   UNL A   1      34.805  34.528  27.729  1.00  0.00    -0.200 F 
ATOM     88  C   UNL A   1      34.454  33.613  29.878  1.00  0.00     0.200 A 
ATOM     89  F   UNL A   1      34.159  32.692  32.031  1.00  0.00    -0.200 F 
ATOM     90  F   UNL A   1      33.217  34.128  29.912  1.00  0.00    -0.200 F 
ENDBRANCH  56  80
BRANCH  68  91
ATOM     91  C   UNL A   1      43.220  35.333  31.514  1.00  0.00     0.064 A 
ATOM     92  C   UNL A   1      43.202  35.647  32.879  1.00  0.00     0.173 A 
ATOM     93  C   UNL A   1      43.661  36.319  30.617  1.00  0.00     0.173 A 
ATOM     94  F   UNL A   1      42.774  34.744  33.775  1.00  0.00    -0.203 F 
ATOM     95  C   UNL A   1      43.586  36.907  33.328  1.00  0.00     0.198 A 
ATOM     96  C   UNL A   1      44.074  37.568  31.072  1.00  0.00     0.198 A 
ATOM     97  F   UNL A   1      43.704  36.066  29.300  1.00  0.00    -0.203 F 
ATOM     98  F   UNL A   1      43.515  37.202  34.634  1.00  0.00    -0.200 F 
ATOM     99  C   UNL A   1      44.029  37.863  32.426  1.00  0.00     0.200 A 
ATOM    100  F   UNL A   1      44.515  38.484  30.201  1.00  0.00    -0.200 F 
ATOM    101  F   UNL A   1      44.407  39.074  32.861  1.00  0.00    -0.200 F 
ENDBRANCH  68  91
ENDBRANCH  42  43
ENDBRANCH  34  37
ENDBRANCH  32  33
ENDBRANCH  31  32
ENDBRANCH  30  31
ENDBRANCH  29  30
ENDBRANCH   1  29
TORSDOF 17
ENDMDL
MODEL 3
REMARK VINA RESULT:     -11.7      0.445      6.965
REMARK SMILES O=C(NCCCCCCNC(=O)c1ccc(-c2c3nc(c(-c4c(F)c(F)c(F)c(F)c4F)c4ccc([nH]4)c(-c4c(F)c(F)c(F)c(F)c4F)c4nc(c(-c5c(F)c(F)c(F)c(F)c5F)c5ccc2[nH]5)C=C4)C=C3)cc1)c1ccc(NCn2c(=S)sc3cc([N+](=O)[O-])ccc32)cc1
REMARK SMILES IDX 5 1 4 2 3 3 1 4 2 5 76 7 77 8 96 9 78 10 95 11 79 12 80 13
REMARK SMILES IDX 81 15 82 16 83 17 94 18 84 19 85 20 86 21 93 22 87 23 92 24
REMARK SMILES IDX 88 25 89 26 90 27 91 28 6 29 7 30 8 31 9 32 10 33 11 34
REMARK SMILES IDX 12 36 13 37 14 38 75 39 15 40 74 41 16 42 17 43 18 44 68 45
REMARK SMILES IDX 19 46 73 47 67 48 69 49 20 50 72 51 66 52 65 53 21 55 53 56
REMARK SMILES IDX 33 57 52 58 34 59 37 60 51 61 70 62 35 63 36 64 50 66 71 67
REMARK SMILES IDX 38 68 22 69 23 70 31 71 24 72 25 73 29 74 32 75 26 76 27 77
REMARK SMILES IDX 30 78 28 79 54 80 55 81 63 82 56 83 57 84 61 85 64 86 58 87
REMARK SMILES IDX 59 88 62 89 60 90 39 91 40 92 48 93 41 94 42 95 46 96 49 97
REMARK SMILES IDX 43 98 44 99 47 100 45 101
REMARK H PARENT 3 6 80 14 10 35 69 54 37 65
REMARK Flexibility Score: inf
ROOT
ATOM      1  C   UNL A   1      35.610  31.559  28.177  1.00  0.00     0.021 C 
ENDROOT
BRANCH   1   2
ATOM      2  C   UNL A   1      34.563  30.639  27.553  1.00  0.00     0.116 C 
BRANCH   2   3
ATOM      3  N   UNL A   1      33.285  31.311  27.429  1.00  0.00    -0.352 N 
ATOM      4  O   UNL A   1      31.291  31.775  26.508  1.00  0.00    -0.269 OA
ATOM      5  C   UNL A   1      32.166  30.943  26.731  1.00  0.00     0.251 C 
ATOM      6  H   UNL A   1      33.209  32.161  27.921  1.00  0.00     0.163 HD
BRANCH   5   7
ATOM      7  C   UNL A   1      31.968  29.547  26.283  1.00  0.00     0.039 A 
ATOM      8  C   UNL A   1      31.841  28.509  27.199  1.00  0.00     0.016 A 
ATOM      9  C   UNL A   1      31.742  29.293  24.929  1.00  0.00     0.016 A 
ATOM     10  C   UNL A   1      31.462  27.243  26.757  1.00  0.00     0.026 A 
ATOM     11  C   UNL A   1      31.295  28.028  24.517  1.00  0.00     0.026 A 
ATOM     12  C   UNL A   1      31.081  26.999  25.442  1.00  0.00     0.035 A 
BRANCH  12  13
ATOM     13  N   UNL A   1      30.387  25.866  25.059  1.00  0.00    -0.367 N 
ATOM     14  H   UNL A   1      29.405  25.913  25.078  1.00  0.00     0.162 HD
BRANCH  13  15
ATOM     15  C   UNL A   1      30.982  24.617  24.633  1.00  0.00     0.241 C 
BRANCH  15  16
ATOM     16  N   UNL A   1      32.331  24.744  24.061  1.00  0.00    -0.305 N 
ATOM     17  C   UNL A   1      32.424  24.605  22.660  1.00  0.00     0.163 A 
ATOM     18  C   UNL A   1      33.369  23.971  24.672  1.00  0.00     0.062 A 
ATOM     19  S   UNL A   1      32.381  25.817  21.515  1.00  0.00    -0.048 S 
ATOM     20  S   UNL A   1      33.019  22.983  22.275  1.00  0.00    -0.105 S 
ATOM     21  C   UNL A   1      33.875  22.979  23.820  1.00  0.00     0.061 A 
ATOM     22  C   UNL A   1      34.018  24.267  25.863  1.00  0.00     0.035 A 
ATOM     23  C   UNL A   1      35.012  22.252  24.107  1.00  0.00     0.106 A 
ATOM     24  C   UNL A   1      35.218  23.586  26.148  1.00  0.00     0.088 A 
ATOM     25  C   UNL A   1      35.709  22.594  25.265  1.00  0.00     0.270 A 
BRANCH  25  26
ATOM     26  N   UNL A   1      37.025  21.984  25.489  1.00  0.00     0.062 N 
ATOM     27  O   UNL A   1      37.915  22.702  25.968  1.00  0.00    -0.258 OA
ATOM     28  O   UNL A   1      37.159  20.786  25.207  1.00  0.00    -0.258 OA
ENDBRANCH  25  26
ENDBRANCH  15  16
ENDBRANCH  13  15
ENDBRANCH  12  13
ENDBRANCH   5   7
ENDBRANCH   2   3
ENDBRANCH   1   2
BRANCH   1  29
ATOM     29  C   UNL A   1      35.323  33.058  28.030  1.00  0.00     0.002 C 
BRANCH  29  30
ATOM     30  C   UNL A   1      34.725  33.739  29.265  1.00  0.00     0.002 C 
BRANCH  30  31
ATOM     31  C   UNL A   1      33.486  34.596  29.005  1.00  0.00     0.021 C 
BRANCH  31  32
ATOM     32  C   UNL A   1      33.465  35.939  29.728  1.00  0.00     0.116 C 
BRANCH  32  33
ATOM     33  N   UNL A   1      32.479  35.987  30.794  1.00  0.00    -0.352 N 
ATOM     34  C   UNL A   1      32.546  35.480  32.068  1.00  0.00     0.251 C 
ATOM     35  H   UNL A   1      31.639  36.451  30.570  1.00  0.00     0.163 HD
ATOM     36  O   UNL A   1      31.556  35.484  32.789  1.00  0.00    -0.269 OA
BRANCH  34  37
ATOM     37  C   UNL A   1      33.813  34.899  32.566  1.00  0.00     0.039 A 
ATOM     38  C   UNL A   1      33.804  33.590  33.056  1.00  0.00     0.014 A 
ATOM     39  C   UNL A   1      35.000  35.636  32.558  1.00  0.00     0.014 A 
ATOM     40  C   UNL A   1      34.997  33.000  33.480  1.00  0.00     0.010 A 
ATOM     41  C   UNL A   1      36.199  35.024  32.915  1.00  0.00     0.010 A 
ATOM     42  C   UNL A   1      36.210  33.701  33.382  1.00  0.00    -0.014 A 
BRANCH  42  43
ATOM     43  C   UNL A   1      37.499  33.064  33.757  1.00  0.00     0.031 A 
ATOM     44  C   UNL A   1      38.142  32.059  32.841  1.00  0.00     0.074 A 
ATOM     45  C   UNL A   1      38.057  33.343  34.950  1.00  0.00     0.049 A 
ATOM     46  N   UNL A   1      39.226  31.347  33.023  1.00  0.00    -0.248 NA
ATOM     47  C   UNL A   1      37.463  31.800  31.562  1.00  0.00     0.031 C 
ATOM     48  C   UNL A   1      37.510  34.268  35.944  1.00  0.00     0.029 A 
ATOM     49  N   UNL A   1      39.204  32.867  35.536  1.00  0.00    -0.354 N 
ATOM     50  C   UNL A   1      39.345  30.545  31.896  1.00  0.00     0.074 A 
ATOM     51  C   UNL A   1      38.201  30.824  31.054  1.00  0.00     0.031 C 
ATOM     52  C   UNL A   1      38.333  34.311  37.004  1.00  0.00     0.029 A 
ATOM     53  C   UNL A   1      39.443  33.389  36.784  1.00  0.00     0.049 A 
ATOM     54  H   UNL A   1      39.801  32.215  35.102  1.00  0.00     0.167 HD
ATOM     55  C   UNL A   1      40.330  29.669  31.583  1.00  0.00     0.037 A 
ATOM     56  C   UNL A   1      40.441  33.145  37.655  1.00  0.00     0.037 A 
ATOM     57  C   UNL A   1      41.486  29.421  32.405  1.00  0.00     0.049 A 
ATOM     58  C   UNL A   1      41.519  32.163  37.282  1.00  0.00     0.074 A 
ATOM     59  C   UNL A   1      42.577  28.613  32.137  1.00  0.00     0.029 A 
ATOM     60  N   UNL A   1      41.698  29.978  33.657  1.00  0.00    -0.354 N 
ATOM     61  N   UNL A   1      41.662  31.468  36.179  1.00  0.00    -0.248 NA
ATOM     62  C   UNL A   1      42.578  31.934  38.275  1.00  0.00     0.031 C 
ATOM     63  C   UNL A   1      43.427  28.642  33.248  1.00  0.00     0.029 A 
ATOM     64  C   UNL A   1      42.890  29.508  34.187  1.00  0.00     0.049 A 
ATOM     65  H   UNL A   1      41.093  30.613  34.104  1.00  0.00     0.167 HD
ATOM     66  C   UNL A   1      42.840  30.750  36.331  1.00  0.00     0.074 A 
ATOM     67  C   UNL A   1      43.379  31.101  37.628  1.00  0.00     0.031 C 
ATOM     68  C   UNL A   1      43.422  29.877  35.473  1.00  0.00     0.037 A 
BRANCH  55  69
ATOM     69  C   UNL A   1      40.206  28.908  30.295  1.00  0.00     0.064 A 
ATOM     70  C   UNL A   1      40.757  29.389  29.098  1.00  0.00     0.173 A 
ATOM     71  C   UNL A   1      39.575  27.655  30.269  1.00  0.00     0.173 A 
ATOM     72  F   UNL A   1      41.364  30.586  29.066  1.00  0.00    -0.203 F 
ATOM     73  C   UNL A   1      40.659  28.655  27.918  1.00  0.00     0.198 A 
ATOM     74  C   UNL A   1      39.504  26.911  29.095  1.00  0.00     0.198 A 
ATOM     75  F   UNL A   1      39.036  27.146  31.387  1.00  0.00    -0.203 F 
ATOM     76  F   UNL A   1      41.155  29.154  26.777  1.00  0.00    -0.200 F 
ATOM     77  C   UNL A   1      40.041  27.414  27.920  1.00  0.00     0.200 A 
ATOM     78  F   UNL A   1      38.918  25.706  29.101  1.00  0.00    -0.200 F 
ATOM     79  F   UNL A   1      39.957  26.705  26.786  1.00  0.00    -0.200 F 
ENDBRANCH  55  69
BRANCH  56  80
ATOM     80  C   UNL A   1      40.487  33.859  38.958  1.00  0.00     0.064 A 
ATOM     81  C   UNL A   1      39.766  33.383  40.062  1.00  0.00     0.173 A 
ATOM     82  C   UNL A   1      41.228  35.038  39.122  1.00  0.00     0.173 A 
ATOM     83  F   UNL A   1      39.023  32.272  39.948  1.00  0.00    -0.203 F 
ATOM     84  C   UNL A   1      39.764  34.073  41.273  1.00  0.00     0.198 A 
ATOM     85  C   UNL A   1      41.249  35.711  40.342  1.00  0.00     0.198 A 
ATOM     86  F   UNL A   1      41.938  35.534  38.097  1.00  0.00    -0.203 F 
ATOM     87  F   UNL A   1      39.023  33.625  42.295  1.00  0.00    -0.200 F 
ATOM     88  C   UNL A   1      40.509  35.234  41.413  1.00  0.00     0.200 A 
ATOM     89  F   UNL A   1      41.980  36.826  40.478  1.00  0.00    -0.200 F 
ATOM     90  F   UNL A   1      40.506  35.898  42.577  1.00  0.00    -0.200 F 
ENDBRANCH  56  80
BRANCH  68  91
ATOM     91  C   UNL A   1      44.733  29.274  35.888  1.00  0.00     0.064 A 
ATOM     92  C   UNL A   1      45.955  29.896  35.600  1.00  0.00     0.173 A 
ATOM     93  C   UNL A   1      44.760  28.075  36.618  1.00  0.00     0.173 A 
ATOM     94  F   UNL A   1      45.983  31.035  34.892  1.00  0.00    -0.203 F 
ATOM     95  C   UNL A   1      47.160  29.327  36.006  1.00  0.00     0.198 A 
ATOM     96  C   UNL A   1      45.964  27.525  37.048  1.00  0.00     0.198 A 
ATOM     97  F   UNL A   1      43.617  27.443  36.925  1.00  0.00    -0.203 F 
ATOM     98  F   UNL A   1      48.319  29.915  35.678  1.00  0.00    -0.200 F 
ATOM     99  C   UNL A   1      47.163  28.148  36.735  1.00  0.00     0.200 A 
ATOM    100  F   UNL A   1      45.964  26.394  37.765  1.00  0.00    -0.200 F 
ATOM    101  F   UNL A   1      48.324  27.607  37.132  1.00  0.00    -0.200 F 
ENDBRANCH  68  91
ENDBRANCH  42  43
ENDBRANCH  34  37
ENDBRANCH  32  33
ENDBRANCH  31  32
ENDBRANCH  30  31
ENDBRANCH  29  30
ENDBRANCH   1  29
TORSDOF 17
ENDMDL
