MODEL 1
REMARK VINA RESULT:     -12.4      0.000      0.000
REMARK SMILES CC(C)[C@H]1CC[C@@H](C)/C(=C/c2ccc(NC(=O)CCC(=O)NCCCCCCNC(=O)c3ccc(-c4c5nc(c(-c6c(F)c(F)c(F)c(F)c6F)c6ccc([nH]6)c(-c6c(F)c(F)c(F)c(F)c6F)c6nc(c(-c7c(F)c(F)c(F)c(F)c7F)c7ccc4[nH]7)C=C6)C=C5)cc3)cc2)C1=O
REMARK SMILES IDX 24 1 23 2 22 3 20 4 21 5 19 7 18 8 16 9 15 10 17 12 14 13
REMARK SMILES IDX 11 14 12 15 96 16 13 17 95 18 10 19 4 20 5 21 97 22 6 23
REMARK SMILES IDX 9 24 98 25 7 26 8 27 2 28 1 29 3 30 25 31 26 32 27 33 28 34
REMARK SMILES IDX 29 35 30 36 31 38 32 39 33 40 94 41 34 42 93 43 35 44 36 45
REMARK SMILES IDX 37 46 87 47 38 48 92 49 86 50 88 51 39 52 91 53 85 54 84 55
REMARK SMILES IDX 40 57 72 58 52 59 71 60 53 61 56 62 70 63 89 64 54 65 55 66
REMARK SMILES IDX 69 68 90 69 57 70 41 71 42 72 50 73 43 74 44 75 48 76 51 77
REMARK SMILES IDX 45 78 46 79 49 80 47 81 73 82 74 83 82 84 75 85 76 86 80 87
REMARK SMILES IDX 83 88 77 89 78 90 81 91 79 92 58 93 59 94 67 95 60 96 61 97
REMARK SMILES IDX 65 98 68 99 62 100 63 101 66 102 64 103
REMARK H PARENT 22 6 15 11 29 37 88 56 56 67
REMARK Flexibility Score: inf
ROOT
ATOM      1  C   UNL A   1      33.398  28.777  27.015  1.00  0.00     0.021 C 
ENDROOT
BRANCH   1   2
ATOM      2  C   UNL A   1      33.217  27.633  26.022  1.00  0.00     0.116 C 
BRANCH   2   3
ATOM      3  N   UNL A   1      33.959  27.830  24.791  1.00  0.00    -0.356 N 
ATOM      4  C   UNL A   1      33.585  28.432  23.628  1.00  0.00     0.220 C 
ATOM      5  O   UNL A   1      34.426  28.583  22.742  1.00  0.00    -0.275 OA
ATOM      6  H   UNL A   1      34.878  27.475  24.798  1.00  0.00     0.163 HD
BRANCH   4   7
ATOM      7  C   UNL A   1      32.163  28.912  23.440  1.00  0.00     0.110 C 
BRANCH   7   8
ATOM      8  C   UNL A   1      31.380  28.186  22.354  1.00  0.00     0.110 C 
BRANCH   8   9
ATOM      9  C   UNL A   1      29.880  28.169  22.556  1.00  0.00     0.224 C 
ATOM     10  N   UNL A   1      29.246  27.197  23.272  1.00  0.00    -0.326 N 
ATOM     11  H   UNL A   1      28.263  27.235  23.250  1.00  0.00     0.169 HD
ATOM     12  O   UNL A   1      29.195  29.113  22.144  1.00  0.00    -0.275 OA
BRANCH  10  13
ATOM     13  C   UNL A   1      29.782  26.154  24.035  1.00  0.00     0.041 A 
ATOM     14  C   UNL A   1      30.707  23.899  25.407  1.00  0.00    -0.025 A 
ATOM     15  C   UNL A   1      30.332  25.049  26.108  1.00  0.00     0.010 A 
ATOM     16  C   UNL A   1      30.609  23.882  24.015  1.00  0.00     0.010 A 
ATOM     17  C   UNL A   1      29.870  26.173  25.422  1.00  0.00     0.027 A 
ATOM     18  C   UNL A   1      30.223  25.030  23.333  1.00  0.00     0.027 A 
BRANCH  14  19
ATOM     19  C   UNL A   1      31.322  22.794  26.146  1.00  0.00     0.015 C 
ATOM     20  C   UNL A   1      34.493  22.529  24.388  1.00  0.00     0.063 C 
ATOM     21  C   UNL A   1      35.230  21.497  25.264  1.00  0.00     0.013 C 
ATOM     22  C   UNL A   1      33.595  23.360  25.309  1.00  0.00     0.162 C 
ATOM     23  C   UNL A   1      34.258  20.668  26.119  1.00  0.00     0.009 C 
ATOM     24  C   UNL A   1      32.646  22.559  26.153  1.00  0.00    -0.001 C 
ATOM     25  O   UNL A   1      33.615  24.581  25.398  1.00  0.00    -0.294 OA
ATOM     26  C   UNL A   1      33.329  21.519  26.994  1.00  0.00     0.020 C 
ATOM     27  C   UNL A   1      34.085  22.203  28.140  1.00  0.00     0.013 C 
BRANCH  20  28
ATOM     28  C   UNL A   1      35.398  23.348  23.416  1.00  0.00    -0.007 C 
ATOM     29  C   UNL A   1      36.757  22.724  23.077  1.00  0.00     0.008 C 
ATOM     30  C   UNL A   1      34.686  23.695  22.102  1.00  0.00     0.008 C 
ENDBRANCH  20  28
ENDBRANCH  14  19
ENDBRANCH  10  13
ENDBRANCH   8   9
ENDBRANCH   7   8
ENDBRANCH   4   7
ENDBRANCH   2   3
ENDBRANCH   1   2
BRANCH   1  31
ATOM     31  C   UNL A   1      32.142  29.612  27.286  1.00  0.00     0.002 C 
BRANCH  31  32
ATOM     32  C   UNL A   1      31.859  30.705  26.259  1.00  0.00     0.002 C 
BRANCH  32  33
ATOM     33  C   UNL A   1      31.521  32.072  26.853  1.00  0.00     0.021 C 
BRANCH  33  34
ATOM     34  C   UNL A   1      32.709  32.830  27.434  1.00  0.00     0.116 C 
BRANCH  34  35
ATOM     35  N   UNL A   1      32.410  34.230  27.682  1.00  0.00    -0.352 N 
ATOM     36  C   UNL A   1      32.982  35.068  28.611  1.00  0.00     0.251 C 
ATOM     37  H   UNL A   1      31.712  34.629  27.115  1.00  0.00     0.163 HD
ATOM     38  O   UNL A   1      32.544  36.186  28.815  1.00  0.00    -0.269 OA
BRANCH  36  39
ATOM     39  C   UNL A   1      34.136  34.564  29.381  1.00  0.00     0.039 A 
ATOM     40  C   UNL A   1      33.924  34.058  30.664  1.00  0.00     0.014 A 
ATOM     41  C   UNL A   1      35.406  34.529  28.796  1.00  0.00     0.014 A 
ATOM     42  C   UNL A   1      34.985  33.465  31.348  1.00  0.00     0.010 A 
ATOM     43  C   UNL A   1      36.442  33.876  29.450  1.00  0.00     0.010 A 
ATOM     44  C   UNL A   1      36.244  33.345  30.734  1.00  0.00    -0.014 A 
BRANCH  44  45
ATOM     45  C   UNL A   1      37.376  32.688  31.431  1.00  0.00     0.031 A 
ATOM     46  C   UNL A   1      38.081  31.534  30.777  1.00  0.00     0.074 A 
ATOM     47  C   UNL A   1      37.727  33.088  32.668  1.00  0.00     0.049 A 
ATOM     48  N   UNL A   1      39.051  30.787  31.238  1.00  0.00    -0.248 NA
ATOM     49  C   UNL A   1      37.612  31.152  29.436  1.00  0.00     0.031 C 
ATOM     50  C   UNL A   1      37.085  34.165  33.422  1.00  0.00     0.029 A 
ATOM     51  N   UNL A   1      38.706  32.629  33.512  1.00  0.00    -0.354 N 
ATOM     52  C   UNL A   1      39.297  29.841  30.250  1.00  0.00     0.074 A 
ATOM     53  C   UNL A   1      38.335  30.070  29.195  1.00  0.00     0.031 C 
ATOM     54  C   UNL A   1      37.702  34.300  34.607  1.00  0.00     0.029 A 
ATOM     55  C   UNL A   1      38.760  33.298  34.710  1.00  0.00     0.049 A 
ATOM     56  H   UNL A   1      39.313  31.889  33.281  1.00  0.00     0.167 HD
ATOM     57  C   UNL A   1      40.256  28.887  30.216  1.00  0.00     0.037 A 
ATOM     58  C   UNL A   1      39.570  33.120  35.769  1.00  0.00     0.037 A 
ATOM     59  C   UNL A   1      41.224  28.680  31.261  1.00  0.00     0.049 A 
ATOM     60  C   UNL A   1      40.625  32.046  35.711  1.00  0.00     0.074 A 
ATOM     61  C   UNL A   1      42.272  27.778  31.301  1.00  0.00     0.029 A 
ATOM     62  N   UNL A   1      41.257  29.388  32.453  1.00  0.00    -0.354 N 
ATOM     63  N   UNL A   1      40.895  31.204  34.743  1.00  0.00    -0.248 NA
ATOM     64  C   UNL A   1      41.492  31.905  36.889  1.00  0.00     0.031 C 
ATOM     65  C   UNL A   1      42.913  27.910  32.538  1.00  0.00     0.029 A 
ATOM     66  C   UNL A   1      42.296  28.929  33.247  1.00  0.00     0.049 A 
ATOM     67  H   UNL A   1      40.634  30.110  32.700  1.00  0.00     0.167 HD
ATOM     68  C   UNL A   1      41.978  30.453  35.181  1.00  0.00     0.074 A 
ATOM     69  C   UNL A   1      42.324  30.950  36.497  1.00  0.00     0.031 C 
ATOM     70  C   UNL A   1      42.628  29.444  34.551  1.00  0.00     0.037 A 
BRANCH  57  71
ATOM     71  C   UNL A   1      40.302  27.998  29.007  1.00  0.00     0.064 A 
ATOM     72  C   UNL A   1      41.043  28.346  27.865  1.00  0.00     0.173 A 
ATOM     73  C   UNL A   1      39.608  26.779  28.990  1.00  0.00     0.173 A 
ATOM     74  F   UNL A   1      41.713  29.507  27.824  1.00  0.00    -0.203 F 
ATOM     75  C   UNL A   1      41.057  27.525  26.742  1.00  0.00     0.198 A 
ATOM     76  C   UNL A   1      39.652  25.944  27.875  1.00  0.00     0.198 A 
ATOM     77  F   UNL A   1      38.889  26.395  30.054  1.00  0.00    -0.203 F 
ATOM     78  F   UNL A   1      41.723  27.907  25.643  1.00  0.00    -0.200 F 
ATOM     79  C   UNL A   1      40.367  26.323  26.749  1.00  0.00     0.200 A 
ATOM     80  F   UNL A   1      38.995  24.776  27.890  1.00  0.00    -0.200 F 
ATOM     81  F   UNL A   1      40.384  25.531  25.667  1.00  0.00    -0.200 F 
ENDBRANCH  57  71
BRANCH  58  82
ATOM     82  C   UNL A   1      39.442  33.999  36.961  1.00  0.00     0.064 A 
ATOM     83  C   UNL A   1      38.715  33.583  38.085  1.00  0.00     0.173 A 
ATOM     84  C   UNL A   1      40.040  35.266  37.003  1.00  0.00     0.173 A 
ATOM     85  F   UNL A   1      38.108  32.387  38.085  1.00  0.00    -0.203 F 
ATOM     86  C   UNL A   1      38.575  34.410  39.198  1.00  0.00     0.198 A 
ATOM     87  C   UNL A   1      39.923  36.081  38.128  1.00  0.00     0.198 A 
ATOM     88  F   UNL A   1      40.752  35.710  35.956  1.00  0.00    -0.203 F 
ATOM     89  F   UNL A   1      37.838  34.004  40.241  1.00  0.00    -0.200 F 
ATOM     90  C   UNL A   1      39.183  35.655  39.221  1.00  0.00     0.200 A 
ATOM     91  F   UNL A   1      40.525  37.278  38.152  1.00  0.00    -0.200 F 
ATOM     92  F   UNL A   1      39.053  36.447  40.294  1.00  0.00    -0.200 F 
ENDBRANCH  58  82
BRANCH  70  93
ATOM     93  C   UNL A   1      43.802  28.834  35.261  1.00  0.00     0.064 A 
ATOM     94  C   UNL A   1      45.110  29.296  35.054  1.00  0.00     0.173 A 
ATOM     95  C   UNL A   1      43.609  27.804  36.193  1.00  0.00     0.173 A 
ATOM     96  F   UNL A   1      45.349  30.269  34.160  1.00  0.00    -0.203 F 
ATOM     97  C   UNL A   1      46.184  28.731  35.735  1.00  0.00     0.198 A 
ATOM     98  C   UNL A   1      44.681  27.263  36.896  1.00  0.00     0.198 A 
ATOM     99  F   UNL A   1      42.376  27.331  36.433  1.00  0.00    -0.203 F 
ATOM    100  F   UNL A   1      47.431  29.155  35.486  1.00  0.00    -0.200 F 
ATOM    101  C   UNL A   1      45.968  27.722  36.662  1.00  0.00     0.200 A 
ATOM    102  F   UNL A   1      44.469  26.297  37.802  1.00  0.00    -0.200 F 
ATOM    103  F   UNL A   1      47.002  27.185  37.324  1.00  0.00    -0.200 F 
ENDBRANCH  70  93
ENDBRANCH  44  45
ENDBRANCH  36  39
ENDBRANCH  34  35
ENDBRANCH  33  34
ENDBRANCH  32  33
ENDBRANCH  31  32
ENDBRANCH   1  31
TORSDOF 18
ENDMDL
MODEL 2
REMARK VINA RESULT:     -12.3      0.666      7.084
REMARK SMILES CC(C)[C@H]1CC[C@@H](C)/C(=C/c2ccc(NC(=O)CCC(=O)NCCCCCCNC(=O)c3ccc(-c4c5nc(c(-c6c(F)c(F)c(F)c(F)c6F)c6ccc([nH]6)c(-c6c(F)c(F)c(F)c(F)c6F)c6nc(c(-c7c(F)c(F)c(F)c(F)c7F)c7ccc4[nH]7)C=C6)C=C5)cc3)cc2)C1=O
REMARK SMILES IDX 24 1 23 2 22 3 20 4 21 5 19 7 18 8 16 9 15 10 17 12 14 13
REMARK SMILES IDX 11 14 12 15 96 16 13 17 95 18 10 19 4 20 5 21 97 22 6 23
REMARK SMILES IDX 9 24 98 25 7 26 8 27 2 28 1 29 3 30 25 31 26 32 27 33 28 34
REMARK SMILES IDX 29 35 30 36 31 38 32 39 33 40 94 41 34 42 93 43 35 44 36 45
REMARK SMILES IDX 37 46 87 47 38 48 92 49 86 50 88 51 39 52 91 53 85 54 84 55
REMARK SMILES IDX 40 57 72 58 52 59 71 60 53 61 56 62 70 63 89 64 54 65 55 66
REMARK SMILES IDX 69 68 90 69 57 70 41 71 42 72 50 73 43 74 44 75 48 76 51 77
REMARK SMILES IDX 45 78 46 79 49 80 47 81 73 82 74 83 82 84 75 85 76 86 80 87
REMARK SMILES IDX 83 88 77 89 78 90 81 91 79 92 58 93 59 94 67 95 60 96 61 97
REMARK SMILES IDX 65 98 68 99 62 100 63 101 66 102 64 103
REMARK H PARENT 22 6 15 11 29 37 88 56 56 67
REMARK Flexibility Score: inf
ROOT
ATOM      1  C   UNL A   1      33.404  29.077  27.012  1.00  0.00     0.021 C 
ENDROOT
BRANCH   1   2
ATOM      2  C   UNL A   1      33.364  27.805  26.169  1.00  0.00     0.116 C 
BRANCH   2   3
ATOM      3  N   UNL A   1      34.073  27.939  24.910  1.00  0.00    -0.356 N 
ATOM      4  C   UNL A   1      33.666  28.476  23.727  1.00  0.00     0.220 C 
ATOM      5  O   UNL A   1      34.483  28.583  22.813  1.00  0.00    -0.275 OA
ATOM      6  H   UNL A   1      34.993  27.587  24.912  1.00  0.00     0.163 HD
BRANCH   4   7
ATOM      7  C   UNL A   1      32.237  28.941  23.551  1.00  0.00     0.110 C 
BRANCH   7   8
ATOM      8  C   UNL A   1      31.529  28.383  22.323  1.00  0.00     0.110 C 
BRANCH   8   9
ATOM      9  C   UNL A   1      30.019  28.348  22.422  1.00  0.00     0.224 C 
ATOM     10  N   UNL A   1      29.352  27.395  23.134  1.00  0.00    -0.326 N 
ATOM     11  H   UNL A   1      28.372  27.414  23.043  1.00  0.00     0.169 HD
ATOM     12  O   UNL A   1      29.350  29.261  21.924  1.00  0.00    -0.275 OA
BRANCH  10  13
ATOM     13  C   UNL A   1      29.850  26.394  23.975  1.00  0.00     0.041 A 
ATOM     14  C   UNL A   1      30.680  24.222  25.529  1.00  0.00    -0.025 A 
ATOM     15  C   UNL A   1      30.415  25.458  26.126  1.00  0.00     0.010 A 
ATOM     16  C   UNL A   1      30.519  24.077  24.150  1.00  0.00     0.010 A 
ATOM     17  C   UNL A   1      30.000  26.540  25.350  1.00  0.00     0.027 A 
ATOM     18  C   UNL A   1      30.182  25.179  23.373  1.00  0.00     0.027 A 
BRANCH  14  19
ATOM     19  C   UNL A   1      31.251  23.152  26.350  1.00  0.00     0.015 C 
ATOM     20  C   UNL A   1      34.354  22.548  24.556  1.00  0.00     0.063 C 
ATOM     21  C   UNL A   1      35.055  21.556  25.504  1.00  0.00     0.013 C 
ATOM     22  C   UNL A   1      33.530  23.508  25.418  1.00  0.00     0.162 C 
ATOM     23  C   UNL A   1      34.061  20.864  26.451  1.00  0.00     0.009 C 
ATOM     24  C   UNL A   1      32.559  22.841  26.350  1.00  0.00    -0.001 C 
ATOM     25  O   UNL A   1      33.621  24.729  25.397  1.00  0.00    -0.294 OA
ATOM     26  C   UNL A   1      33.204  21.841  27.266  1.00  0.00     0.020 C 
ATOM     27  C   UNL A   1      34.028  22.578  28.330  1.00  0.00     0.013 C 
BRANCH  20  28
ATOM     28  C   UNL A   1      35.279  23.224  23.495  1.00  0.00    -0.007 C 
ATOM     29  C   UNL A   1      36.653  22.578  23.292  1.00  0.00     0.008 C 
ATOM     30  C   UNL A   1      34.601  23.357  22.125  1.00  0.00     0.008 C 
ENDBRANCH  20  28
ENDBRANCH  14  19
ENDBRANCH  10  13
ENDBRANCH   8   9
ENDBRANCH   7   8
ENDBRANCH   4   7
ENDBRANCH   2   3
ENDBRANCH   1   2
BRANCH   1  31
ATOM     31  C   UNL A   1      32.046  29.745  27.251  1.00  0.00     0.002 C 
BRANCH  31  32
ATOM     32  C   UNL A   1      31.666  30.817  26.232  1.00  0.00     0.002 C 
BRANCH  32  33
ATOM     33  C   UNL A   1      31.440  32.210  26.820  1.00  0.00     0.021 C 
BRANCH  33  34
ATOM     34  C   UNL A   1      32.709  32.935  27.254  1.00  0.00     0.116 C 
BRANCH  34  35
ATOM     35  N   UNL A   1      32.459  34.309  27.654  1.00  0.00    -0.352 N 
ATOM     36  C   UNL A   1      33.065  35.024  28.660  1.00  0.00     0.251 C 
ATOM     37  H   UNL A   1      31.769  34.788  27.140  1.00  0.00     0.163 HD
ATOM     38  O   UNL A   1      32.665  36.127  28.987  1.00  0.00    -0.269 OA
BRANCH  36  39
ATOM     39  C   UNL A   1      34.208  34.404  29.359  1.00  0.00     0.039 A 
ATOM     40  C   UNL A   1      33.964  33.594  30.469  1.00  0.00     0.014 A 
ATOM     41  C   UNL A   1      35.505  34.573  28.863  1.00  0.00     0.014 A 
ATOM     42  C   UNL A   1      35.025  32.905  31.056  1.00  0.00     0.010 A 
ATOM     43  C   UNL A   1      36.546  33.830  29.406  1.00  0.00     0.010 A 
ATOM     44  C   UNL A   1      36.317  32.996  30.512  1.00  0.00    -0.014 A 
BRANCH  44  45
ATOM     45  C   UNL A   1      37.451  32.245  31.102  1.00  0.00     0.031 A 
ATOM     46  C   UNL A   1      37.941  32.600  32.477  1.00  0.00     0.074 A 
ATOM     47  C   UNL A   1      38.073  31.292  30.381  1.00  0.00     0.049 A 
ATOM     48  N   UNL A   1      38.951  32.109  33.149  1.00  0.00    -0.248 NA
ATOM     49  C   UNL A   1      37.215  33.671  33.177  1.00  0.00     0.031 C 
ATOM     50  C   UNL A   1      37.717  30.894  29.019  1.00  0.00     0.029 A 
ATOM     51  N   UNL A   1      39.142  30.491  30.694  1.00  0.00    -0.354 N 
ATOM     52  C   UNL A   1      38.987  32.820  34.342  1.00  0.00     0.074 A 
ATOM     53  C   UNL A   1      37.940  33.815  34.275  1.00  0.00     0.031 C 
ATOM     54  C   UNL A   1      38.536  29.908  28.622  1.00  0.00     0.029 A 
ATOM     55  C   UNL A   1      39.496  29.627  29.686  1.00  0.00     0.049 A 
ATOM     56  H   UNL A   1      39.611  30.531  31.558  1.00  0.00     0.167 HD
ATOM     57  C   UNL A   1      39.803  32.639  35.407  1.00  0.00     0.037 A 
ATOM     58  C   UNL A   1      40.485  28.716  29.631  1.00  0.00     0.037 A 
ATOM     59  C   UNL A   1      40.827  31.632  35.474  1.00  0.00     0.049 A 
ATOM     60  C   UNL A   1      41.384  28.539  30.825  1.00  0.00     0.074 A 
ATOM     61  C   UNL A   1      41.672  31.328  36.527  1.00  0.00     0.029 A 
ATOM     62  N   UNL A   1      41.147  30.764  34.440  1.00  0.00    -0.354 N 
ATOM     63  N   UNL A   1      41.365  29.167  31.976  1.00  0.00    -0.248 NA
ATOM     64  C   UNL A   1      42.437  27.519  30.715  1.00  0.00     0.031 C 
ATOM     65  C   UNL A   1      42.533  30.306  36.114  1.00  0.00     0.029 A 
ATOM     66  C   UNL A   1      42.192  29.938  34.822  1.00  0.00     0.049 A 
ATOM     67  H   UNL A   1      40.698  30.740  33.564  1.00  0.00     0.167 HD
ATOM     68  C   UNL A   1      42.380  28.603  32.737  1.00  0.00     0.074 A 
ATOM     69  C   UNL A   1      42.987  27.570  31.921  1.00  0.00     0.031 C 
ATOM     70  C   UNL A   1      42.775  28.910  33.997  1.00  0.00     0.037 A 
BRANCH  57  71
ATOM     71  C   UNL A   1      39.613  33.553  36.583  1.00  0.00     0.064 A 
ATOM     72  C   UNL A   1      38.796  33.195  37.669  1.00  0.00     0.173 A 
ATOM     73  C   UNL A   1      40.263  34.795  36.635  1.00  0.00     0.173 A 
ATOM     74  F   UNL A   1      38.141  32.025  37.663  1.00  0.00    -0.203 F 
ATOM     75  C   UNL A   1      38.610  34.062  38.742  1.00  0.00     0.198 A 
ATOM     76  C   UNL A   1      40.100  35.645  37.726  1.00  0.00     0.198 A 
ATOM     77  F   UNL A   1      41.059  35.184  35.628  1.00  0.00    -0.203 F 
ATOM     78  F   UNL A   1      37.779  33.723  39.737  1.00  0.00    -0.200 F 
ATOM     79  C   UNL A   1      39.266  35.283  38.773  1.00  0.00     0.200 A 
ATOM     80  F   UNL A   1      40.746  36.819  37.761  1.00  0.00    -0.200 F 
ATOM     81  F   UNL A   1      39.087  36.115  39.808  1.00  0.00    -0.200 F 
ENDBRANCH  57  71
BRANCH  58  82
ATOM     82  C   UNL A   1      40.654  27.875  28.417  1.00  0.00     0.064 A 
ATOM     83  C   UNL A   1      41.441  28.316  27.343  1.00  0.00     0.173 A 
ATOM     84  C   UNL A   1      40.039  26.621  28.302  1.00  0.00     0.173 A 
ATOM     85  F   UNL A   1      42.034  29.517  27.397  1.00  0.00    -0.203 F 
ATOM     86  C   UNL A   1      41.590  27.542  26.194  1.00  0.00     0.198 A 
ATOM     87  C   UNL A   1      40.211  25.836  27.164  1.00  0.00     0.198 A 
ATOM     88  F   UNL A   1      39.281  26.150  29.303  1.00  0.00    -0.203 F 
ATOM     89  F   UNL A   1      42.312  28.007  25.165  1.00  0.00    -0.200 F 
ATOM     90  C   UNL A   1      40.980  26.300  26.107  1.00  0.00     0.200 A 
ATOM     91  F   UNL A   1      39.631  24.629  27.090  1.00  0.00    -0.200 F 
ATOM     92  F   UNL A   1      41.128  25.554  25.004  1.00  0.00    -0.200 F 
ENDBRANCH  58  82
BRANCH  70  93
ATOM     93  C   UNL A   1      43.892  28.097  34.585  1.00  0.00     0.064 A 
ATOM     94  C   UNL A   1      45.222  28.538  34.549  1.00  0.00     0.173 A 
ATOM     95  C   UNL A   1      43.619  26.882  35.231  1.00  0.00     0.173 A 
ATOM     96  F   UNL A   1      45.536  29.687  33.929  1.00  0.00    -0.203 F 
ATOM     97  C   UNL A   1      46.242  27.780  35.117  1.00  0.00     0.198 A 
ATOM     98  C   UNL A   1      44.637  26.142  35.826  1.00  0.00     0.198 A 
ATOM     99  F   UNL A   1      42.361  26.419  35.299  1.00  0.00    -0.203 F 
ATOM    100  F   UNL A   1      47.513  28.198  35.030  1.00  0.00    -0.200 F 
ATOM    101  C   UNL A   1      45.947  26.588  35.762  1.00  0.00     0.200 A 
ATOM    102  F   UNL A   1      44.348  24.997  36.461  1.00  0.00    -0.200 F 
ATOM    103  F   UNL A   1      46.929  25.864  36.316  1.00  0.00    -0.200 F 
ENDBRANCH  70  93
ENDBRANCH  44  45
ENDBRANCH  36  39
ENDBRANCH  34  35
ENDBRANCH  33  34
ENDBRANCH  32  33
ENDBRANCH  31  32
ENDBRANCH   1  31
TORSDOF 18
ENDMDL
MODEL 3
REMARK VINA RESULT:     -12.2      6.171     10.914
REMARK SMILES CC(C)[C@H]1CC[C@@H](C)/C(=C/c2ccc(NC(=O)CCC(=O)NCCCCCCNC(=O)c3ccc(-c4c5nc(c(-c6c(F)c(F)c(F)c(F)c6F)c6ccc([nH]6)c(-c6c(F)c(F)c(F)c(F)c6F)c6nc(c(-c7c(F)c(F)c(F)c(F)c7F)c7ccc4[nH]7)C=C6)C=C5)cc3)cc2)C1=O
REMARK SMILES IDX 24 1 23 2 22 3 20 4 21 5 19 7 18 8 16 9 15 10 17 12 14 13
REMARK SMILES IDX 11 14 12 15 96 16 13 17 95 18 10 19 4 20 5 21 97 22 6 23
REMARK SMILES IDX 9 24 98 25 7 26 8 27 2 28 1 29 3 30 25 31 26 32 27 33 28 34
REMARK SMILES IDX 29 35 30 36 31 38 32 39 33 40 94 41 34 42 93 43 35 44 36 45
REMARK SMILES IDX 37 46 87 47 38 48 92 49 86 50 88 51 39 52 91 53 85 54 84 55
REMARK SMILES IDX 40 57 72 58 52 59 71 60 53 61 56 62 70 63 89 64 54 65 55 66
REMARK SMILES IDX 69 68 90 69 57 70 41 71 42 72 50 73 43 74 44 75 48 76 51 77
REMARK SMILES IDX 45 78 46 79 49 80 47 81 73 82 74 83 82 84 75 85 76 86 80 87
REMARK SMILES IDX 83 88 77 89 78 90 81 91 79 92 58 93 59 94 67 95 60 96 61 97
REMARK SMILES IDX 65 98 68 99 62 100 63 101 66 102 64 103
REMARK H PARENT 22 6 15 11 29 37 88 56 56 67
REMARK Flexibility Score: inf
ROOT
ATOM      1  C   UNL A   1      39.407  22.842  26.424  1.00  0.00     0.021 C 
ENDROOT
BRANCH   1   2
ATOM      2  C   UNL A   1      38.208  22.088  25.855  1.00  0.00     0.116 C 
BRANCH   2   3
ATOM      3  N   UNL A   1      37.703  22.673  24.627  1.00  0.00    -0.356 N 
ATOM      4  C   UNL A   1      36.473  22.580  24.052  1.00  0.00     0.220 C 
ATOM      5  O   UNL A   1      36.233  23.258  23.053  1.00  0.00    -0.275 OA
ATOM      6  H   UNL A   1      38.352  23.225  24.133  1.00  0.00     0.163 HD
BRANCH   4   7
ATOM      7  C   UNL A   1      35.422  21.666  24.642  1.00  0.00     0.110 C 
BRANCH   7   8
ATOM      8  C   UNL A   1      34.322  22.375  25.421  1.00  0.00     0.110 C 
BRANCH   8   9
ATOM      9  C   UNL A   1      33.158  21.494  25.822  1.00  0.00     0.224 C 
ATOM     10  N   UNL A   1      31.861  21.906  25.737  1.00  0.00    -0.326 N 
ATOM     11  H   UNL A   1      31.199  21.286  26.120  1.00  0.00     0.169 HD
ATOM     12  O   UNL A   1      33.364  20.321  26.155  1.00  0.00    -0.275 OA
BRANCH  10  13
ATOM     13  C   UNL A   1      31.328  23.076  25.186  1.00  0.00     0.041 A 
ATOM     14  C   UNL A   1      30.062  25.393  24.264  1.00  0.00    -0.025 A 
ATOM     15  C   UNL A   1      30.578  24.462  23.359  1.00  0.00     0.010 A 
ATOM     16  C   UNL A   1      30.176  25.154  25.635  1.00  0.00     0.010 A 
ATOM     17  C   UNL A   1      31.209  23.306  23.820  1.00  0.00     0.027 A 
ATOM     18  C   UNL A   1      30.874  24.041  26.087  1.00  0.00     0.027 A 
BRANCH  14  19
ATOM     19  C   UNL A   1      29.537  26.660  23.749  1.00  0.00     0.015 C 
ATOM     20  C   UNL A   1      31.649  29.011  25.546  1.00  0.00     0.063 C 
ATOM     21  C   UNL A   1      31.241  30.340  24.883  1.00  0.00     0.013 C 
ATOM     22  C   UNL A   1      31.557  27.915  24.480  1.00  0.00     0.162 C 
ATOM     23  C   UNL A   1      29.871  30.242  24.191  1.00  0.00     0.009 C 
ATOM     24  C   UNL A   1      30.225  27.815  23.795  1.00  0.00    -0.001 C 
ATOM     25  O   UNL A   1      32.468  27.160  24.165  1.00  0.00    -0.294 OA
ATOM     26  C   UNL A   1      29.779  29.104  23.167  1.00  0.00     0.020 C 
ATOM     27  C   UNL A   1      30.625  29.384  21.918  1.00  0.00     0.013 C 
BRANCH  20  28
ATOM     28  C   UNL A   1      32.984  29.050  26.354  1.00  0.00    -0.007 C 
ATOM     29  C   UNL A   1      33.454  30.436  26.809  1.00  0.00     0.008 C 
ATOM     30  C   UNL A   1      32.958  28.124  27.577  1.00  0.00     0.008 C 
ENDBRANCH  20  28
ENDBRANCH  14  19
ENDBRANCH  10  13
ENDBRANCH   8   9
ENDBRANCH   7   8
ENDBRANCH   4   7
ENDBRANCH   2   3
ENDBRANCH   1   2
BRANCH   1  31
ATOM     31  C   UNL A   1      40.733  22.075  26.398  1.00  0.00     0.002 C 
BRANCH  31  32
ATOM     32  C   UNL A   1      40.658  20.637  26.905  1.00  0.00     0.002 C 
BRANCH  32  33
ATOM     33  C   UNL A   1      41.337  19.604  26.007  1.00  0.00     0.021 C 
BRANCH  33  34
ATOM     34  C   UNL A   1      42.793  19.314  26.351  1.00  0.00     0.116 C 
BRANCH  34  35
ATOM     35  N   UNL A   1      43.551  18.830  25.210  1.00  0.00    -0.352 N 
ATOM     36  C   UNL A   1      44.398  19.538  24.390  1.00  0.00     0.251 C 
ATOM     37  H   UNL A   1      43.445  17.875  24.998  1.00  0.00     0.163 HD
ATOM     38  O   UNL A   1      44.866  19.046  23.380  1.00  0.00    -0.269 OA
BRANCH  36  39
ATOM     39  C   UNL A   1      44.708  20.935  24.756  1.00  0.00     0.039 A 
ATOM     40  C   UNL A   1      44.227  21.968  23.952  1.00  0.00     0.014 A 
ATOM     41  C   UNL A   1      45.411  21.209  25.934  1.00  0.00     0.014 A 
ATOM     42  C   UNL A   1      44.408  23.290  24.358  1.00  0.00     0.010 A 
ATOM     43  C   UNL A   1      45.527  22.522  26.370  1.00  0.00     0.010 A 
ATOM     44  C   UNL A   1      45.034  23.575  25.584  1.00  0.00    -0.014 A 
BRANCH  44  45
ATOM     45  C   UNL A   1      45.206  24.972  26.049  1.00  0.00     0.031 A 
ATOM     46  C   UNL A   1      46.561  25.616  25.979  1.00  0.00     0.074 A 
ATOM     47  C   UNL A   1      44.163  25.634  26.585  1.00  0.00     0.049 A 
ATOM     48  N   UNL A   1      46.938  26.801  26.386  1.00  0.00    -0.248 NA
ATOM     49  C   UNL A   1      47.645  24.806  25.400  1.00  0.00     0.031 C 
ATOM     50  C   UNL A   1      42.813  25.096  26.749  1.00  0.00     0.029 A 
ATOM     51  N   UNL A   1      44.080  26.903  27.100  1.00  0.00    -0.354 N 
ATOM     52  C   UNL A   1      48.300  26.872  26.124  1.00  0.00     0.074 A 
ATOM     53  C   UNL A   1      48.695  25.591  25.583  1.00  0.00     0.031 C 
ATOM     54  C   UNL A   1      42.030  26.035  27.302  1.00  0.00     0.029 A 
ATOM     55  C   UNL A   1      42.829  27.229  27.563  1.00  0.00     0.049 A 
ATOM     56  H   UNL A   1      44.845  27.522  27.134  1.00  0.00     0.167 HD
ATOM     57  C   UNL A   1      49.138  27.921  26.295  1.00  0.00     0.037 A 
ATOM     58  C   UNL A   1      42.382  28.363  28.135  1.00  0.00     0.037 A 
ATOM     59  C   UNL A   1      48.732  29.200  26.814  1.00  0.00     0.049 A 
ATOM     60  C   UNL A   1      43.336  29.513  28.321  1.00  0.00     0.074 A 
ATOM     61  C   UNL A   1      49.490  30.347  26.975  1.00  0.00     0.029 A 
ATOM     62  N   UNL A   1      47.452  29.499  27.258  1.00  0.00    -0.354 N 
ATOM     63  N   UNL A   1      44.606  29.594  28.005  1.00  0.00    -0.248 NA
ATOM     64  C   UNL A   1      42.791  30.731  28.937  1.00  0.00     0.031 C 
ATOM     65  C   UNL A   1      48.679  31.326  27.559  1.00  0.00     0.029 A 
ATOM     66  C   UNL A   1      47.403  30.806  27.714  1.00  0.00     0.049 A 
ATOM     67  H   UNL A   1      46.691  28.873  27.250  1.00  0.00     0.167 HD
ATOM     68  C   UNL A   1      45.005  30.878  28.355  1.00  0.00     0.074 A 
ATOM     69  C   UNL A   1      43.838  31.544  28.895  1.00  0.00     0.031 C 
ATOM     70  C   UNL A   1      46.227  31.453  28.240  1.00  0.00     0.037 A 
BRANCH  57  71
ATOM     71  C   UNL A   1      50.577  27.723  25.914  1.00  0.00     0.064 A 
ATOM     72  C   UNL A   1      51.553  27.396  26.870  1.00  0.00     0.173 A 
ATOM     73  C   UNL A   1      50.986  27.848  24.578  1.00  0.00     0.173 A 
ATOM     74  F   UNL A   1      51.218  27.277  28.163  1.00  0.00    -0.203 F 
ATOM     75  C   UNL A   1      52.888  27.239  26.507  1.00  0.00     0.198 A 
ATOM     76  C   UNL A   1      52.317  27.658  24.214  1.00  0.00     0.198 A 
ATOM     77  F   UNL A   1      50.095  28.154  23.623  1.00  0.00    -0.203 F 
ATOM     78  F   UNL A   1      53.810  26.986  27.446  1.00  0.00    -0.200 F 
ATOM     79  C   UNL A   1      53.268  27.364  25.180  1.00  0.00     0.200 A 
ATOM     80  F   UNL A   1      52.680  27.766  22.928  1.00  0.00    -0.200 F 
ATOM     81  F   UNL A   1      54.553  27.210  24.831  1.00  0.00    -0.200 F 
ENDBRANCH  57  71
BRANCH  58  82
ATOM     82  C   UNL A   1      40.957  28.481  28.539  1.00  0.00     0.064 A 
ATOM     83  C   UNL A   1      39.994  28.967  27.643  1.00  0.00     0.173 A 
ATOM     84  C   UNL A   1      40.526  28.112  29.821  1.00  0.00     0.173 A 
ATOM     85  F   UNL A   1      40.360  29.351  26.411  1.00  0.00    -0.203 F 
ATOM     86  C   UNL A   1      38.659  29.098  28.021  1.00  0.00     0.198 A 
ATOM     87  C   UNL A   1      39.186  28.217  30.189  1.00  0.00     0.198 A 
ATOM     88  F   UNL A   1      41.406  27.634  30.714  1.00  0.00    -0.203 F 
ATOM     89  F   UNL A   1      37.769  29.607  27.158  1.00  0.00    -0.200 F 
ATOM     90  C   UNL A   1      38.255  28.718  29.291  1.00  0.00     0.200 A 
ATOM     91  F   UNL A   1      38.797  27.834  31.413  1.00  0.00    -0.200 F 
ATOM     92  F   UNL A   1      36.970  28.839  29.652  1.00  0.00    -0.200 F 
ENDBRANCH  58  82
BRANCH  70  93
ATOM     93  C   UNL A   1      46.357  32.885  28.672  1.00  0.00     0.064 A 
ATOM     94  C   UNL A   1      46.759  33.229  29.970  1.00  0.00     0.173 A 
ATOM     95  C   UNL A   1      46.118  33.924  27.760  1.00  0.00     0.173 A 
ATOM     96  F   UNL A   1      46.985  32.271  30.883  1.00  0.00    -0.203 F 
ATOM     97  C   UNL A   1      46.893  34.563  30.347  1.00  0.00     0.198 A 
ATOM     98  C   UNL A   1      46.283  35.255  28.131  1.00  0.00     0.198 A 
ATOM     99  F   UNL A   1      45.737  33.648  26.503  1.00  0.00    -0.203 F 
ATOM    100  F   UNL A   1      47.232  34.870  31.607  1.00  0.00    -0.200 F 
ATOM    101  C   UNL A   1      46.663  35.573  29.425  1.00  0.00     0.200 A 
ATOM    102  F   UNL A   1      46.074  36.230  27.235  1.00  0.00    -0.200 F 
ATOM    103  F   UNL A   1      46.800  36.856  29.788  1.00  0.00    -0.200 F 
ENDBRANCH  70  93
ENDBRANCH  44  45
ENDBRANCH  36  39
ENDBRANCH  34  35
ENDBRANCH  33  34
ENDBRANCH  32  33
ENDBRANCH  31  32
ENDBRANCH   1  31
TORSDOF 18
ENDMDL
