MODEL 1
REMARK VINA RESULT:     -14.6      0.000      0.000
REMARK SMILES Cc1ccc(-c2nc(NC(=O)[C@H]3[C@@H](C(=O)NCCCCCCNC(=O)c4ccc(-c5c6nc(c(-c7c(F)c(F)c(F)c(F)c7F)c7ccc([nH]7)c(-c7c(F)c(F)c(F)c(F)c7F)c7nc(c(-c8c(F)c(F)c(F)c(F)c8F)c8ccc5[nH]8)C=C7)C=C6)cc4)[C@@H]4CC[C@H]3O4)sc2C)cc1
REMARK SMILES IDX 19 1 18 2 17 3 16 4 14 5 15 6 13 8 12 9 92 10 89 11 91 12
REMARK SMILES IDX 93 13 90 14 10 15 9 16 11 18 8 19 6 20 7 21 95 22 94 23
REMARK SMILES IDX 96 24 5 25 1 26 2 27 3 28 98 29 4 30 97 31 20 32 21 33 22 34
REMARK SMILES IDX 23 35 24 36 25 38 26 39 27 40 88 41 28 42 87 43 29 44 30 45
REMARK SMILES IDX 31 46 81 47 32 48 86 49 80 50 82 51 33 52 85 53 79 54 78 55
REMARK SMILES IDX 34 57 66 58 46 59 65 60 47 61 50 62 64 63 83 64 48 65 49 66
REMARK SMILES IDX 63 68 84 69 51 70 35 71 36 72 44 73 37 74 38 75 42 76 45 77
REMARK SMILES IDX 39 78 40 79 43 80 41 81 67 82 68 83 76 84 69 85 70 86 74 87
REMARK SMILES IDX 77 88 71 89 72 90 75 91 73 92 52 93 53 94 61 95 54 96 55 97
REMARK SMILES IDX 59 98 62 99 56 100 57 101 60 102 58 103
REMARK H PARENT 16 7 9 17 23 37 82 56 50 67
REMARK Flexibility Score: inf
ROOT
ATOM      1  C   UNL A   1      36.737  23.841  24.945  1.00  0.00     0.002 C 
ENDROOT
BRANCH   1   2
ATOM      2  C   UNL A   1      35.490  24.227  25.738  1.00  0.00     0.021 C 
BRANCH   2   3
ATOM      3  C   UNL A   1      34.485  25.200  25.134  1.00  0.00     0.116 C 
BRANCH   3   4
ATOM      4  N   UNL A   1      33.915  24.843  23.853  1.00  0.00    -0.356 N 
ATOM      5  C   UNL A   1      33.353  25.705  22.954  1.00  0.00     0.226 C 
ATOM      6  O   UNL A   1      33.662  25.586  21.767  1.00  0.00    -0.275 OA
ATOM      7  H   UNL A   1      33.934  23.890  23.605  1.00  0.00     0.163 HD
BRANCH   5   8
ATOM      8  C   UNL A   1      32.509  26.848  23.453  1.00  0.00     0.122 C 
ATOM      9  C   UNL A   1      31.323  26.719  24.417  1.00  0.00     0.123 C 
ATOM     10  C   UNL A   1      30.556  27.997  24.029  1.00  0.00     0.132 C 
ATOM     11  C   UNL A   1      31.920  27.782  22.354  1.00  0.00     0.132 C 
ATOM     12  C   UNL A   1      31.437  29.274  24.097  1.00  0.00     0.035 C 
ATOM     13  O   UNL A   1      30.487  27.763  22.608  1.00  0.00    -0.373 OA
ATOM     14  C   UNL A   1      32.180  29.231  22.754  1.00  0.00     0.035 C 
BRANCH   9  15
ATOM     15  C   UNL A   1      30.257  25.623  24.708  1.00  0.00     0.232 C 
ATOM     16  N   UNL A   1      30.273  24.326  25.087  1.00  0.00    -0.302 N 
ATOM     17  H   UNL A   1      29.360  23.964  25.144  1.00  0.00     0.172 HD
ATOM     18  O   UNL A   1      29.083  26.027  24.527  1.00  0.00    -0.274 OA
BRANCH  16  19
ATOM     19  C   UNL A   1      31.198  23.374  25.412  1.00  0.00     0.190 A 
ATOM     20  C   UNL A   1      32.478  21.539  25.285  1.00  0.00     0.086 A 
ATOM     21  N   UNL A   1      31.586  22.396  24.607  1.00  0.00    -0.220 NA
ATOM     22  C   UNL A   1      32.789  21.975  26.567  1.00  0.00     0.031 A 
ATOM     23  S   UNL A   1      31.990  23.440  26.876  1.00  0.00    -0.101 S 
ATOM     24  C   UNL A   1      33.668  21.458  27.649  1.00  0.00     0.059 C 
BRANCH  20  25
ATOM     25  C   UNL A   1      33.048  20.306  24.706  1.00  0.00     0.001 A 
ATOM     26  C   UNL A   1      34.403  16.398  23.350  1.00  0.00     0.044 C 
ATOM     27  C   UNL A   1      33.955  17.762  23.794  1.00  0.00    -0.051 A 
ATOM     28  C   UNL A   1      34.793  18.601  24.543  1.00  0.00     0.004 A 
ATOM     29  C   UNL A   1      32.685  18.226  23.456  1.00  0.00     0.004 A 
ATOM     30  C   UNL A   1      34.345  19.862  24.998  1.00  0.00     0.010 A 
ATOM     31  C   UNL A   1      32.253  19.485  23.886  1.00  0.00     0.010 A 
ENDBRANCH  20  25
ENDBRANCH  16  19
ENDBRANCH   9  15
ENDBRANCH   5   8
ENDBRANCH   3   4
ENDBRANCH   2   3
ENDBRANCH   1   2
BRANCH   1  32
ATOM     32  C   UNL A   1      37.097  22.365  24.757  1.00  0.00     0.002 C 
BRANCH  32  33
ATOM     33  C   UNL A   1      38.327  21.804  25.467  1.00  0.00     0.021 C 
BRANCH  33  34
ATOM     34  C   UNL A   1      38.961  22.729  26.498  1.00  0.00     0.116 C 
BRANCH  34  35
ATOM     35  N   UNL A   1      40.370  23.010  26.242  1.00  0.00    -0.352 N 
ATOM     36  C   UNL A   1      41.055  24.205  26.314  1.00  0.00     0.251 C 
ATOM     37  H   UNL A   1      40.911  22.231  25.977  1.00  0.00     0.163 HD
ATOM     38  O   UNL A   1      42.264  24.239  26.092  1.00  0.00    -0.269 OA
BRANCH  36  39
ATOM     39  C   UNL A   1      40.362  25.417  26.800  1.00  0.00     0.039 A 
ATOM     40  C   UNL A   1      40.731  26.647  26.245  1.00  0.00     0.014 A 
ATOM     41  C   UNL A   1      39.513  25.374  27.904  1.00  0.00     0.014 A 
ATOM     42  C   UNL A   1      40.460  27.820  26.943  1.00  0.00     0.010 A 
ATOM     43  C   UNL A   1      39.322  26.521  28.647  1.00  0.00     0.010 A 
ATOM     44  C   UNL A   1      39.857  27.730  28.198  1.00  0.00    -0.014 A 
BRANCH  44  45
ATOM     45  C   UNL A   1      39.789  28.854  29.118  1.00  0.00     0.031 A 
ATOM     46  C   UNL A   1      38.790  29.912  28.904  1.00  0.00     0.074 A 
ATOM     47  C   UNL A   1      40.639  28.914  30.164  1.00  0.00     0.049 A 
ATOM     48  N   UNL A   1      38.922  31.132  29.296  1.00  0.00    -0.248 NA
ATOM     49  C   UNL A   1      37.557  29.668  28.170  1.00  0.00     0.031 C 
ATOM     50  C   UNL A   1      40.641  29.881  31.257  1.00  0.00     0.029 A 
ATOM     51  N   UNL A   1      41.858  28.229  30.302  1.00  0.00    -0.354 N 
ATOM     52  C   UNL A   1      37.713  31.764  29.118  1.00  0.00     0.074 A 
ATOM     53  C   UNL A   1      36.925  30.832  28.343  1.00  0.00     0.031 C 
ATOM     54  C   UNL A   1      41.894  29.984  31.728  1.00  0.00     0.029 A 
ATOM     55  C   UNL A   1      42.745  29.176  30.868  1.00  0.00     0.049 A 
ATOM     56  H   UNL A   1      42.054  27.295  30.057  1.00  0.00     0.167 HD
ATOM     57  C   UNL A   1      37.484  32.944  29.767  1.00  0.00     0.037 A 
ATOM     58  C   UNL A   1      43.809  29.634  30.149  1.00  0.00     0.037 A 
ATOM     59  C   UNL A   1      38.694  33.421  30.445  1.00  0.00     0.049 A 
ATOM     60  C   UNL A   1      43.785  31.122  29.860  1.00  0.00     0.074 A 
ATOM     61  C   UNL A   1      39.144  33.408  31.756  1.00  0.00     0.029 A 
ATOM     62  N   UNL A   1      39.797  33.749  29.675  1.00  0.00    -0.354 N 
ATOM     63  N   UNL A   1      42.806  31.926  30.173  1.00  0.00    -0.248 NA
ATOM     64  C   UNL A   1      44.834  31.794  29.094  1.00  0.00     0.031 C 
ATOM     65  C   UNL A   1      40.534  33.722  31.757  1.00  0.00     0.029 A 
ATOM     66  C   UNL A   1      40.927  33.934  30.449  1.00  0.00     0.049 A 
ATOM     67  H   UNL A   1      39.779  33.838  28.695  1.00  0.00     0.167 HD
ATOM     68  C   UNL A   1      43.055  33.171  29.652  1.00  0.00     0.074 A 
ATOM     69  C   UNL A   1      44.328  33.032  28.970  1.00  0.00     0.031 C 
ATOM     70  C   UNL A   1      42.190  34.219  29.789  1.00  0.00     0.037 A 
BRANCH  57  71
ATOM     71  C   UNL A   1      36.098  33.511  30.014  1.00  0.00     0.064 A 
ATOM     72  C   UNL A   1      35.326  34.018  28.946  1.00  0.00     0.173 A 
ATOM     73  C   UNL A   1      35.502  33.661  31.280  1.00  0.00     0.173 A 
ATOM     74  F   UNL A   1      35.684  33.827  27.670  1.00  0.00    -0.203 F 
ATOM     75  C   UNL A   1      34.151  34.748  29.146  1.00  0.00     0.198 A 
ATOM     76  C   UNL A   1      34.360  34.442  31.489  1.00  0.00     0.198 A 
ATOM     77  F   UNL A   1      35.958  33.001  32.350  1.00  0.00    -0.203 F 
ATOM     78  F   UNL A   1      33.474  35.219  28.090  1.00  0.00    -0.200 F 
ATOM     79  C   UNL A   1      33.694  35.003  30.421  1.00  0.00     0.200 A 
ATOM     80  F   UNL A   1      33.912  34.643  32.737  1.00  0.00    -0.200 F 
ATOM     81  F   UNL A   1      32.599  35.750  30.618  1.00  0.00    -0.200 F 
ENDBRANCH  57  71
BRANCH  58  82
ATOM     82  C   UNL A   1      44.386  28.596  29.249  1.00  0.00     0.064 A 
ATOM     83  C   UNL A   1      45.103  27.528  29.828  1.00  0.00     0.173 A 
ATOM     84  C   UNL A   1      43.969  28.445  27.924  1.00  0.00     0.173 A 
ATOM     85  F   UNL A   1      45.537  27.621  31.096  1.00  0.00    -0.203 F 
ATOM     86  C   UNL A   1      45.280  26.322  29.155  1.00  0.00     0.198 A 
ATOM     87  C   UNL A   1      44.174  27.245  27.241  1.00  0.00     0.198 A 
ATOM     88  F   UNL A   1      43.268  29.414  27.317  1.00  0.00    -0.203 F 
ATOM     89  F   UNL A   1      45.862  25.287  29.777  1.00  0.00    -0.200 F 
ATOM     90  C   UNL A   1      44.791  26.173  27.869  1.00  0.00     0.200 A 
ATOM     91  F   UNL A   1      43.699  27.102  25.995  1.00  0.00    -0.200 F 
ATOM     92  F   UNL A   1      44.887  24.988  27.248  1.00  0.00    -0.200 F 
ENDBRANCH  58  82
BRANCH  70  93
ATOM     93  C   UNL A   1      42.475  35.608  29.280  1.00  0.00     0.064 A 
ATOM     94  C   UNL A   1      43.232  36.541  30.008  1.00  0.00     0.173 A 
ATOM     95  C   UNL A   1      41.901  36.086  28.081  1.00  0.00     0.173 A 
ATOM     96  F   UNL A   1      43.736  36.231  31.212  1.00  0.00    -0.203 F 
ATOM     97  C   UNL A   1      43.473  37.831  29.527  1.00  0.00     0.198 A 
ATOM     98  C   UNL A   1      42.096  37.392  27.632  1.00  0.00     0.198 A 
ATOM     99  F   UNL A   1      41.153  35.300  27.296  1.00  0.00    -0.203 F 
ATOM    100  F   UNL A   1      44.262  38.662  30.223  1.00  0.00    -0.200 F 
ATOM    101  C   UNL A   1      42.900  38.258  28.343  1.00  0.00     0.200 A 
ATOM    102  F   UNL A   1      41.503  37.801  26.501  1.00  0.00    -0.200 F 
ATOM    103  F   UNL A   1      43.120  39.499  27.891  1.00  0.00    -0.200 F 
ENDBRANCH  70  93
ENDBRANCH  44  45
ENDBRANCH  36  39
ENDBRANCH  34  35
ENDBRANCH  33  34
ENDBRANCH  32  33
ENDBRANCH   1  32
TORSDOF 16
ENDMDL
MODEL 2
REMARK VINA RESULT:     -14.6      1.205      2.112
REMARK SMILES Cc1ccc(-c2nc(NC(=O)[C@H]3[C@@H](C(=O)NCCCCCCNC(=O)c4ccc(-c5c6nc(c(-c7c(F)c(F)c(F)c(F)c7F)c7ccc([nH]7)c(-c7c(F)c(F)c(F)c(F)c7F)c7nc(c(-c8c(F)c(F)c(F)c(F)c8F)c8ccc5[nH]8)C=C7)C=C6)cc4)[C@@H]4CC[C@H]3O4)sc2C)cc1
REMARK SMILES IDX 19 1 18 2 17 3 16 4 14 5 15 6 13 8 12 9 92 10 89 11 91 12
REMARK SMILES IDX 93 13 90 14 10 15 9 16 11 18 8 19 6 20 7 21 95 22 94 23
REMARK SMILES IDX 96 24 5 25 1 26 2 27 3 28 98 29 4 30 97 31 20 32 21 33 22 34
REMARK SMILES IDX 23 35 24 36 25 38 26 39 27 40 88 41 28 42 87 43 29 44 30 45
REMARK SMILES IDX 31 46 81 47 32 48 86 49 80 50 82 51 33 52 85 53 79 54 78 55
REMARK SMILES IDX 34 57 66 58 46 59 65 60 47 61 50 62 64 63 83 64 48 65 49 66
REMARK SMILES IDX 63 68 84 69 51 70 35 71 36 72 44 73 37 74 38 75 42 76 45 77
REMARK SMILES IDX 39 78 40 79 43 80 41 81 67 82 68 83 76 84 69 85 70 86 74 87
REMARK SMILES IDX 77 88 71 89 72 90 75 91 73 92 52 93 53 94 61 95 54 96 55 97
REMARK SMILES IDX 59 98 62 99 56 100 57 101 60 102 58 103
REMARK H PARENT 16 7 9 17 23 37 82 56 50 67
REMARK Flexibility Score: inf
ROOT
ATOM      1  C   UNL A   1      36.952  22.864  23.632  1.00  0.00     0.002 C 
ENDROOT
BRANCH   1   2
ATOM      2  C   UNL A   1      35.461  23.181  23.540  1.00  0.00     0.021 C 
BRANCH   2   3
ATOM      3  C   UNL A   1      34.929  24.480  24.132  1.00  0.00     0.116 C 
BRANCH   3   4
ATOM      4  N   UNL A   1      33.902  25.170  23.383  1.00  0.00    -0.356 N 
ATOM      5  C   UNL A   1      33.524  26.472  23.547  1.00  0.00     0.226 C 
ATOM      6  O   UNL A   1      33.374  27.163  22.538  1.00  0.00    -0.275 OA
ATOM      7  H   UNL A   1      33.431  24.652  22.689  1.00  0.00     0.163 HD
BRANCH   5   8
ATOM      8  C   UNL A   1      33.453  27.053  24.935  1.00  0.00     0.122 C 
ATOM      9  C   UNL A   1      32.612  26.492  26.088  1.00  0.00     0.123 C 
ATOM     10  C   UNL A   1      32.457  27.777  26.922  1.00  0.00     0.132 C 
ATOM     11  C   UNL A   1      33.120  28.573  25.014  1.00  0.00     0.132 C 
ATOM     12  C   UNL A   1      33.816  28.452  27.250  1.00  0.00     0.035 C 
ATOM     13  O   UNL A   1      31.949  28.631  25.877  1.00  0.00    -0.373 OA
ATOM     14  C   UNL A   1      34.109  29.240  25.965  1.00  0.00     0.035 C 
BRANCH   9  15
ATOM     15  C   UNL A   1      31.264  25.720  26.192  1.00  0.00     0.232 C 
ATOM     16  N   UNL A   1      30.775  24.549  25.728  1.00  0.00    -0.302 N 
ATOM     17  H   UNL A   1      29.838  24.424  26.003  1.00  0.00     0.172 HD
ATOM     18  O   UNL A   1      30.396  26.343  26.850  1.00  0.00    -0.274 OA
BRANCH  16  19
ATOM     19  C   UNL A   1      31.212  23.488  24.985  1.00  0.00     0.190 A 
ATOM     20  C   UNL A   1      32.148  21.524  24.449  1.00  0.00     0.086 A 
ATOM     21  N   UNL A   1      31.708  22.369  25.490  1.00  0.00    -0.220 NA
ATOM     22  C   UNL A   1      31.874  22.026  23.184  1.00  0.00     0.031 A 
ATOM     23  S   UNL A   1      31.061  23.509  23.326  1.00  0.00    -0.101 S 
ATOM     24  C   UNL A   1      32.107  21.528  21.802  1.00  0.00     0.059 C 
BRANCH  20  25
ATOM     25  C   UNL A   1      32.819  20.226  24.660  1.00  0.00     0.001 A 
ATOM     26  C   UNL A   1      34.979  16.448  24.764  1.00  0.00     0.044 C 
ATOM     27  C   UNL A   1      34.224  17.748  24.761  1.00  0.00    -0.051 A 
ATOM     28  C   UNL A   1      32.822  17.783  24.741  1.00  0.00     0.004 A 
ATOM     29  C   UNL A   1      34.915  18.958  24.789  1.00  0.00     0.004 A 
ATOM     30  C   UNL A   1      32.124  19.010  24.689  1.00  0.00     0.010 A 
ATOM     31  C   UNL A   1      34.221  20.171  24.763  1.00  0.00     0.010 A 
ENDBRANCH  20  25
ENDBRANCH  16  19
ENDBRANCH   9  15
ENDBRANCH   5   8
ENDBRANCH   3   4
ENDBRANCH   2   3
ENDBRANCH   1   2
BRANCH   1  32
ATOM     32  C   UNL A   1      37.420  21.578  24.318  1.00  0.00     0.002 C 
BRANCH  32  33
ATOM     33  C   UNL A   1      38.129  21.670  25.666  1.00  0.00     0.021 C 
BRANCH  33  34
ATOM     34  C   UNL A   1      38.603  23.064  26.058  1.00  0.00     0.116 C 
BRANCH  34  35
ATOM     35  N   UNL A   1      40.043  23.151  26.273  1.00  0.00    -0.352 N 
ATOM     36  C   UNL A   1      40.800  24.206  26.742  1.00  0.00     0.251 C 
ATOM     37  H   UNL A   1      40.551  22.337  26.052  1.00  0.00     0.163 HD
ATOM     38  O   UNL A   1      42.014  24.079  26.891  1.00  0.00    -0.269 OA
BRANCH  36  39
ATOM     39  C   UNL A   1      40.128  25.441  27.201  1.00  0.00     0.039 A 
ATOM     40  C   UNL A   1      40.498  26.648  26.598  1.00  0.00     0.014 A 
ATOM     41  C   UNL A   1      39.300  25.443  28.321  1.00  0.00     0.014 A 
ATOM     42  C   UNL A   1      40.252  27.846  27.262  1.00  0.00     0.010 A 
ATOM     43  C   UNL A   1      39.134  26.615  29.029  1.00  0.00     0.010 A 
ATOM     44  C   UNL A   1      39.672  27.803  28.530  1.00  0.00    -0.014 A 
BRANCH  44  45
ATOM     45  C   UNL A   1      39.633  28.958  29.414  1.00  0.00     0.031 A 
ATOM     46  C   UNL A   1      38.636  30.015  29.188  1.00  0.00     0.074 A 
ATOM     47  C   UNL A   1      40.508  29.046  30.437  1.00  0.00     0.049 A 
ATOM     48  N   UNL A   1      38.785  31.247  29.536  1.00  0.00    -0.248 NA
ATOM     49  C   UNL A   1      37.385  29.756  28.492  1.00  0.00     0.031 C 
ATOM     50  C   UNL A   1      40.542  30.049  31.497  1.00  0.00     0.029 A 
ATOM     51  N   UNL A   1      41.726  28.357  30.569  1.00  0.00    -0.354 N 
ATOM     52  C   UNL A   1      37.576  31.880  29.366  1.00  0.00     0.074 A 
ATOM     53  C   UNL A   1      36.764  30.929  28.640  1.00  0.00     0.031 C 
ATOM     54  C   UNL A   1      41.806  30.158  31.936  1.00  0.00     0.029 A 
ATOM     55  C   UNL A   1      42.631  29.317  31.083  1.00  0.00     0.049 A 
ATOM     56  H   UNL A   1      41.909  27.415  30.351  1.00  0.00     0.167 HD
ATOM     57  C   UNL A   1      37.369  33.083  29.980  1.00  0.00     0.037 A 
ATOM     58  C   UNL A   1      43.681  29.743  30.324  1.00  0.00     0.037 A 
ATOM     59  C   UNL A   1      38.598  33.574  30.614  1.00  0.00     0.049 A 
ATOM     60  C   UNL A   1      43.659  31.221  29.987  1.00  0.00     0.074 A 
ATOM     61  C   UNL A   1      39.079  33.600  31.914  1.00  0.00     0.029 A 
ATOM     62  N   UNL A   1      39.685  33.868  29.808  1.00  0.00    -0.354 N 
ATOM     63  N   UNL A   1      42.694  32.041  30.296  1.00  0.00    -0.248 NA
ATOM     64  C   UNL A   1      44.694  31.860  29.175  1.00  0.00     0.031 C 
ATOM     65  C   UNL A   1      40.470  33.905  31.872  1.00  0.00     0.029 A 
ATOM     66  C   UNL A   1      40.834  34.070  30.548  1.00  0.00     0.049 A 
ATOM     67  H   UNL A   1      39.645  33.925  28.826  1.00  0.00     0.167 HD
ATOM     68  C   UNL A   1      42.938  33.266  29.729  1.00  0.00     0.074 A 
ATOM     69  C   UNL A   1      44.193  33.096  29.022  1.00  0.00     0.031 C 
ATOM     70  C   UNL A   1      42.083  34.325  29.850  1.00  0.00     0.037 A 
BRANCH  57  71
ATOM     71  C   UNL A   1      35.994  33.667  30.240  1.00  0.00     0.064 A 
ATOM     72  C   UNL A   1      35.214  34.175  29.178  1.00  0.00     0.173 A 
ATOM     73  C   UNL A   1      35.415  33.835  31.513  1.00  0.00     0.173 A 
ATOM     74  F   UNL A   1      35.552  33.969  27.899  1.00  0.00    -0.203 F 
ATOM     75  C   UNL A   1      34.049  34.919  29.388  1.00  0.00     0.198 A 
ATOM     76  C   UNL A   1      34.285  34.630  31.730  1.00  0.00     0.198 A 
ATOM     77  F   UNL A   1      35.878  33.178  32.582  1.00  0.00    -0.203 F 
ATOM     78  F   UNL A   1      33.363  35.390  28.337  1.00  0.00    -0.200 F 
ATOM     79  C   UNL A   1      33.612  35.190  30.666  1.00  0.00     0.200 A 
ATOM     80  F   UNL A   1      33.856  34.847  32.982  1.00  0.00    -0.200 F 
ATOM     81  F   UNL A   1      32.528  35.951  30.871  1.00  0.00    -0.200 F 
ENDBRANCH  57  71
BRANCH  58  82
ATOM     82  C   UNL A   1      44.230  28.671  29.447  1.00  0.00     0.064 A 
ATOM     83  C   UNL A   1      43.882  28.676  28.080  1.00  0.00     0.173 A 
ATOM     84  C   UNL A   1      45.321  27.885  29.828  1.00  0.00     0.173 A 
ATOM     85  F   UNL A   1      42.838  29.407  27.657  1.00  0.00    -0.203 F 
ATOM     86  C   UNL A   1      44.665  28.028  27.128  1.00  0.00     0.198 A 
ATOM     87  C   UNL A   1      46.087  27.212  28.874  1.00  0.00     0.198 A 
ATOM     88  F   UNL A   1      45.717  27.847  31.109  1.00  0.00    -0.203 F 
ATOM     89  F   UNL A   1      44.375  28.152  25.825  1.00  0.00    -0.200 F 
ATOM     90  C   UNL A   1      45.784  27.317  27.525  1.00  0.00     0.200 A 
ATOM     91  F   UNL A   1      47.171  26.524  29.261  1.00  0.00    -0.200 F 
ATOM     92  F   UNL A   1      46.586  26.761  26.606  1.00  0.00    -0.200 F 
ENDBRANCH  58  82
BRANCH  70  93
ATOM     93  C   UNL A   1      42.365  35.694  29.289  1.00  0.00     0.064 A 
ATOM     94  C   UNL A   1      41.812  36.147  28.080  1.00  0.00     0.173 A 
ATOM     95  C   UNL A   1      43.296  36.564  29.901  1.00  0.00     0.173 A 
ATOM     96  F   UNL A   1      41.000  35.362  27.357  1.00  0.00    -0.203 F 
ATOM     97  C   UNL A   1      42.098  37.416  27.568  1.00  0.00     0.198 A 
ATOM     98  C   UNL A   1      43.622  37.805  29.357  1.00  0.00     0.198 A 
ATOM     99  F   UNL A   1      43.899  36.249  31.055  1.00  0.00    -0.203 F 
ATOM    100  F   UNL A   1      41.489  37.831  26.448  1.00  0.00    -0.200 F 
ATOM    101  C   UNL A   1      43.007  38.241  28.203  1.00  0.00     0.200 A 
ATOM    102  F   UNL A   1      44.533  38.578  29.967  1.00  0.00    -0.200 F 
ATOM    103  F   UNL A   1      43.291  39.450  27.702  1.00  0.00    -0.200 F 
ENDBRANCH  70  93
ENDBRANCH  44  45
ENDBRANCH  36  39
ENDBRANCH  34  35
ENDBRANCH  33  34
ENDBRANCH  32  33
ENDBRANCH   1  32
TORSDOF 16
ENDMDL
MODEL 3
REMARK VINA RESULT:     -13.9      3.514     10.271
REMARK SMILES Cc1ccc(-c2nc(NC(=O)[C@H]3[C@@H](C(=O)NCCCCCCNC(=O)c4ccc(-c5c6nc(c(-c7c(F)c(F)c(F)c(F)c7F)c7ccc([nH]7)c(-c7c(F)c(F)c(F)c(F)c7F)c7nc(c(-c8c(F)c(F)c(F)c(F)c8F)c8ccc5[nH]8)C=C7)C=C6)cc4)[C@@H]4CC[C@H]3O4)sc2C)cc1
REMARK SMILES IDX 19 1 18 2 17 3 16 4 14 5 15 6 13 8 12 9 92 10 89 11 91 12
REMARK SMILES IDX 93 13 90 14 10 15 9 16 11 18 8 19 6 20 7 21 95 22 94 23
REMARK SMILES IDX 96 24 5 25 1 26 2 27 3 28 98 29 4 30 97 31 20 32 21 33 22 34
REMARK SMILES IDX 23 35 24 36 25 38 26 39 27 40 88 41 28 42 87 43 29 44 30 45
REMARK SMILES IDX 31 46 81 47 32 48 86 49 80 50 82 51 33 52 85 53 79 54 78 55
REMARK SMILES IDX 34 57 66 58 46 59 65 60 47 61 50 62 64 63 83 64 48 65 49 66
REMARK SMILES IDX 63 68 84 69 51 70 35 71 36 72 44 73 37 74 38 75 42 76 45 77
REMARK SMILES IDX 39 78 40 79 43 80 41 81 67 82 68 83 76 84 69 85 70 86 74 87
REMARK SMILES IDX 77 88 71 89 72 90 75 91 73 92 52 93 53 94 61 95 54 96 55 97
REMARK SMILES IDX 59 98 62 99 56 100 57 101 60 102 58 103
REMARK H PARENT 16 7 9 17 23 37 82 56 50 67
REMARK Flexibility Score: inf
ROOT
ATOM      1  C   UNL A   1      33.225  28.138  26.545  1.00  0.00     0.002 C 
ENDROOT
BRANCH   1   2
ATOM      2  C   UNL A   1      31.926  27.392  26.243  1.00  0.00     0.021 C 
BRANCH   2   3
ATOM      3  C   UNL A   1      31.577  26.138  27.035  1.00  0.00     0.116 C 
BRANCH   3   4
ATOM      4  N   UNL A   1      31.105  24.997  26.281  1.00  0.00    -0.356 N 
ATOM      5  C   UNL A   1      31.775  23.820  26.099  1.00  0.00     0.226 C 
ATOM      6  O   UNL A   1      31.147  22.769  26.243  1.00  0.00    -0.275 OA
ATOM      7  H   UNL A   1      30.218  25.075  25.859  1.00  0.00     0.163 HD
BRANCH   5   8
ATOM      8  C   UNL A   1      33.266  23.842  25.884  1.00  0.00     0.122 C 
ATOM      9  C   UNL A   1      33.978  24.474  24.683  1.00  0.00     0.123 C 
ATOM     10  C   UNL A   1      35.279  23.651  24.712  1.00  0.00     0.132 C 
ATOM     11  C   UNL A   1      33.982  22.462  25.984  1.00  0.00     0.132 C 
ATOM     12  C   UNL A   1      35.981  23.681  26.097  1.00  0.00     0.035 C 
ATOM     13  O   UNL A   1      34.682  22.338  24.714  1.00  0.00    -0.373 OA
ATOM     14  C   UNL A   1      35.207  22.611  26.881  1.00  0.00     0.035 C 
BRANCH   9  15
ATOM     15  C   UNL A   1      33.619  24.699  23.185  1.00  0.00     0.232 C 
ATOM     16  N   UNL A   1      32.616  25.296  22.504  1.00  0.00    -0.302 N 
ATOM     17  H   UNL A   1      32.745  25.202  21.532  1.00  0.00     0.172 HD
ATOM     18  O   UNL A   1      34.451  24.180  22.402  1.00  0.00    -0.274 OA
BRANCH  16  19
ATOM     19  C   UNL A   1      31.473  25.992  22.781  1.00  0.00     0.190 A 
ATOM     20  C   UNL A   1      30.067  27.706  23.104  1.00  0.00     0.086 A 
ATOM     21  N   UNL A   1      31.338  27.302  22.645  1.00  0.00    -0.220 NA
ATOM     22  C   UNL A   1      29.261  26.643  23.490  1.00  0.00     0.031 A 
ATOM     23  S   UNL A   1      30.092  25.184  23.247  1.00  0.00    -0.101 S 
ATOM     24  C   UNL A   1      27.873  26.536  24.012  1.00  0.00     0.059 C 
BRANCH  20  25
ATOM     25  C   UNL A   1      29.612  29.109  23.163  1.00  0.00     0.001 A 
ATOM     26  C   UNL A   1      28.585  33.331  22.892  1.00  0.00     0.044 C 
ATOM     27  C   UNL A   1      28.918  31.871  23.012  1.00  0.00    -0.051 A 
ATOM     28  C   UNL A   1      29.740  31.388  24.041  1.00  0.00     0.004 A 
ATOM     29  C   UNL A   1      28.400  30.957  22.096  1.00  0.00     0.004 A 
ATOM     30  C   UNL A   1      30.087  30.020  24.117  1.00  0.00     0.010 A 
ATOM     31  C   UNL A   1      28.725  29.600  22.188  1.00  0.00     0.010 A 
ENDBRANCH  20  25
ENDBRANCH  16  19
ENDBRANCH   9  15
ENDBRANCH   5   8
ENDBRANCH   3   4
ENDBRANCH   2   3
ENDBRANCH   1   2
BRANCH   1  32
ATOM     32  C   UNL A   1      33.323  29.641  26.275  1.00  0.00     0.002 C 
BRANCH  32  33
ATOM     33  C   UNL A   1      33.492  30.599  27.452  1.00  0.00     0.021 C 
BRANCH  33  34
ATOM     34  C   UNL A   1      34.901  31.142  27.652  1.00  0.00     0.116 C 
BRANCH  34  35
ATOM     35  N   UNL A   1      35.197  31.503  29.034  1.00  0.00    -0.352 N 
ATOM     36  C   UNL A   1      36.075  30.922  29.926  1.00  0.00     0.251 C 
ATOM     37  H   UNL A   1      34.695  32.275  29.382  1.00  0.00     0.163 HD
ATOM     38  O   UNL A   1      36.215  31.394  31.053  1.00  0.00    -0.269 OA
BRANCH  36  39
ATOM     39  C   UNL A   1      36.953  29.821  29.475  1.00  0.00     0.039 A 
ATOM     40  C   UNL A   1      37.316  28.850  30.414  1.00  0.00     0.014 A 
ATOM     41  C   UNL A   1      37.560  29.844  28.221  1.00  0.00     0.014 A 
ATOM     42  C   UNL A   1      38.450  28.075  30.192  1.00  0.00     0.010 A 
ATOM     43  C   UNL A   1      38.736  29.147  28.034  1.00  0.00     0.010 A 
ATOM     44  C   UNL A   1      39.214  28.317  29.050  1.00  0.00    -0.014 A 
BRANCH  44  45
ATOM     45  C   UNL A   1      40.549  27.769  28.869  1.00  0.00     0.031 A 
ATOM     46  C   UNL A   1      40.714  26.338  28.566  1.00  0.00     0.074 A 
ATOM     47  C   UNL A   1      41.623  28.577  28.973  1.00  0.00     0.049 A 
ATOM     48  N   UNL A   1      41.762  25.647  28.859  1.00  0.00    -0.248 NA
ATOM     49  C   UNL A   1      39.660  25.559  27.936  1.00  0.00     0.031 C 
ATOM     50  C   UNL A   1      43.019  28.246  28.700  1.00  0.00     0.029 A 
ATOM     51  N   UNL A   1      41.680  29.829  29.611  1.00  0.00    -0.354 N 
ATOM     52  C   UNL A   1      41.646  24.427  28.234  1.00  0.00     0.074 A 
ATOM     53  C   UNL A   1      40.287  24.396  27.740  1.00  0.00     0.031 C 
ATOM     54  C   UNL A   1      43.797  29.050  29.443  1.00  0.00     0.029 A 
ATOM     55  C   UNL A   1      42.917  29.830  30.298  1.00  0.00     0.049 A 
ATOM     56  H   UNL A   1      41.006  30.547  29.585  1.00  0.00     0.167 HD
ATOM     57  C   UNL A   1      42.761  23.649  28.095  1.00  0.00     0.037 A 
ATOM     58  C   UNL A   1      42.942  29.842  31.662  1.00  0.00     0.037 A 
ATOM     59  C   UNL A   1      43.902  24.223  28.815  1.00  0.00     0.049 A 
ATOM     60  C   UNL A   1      43.582  28.621  32.294  1.00  0.00     0.074 A 
ATOM     61  C   UNL A   1      45.021  24.952  28.443  1.00  0.00     0.029 A 
ATOM     62  N   UNL A   1      43.825  24.336  30.194  1.00  0.00    -0.354 N 
ATOM     63  N   UNL A   1      44.007  27.578  31.636  1.00  0.00    -0.248 NA
ATOM     64  C   UNL A   1      43.692  28.449  33.742  1.00  0.00     0.031 C 
ATOM     65  C   UNL A   1      45.604  25.510  29.618  1.00  0.00     0.029 A 
ATOM     66  C   UNL A   1      44.846  25.115  30.704  1.00  0.00     0.049 A 
ATOM     67  H   UNL A   1      43.126  23.913  30.743  1.00  0.00     0.167 HD
ATOM     68  C   UNL A   1      44.407  26.612  32.524  1.00  0.00     0.074 A 
ATOM     69  C   UNL A   1      44.174  27.198  33.830  1.00  0.00     0.031 C 
ATOM     70  C   UNL A   1      44.873  25.389  32.131  1.00  0.00     0.037 A 
BRANCH  57  71
ATOM     71  C   UNL A   1      42.880  22.527  27.081  1.00  0.00     0.064 A 
ATOM     72  C   UNL A   1      42.151  21.328  27.243  1.00  0.00     0.173 A 
ATOM     73  C   UNL A   1      43.751  22.528  25.975  1.00  0.00     0.173 A 
ATOM     74  F   UNL A   1      41.180  21.217  28.158  1.00  0.00    -0.203 F 
ATOM     75  C   UNL A   1      42.392  20.189  26.469  1.00  0.00     0.198 A 
ATOM     76  C   UNL A   1      44.039  21.374  25.238  1.00  0.00     0.198 A 
ATOM     77  F   UNL A   1      44.300  23.659  25.520  1.00  0.00    -0.203 F 
ATOM     78  F   UNL A   1      41.678  19.076  26.685  1.00  0.00    -0.200 F 
ATOM     79  C   UNL A   1      43.372  20.196  25.499  1.00  0.00     0.200 A 
ATOM     80  F   UNL A   1      44.968  21.415  24.273  1.00  0.00    -0.200 F 
ATOM     81  F   UNL A   1      43.644  19.089  24.795  1.00  0.00    -0.200 F 
ENDBRANCH  57  71
BRANCH  58  82
ATOM     82  C   UNL A   1      41.820  30.624  32.253  1.00  0.00     0.064 A 
ATOM     83  C   UNL A   1      41.850  32.029  32.145  1.00  0.00     0.173 A 
ATOM     84  C   UNL A   1      40.601  30.032  32.594  1.00  0.00     0.173 A 
ATOM     85  F   UNL A   1      42.996  32.654  31.829  1.00  0.00    -0.203 F 
ATOM     86  C   UNL A   1      40.689  32.791  32.249  1.00  0.00     0.198 A 
ATOM     87  C   UNL A   1      39.443  30.802  32.726  1.00  0.00     0.198 A 
ATOM     88  F   UNL A   1      40.497  28.699  32.697  1.00  0.00    -0.203 F 
ATOM     89  F   UNL A   1      40.732  34.112  32.023  1.00  0.00    -0.200 F 
ATOM     90  C   UNL A   1      39.480  32.172  32.513  1.00  0.00     0.200 A 
ATOM     91  F   UNL A   1      38.273  30.200  32.982  1.00  0.00    -0.200 F 
ATOM     92  F   UNL A   1      38.348  32.890  32.533  1.00  0.00    -0.200 F 
ENDBRANCH  58  82
BRANCH  70  93
ATOM     93  C   UNL A   1      45.377  24.341  33.088  1.00  0.00     0.064 A 
ATOM     94  C   UNL A   1      44.596  23.245  33.492  1.00  0.00     0.173 A 
ATOM     95  C   UNL A   1      46.635  24.463  33.719  1.00  0.00     0.173 A 
ATOM     96  F   UNL A   1      43.343  23.088  33.041  1.00  0.00    -0.203 F 
ATOM     97  C   UNL A   1      45.076  22.291  34.394  1.00  0.00     0.198 A 
ATOM     98  C   UNL A   1      47.088  23.540  34.661  1.00  0.00     0.198 A 
ATOM     99  F   UNL A   1      47.475  25.466  33.427  1.00  0.00    -0.203 F 
ATOM    100  F   UNL A   1      44.321  21.224  34.694  1.00  0.00    -0.200 F 
ATOM    101  C   UNL A   1      46.318  22.442  34.982  1.00  0.00     0.200 A 
ATOM    102  F   UNL A   1      48.279  23.721  35.249  1.00  0.00    -0.200 F 
ATOM    103  F   UNL A   1      46.769  21.534  35.857  1.00  0.00    -0.200 F 
ENDBRANCH  70  93
ENDBRANCH  44  45
ENDBRANCH  36  39
ENDBRANCH  34  35
ENDBRANCH  33  34
ENDBRANCH  32  33
ENDBRANCH   1  32
TORSDOF 16
ENDMDL
