MODEL 1
REMARK VINA RESULT:     -11.4      0.000      0.000
REMARK SMILES CC[N@@H+]1CCO[C@@H](Cn2cc(C(=O)NCCCCCCNC(=O)c3ccc(-c4c5nc(c(-c6c(F)c(F)c(F)c(F)c6F)c6ccc([nH]6)c(-c6c(F)c(F)c(F)c(F)c6F)c6nc(c(-c7c(F)c(F)c(F)c(F)c7F)c7ccc4[nH]7)C=C6)C=C5)cc3)nn2)C1
REMARK SMILES IDX 17 1 16 2 15 3 14 4 12 5 13 6 11 8 9 9 10 10 88 11 87 12
REMARK SMILES IDX 8 13 7 14 3 15 4 16 89 17 5 19 6 20 2 21 1 22 18 23 19 24
REMARK SMILES IDX 20 25 21 26 22 27 23 29 24 30 25 31 86 32 26 33 85 34 27 35
REMARK SMILES IDX 28 36 29 37 79 38 30 39 84 40 78 41 80 42 31 43 83 44 77 45
REMARK SMILES IDX 76 46 32 48 64 49 44 50 63 51 45 52 48 53 62 54 81 55 46 56
REMARK SMILES IDX 47 57 61 59 82 60 49 61 33 62 34 63 42 64 35 65 36 66 40 67
REMARK SMILES IDX 43 68 37 69 38 70 41 71 39 72 65 73 66 74 74 75 67 76 68 77
REMARK SMILES IDX 72 78 75 79 69 80 70 81 73 82 71 83 50 84 51 85 59 86 52 87
REMARK SMILES IDX 53 88 57 89 60 90 54 91 55 92 58 93 56 94
REMARK H PARENT 14 7 3 18 21 28 80 47 48 58
REMARK Flexibility Score: inf
ROOT
ATOM      1  C   UNL A   1      39.875  22.236  26.486  1.00  0.00     0.002 C 
ENDROOT
BRANCH   1   2
ATOM      2  C   UNL A   1      38.608  21.774  25.751  1.00  0.00     0.021 C 
BRANCH   2   3
ATOM      3  C   UNL A   1      37.555  22.869  25.584  1.00  0.00     0.116 C 
BRANCH   3   4
ATOM      4  N   UNL A   1      36.374  22.577  26.367  1.00  0.00    -0.351 N 
ATOM      5  C   UNL A   1      35.034  22.858  26.182  1.00  0.00     0.273 C 
ATOM      6  O   UNL A   1      34.266  22.397  27.006  1.00  0.00    -0.267 OA
ATOM      7  H   UNL A   1      36.563  22.080  27.195  1.00  0.00     0.163 HD
BRANCH   5   8
ATOM      8  C   UNL A   1      34.569  23.620  25.020  1.00  0.00     0.170 A 
ATOM      9  N   UNL A   1      33.932  25.103  23.569  1.00  0.00    -0.249 N 
ATOM     10  C   UNL A   1      33.912  24.830  24.909  1.00  0.00     0.145 A 
ATOM     11  N   UNL A   1      34.374  24.050  22.869  1.00  0.00    -0.067 NA
ATOM     12  N   UNL A   1      34.779  23.138  23.743  1.00  0.00    -0.125 NA
BRANCH   9  13
ATOM     13  C   UNL A   1      33.805  26.401  22.932  1.00  0.00     0.184 C 
BRANCH  13  14
ATOM     14  C   UNL A   1      32.728  27.237  23.632  1.00  0.00     0.194 C 
ATOM     15  N   UNL A   1      32.141  29.510  24.479  1.00  0.00    -0.331 N 
ATOM     16  C   UNL A   1      30.767  29.261  23.991  1.00  0.00     0.291 C 
ATOM     17  C   UNL A   1      33.083  28.737  23.656  1.00  0.00     0.296 C 
ATOM     18  H   UNL A   1      32.396  30.489  24.350  1.00  0.00     0.348 HD
ATOM     19  C   UNL A   1      30.434  27.771  23.742  1.00  0.00     0.222 C 
ATOM     20  O   UNL A   1      31.449  27.080  22.985  1.00  0.00    -0.365 OA
BRANCH  15  21
ATOM     21  C   UNL A   1      32.263  29.378  25.939  1.00  0.00     0.258 C 
ATOM     22  C   UNL A   1      33.395  30.122  26.650  1.00  0.00     0.071 C 
ENDBRANCH  15  21
ENDBRANCH  13  14
ENDBRANCH   9  13
ENDBRANCH   5   8
ENDBRANCH   3   4
ENDBRANCH   2   3
ENDBRANCH   1   2
BRANCH   1  23
ATOM     23  C   UNL A   1      40.708  21.127  27.149  1.00  0.00     0.002 C 
BRANCH  23  24
ATOM     24  C   UNL A   1      41.339  20.092  26.206  1.00  0.00     0.021 C 
BRANCH  24  25
ATOM     25  C   UNL A   1      42.674  19.549  26.695  1.00  0.00     0.116 C 
BRANCH  25  26
ATOM     26  N   UNL A   1      43.668  19.477  25.626  1.00  0.00    -0.352 N 
ATOM     27  C   UNL A   1      44.184  20.500  24.861  1.00  0.00     0.251 C 
ATOM     28  H   UNL A   1      44.014  18.577  25.426  1.00  0.00     0.163 HD
ATOM     29  O   UNL A   1      44.693  20.271  23.771  1.00  0.00    -0.269 OA
BRANCH  27  30
ATOM     30  C   UNL A   1      44.125  21.881  25.372  1.00  0.00     0.039 A 
ATOM     31  C   UNL A   1      43.219  22.805  24.844  1.00  0.00     0.014 A 
ATOM     32  C   UNL A   1      45.007  22.250  26.387  1.00  0.00     0.014 A 
ATOM     33  C   UNL A   1      43.160  24.081  25.397  1.00  0.00     0.010 A 
ATOM     34  C   UNL A   1      44.854  23.454  27.025  1.00  0.00     0.010 A 
ATOM     35  C   UNL A   1      43.971  24.391  26.501  1.00  0.00    -0.014 A 
BRANCH  35  36
ATOM     36  C   UNL A   1      43.786  25.637  27.234  1.00  0.00     0.031 A 
ATOM     37  C   UNL A   1      44.755  26.689  26.834  1.00  0.00     0.074 A 
ATOM     38  C   UNL A   1      42.700  25.885  27.999  1.00  0.00     0.049 A 
ATOM     39  N   UNL A   1      45.722  27.174  27.538  1.00  0.00    -0.248 NA
ATOM     40  C   UNL A   1      44.772  27.126  25.426  1.00  0.00     0.031 C 
ATOM     41  C   UNL A   1      41.526  25.024  28.184  1.00  0.00     0.029 A 
ATOM     42  N   UNL A   1      42.351  27.009  28.688  1.00  0.00    -0.354 N 
ATOM     43  C   UNL A   1      46.304  28.159  26.745  1.00  0.00     0.074 A 
ATOM     44  C   UNL A   1      45.850  27.913  25.405  1.00  0.00     0.031 C 
ATOM     45  C   UNL A   1      40.516  25.739  28.726  1.00  0.00     0.029 A 
ATOM     46  C   UNL A   1      41.011  27.057  29.072  1.00  0.00     0.049 A 
ATOM     47  H   UNL A   1      42.992  27.727  28.897  1.00  0.00     0.167 HD
ATOM     48  C   UNL A   1      46.811  29.283  27.326  1.00  0.00     0.037 A 
ATOM     49  C   UNL A   1      40.352  28.118  29.605  1.00  0.00     0.037 A 
ATOM     50  C   UNL A   1      47.015  29.063  28.741  1.00  0.00     0.049 A 
ATOM     51  C   UNL A   1      41.380  29.044  30.131  1.00  0.00     0.074 A 
ATOM     52  C   UNL A   1      47.748  28.184  29.516  1.00  0.00     0.029 A 
ATOM     53  N   UNL A   1      46.065  29.596  29.571  1.00  0.00    -0.354 N 
ATOM     54  N   UNL A   1      42.136  28.783  31.159  1.00  0.00    -0.248 NA
ATOM     55  C   UNL A   1      41.857  30.102  29.256  1.00  0.00     0.031 C 
ATOM     56  C   UNL A   1      46.942  27.933  30.669  1.00  0.00     0.029 A 
ATOM     57  C   UNL A   1      45.795  28.722  30.584  1.00  0.00     0.049 A 
ATOM     58  H   UNL A   1      45.642  30.478  29.456  1.00  0.00     0.167 HD
ATOM     59  C   UNL A   1      43.377  29.291  30.811  1.00  0.00     0.074 A 
ATOM     60  C   UNL A   1      43.110  30.207  29.705  1.00  0.00     0.031 C 
ATOM     61  C   UNL A   1      44.515  28.677  31.253  1.00  0.00     0.037 A 
BRANCH  48  62
ATOM     62  C   UNL A   1      46.617  30.691  26.772  1.00  0.00     0.064 A 
ATOM     63  C   UNL A   1      47.727  31.566  26.781  1.00  0.00     0.173 A 
ATOM     64  C   UNL A   1      45.367  31.319  26.574  1.00  0.00     0.173 A 
ATOM     65  F   UNL A   1      48.970  31.090  26.958  1.00  0.00    -0.203 F 
ATOM     66  C   UNL A   1      47.579  32.955  26.737  1.00  0.00     0.198 A 
ATOM     67  C   UNL A   1      45.230  32.704  26.480  1.00  0.00     0.198 A 
ATOM     68  F   UNL A   1      44.210  30.651  26.569  1.00  0.00    -0.203 F 
ATOM     69  F   UNL A   1      48.649  33.743  26.912  1.00  0.00    -0.200 F 
ATOM     70  C   UNL A   1      46.329  33.523  26.602  1.00  0.00     0.200 A 
ATOM     71  F   UNL A   1      44.003  33.234  26.363  1.00  0.00    -0.200 F 
ATOM     72  F   UNL A   1      46.173  34.853  26.637  1.00  0.00    -0.200 F 
ENDBRANCH  48  62
BRANCH  49  73
ATOM     73  C   UNL A   1      38.932  28.530  29.461  1.00  0.00     0.064 A 
ATOM     74  C   UNL A   1      38.121  28.735  30.593  1.00  0.00     0.173 A 
ATOM     75  C   UNL A   1      38.430  29.019  28.241  1.00  0.00     0.173 A 
ATOM     76  F   UNL A   1      38.540  28.341  31.804  1.00  0.00    -0.203 F 
ATOM     77  C   UNL A   1      36.905  29.423  30.515  1.00  0.00     0.198 A 
ATOM     78  C   UNL A   1      37.211  29.699  28.163  1.00  0.00     0.198 A 
ATOM     79  F   UNL A   1      39.156  28.941  27.117  1.00  0.00    -0.203 F 
ATOM     80  F   UNL A   1      36.199  29.666  31.629  1.00  0.00    -0.200 F 
ATOM     81  C   UNL A   1      36.457  29.917  29.301  1.00  0.00     0.200 A 
ATOM     82  F   UNL A   1      36.809  30.205  26.988  1.00  0.00    -0.200 F 
ATOM     83  F   UNL A   1      35.329  30.636  29.235  1.00  0.00    -0.200 F 
ENDBRANCH  49  73
BRANCH  61  84
ATOM     84  C   UNL A   1      44.386  27.737  32.420  1.00  0.00     0.064 A 
ATOM     85  C   UNL A   1      44.277  28.132  33.765  1.00  0.00     0.173 A 
ATOM     86  C   UNL A   1      44.275  26.369  32.138  1.00  0.00     0.173 A 
ATOM     87  F   UNL A   1      44.278  29.426  34.110  1.00  0.00    -0.203 F 
ATOM     88  C   UNL A   1      44.119  27.190  34.781  1.00  0.00     0.198 A 
ATOM     89  C   UNL A   1      44.074  25.436  33.150  1.00  0.00     0.198 A 
ATOM     90  F   UNL A   1      44.324  25.939  30.868  1.00  0.00    -0.203 F 
ATOM     91  F   UNL A   1      44.044  27.587  36.060  1.00  0.00    -0.200 F 
ATOM     92  C   UNL A   1      44.011  25.843  34.471  1.00  0.00     0.200 A 
ATOM     93  F   UNL A   1      43.924  24.141  32.838  1.00  0.00    -0.200 F 
ATOM     94  F   UNL A   1      43.825  24.941  35.444  1.00  0.00    -0.200 F 
ENDBRANCH  61  84
ENDBRANCH  35  36
ENDBRANCH  27  30
ENDBRANCH  25  26
ENDBRANCH  24  25
ENDBRANCH  23  24
ENDBRANCH   1  23
TORSDOF 16
ENDMDL
MODEL 2
REMARK VINA RESULT:     -10.9      2.808      8.807
REMARK SMILES CC[N@@H+]1CCO[C@@H](Cn2cc(C(=O)NCCCCCCNC(=O)c3ccc(-c4c5nc(c(-c6c(F)c(F)c(F)c(F)c6F)c6ccc([nH]6)c(-c6c(F)c(F)c(F)c(F)c6F)c6nc(c(-c7c(F)c(F)c(F)c(F)c7F)c7ccc4[nH]7)C=C6)C=C5)cc3)nn2)C1
REMARK SMILES IDX 17 1 16 2 15 3 14 4 12 5 13 6 11 8 9 9 10 10 88 11 87 12
REMARK SMILES IDX 8 13 7 14 3 15 4 16 89 17 5 19 6 20 2 21 1 22 18 23 19 24
REMARK SMILES IDX 20 25 21 26 22 27 23 29 24 30 25 31 86 32 26 33 85 34 27 35
REMARK SMILES IDX 28 36 29 37 79 38 30 39 84 40 78 41 80 42 31 43 83 44 77 45
REMARK SMILES IDX 76 46 32 48 64 49 44 50 63 51 45 52 48 53 62 54 81 55 46 56
REMARK SMILES IDX 47 57 61 59 82 60 49 61 33 62 34 63 42 64 35 65 36 66 40 67
REMARK SMILES IDX 43 68 37 69 38 70 41 71 39 72 65 73 66 74 74 75 67 76 68 77
REMARK SMILES IDX 72 78 75 79 69 80 70 81 73 82 71 83 50 84 51 85 59 86 52 87
REMARK SMILES IDX 53 88 57 89 60 90 54 91 55 92 58 93 56 94
REMARK H PARENT 14 7 3 18 21 28 80 47 48 58
REMARK Flexibility Score: inf
ROOT
ATOM      1  C   UNL A   1      33.790  28.403  26.024  1.00  0.00     0.002 C 
ENDROOT
BRANCH   1   2
ATOM      2  C   UNL A   1      33.334  29.263  24.837  1.00  0.00     0.021 C 
BRANCH   2   3
ATOM      3  C   UNL A   1      31.822  29.261  24.615  1.00  0.00     0.116 C 
BRANCH   3   4
ATOM      4  N   UNL A   1      31.484  28.635  23.355  1.00  0.00    -0.351 N 
ATOM      5  C   UNL A   1      31.193  27.331  23.005  1.00  0.00     0.273 C 
ATOM      6  O   UNL A   1      30.867  27.141  21.847  1.00  0.00    -0.267 OA
ATOM      7  H   UNL A   1      31.456  29.264  22.598  1.00  0.00     0.163 HD
BRANCH   5   8
ATOM      8  C   UNL A   1      31.219  26.252  23.996  1.00  0.00     0.170 A 
ATOM      9  N   UNL A   1      31.701  24.725  25.462  1.00  0.00    -0.249 N 
ATOM     10  C   UNL A   1      32.192  25.335  24.340  1.00  0.00     0.145 A 
ATOM     11  N   UNL A   1      30.428  25.079  25.683  1.00  0.00    -0.067 NA
ATOM     12  N   UNL A   1      30.122  26.021  24.802  1.00  0.00    -0.125 NA
BRANCH   9  13
ATOM     13  C   UNL A   1      32.455  24.030  26.489  1.00  0.00     0.184 C 
BRANCH  13  14
ATOM     14  C   UNL A   1      33.636  23.276  25.868  1.00  0.00     0.194 C 
ATOM     15  N   UNL A   1      35.917  22.357  26.288  1.00  0.00    -0.331 N 
ATOM     16  C   UNL A   1      35.527  21.196  25.460  1.00  0.00     0.291 C 
ATOM     17  C   UNL A   1      34.711  22.920  26.914  1.00  0.00     0.296 C 
ATOM     18  H   UNL A   1      36.518  22.063  27.058  1.00  0.00     0.348 HD
ATOM     19  C   UNL A   1      34.303  21.442  24.545  1.00  0.00     0.222 C 
ATOM     20  O   UNL A   1      33.195  22.060  25.232  1.00  0.00    -0.365 OA
BRANCH  15  21
ATOM     21  C   UNL A   1      36.804  23.293  25.581  1.00  0.00     0.258 C 
ATOM     22  C   UNL A   1      37.885  24.024  26.380  1.00  0.00     0.071 C 
ENDBRANCH  15  21
ENDBRANCH  13  14
ENDBRANCH   9  13
ENDBRANCH   5   8
ENDBRANCH   3   4
ENDBRANCH   2   3
ENDBRANCH   1   2
BRANCH   1  23
ATOM     23  C   UNL A   1      34.293  29.173  27.257  1.00  0.00     0.002 C 
BRANCH  23  24
ATOM     24  C   UNL A   1      33.774  30.608  27.423  1.00  0.00     0.021 C 
BRANCH  24  25
ATOM     25  C   UNL A   1      34.863  31.622  27.745  1.00  0.00     0.116 C 
BRANCH  25  26
ATOM     26  N   UNL A   1      34.565  32.390  28.951  1.00  0.00    -0.352 N 
ATOM     27  C   UNL A   1      35.069  32.223  30.223  1.00  0.00     0.251 C 
ATOM     28  H   UNL A   1      33.918  33.124  28.841  1.00  0.00     0.163 HD
ATOM     29  O   UNL A   1      34.466  32.657  31.197  1.00  0.00    -0.269 OA
BRANCH  27  30
ATOM     30  C   UNL A   1      36.353  31.521  30.403  1.00  0.00     0.039 A 
ATOM     31  C   UNL A   1      36.393  30.143  30.628  1.00  0.00     0.014 A 
ATOM     32  C   UNL A   1      37.529  32.269  30.357  1.00  0.00     0.014 A 
ATOM     33  C   UNL A   1      37.629  29.514  30.735  1.00  0.00     0.010 A 
ATOM     34  C   UNL A   1      38.744  31.634  30.319  1.00  0.00     0.010 A 
ATOM     35  C   UNL A   1      38.801  30.267  30.561  1.00  0.00    -0.014 A 
BRANCH  35  36
ATOM     36  C   UNL A   1      40.099  29.612  30.455  1.00  0.00     0.031 A 
ATOM     37  C   UNL A   1      40.754  29.417  31.774  1.00  0.00     0.074 A 
ATOM     38  C   UNL A   1      40.534  29.021  29.320  1.00  0.00     0.049 A 
ATOM     39  N   UNL A   1      41.813  30.005  32.220  1.00  0.00    -0.248 NA
ATOM     40  C   UNL A   1      40.052  28.613  32.792  1.00  0.00     0.031 C 
ATOM     41  C   UNL A   1      39.803  28.877  28.056  1.00  0.00     0.029 A 
ATOM     42  N   UNL A   1      41.679  28.320  29.080  1.00  0.00    -0.354 N 
ATOM     43  C   UNL A   1      42.050  29.450  33.474  1.00  0.00     0.074 A 
ATOM     44  C   UNL A   1      40.827  28.805  33.862  1.00  0.00     0.031 C 
ATOM     45  C   UNL A   1      40.408  27.949  27.282  1.00  0.00     0.029 A 
ATOM     46  C   UNL A   1      41.649  27.549  27.917  1.00  0.00     0.049 A 
ATOM     47  H   UNL A   1      42.461  28.355  29.676  1.00  0.00     0.167 HD
ATOM     48  C   UNL A   1      43.331  29.273  33.904  1.00  0.00     0.037 A 
ATOM     49  C   UNL A   1      42.564  26.625  27.527  1.00  0.00     0.037 A 
ATOM     50  C   UNL A   1      44.236  30.085  33.119  1.00  0.00     0.049 A 
ATOM     51  C   UNL A   1      43.805  26.900  28.286  1.00  0.00     0.074 A 
ATOM     52  C   UNL A   1      44.384  31.431  32.848  1.00  0.00     0.029 A 
ATOM     53  N   UNL A   1      44.940  29.423  32.148  1.00  0.00    -0.354 N 
ATOM     54  N   UNL A   1      44.547  27.957  28.109  1.00  0.00    -0.248 NA
ATOM     55  C   UNL A   1      44.006  26.198  29.542  1.00  0.00     0.031 C 
ATOM     56  C   UNL A   1      44.833  31.497  31.492  1.00  0.00     0.029 A 
ATOM     57  C   UNL A   1      45.010  30.194  31.024  1.00  0.00     0.049 A 
ATOM     58  H   UNL A   1      45.337  28.527  32.246  1.00  0.00     0.167 HD
ATOM     59  C   UNL A   1      44.946  28.315  29.386  1.00  0.00     0.074 A 
ATOM     60  C   UNL A   1      44.704  27.127  30.200  1.00  0.00     0.031 C 
ATOM     61  C   UNL A   1      45.135  29.631  29.699  1.00  0.00     0.037 A 
BRANCH  48  62
ATOM     62  C   UNL A   1      43.824  28.022  34.623  1.00  0.00     0.064 A 
ATOM     63  C   UNL A   1      43.587  26.769  34.013  1.00  0.00     0.173 A 
ATOM     64  C   UNL A   1      44.180  27.960  35.989  1.00  0.00     0.173 A 
ATOM     65  F   UNL A   1      43.243  26.695  32.717  1.00  0.00    -0.203 F 
ATOM     66  C   UNL A   1      43.572  25.577  34.743  1.00  0.00     0.198 A 
ATOM     67  C   UNL A   1      44.213  26.761  36.702  1.00  0.00     0.198 A 
ATOM     68  F   UNL A   1      44.408  29.046  36.732  1.00  0.00    -0.203 F 
ATOM     69  F   UNL A   1      43.183  24.441  34.150  1.00  0.00    -0.200 F 
ATOM     70  C   UNL A   1      43.870  25.577  36.090  1.00  0.00     0.200 A 
ATOM     71  F   UNL A   1      44.491  26.786  38.014  1.00  0.00    -0.200 F 
ATOM     72  F   UNL A   1      43.781  24.451  36.811  1.00  0.00    -0.200 F 
ENDBRANCH  48  62
BRANCH  49  73
ATOM     73  C   UNL A   1      42.383  25.367  26.760  1.00  0.00     0.064 A 
ATOM     74  C   UNL A   1      43.211  25.062  25.663  1.00  0.00     0.173 A 
ATOM     75  C   UNL A   1      41.604  24.307  27.262  1.00  0.00     0.173 A 
ATOM     76  F   UNL A   1      44.019  25.999  25.147  1.00  0.00    -0.203 F 
ATOM     77  C   UNL A   1      43.286  23.770  25.131  1.00  0.00     0.198 A 
ATOM     78  C   UNL A   1      41.674  23.019  26.724  1.00  0.00     0.198 A 
ATOM     79  F   UNL A   1      40.838  24.472  28.349  1.00  0.00    -0.203 F 
ATOM     80  F   UNL A   1      44.145  23.504  24.136  1.00  0.00    -0.200 F 
ATOM     81  C   UNL A   1      42.527  22.746  25.671  1.00  0.00     0.200 A 
ATOM     82  F   UNL A   1      40.962  22.029  27.282  1.00  0.00    -0.200 F 
ATOM     83  F   UNL A   1      42.649  21.494  25.209  1.00  0.00    -0.200 F 
ENDBRANCH  49  73
BRANCH  61  84
ATOM     84  C   UNL A   1      45.304  30.597  28.559  1.00  0.00     0.064 A 
ATOM     85  C   UNL A   1      44.253  31.258  27.900  1.00  0.00     0.173 A 
ATOM     86  C   UNL A   1      46.613  30.932  28.185  1.00  0.00     0.173 A 
ATOM     87  F   UNL A   1      42.978  31.067  28.262  1.00  0.00    -0.203 F 
ATOM     88  C   UNL A   1      44.506  32.172  26.877  1.00  0.00     0.198 A 
ATOM     89  C   UNL A   1      46.863  31.874  27.194  1.00  0.00     0.198 A 
ATOM     90  F   UNL A   1      47.655  30.366  28.812  1.00  0.00    -0.203 F 
ATOM     91  F   UNL A   1      43.488  32.772  26.244  1.00  0.00    -0.200 F 
ATOM     92  C   UNL A   1      45.812  32.483  26.529  1.00  0.00     0.200 A 
ATOM     93  F   UNL A   1      48.127  32.205  26.895  1.00  0.00    -0.200 F 
ATOM     94  F   UNL A   1      46.057  33.386  25.570  1.00  0.00    -0.200 F 
ENDBRANCH  61  84
ENDBRANCH  35  36
ENDBRANCH  27  30
ENDBRANCH  25  26
ENDBRANCH  24  25
ENDBRANCH  23  24
ENDBRANCH   1  23
TORSDOF 16
ENDMDL
MODEL 3
REMARK VINA RESULT:     -10.9      2.129      2.988
REMARK SMILES CC[N@@H+]1CCO[C@@H](Cn2cc(C(=O)NCCCCCCNC(=O)c3ccc(-c4c5nc(c(-c6c(F)c(F)c(F)c(F)c6F)c6ccc([nH]6)c(-c6c(F)c(F)c(F)c(F)c6F)c6nc(c(-c7c(F)c(F)c(F)c(F)c7F)c7ccc4[nH]7)C=C6)C=C5)cc3)nn2)C1
REMARK SMILES IDX 17 1 16 2 15 3 14 4 12 5 13 6 11 8 9 9 10 10 88 11 87 12
REMARK SMILES IDX 8 13 7 14 3 15 4 16 89 17 5 19 6 20 2 21 1 22 18 23 19 24
REMARK SMILES IDX 20 25 21 26 22 27 23 29 24 30 25 31 86 32 26 33 85 34 27 35
REMARK SMILES IDX 28 36 29 37 79 38 30 39 84 40 78 41 80 42 31 43 83 44 77 45
REMARK SMILES IDX 76 46 32 48 64 49 44 50 63 51 45 52 48 53 62 54 81 55 46 56
REMARK SMILES IDX 47 57 61 59 82 60 49 61 33 62 34 63 42 64 35 65 36 66 40 67
REMARK SMILES IDX 43 68 37 69 38 70 41 71 39 72 65 73 66 74 74 75 67 76 68 77
REMARK SMILES IDX 72 78 75 79 69 80 70 81 73 82 71 83 50 84 51 85 59 86 52 87
REMARK SMILES IDX 53 88 57 89 60 90 54 91 55 92 58 93 56 94
REMARK H PARENT 14 7 3 18 21 28 80 47 48 58
REMARK Flexibility Score: inf
ROOT
ATOM      1  C   UNL A   1      37.661  23.442  25.386  1.00  0.00     0.002 C 
ENDROOT
BRANCH   1   2
ATOM      2  C   UNL A   1      37.029  22.539  24.318  1.00  0.00     0.021 C 
BRANCH   2   3
ATOM      3  C   UNL A   1      35.894  23.201  23.539  1.00  0.00     0.116 C 
BRANCH   3   4
ATOM      4  N   UNL A   1      34.667  22.445  23.665  1.00  0.00    -0.351 N 
ATOM      5  C   UNL A   1      33.382  22.661  23.207  1.00  0.00     0.273 C 
ATOM      6  O   UNL A   1      32.574  21.776  23.424  1.00  0.00    -0.267 OA
ATOM      7  H   UNL A   1      34.769  21.612  24.181  1.00  0.00     0.163 HD
BRANCH   5   8
ATOM      8  C   UNL A   1      33.036  23.866  22.450  1.00  0.00     0.170 A 
ATOM      9  N   UNL A   1      32.547  25.854  21.727  1.00  0.00    -0.249 N 
ATOM     10  C   UNL A   1      32.394  25.034  22.811  1.00  0.00     0.145 A 
ATOM     11  N   UNL A   1      33.058  25.184  20.685  1.00  0.00    -0.067 NA
ATOM     12  N   UNL A   1      33.372  23.969  21.114  1.00  0.00    -0.125 NA
BRANCH   9  13
ATOM     13  C   UNL A   1      32.485  27.304  21.702  1.00  0.00     0.184 C 
BRANCH  13  14
ATOM     14  C   UNL A   1      32.378  27.859  23.127  1.00  0.00     0.194 C 
ATOM     15  N   UNL A   1      33.398  29.411  24.793  1.00  0.00    -0.331 N 
ATOM     16  C   UNL A   1      32.022  29.763  25.205  1.00  0.00     0.291 C 
ATOM     17  C   UNL A   1      33.380  29.003  23.380  1.00  0.00     0.296 C 
ATOM     18  H   UNL A   1      34.007  30.228  24.839  1.00  0.00     0.348 HD
ATOM     19  C   UNL A   1      30.942  28.741  24.776  1.00  0.00     0.222 C 
ATOM     20  O   UNL A   1      31.048  28.349  23.392  1.00  0.00    -0.365 OA
BRANCH  15  21
ATOM     21  C   UNL A   1      34.067  28.509  25.743  1.00  0.00     0.258 C 
ATOM     22  C   UNL A   1      33.732  28.631  27.231  1.00  0.00     0.071 C 
ENDBRANCH  15  21
ENDBRANCH  13  14
ENDBRANCH   9  13
ENDBRANCH   5   8
ENDBRANCH   3   4
ENDBRANCH   2   3
ENDBRANCH   1   2
BRANCH   1  23
ATOM     23  C   UNL A   1      38.593  22.743  26.391  1.00  0.00     0.002 C 
BRANCH  23  24
ATOM     24  C   UNL A   1      39.344  21.506  25.877  1.00  0.00     0.021 C 
BRANCH  24  25
ATOM     25  C   UNL A   1      40.636  21.216  26.627  1.00  0.00     0.116 C 
BRANCH  25  26
ATOM     26  N   UNL A   1      41.820  21.459  25.807  1.00  0.00    -0.352 N 
ATOM     27  C   UNL A   1      42.436  22.657  25.519  1.00  0.00     0.251 C 
ATOM     28  H   UNL A   1      42.232  20.659  25.405  1.00  0.00     0.163 HD
ATOM     29  O   UNL A   1      43.155  22.771  24.534  1.00  0.00    -0.269 OA
BRANCH  27  30
ATOM     30  C   UNL A   1      42.228  23.808  26.416  1.00  0.00     0.039 A 
ATOM     31  C   UNL A   1      42.864  23.875  27.659  1.00  0.00     0.014 A 
ATOM     32  C   UNL A   1      41.367  24.824  26.002  1.00  0.00     0.014 A 
ATOM     33  C   UNL A   1      42.683  25.006  28.447  1.00  0.00     0.010 A 
ATOM     34  C   UNL A   1      41.300  25.996  26.710  1.00  0.00     0.010 A 
ATOM     35  C   UNL A   1      41.912  26.071  27.956  1.00  0.00    -0.014 A 
BRANCH  35  36
ATOM     36  C   UNL A   1      41.873  27.349  28.657  1.00  0.00     0.031 A 
ATOM     37  C   UNL A   1      42.992  28.249  28.276  1.00  0.00     0.074 A 
ATOM     38  C   UNL A   1      40.803  27.762  29.371  1.00  0.00     0.049 A 
ATOM     39  N   UNL A   1      43.990  28.615  29.008  1.00  0.00    -0.248 NA
ATOM     40  C   UNL A   1      43.121  28.644  26.861  1.00  0.00     0.031 C 
ATOM     41  C   UNL A   1      39.517  27.074  29.526  1.00  0.00     0.029 A 
ATOM     42  N   UNL A   1      40.587  28.941  30.024  1.00  0.00    -0.354 N 
ATOM     43  C   UNL A   1      44.731  29.491  28.220  1.00  0.00     0.074 A 
ATOM     44  C   UNL A   1      44.297  29.276  26.868  1.00  0.00     0.031 C 
ATOM     45  C   UNL A   1      38.594  27.934  30.012  1.00  0.00     0.029 A 
ATOM     46  C   UNL A   1      39.253  29.180  30.352  1.00  0.00     0.049 A 
ATOM     47  H   UNL A   1      41.312  29.569  30.244  1.00  0.00     0.167 HD
ATOM     48  C   UNL A   1      45.365  30.549  28.800  1.00  0.00     0.037 A 
ATOM     49  C   UNL A   1      38.726  30.334  30.837  1.00  0.00     0.037 A 
ATOM     50  C   UNL A   1      45.483  30.339  30.226  1.00  0.00     0.049 A 
ATOM     51  C   UNL A   1      39.851  31.124  31.386  1.00  0.00     0.074 A 
ATOM     52  C   UNL A   1      46.059  29.388  31.046  1.00  0.00     0.029 A 
ATOM     53  N   UNL A   1      44.585  31.018  31.006  1.00  0.00    -0.354 N 
ATOM     54  N   UNL A   1      40.525  30.788  32.449  1.00  0.00    -0.248 NA
ATOM     55  C   UNL A   1      40.502  32.085  30.511  1.00  0.00     0.031 C 
ATOM     56  C   UNL A   1      45.184  29.278  32.171  1.00  0.00     0.029 A 
ATOM     57  C   UNL A   1      44.160  30.214  32.024  1.00  0.00     0.049 A 
ATOM     58  H   UNL A   1      44.292  31.946  30.857  1.00  0.00     0.167 HD
ATOM     59  C   UNL A   1      41.837  31.113  32.142  1.00  0.00     0.074 A 
ATOM     60  C   UNL A   1      41.739  32.029  31.008  1.00  0.00     0.031 C 
ATOM     61  C   UNL A   1      42.862  30.361  32.642  1.00  0.00     0.037 A 
BRANCH  48  62
ATOM     62  C   UNL A   1      45.387  31.956  28.211  1.00  0.00     0.064 A 
ATOM     63  C   UNL A   1      46.622  32.643  28.182  1.00  0.00     0.173 A 
ATOM     64  C   UNL A   1      44.249  32.770  28.013  1.00  0.00     0.173 A 
ATOM     65  F   UNL A   1      47.776  31.981  28.355  1.00  0.00    -0.203 F 
ATOM     66  C   UNL A   1      46.695  34.037  28.102  1.00  0.00     0.198 A 
ATOM     67  C   UNL A   1      44.331  34.157  27.883  1.00  0.00     0.198 A 
ATOM     68  F   UNL A   1      43.001  32.295  28.042  1.00  0.00    -0.203 F 
ATOM     69  F   UNL A   1      47.879  34.649  28.242  1.00  0.00    -0.200 F 
ATOM     70  C   UNL A   1      45.548  34.793  27.968  1.00  0.00     0.200 A 
ATOM     71  F   UNL A   1      43.203  34.872  27.768  1.00  0.00    -0.200 F 
ATOM     72  F   UNL A   1      45.607  36.131  27.970  1.00  0.00    -0.200 F 
ENDBRANCH  48  62
BRANCH  49  73
ATOM     73  C   UNL A   1      37.383  30.932  30.628  1.00  0.00     0.064 A 
ATOM     74  C   UNL A   1      36.545  31.228  31.720  1.00  0.00     0.173 A 
ATOM     75  C   UNL A   1      37.016  31.500  29.393  1.00  0.00     0.173 A 
ATOM     76  F   UNL A   1      36.842  30.766  32.943  1.00  0.00    -0.203 F 
ATOM     77  C   UNL A   1      35.436  32.072  31.592  1.00  0.00     0.198 A 
ATOM     78  C   UNL A   1      35.904  32.337  29.266  1.00  0.00     0.198 A 
ATOM     79  F   UNL A   1      37.786  31.341  28.308  1.00  0.00    -0.203 F 
ATOM     80  F   UNL A   1      34.709  32.391  32.673  1.00  0.00    -0.200 F 
ATOM     81  C   UNL A   1      35.124  32.637  30.368  1.00  0.00     0.200 A 
ATOM     82  F   UNL A   1      35.636  32.907  28.082  1.00  0.00    -0.200 F 
ATOM     83  F   UNL A   1      34.105  33.500  30.257  1.00  0.00    -0.200 F 
ENDBRANCH  49  73
BRANCH  61  84
ATOM     84  C   UNL A   1      42.561  29.477  33.820  1.00  0.00     0.064 A 
ATOM     85  C   UNL A   1      42.016  28.183  33.739  1.00  0.00     0.173 A 
ATOM     86  C   UNL A   1      42.937  29.940  35.088  1.00  0.00     0.173 A 
ATOM     87  F   UNL A   1      41.720  27.628  32.556  1.00  0.00    -0.203 F 
ATOM     88  C   UNL A   1      41.809  27.416  34.884  1.00  0.00     0.198 A 
ATOM     89  C   UNL A   1      42.768  29.156  36.224  1.00  0.00     0.198 A 
ATOM     90  F   UNL A   1      43.505  31.148  35.220  1.00  0.00    -0.203 F 
ATOM     91  F   UNL A   1      41.264  26.195  34.787  1.00  0.00    -0.200 F 
ATOM     92  C   UNL A   1      42.191  27.901  36.126  1.00  0.00     0.200 A 
ATOM     93  F   UNL A   1      43.183  29.612  37.414  1.00  0.00    -0.200 F 
ATOM     94  F   UNL A   1      42.024  27.151  37.223  1.00  0.00    -0.200 F 
ENDBRANCH  61  84
ENDBRANCH  35  36
ENDBRANCH  27  30
ENDBRANCH  25  26
ENDBRANCH  24  25
ENDBRANCH  23  24
ENDBRANCH   1  23
TORSDOF 16
ENDMDL
