MODEL 1
REMARK VINA RESULT:     -13.9      0.000      0.000
REMARK SMILES C[C@@H]1CCCN(C(=O)CSc2nnc3c4ccccc4n(CC(=O)NCCCCCCNC(=O)c4ccc(-c5c6nc(c(-c7c(F)c(F)c(F)c(F)c7F)c7ccc([nH]7)c(-c7c(F)c(F)c(F)c(F)c7F)c7nc(c(-c8c(F)c(F)c(F)c(F)c8F)c8ccc5[nH]8)C=C7)C=C6)cc4)c3n2)C1
REMARK SMILES IDX 27 1 26 2 25 3 23 4 24 5 22 7 21 8 11 9 12 10 99 11 13 12
REMARK SMILES IDX 98 13 14 14 15 15 20 16 16 17 19 18 17 19 18 20 10 21 9 22
REMARK SMILES IDX 7 23 8 24 6 25 1 26 2 27 3 28 100 29 4 30 5 31 28 32 29 33
REMARK SMILES IDX 30 34 31 35 32 36 33 37 34 39 35 40 36 41 97 42 37 43 96 44
REMARK SMILES IDX 38 45 39 46 40 47 90 48 41 49 95 50 89 51 91 52 42 53 94 54
REMARK SMILES IDX 88 55 87 56 43 58 75 59 55 60 74 61 56 62 59 63 73 64 92 65
REMARK SMILES IDX 57 66 58 67 72 69 93 70 60 71 44 72 45 73 53 74 46 75 47 76
REMARK SMILES IDX 51 77 54 78 48 79 49 80 52 81 50 82 76 83 77 84 85 85 78 86
REMARK SMILES IDX 79 87 83 88 86 89 80 90 81 91 84 92 82 93 61 94 62 95 70 96
REMARK SMILES IDX 63 97 64 98 68 99 71 100 65 101 66 102 69 103 67 104
REMARK H PARENT 25 6 32 38 91 57 59 68
REMARK Flexibility Score: inf
ROOT
ATOM      1  C   UNL A   1      31.597  27.825  27.153  1.00  0.00     0.021 C 
ENDROOT
BRANCH   1   2
ATOM      2  C   UNL A   1      31.209  26.694  26.199  1.00  0.00     0.116 C 
BRANCH   2   3
ATOM      3  N   UNL A   1      31.076  25.432  26.901  1.00  0.00    -0.355 N 
ATOM      4  C   UNL A   1      31.892  24.339  26.883  1.00  0.00     0.240 C 
ATOM      5  O   UNL A   1      31.548  23.350  27.537  1.00  0.00    -0.273 OA
ATOM      6  H   UNL A   1      30.279  25.352  27.474  1.00  0.00     0.163 HD
BRANCH   4   7
ATOM      7  C   UNL A   1      33.213  24.358  26.140  1.00  0.00     0.224 C 
BRANCH   7   8
ATOM      8  N   UNL A   1      33.119  23.944  24.749  1.00  0.00    -0.314 N 
ATOM      9  C   UNL A   1      33.491  26.672  22.519  1.00  0.00     0.211 A 
ATOM     10  N   UNL A   1      33.296  26.019  21.344  1.00  0.00    -0.122 NA
ATOM     11  N   UNL A   1      33.513  26.118  23.749  1.00  0.00    -0.201 NA
ATOM     12  N   UNL A   1      33.103  24.698  21.321  1.00  0.00    -0.144 NA
ATOM     13  C   UNL A   1      33.279  24.795  23.685  1.00  0.00     0.165 A 
ATOM     14  C   UNL A   1      33.064  24.073  22.526  1.00  0.00     0.138 A 
ATOM     15  C   UNL A   1      32.780  22.732  22.892  1.00  0.00     0.030 A 
ATOM     16  C   UNL A   1      32.832  22.668  24.293  1.00  0.00     0.053 A 
ATOM     17  C   UNL A   1      32.453  21.568  22.168  1.00  0.00     0.013 A 
ATOM     18  C   UNL A   1      32.585  21.472  24.988  1.00  0.00     0.027 A 
ATOM     19  C   UNL A   1      32.189  20.379  22.855  1.00  0.00     0.001 A 
ATOM     20  C   UNL A   1      32.258  20.336  24.244  1.00  0.00     0.002 A 
BRANCH   9  21
ATOM     21  S   UNL A   1      33.410  28.448  22.502  1.00  0.00    -0.074 SA
BRANCH  21  22
ATOM     22  C   UNL A   1      31.913  28.699  23.490  1.00  0.00     0.178 C 
BRANCH  22  23
ATOM     23  C   UNL A   1      30.656  28.779  22.639  1.00  0.00     0.233 C 
ATOM     24  O   UNL A   1      30.318  27.789  21.983  1.00  0.00    -0.274 OA
BRANCH  23  25
ATOM     25  N   UNL A   1      29.893  29.942  22.655  1.00  0.00    -0.342 N 
ATOM     26  C   UNL A   1      27.864  31.795  19.997  1.00  0.00     0.009 C 
ATOM     27  C   UNL A   1      28.145  31.077  21.314  1.00  0.00     0.005 C 
ATOM     28  C   UNL A   1      27.834  31.985  22.509  1.00  0.00     0.007 C 
ATOM     29  C   UNL A   1      29.600  30.596  21.378  1.00  0.00     0.122 C 
ATOM     30  C   UNL A   1      28.135  31.260  23.817  1.00  0.00     0.022 C 
ATOM     31  C   UNL A   1      29.562  30.720  23.852  1.00  0.00     0.119 C 
ENDBRANCH  23  25
ENDBRANCH  22  23
ENDBRANCH  21  22
ENDBRANCH   9  21
ENDBRANCH   7   8
ENDBRANCH   4   7
ENDBRANCH   2   3
ENDBRANCH   1   2
BRANCH   1  32
ATOM     32  C   UNL A   1      33.026  28.346  26.946  1.00  0.00     0.002 C 
BRANCH  32  33
ATOM     33  C   UNL A   1      33.171  29.871  26.964  1.00  0.00     0.002 C 
BRANCH  33  34
ATOM     34  C   UNL A   1      34.498  30.399  27.518  1.00  0.00     0.021 C 
BRANCH  34  35
ATOM     35  C   UNL A   1      34.498  31.892  27.857  1.00  0.00     0.116 C 
BRANCH  35  36
ATOM     36  N   UNL A   1      34.465  32.170  29.278  1.00  0.00    -0.352 N 
ATOM     37  C   UNL A   1      35.276  31.879  30.344  1.00  0.00     0.251 C 
ATOM     38  H   UNL A   1      33.672  32.691  29.541  1.00  0.00     0.163 HD
ATOM     39  O   UNL A   1      34.959  32.375  31.421  1.00  0.00    -0.269 OA
BRANCH  37  40
ATOM     40  C   UNL A   1      36.469  30.983  30.295  1.00  0.00     0.039 A 
ATOM     41  C   UNL A   1      36.498  29.648  30.687  1.00  0.00     0.014 A 
ATOM     42  C   UNL A   1      37.669  31.566  29.837  1.00  0.00     0.014 A 
ATOM     43  C   UNL A   1      37.695  28.938  30.702  1.00  0.00     0.010 A 
ATOM     44  C   UNL A   1      38.868  30.851  29.819  1.00  0.00     0.010 A 
ATOM     45  C   UNL A   1      38.886  29.540  30.283  1.00  0.00    -0.014 A 
BRANCH  45  46
ATOM     46  C   UNL A   1      40.080  28.698  30.273  1.00  0.00     0.031 A 
ATOM     47  C   UNL A   1      40.790  28.573  31.579  1.00  0.00     0.074 A 
ATOM     48  C   UNL A   1      40.540  28.011  29.211  1.00  0.00     0.049 A 
ATOM     49  N   UNL A   1      41.993  28.947  31.875  1.00  0.00    -0.248 NA
ATOM     50  C   UNL A   1      40.036  28.018  32.710  1.00  0.00     0.031 C 
ATOM     51  C   UNL A   1      39.864  27.752  27.940  1.00  0.00     0.029 A 
ATOM     52  N   UNL A   1      41.719  27.328  29.089  1.00  0.00    -0.354 N 
ATOM     53  C   UNL A   1      42.210  28.546  33.192  1.00  0.00     0.074 A 
ATOM     54  C   UNL A   1      40.945  28.068  33.686  1.00  0.00     0.031 C 
ATOM     55  C   UNL A   1      40.559  26.818  27.251  1.00  0.00     0.029 A 
ATOM     56  C   UNL A   1      41.792  26.524  27.963  1.00  0.00     0.049 A 
ATOM     57  H   UNL A   1      42.451  27.402  29.743  1.00  0.00     0.167 HD
ATOM     58  C   UNL A   1      43.463  28.470  33.719  1.00  0.00     0.037 A 
ATOM     59  C   UNL A   1      42.778  25.649  27.659  1.00  0.00     0.037 A 
ATOM     60  C   UNL A   1      44.401  29.255  32.962  1.00  0.00     0.049 A 
ATOM     61  C   UNL A   1      44.001  26.060  28.384  1.00  0.00     0.074 A 
ATOM     62  C   UNL A   1      44.591  30.598  32.711  1.00  0.00     0.029 A 
ATOM     63  N   UNL A   1      45.200  28.581  32.078  1.00  0.00    -0.354 N 
ATOM     64  N   UNL A   1      44.694  27.132  28.117  1.00  0.00    -0.248 NA
ATOM     65  C   UNL A   1      44.347  25.391  29.631  1.00  0.00     0.031 C 
ATOM     66  C   UNL A   1      45.213  30.664  31.428  1.00  0.00     0.029 A 
ATOM     67  C   UNL A   1      45.372  29.358  30.965  1.00  0.00     0.049 A 
ATOM     68  H   UNL A   1      45.587  27.687  32.221  1.00  0.00     0.167 HD
ATOM     69  C   UNL A   1      45.252  27.496  29.327  1.00  0.00     0.074 A 
ATOM     70  C   UNL A   1      45.159  26.308  30.161  1.00  0.00     0.031 C 
ATOM     71  C   UNL A   1      45.463  28.808  29.630  1.00  0.00     0.037 A 
BRANCH  58  72
ATOM     72  C   UNL A   1      43.927  27.407  34.694  1.00  0.00     0.064 A 
ATOM     73  C   UNL A   1      43.883  26.049  34.304  1.00  0.00     0.173 A 
ATOM     74  C   UNL A   1      44.103  27.631  36.075  1.00  0.00     0.173 A 
ATOM     75  F   UNL A   1      43.707  25.710  33.018  1.00  0.00    -0.203 F 
ATOM     76  C   UNL A   1      43.917  25.007  35.236  1.00  0.00     0.198 A 
ATOM     77  C   UNL A   1      44.190  26.585  36.997  1.00  0.00     0.198 A 
ATOM     78  F   UNL A   1      44.087  28.859  36.605  1.00  0.00    -0.203 F 
ATOM     79  F   UNL A   1      43.735  23.743  34.828  1.00  0.00    -0.200 F 
ATOM     80  C   UNL A   1      44.062  25.277  36.582  1.00  0.00     0.200 A 
ATOM     81  F   UNL A   1      44.316  26.867  38.301  1.00  0.00    -0.200 F 
ATOM     82  F   UNL A   1      44.028  24.286  37.484  1.00  0.00    -0.200 F 
ENDBRANCH  58  72
BRANCH  59  83
ATOM     83  C   UNL A   1      42.691  24.358  26.937  1.00  0.00     0.064 A 
ATOM     84  C   UNL A   1      43.170  24.232  25.622  1.00  0.00     0.173 A 
ATOM     85  C   UNL A   1      42.403  23.159  27.616  1.00  0.00     0.173 A 
ATOM     86  F   UNL A   1      43.503  25.323  24.915  1.00  0.00    -0.203 F 
ATOM     87  C   UNL A   1      43.393  22.982  25.040  1.00  0.00     0.198 A 
ATOM     88  C   UNL A   1      42.613  21.911  27.028  1.00  0.00     0.198 A 
ATOM     89  F   UNL A   1      42.006  23.171  28.897  1.00  0.00    -0.203 F 
ATOM     90  F   UNL A   1      43.928  22.903  23.813  1.00  0.00    -0.200 F 
ATOM     91  C   UNL A   1      43.127  21.822  25.748  1.00  0.00     0.200 A 
ATOM     92  F   UNL A   1      42.380  20.797  27.736  1.00  0.00    -0.200 F 
ATOM     93  F   UNL A   1      43.404  20.625  25.216  1.00  0.00    -0.200 F 
ENDBRANCH  59  83
BRANCH  71  94
ATOM     94  C   UNL A   1      45.524  29.782  28.492  1.00  0.00     0.064 A 
ATOM     95  C   UNL A   1      44.395  30.364  27.894  1.00  0.00     0.173 A 
ATOM     96  C   UNL A   1      46.785  30.228  28.073  1.00  0.00     0.173 A 
ATOM     97  F   UNL A   1      43.159  30.060  28.310  1.00  0.00    -0.203 F 
ATOM     98  C   UNL A   1      44.529  31.318  26.887  1.00  0.00     0.198 A 
ATOM     99  C   UNL A   1      46.915  31.209  27.096  1.00  0.00     0.198 A 
ATOM    100  F   UNL A   1      47.896  29.743  28.650  1.00  0.00    -0.203 F 
ATOM    101  F   UNL A   1      43.438  31.852  26.317  1.00  0.00    -0.200 F 
ATOM    102  C   UNL A   1      45.787  31.745  26.495  1.00  0.00     0.200 A 
ATOM    103  F   UNL A   1      48.132  31.656  26.756  1.00  0.00    -0.200 F 
ATOM    104  F   UNL A   1      45.914  32.696  25.559  1.00  0.00    -0.200 F 
ENDBRANCH  71  94
ENDBRANCH  45  46
ENDBRANCH  37  40
ENDBRANCH  35  36
ENDBRANCH  34  35
ENDBRANCH  33  34
ENDBRANCH  32  33
ENDBRANCH   1  32
TORSDOF 18
ENDMDL
MODEL 2
REMARK VINA RESULT:     -13.7      2.943      8.321
REMARK SMILES C[C@@H]1CCCN(C(=O)CSc2nnc3c4ccccc4n(CC(=O)NCCCCCCNC(=O)c4ccc(-c5c6nc(c(-c7c(F)c(F)c(F)c(F)c7F)c7ccc([nH]7)c(-c7c(F)c(F)c(F)c(F)c7F)c7nc(c(-c8c(F)c(F)c(F)c(F)c8F)c8ccc5[nH]8)C=C7)C=C6)cc4)c3n2)C1
REMARK SMILES IDX 27 1 26 2 25 3 23 4 24 5 22 7 21 8 11 9 12 10 99 11 13 12
REMARK SMILES IDX 98 13 14 14 15 15 20 16 16 17 19 18 17 19 18 20 10 21 9 22
REMARK SMILES IDX 7 23 8 24 6 25 1 26 2 27 3 28 100 29 4 30 5 31 28 32 29 33
REMARK SMILES IDX 30 34 31 35 32 36 33 37 34 39 35 40 36 41 97 42 37 43 96 44
REMARK SMILES IDX 38 45 39 46 40 47 90 48 41 49 95 50 89 51 91 52 42 53 94 54
REMARK SMILES IDX 88 55 87 56 43 58 75 59 55 60 74 61 56 62 59 63 73 64 92 65
REMARK SMILES IDX 57 66 58 67 72 69 93 70 60 71 44 72 45 73 53 74 46 75 47 76
REMARK SMILES IDX 51 77 54 78 48 79 49 80 52 81 50 82 76 83 77 84 85 85 78 86
REMARK SMILES IDX 79 87 83 88 86 89 80 90 81 91 84 92 82 93 61 94 62 95 70 96
REMARK SMILES IDX 63 97 64 98 68 99 71 100 65 101 66 102 69 103 67 104
REMARK H PARENT 25 6 32 38 91 57 59 68
REMARK Flexibility Score: inf
ROOT
ATOM      1  C   UNL A   1      39.605  21.571  26.283  1.00  0.00     0.021 C 
ENDROOT
BRANCH   1   2
ATOM      2  C   UNL A   1      39.068  22.956  25.925  1.00  0.00     0.116 C 
BRANCH   2   3
ATOM      3  N   UNL A   1      37.751  23.176  26.492  1.00  0.00    -0.355 N 
ATOM      4  C   UNL A   1      36.532  23.175  25.880  1.00  0.00     0.240 C 
ATOM      5  O   UNL A   1      35.540  23.432  26.568  1.00  0.00    -0.273 OA
ATOM      6  H   UNL A   1      37.734  23.352  27.460  1.00  0.00     0.163 HD
BRANCH   4   7
ATOM      7  C   UNL A   1      36.388  22.805  24.417  1.00  0.00     0.224 C 
BRANCH   7   8
ATOM      8  N   UNL A   1      35.031  22.470  24.019  1.00  0.00    -0.314 N 
ATOM      9  C   UNL A   1      33.332  25.243  22.613  1.00  0.00     0.211 A 
ATOM     10  N   UNL A   1      32.117  24.671  22.408  1.00  0.00    -0.122 NA
ATOM     11  N   UNL A   1      34.432  24.633  23.098  1.00  0.00    -0.201 NA
ATOM     12  N   UNL A   1      31.914  23.382  22.689  1.00  0.00    -0.144 NA
ATOM     13  C   UNL A   1      34.175  23.347  23.402  1.00  0.00     0.165 A 
ATOM     14  C   UNL A   1      32.962  22.709  23.227  1.00  0.00     0.138 A 
ATOM     15  C   UNL A   1      33.084  21.391  23.739  1.00  0.00     0.030 A 
ATOM     16  C   UNL A   1      34.395  21.256  24.220  1.00  0.00     0.053 A 
ATOM     17  C   UNL A   1      32.195  20.305  23.867  1.00  0.00     0.013 A 
ATOM     18  C   UNL A   1      34.847  20.063  24.808  1.00  0.00     0.027 A 
ATOM     19  C   UNL A   1      32.634  19.121  24.468  1.00  0.00     0.001 A 
ATOM     20  C   UNL A   1      33.943  19.005  24.928  1.00  0.00     0.002 A 
BRANCH   9  21
ATOM     21  S   UNL A   1      33.437  27.016  22.532  1.00  0.00    -0.074 SA
BRANCH  21  22
ATOM     22  C   UNL A   1      31.743  27.448  23.006  1.00  0.00     0.178 C 
BRANCH  22  23
ATOM     23  C   UNL A   1      31.551  27.502  24.513  1.00  0.00     0.233 C 
ATOM     24  O   UNL A   1      30.817  26.665  25.048  1.00  0.00    -0.274 OA
BRANCH  23  25
ATOM     25  N   UNL A   1      32.240  28.455  25.256  1.00  0.00    -0.342 N 
ATOM     26  C   UNL A   1      31.352  31.955  26.512  1.00  0.00     0.009 C 
ATOM     27  C   UNL A   1      31.797  30.497  26.588  1.00  0.00     0.005 C 
ATOM     28  C   UNL A   1      33.194  30.382  27.207  1.00  0.00     0.007 C 
ATOM     29  C   UNL A   1      31.776  29.843  25.201  1.00  0.00     0.122 C 
ATOM     30  C   UNL A   1      33.630  28.921  27.262  1.00  0.00     0.022 C 
ATOM     31  C   UNL A   1      33.542  28.251  25.894  1.00  0.00     0.119 C 
ENDBRANCH  23  25
ENDBRANCH  22  23
ENDBRANCH  21  22
ENDBRANCH   9  21
ENDBRANCH   7   8
ENDBRANCH   4   7
ENDBRANCH   2   3
ENDBRANCH   1   2
BRANCH   1  32
ATOM     32  C   UNL A   1      40.603  21.576  27.451  1.00  0.00     0.002 C 
BRANCH  32  33
ATOM     33  C   UNL A   1      41.456  20.311  27.582  1.00  0.00     0.002 C 
BRANCH  33  34
ATOM     34  C   UNL A   1      41.667  19.521  26.286  1.00  0.00     0.021 C 
BRANCH  34  35
ATOM     35  C   UNL A   1      42.992  18.759  26.212  1.00  0.00     0.116 C 
BRANCH  35  36
ATOM     36  N   UNL A   1      43.869  19.210  25.151  1.00  0.00    -0.352 N 
ATOM     37  C   UNL A   1      44.402  20.415  24.776  1.00  0.00     0.251 C 
ATOM     38  H   UNL A   1      44.147  18.475  24.556  1.00  0.00     0.163 HD
ATOM     39  O   UNL A   1      45.200  20.392  23.845  1.00  0.00    -0.269 OA
BRANCH  37  40
ATOM     40  C   UNL A   1      44.051  21.734  25.383  1.00  0.00     0.039 A 
ATOM     41  C   UNL A   1      43.097  22.622  24.898  1.00  0.00     0.014 A 
ATOM     42  C   UNL A   1      44.783  22.107  26.530  1.00  0.00     0.014 A 
ATOM     43  C   UNL A   1      42.930  23.874  25.482  1.00  0.00     0.010 A 
ATOM     44  C   UNL A   1      44.600  23.349  27.140  1.00  0.00     0.010 A 
ATOM     45  C   UNL A   1      43.691  24.248  26.595  1.00  0.00    -0.014 A 
BRANCH  45  46
ATOM     46  C   UNL A   1      43.402  25.557  27.179  1.00  0.00     0.031 A 
ATOM     47  C   UNL A   1      44.392  26.629  26.873  1.00  0.00     0.074 A 
ATOM     48  C   UNL A   1      42.313  25.861  27.909  1.00  0.00     0.049 A 
ATOM     49  N   UNL A   1      45.145  27.283  27.699  1.00  0.00    -0.248 NA
ATOM     50  C   UNL A   1      44.611  26.968  25.461  1.00  0.00     0.031 C 
ATOM     51  C   UNL A   1      41.095  25.072  28.088  1.00  0.00     0.029 A 
ATOM     52  N   UNL A   1      42.053  27.010  28.604  1.00  0.00    -0.354 N 
ATOM     53  C   UNL A   1      45.834  28.222  26.934  1.00  0.00     0.074 A 
ATOM     54  C   UNL A   1      45.540  27.920  25.556  1.00  0.00     0.031 C 
ATOM     55  C   UNL A   1      40.153  25.840  28.681  1.00  0.00     0.029 A 
ATOM     56  C   UNL A   1      40.746  27.115  29.051  1.00  0.00     0.049 A 
ATOM     57  H   UNL A   1      42.733  27.701  28.771  1.00  0.00     0.167 HD
ATOM     58  C   UNL A   1      46.452  29.293  27.503  1.00  0.00     0.037 A 
ATOM     59  C   UNL A   1      40.181  28.190  29.648  1.00  0.00     0.037 A 
ATOM     60  C   UNL A   1      46.694  29.078  28.904  1.00  0.00     0.049 A 
ATOM     61  C   UNL A   1      41.261  29.008  30.245  1.00  0.00     0.074 A 
ATOM     62  C   UNL A   1      47.481  28.228  29.653  1.00  0.00     0.029 A 
ATOM     63  N   UNL A   1      45.820  29.665  29.779  1.00  0.00    -0.354 N 
ATOM     64  N   UNL A   1      41.976  28.650  31.275  1.00  0.00    -0.248 NA
ATOM     65  C   UNL A   1      41.749  30.175  29.523  1.00  0.00     0.031 C 
ATOM     66  C   UNL A   1      46.793  28.058  30.891  1.00  0.00     0.029 A 
ATOM     67  C   UNL A   1      45.623  28.815  30.834  1.00  0.00     0.049 A 
ATOM     68  H   UNL A   1      45.404  30.550  29.669  1.00  0.00     0.167 HD
ATOM     69  C   UNL A   1      43.195  29.271  31.084  1.00  0.00     0.074 A 
ATOM     70  C   UNL A   1      42.939  30.321  30.112  1.00  0.00     0.031 C 
ATOM     71  C   UNL A   1      44.349  28.682  31.507  1.00  0.00     0.037 A 
BRANCH  58  72
ATOM     72  C   UNL A   1      46.515  30.679  26.894  1.00  0.00     0.064 A 
ATOM     73  C   UNL A   1      47.750  31.367  26.873  1.00  0.00     0.173 A 
ATOM     74  C   UNL A   1      45.380  31.474  26.631  1.00  0.00     0.173 A 
ATOM     75  F   UNL A   1      48.899  30.720  27.121  1.00  0.00    -0.203 F 
ATOM     76  C   UNL A   1      47.826  32.752  26.698  1.00  0.00     0.198 A 
ATOM     77  C   UNL A   1      45.466  32.849  26.404  1.00  0.00     0.198 A 
ATOM     78  F   UNL A   1      44.137  30.983  26.692  1.00  0.00    -0.203 F 
ATOM     79  F   UNL A   1      49.007  33.374  26.823  1.00  0.00    -0.200 F 
ATOM     80  C   UNL A   1      46.683  33.493  26.472  1.00  0.00     0.200 A 
ATOM     81  F   UNL A   1      44.344  33.554  26.201  1.00  0.00    -0.200 F 
ATOM     82  F   UNL A   1      46.744  34.827  26.371  1.00  0.00    -0.200 F 
ENDBRANCH  58  72
BRANCH  59  83
ATOM     83  C   UNL A   1      38.782  28.672  29.571  1.00  0.00     0.064 A 
ATOM     84  C   UNL A   1      38.021  28.870  30.737  1.00  0.00     0.173 A 
ATOM     85  C   UNL A   1      38.262  29.221  28.384  1.00  0.00     0.173 A 
ATOM     86  F   UNL A   1      38.461  28.411  31.918  1.00  0.00    -0.203 F 
ATOM     87  C   UNL A   1      36.837  29.612  30.723  1.00  0.00     0.198 A 
ATOM     88  C   UNL A   1      37.073  29.951  28.369  1.00  0.00     0.198 A 
ATOM     89  F   UNL A   1      38.946  29.147  27.233  1.00  0.00    -0.203 F 
ATOM     90  F   UNL A   1      36.183  29.846  31.869  1.00  0.00    -0.200 F 
ATOM     91  C   UNL A   1      36.371  30.162  29.541  1.00  0.00     0.200 A 
ATOM     92  F   UNL A   1      36.648  30.504  27.225  1.00  0.00    -0.200 F 
ATOM     93  F   UNL A   1      35.273  30.930  29.539  1.00  0.00    -0.200 F 
ENDBRANCH  59  83
BRANCH  71  94
ATOM     94  C   UNL A   1      44.242  27.624  32.564  1.00  0.00     0.064 A 
ATOM     95  C   UNL A   1      44.155  26.249  32.294  1.00  0.00     0.173 A 
ATOM     96  C   UNL A   1      44.349  28.019  33.905  1.00  0.00     0.173 A 
ATOM     97  F   UNL A   1      44.148  25.791  31.036  1.00  0.00    -0.203 F 
ATOM     98  C   UNL A   1      44.131  25.316  33.329  1.00  0.00     0.198 A 
ATOM     99  C   UNL A   1      44.365  27.082  34.933  1.00  0.00     0.198 A 
ATOM    100  F   UNL A   1      44.489  29.318  34.215  1.00  0.00    -0.203 F 
ATOM    101  F   UNL A   1      44.033  24.007  33.052  1.00  0.00    -0.200 F 
ATOM    102  C   UNL A   1      44.244  25.732  34.646  1.00  0.00     0.200 A 
ATOM    103  F   UNL A   1      44.526  27.486  36.201  1.00  0.00    -0.200 F 
ATOM    104  F   UNL A   1      44.267  24.831  35.638  1.00  0.00    -0.200 F 
ENDBRANCH  71  94
ENDBRANCH  45  46
ENDBRANCH  37  40
ENDBRANCH  35  36
ENDBRANCH  34  35
ENDBRANCH  33  34
ENDBRANCH  32  33
ENDBRANCH   1  32
TORSDOF 18
ENDMDL
MODEL 3
REMARK VINA RESULT:     -13.0      1.676      4.770
REMARK SMILES C[C@@H]1CCCN(C(=O)CSc2nnc3c4ccccc4n(CC(=O)NCCCCCCNC(=O)c4ccc(-c5c6nc(c(-c7c(F)c(F)c(F)c(F)c7F)c7ccc([nH]7)c(-c7c(F)c(F)c(F)c(F)c7F)c7nc(c(-c8c(F)c(F)c(F)c(F)c8F)c8ccc5[nH]8)C=C7)C=C6)cc4)c3n2)C1
REMARK SMILES IDX 27 1 26 2 25 3 23 4 24 5 22 7 21 8 11 9 12 10 99 11 13 12
REMARK SMILES IDX 98 13 14 14 15 15 20 16 16 17 19 18 17 19 18 20 10 21 9 22
REMARK SMILES IDX 7 23 8 24 6 25 1 26 2 27 3 28 100 29 4 30 5 31 28 32 29 33
REMARK SMILES IDX 30 34 31 35 32 36 33 37 34 39 35 40 36 41 97 42 37 43 96 44
REMARK SMILES IDX 38 45 39 46 40 47 90 48 41 49 95 50 89 51 91 52 42 53 94 54
REMARK SMILES IDX 88 55 87 56 43 58 75 59 55 60 74 61 56 62 59 63 73 64 92 65
REMARK SMILES IDX 57 66 58 67 72 69 93 70 60 71 44 72 45 73 53 74 46 75 47 76
REMARK SMILES IDX 51 77 54 78 48 79 49 80 52 81 50 82 76 83 77 84 85 85 78 86
REMARK SMILES IDX 79 87 83 88 86 89 80 90 81 91 84 92 82 93 61 94 62 95 70 96
REMARK SMILES IDX 63 97 64 98 68 99 71 100 65 101 66 102 69 103 67 104
REMARK H PARENT 25 6 32 38 91 57 59 68
REMARK Flexibility Score: inf
ROOT
ATOM      1  C   UNL A   1      34.919  28.673  26.978  1.00  0.00     0.021 C 
ENDROOT
BRANCH   1   2
ATOM      2  C   UNL A   1      33.432  28.390  27.193  1.00  0.00     0.116 C 
BRANCH   2   3
ATOM      3  N   UNL A   1      32.653  29.613  27.177  1.00  0.00    -0.355 N 
ATOM      4  C   UNL A   1      32.135  30.298  26.118  1.00  0.00     0.240 C 
ATOM      5  O   UNL A   1      31.535  31.352  26.349  1.00  0.00    -0.273 OA
ATOM      6  H   UNL A   1      32.472  30.007  28.061  1.00  0.00     0.163 HD
BRANCH   4   7
ATOM      7  C   UNL A   1      32.231  29.752  24.707  1.00  0.00     0.224 C 
BRANCH   7   8
ATOM      8  N   UNL A   1      31.067  28.990  24.284  1.00  0.00    -0.314 N 
ATOM      9  C   UNL A   1      31.673  25.500  24.326  1.00  0.00     0.211 A 
ATOM     10  N   UNL A   1      30.482  25.068  23.837  1.00  0.00    -0.122 NA
ATOM     11  N   UNL A   1      32.017  26.778  24.583  1.00  0.00    -0.201 NA
ATOM     12  N   UNL A   1      29.503  25.933  23.562  1.00  0.00    -0.144 NA
ATOM     13  C   UNL A   1      31.018  27.620  24.259  1.00  0.00     0.165 A 
ATOM     14  C   UNL A   1      29.788  27.246  23.750  1.00  0.00     0.138 A 
ATOM     15  C   UNL A   1      29.054  28.428  23.470  1.00  0.00     0.030 A 
ATOM     16  C   UNL A   1      29.869  29.513  23.825  1.00  0.00     0.053 A 
ATOM     17  C   UNL A   1      27.781  28.682  22.921  1.00  0.00     0.013 A 
ATOM     18  C   UNL A   1      29.443  30.842  23.663  1.00  0.00     0.027 A 
ATOM     19  C   UNL A   1      27.359  30.003  22.740  1.00  0.00     0.001 A 
ATOM     20  C   UNL A   1      28.180  31.064  23.110  1.00  0.00     0.002 A 
BRANCH   9  21
ATOM     21  S   UNL A   1      33.025  24.345  24.354  1.00  0.00    -0.074 SA
BRANCH  21  22
ATOM     22  C   UNL A   1      33.289  24.220  26.141  1.00  0.00     0.178 C 
BRANCH  22  23
ATOM     23  C   UNL A   1      34.060  22.970  26.534  1.00  0.00     0.233 C 
ATOM     24  O   UNL A   1      33.573  22.213  27.379  1.00  0.00    -0.274 OA
BRANCH  23  25
ATOM     25  N   UNL A   1      35.265  22.684  25.901  1.00  0.00    -0.342 N 
ATOM     26  C   UNL A   1      38.818  24.048  26.270  1.00  0.00     0.009 C 
ATOM     27  C   UNL A   1      37.699  23.010  26.232  1.00  0.00     0.005 C 
ATOM     28  C   UNL A   1      37.975  21.947  25.163  1.00  0.00     0.007 C 
ATOM     29  C   UNL A   1      36.340  23.675  25.981  1.00  0.00     0.122 C 
ATOM     30  C   UNL A   1      36.842  20.926  25.127  1.00  0.00     0.022 C 
ATOM     31  C   UNL A   1      35.482  21.594  24.946  1.00  0.00     0.119 C 
ENDBRANCH  23  25
ENDBRANCH  22  23
ENDBRANCH  21  22
ENDBRANCH   9  21
ENDBRANCH   7   8
ENDBRANCH   4   7
ENDBRANCH   2   3
ENDBRANCH   1   2
BRANCH   1  32
ATOM     32  C   UNL A   1      35.565  29.482  28.112  1.00  0.00     0.002 C 
BRANCH  32  33
ATOM     33  C   UNL A   1      36.342  30.724  27.664  1.00  0.00     0.002 C 
BRANCH  33  34
ATOM     34  C   UNL A   1      35.829  32.056  28.220  1.00  0.00     0.021 C 
BRANCH  34  35
ATOM     35  C   UNL A   1      34.547  31.949  29.049  1.00  0.00     0.116 C 
BRANCH  35  36
ATOM     36  N   UNL A   1      34.723  32.284  30.447  1.00  0.00    -0.352 N 
ATOM     37  C   UNL A   1      35.672  32.016  31.399  1.00  0.00     0.251 C 
ATOM     38  H   UNL A   1      33.986  32.835  30.798  1.00  0.00     0.163 HD
ATOM     39  O   UNL A   1      35.522  32.562  32.487  1.00  0.00    -0.269 OA
BRANCH  37  40
ATOM     40  C   UNL A   1      36.828  31.088  31.220  1.00  0.00     0.039 A 
ATOM     41  C   UNL A   1      36.781  29.702  31.331  1.00  0.00     0.014 A 
ATOM     42  C   UNL A   1      38.074  31.689  30.943  1.00  0.00     0.014 A 
ATOM     43  C   UNL A   1      37.945  28.944  31.252  1.00  0.00     0.010 A 
ATOM     44  C   UNL A   1      39.241  30.932  30.832  1.00  0.00     0.010 A 
ATOM     45  C   UNL A   1      39.180  29.556  31.018  1.00  0.00    -0.014 A 
BRANCH  45  46
ATOM     46  C   UNL A   1      40.338  28.674  30.888  1.00  0.00     0.031 A 
ATOM     47  C   UNL A   1      41.126  28.458  32.136  1.00  0.00     0.074 A 
ATOM     48  C   UNL A   1      40.700  28.024  29.766  1.00  0.00     0.049 A 
ATOM     49  N   UNL A   1      42.360  28.774  32.369  1.00  0.00    -0.248 NA
ATOM     50  C   UNL A   1      40.426  27.874  33.288  1.00  0.00     0.031 C 
ATOM     51  C   UNL A   1      39.934  27.854  28.532  1.00  0.00     0.029 A 
ATOM     52  N   UNL A   1      41.842  27.307  29.533  1.00  0.00    -0.354 N 
ATOM     53  C   UNL A   1      42.646  28.299  33.647  1.00  0.00     0.074 A 
ATOM     54  C   UNL A   1      41.397  27.843  34.202  1.00  0.00     0.031 C 
ATOM     55  C   UNL A   1      40.546  26.931  27.755  1.00  0.00     0.029 A 
ATOM     56  C   UNL A   1      41.810  26.558  28.368  1.00  0.00     0.049 A 
ATOM     57  H   UNL A   1      42.618  27.322  30.139  1.00  0.00     0.167 HD
ATOM     58  C   UNL A   1      43.926  28.153  34.085  1.00  0.00     0.037 A 
ATOM     59  C   UNL A   1      42.739  25.664  27.958  1.00  0.00     0.037 A 
ATOM     60  C   UNL A   1      44.843  28.941  33.306  1.00  0.00     0.049 A 
ATOM     61  C   UNL A   1      44.022  25.995  28.618  1.00  0.00     0.074 A 
ATOM     62  C   UNL A   1      45.068  30.287  33.106  1.00  0.00     0.029 A 
ATOM     63  N   UNL A   1      45.556  28.283  32.339  1.00  0.00    -0.354 N 
ATOM     64  N   UNL A   1      44.737  27.054  28.357  1.00  0.00    -0.248 NA
ATOM     65  C   UNL A   1      44.422  25.252  29.805  1.00  0.00     0.031 C 
ATOM     66  C   UNL A   1      45.607  30.395  31.790  1.00  0.00     0.029 A 
ATOM     67  C   UNL A   1      45.685  29.109  31.256  1.00  0.00     0.049 A 
ATOM     68  H   UNL A   1      45.917  27.370  32.413  1.00  0.00     0.167 HD
ATOM     69  C   UNL A   1      45.387  27.336  29.543  1.00  0.00     0.074 A 
ATOM     70  C   UNL A   1      45.302  26.112  30.323  1.00  0.00     0.031 C 
ATOM     71  C   UNL A   1      45.668  28.623  29.893  1.00  0.00     0.037 A 
BRANCH  58  72
ATOM     72  C   UNL A   1      44.411  27.026  34.975  1.00  0.00     0.064 A 
ATOM     73  C   UNL A   1      44.242  25.689  34.548  1.00  0.00     0.173 A 
ATOM     74  C   UNL A   1      44.732  27.185  36.339  1.00  0.00     0.173 A 
ATOM     75  F   UNL A   1      43.922  25.411  33.275  1.00  0.00    -0.203 F 
ATOM     76  C   UNL A   1      44.296  24.613  35.438  1.00  0.00     0.198 A 
ATOM     77  C   UNL A   1      44.839  26.102  37.214  1.00  0.00     0.198 A 
ATOM     78  F   UNL A   1      44.847  28.391  36.907  1.00  0.00    -0.203 F 
ATOM     79  F   UNL A   1      43.994  23.379  35.010  1.00  0.00    -0.200 F 
ATOM     80  C   UNL A   1      44.586  24.821  36.772  1.00  0.00     0.200 A 
ATOM     81  F   UNL A   1      45.107  26.326  38.508  1.00  0.00    -0.200 F 
ATOM     82  F   UNL A   1      44.574  23.801  37.640  1.00  0.00    -0.200 F 
ENDBRANCH  58  72
BRANCH  59  83
ATOM     83  C   UNL A   1      42.555  24.415  27.183  1.00  0.00     0.064 A 
ATOM     84  C   UNL A   1      43.014  24.313  25.857  1.00  0.00     0.173 A 
ATOM     85  C   UNL A   1      42.189  23.211  27.813  1.00  0.00     0.173 A 
ATOM     86  F   UNL A   1      43.416  25.407  25.194  1.00  0.00    -0.203 F 
ATOM     87  C   UNL A   1      43.143  23.076  25.220  1.00  0.00     0.198 A 
ATOM     88  C   UNL A   1      42.307  21.978  27.170  1.00  0.00     0.198 A 
ATOM     89  F   UNL A   1      41.805  23.195  29.097  1.00  0.00    -0.203 F 
ATOM     90  F   UNL A   1      43.660  23.014  23.985  1.00  0.00    -0.200 F 
ATOM     91  C   UNL A   1      42.801  21.909  25.882  1.00  0.00     0.200 A 
ATOM     92  F   UNL A   1      42.001  20.854  27.832  1.00  0.00    -0.200 F 
ATOM     93  F   UNL A   1      42.989  20.719  25.296  1.00  0.00    -0.200 F 
ENDBRANCH  59  83
BRANCH  71  94
ATOM     94  C   UNL A   1      45.693  29.650  28.800  1.00  0.00     0.064 A 
ATOM     95  C   UNL A   1      46.852  30.031  28.105  1.00  0.00     0.173 A 
ATOM     96  C   UNL A   1      44.470  30.178  28.365  1.00  0.00     0.173 A 
ATOM     97  F   UNL A   1      48.043  29.494  28.400  1.00  0.00    -0.203 F 
ATOM     98  C   UNL A   1      46.788  30.940  27.051  1.00  0.00     0.198 A 
ATOM     99  C   UNL A   1      44.405  31.054  27.286  1.00  0.00     0.198 A 
ATOM    100  F   UNL A   1      43.325  29.805  28.960  1.00  0.00    -0.203 F 
ATOM    101  F   UNL A   1      47.909  31.304  26.408  1.00  0.00    -0.200 F 
ATOM    102  C   UNL A   1      45.565  31.443  26.637  1.00  0.00     0.200 A 
ATOM    103  F   UNL A   1      43.216  31.498  26.857  1.00  0.00    -0.200 F 
ATOM    104  F   UNL A   1      45.501  32.281  25.593  1.00  0.00    -0.200 F 
ENDBRANCH  71  94
ENDBRANCH  45  46
ENDBRANCH  37  40
ENDBRANCH  35  36
ENDBRANCH  34  35
ENDBRANCH  33  34
ENDBRANCH  32  33
ENDBRANCH   1  32
TORSDOF 18
ENDMDL
