MODEL 1
REMARK VINA RESULT:     -11.9      0.000      0.000
REMARK SMILES CSc1ccc(CNc2ccc(N3CCOCC3)c(C(=O)NCCCCCCNC(=O)c3ccc(-c4c5nc(c(-c6c(F)c(F)c(F)c(F)c6F)c6ccc([nH]6)c(-c6c(F)c(F)c(F)c(F)c6F)c6nc(c(-c7c(F)c(F)c(F)c(F)c7F)c7ccc4[nH]7)C=C6)C=C5)cc3)c2)cc1
REMARK SMILES IDX 24 1 23 2 22 3 20 4 21 5 19 7 9 8 10 9 95 10 11 11 12 12
REMARK SMILES IDX 8 13 7 15 6 16 3 17 4 18 97 19 5 20 96 21 2 22 1 23 13 24
REMARK SMILES IDX 14 25 18 26 15 27 17 28 16 29 25 30 26 31 27 32 28 33 29 34
REMARK SMILES IDX 30 35 31 37 32 38 33 39 94 40 34 41 93 42 35 43 36 44 37 45
REMARK SMILES IDX 87 46 38 47 92 48 86 49 88 50 39 51 91 52 85 53 84 54 40 56
REMARK SMILES IDX 72 57 52 58 71 59 53 60 56 61 70 62 89 63 54 64 55 65 69 67
REMARK SMILES IDX 90 68 57 69 41 70 42 71 50 72 43 73 44 74 48 75 51 76 45 77
REMARK SMILES IDX 46 78 49 79 47 80 73 81 74 82 82 83 75 84 76 85 80 86 83 87
REMARK SMILES IDX 77 88 78 89 81 90 79 91 58 92 59 93 67 94 60 95 61 96 65 97
REMARK SMILES IDX 68 98 62 99 63 100 66 101 64 102
REMARK H PARENT 22 6 8 14 29 36 88 55 56 66
REMARK Flexibility Score: inf
ROOT
ATOM      1  C   UNL A   1      38.000  20.217  25.066  1.00  0.00     0.021 C 
ENDROOT
BRANCH   1   2
ATOM      2  C   UNL A   1      36.896  21.231  24.801  1.00  0.00     0.116 C 
BRANCH   2   3
ATOM      3  N   UNL A   1      35.963  21.425  25.901  1.00  0.00    -0.352 N 
ATOM      4  C   UNL A   1      34.580  21.375  25.963  1.00  0.00     0.253 C 
ATOM      5  O   UNL A   1      34.078  21.453  27.081  1.00  0.00    -0.269 OA
ATOM      6  H   UNL A   1      36.396  21.630  26.762  1.00  0.00     0.163 HD
BRANCH   4   7
ATOM      7  C   UNL A   1      33.742  21.245  24.730  1.00  0.00     0.065 A 
ATOM      8  C   UNL A   1      32.614  22.476  22.925  1.00  0.00     0.035 A 
ATOM      9  C   UNL A   1      31.992  21.289  22.553  1.00  0.00     0.028 A 
ATOM     10  C   UNL A   1      33.542  22.401  23.959  1.00  0.00     0.041 A 
ATOM     11  C   UNL A   1      32.315  20.083  23.184  1.00  0.00     0.029 A 
ATOM     12  C   UNL A   1      33.208  20.025  24.271  1.00  0.00     0.050 A 
BRANCH   8  13
ATOM     13  N   UNL A   1      32.329  23.641  22.253  1.00  0.00    -0.381 N 
ATOM     14  H   UNL A   1      31.412  23.748  21.912  1.00  0.00     0.160 HD
BRANCH  13  15
ATOM     15  C   UNL A   1      33.256  24.731  22.001  1.00  0.00     0.148 C 
BRANCH  15  16
ATOM     16  C   UNL A   1      32.879  25.916  22.853  1.00  0.00    -0.029 A 
ATOM     17  C   UNL A   1      32.199  28.119  24.471  1.00  0.00     0.007 A 
ATOM     18  C   UNL A   1      33.299  27.321  24.792  1.00  0.00     0.015 A 
ATOM     19  C   UNL A   1      31.432  27.798  23.344  1.00  0.00     0.015 A 
ATOM     20  C   UNL A   1      33.622  26.220  24.003  1.00  0.00     0.007 A 
ATOM     21  C   UNL A   1      31.763  26.701  22.544  1.00  0.00     0.007 A 
BRANCH  17  22
ATOM     22  S   UNL A   1      31.778  29.583  25.401  1.00  0.00    -0.130 SA
ATOM     23  C   UNL A   1      31.950  28.979  27.101  1.00  0.00     0.091 C 
ENDBRANCH  17  22
ENDBRANCH  15  16
ENDBRANCH  13  15
ENDBRANCH   8  13
BRANCH  12  24
ATOM     24  N   UNL A   1      33.592  18.782  24.720  1.00  0.00    -0.366 N 
ATOM     25  C   UNL A   1      34.772  18.057  24.251  1.00  0.00     0.145 C 
ATOM     26  C   UNL A   1      32.804  18.138  25.775  1.00  0.00     0.145 C 
ATOM     27  C   UNL A   1      34.465  16.554  24.057  1.00  0.00     0.181 C 
ATOM     28  C   UNL A   1      32.522  16.686  25.376  1.00  0.00     0.181 C 
ATOM     29  O   UNL A   1      33.757  15.977  25.170  1.00  0.00    -0.378 OA
ENDBRANCH  12  24
ENDBRANCH   4   7
ENDBRANCH   2   3
ENDBRANCH   1   2
BRANCH   1  30
ATOM     30  C   UNL A   1      39.260  20.742  25.751  1.00  0.00     0.002 C 
BRANCH  30  31
ATOM     31  C   UNL A   1      40.320  19.705  26.124  1.00  0.00     0.002 C 
BRANCH  31  32
ATOM     32  C   UNL A   1      41.773  20.187  26.126  1.00  0.00     0.021 C 
BRANCH  32  33
ATOM     33  C   UNL A   1      42.829  19.105  26.308  1.00  0.00     0.116 C 
BRANCH  33  34
ATOM     34  N   UNL A   1      43.567  18.824  25.090  1.00  0.00    -0.352 N 
ATOM     35  C   UNL A   1      44.343  19.660  24.326  1.00  0.00     0.251 C 
ATOM     36  H   UNL A   1      43.503  17.898  24.765  1.00  0.00     0.163 HD
ATOM     37  O   UNL A   1      44.776  19.277  23.244  1.00  0.00    -0.269 OA
BRANCH  35  38
ATOM     38  C   UNL A   1      44.636  21.035  24.789  1.00  0.00     0.039 A 
ATOM     39  C   UNL A   1      44.236  22.108  23.987  1.00  0.00     0.014 A 
ATOM     40  C   UNL A   1      45.315  21.273  25.987  1.00  0.00     0.014 A 
ATOM     41  C   UNL A   1      44.472  23.416  24.412  1.00  0.00     0.010 A 
ATOM     42  C   UNL A   1      45.477  22.578  26.447  1.00  0.00     0.010 A 
ATOM     43  C   UNL A   1      45.068  23.664  25.660  1.00  0.00    -0.014 A 
BRANCH  43  44
ATOM     44  C   UNL A   1      45.264  25.054  26.142  1.00  0.00     0.031 A 
ATOM     45  C   UNL A   1      46.618  25.704  26.073  1.00  0.00     0.074 A 
ATOM     46  C   UNL A   1      44.226  25.720  26.682  1.00  0.00     0.049 A 
ATOM     47  N   UNL A   1      46.978  26.910  26.435  1.00  0.00    -0.248 NA
ATOM     48  C   UNL A   1      47.721  24.881  25.555  1.00  0.00     0.031 C 
ATOM     49  C   UNL A   1      42.880  25.177  26.866  1.00  0.00     0.029 A 
ATOM     50  N   UNL A   1      44.139  26.998  27.176  1.00  0.00    -0.354 N 
ATOM     51  C   UNL A   1      48.343  26.985  26.198  1.00  0.00     0.074 A 
ATOM     52  C   UNL A   1      48.761  25.684  25.723  1.00  0.00     0.031 C 
ATOM     53  C   UNL A   1      42.093  26.122  27.401  1.00  0.00     0.029 A 
ATOM     54  C   UNL A   1      42.884  27.328  27.628  1.00  0.00     0.049 A 
ATOM     55  H   UNL A   1      44.902  27.619  27.205  1.00  0.00     0.167 HD
ATOM     56  C   UNL A   1      49.170  28.050  26.335  1.00  0.00     0.037 A 
ATOM     57  C   UNL A   1      42.422  28.475  28.161  1.00  0.00     0.037 A 
ATOM     58  C   UNL A   1      48.745  29.348  26.794  1.00  0.00     0.049 A 
ATOM     59  C   UNL A   1      43.354  29.648  28.296  1.00  0.00     0.074 A 
ATOM     60  C   UNL A   1      49.486  30.510  26.906  1.00  0.00     0.029 A 
ATOM     61  N   UNL A   1      47.461  29.650  27.228  1.00  0.00    -0.354 N 
ATOM     62  N   UNL A   1      44.624  29.736  27.983  1.00  0.00    -0.248 NA
ATOM     63  C   UNL A   1      42.783  30.886  28.845  1.00  0.00     0.031 C 
ATOM     64  C   UNL A   1      48.668  31.500  27.460  1.00  0.00     0.029 A 
ATOM     65  C   UNL A   1      47.397  30.974  27.635  1.00  0.00     0.049 A 
ATOM     66  H   UNL A   1      46.707  29.018  27.243  1.00  0.00     0.167 HD
ATOM     67  C   UNL A   1      44.999  31.041  28.272  1.00  0.00     0.074 A 
ATOM     68  C   UNL A   1      43.817  31.713  28.771  1.00  0.00     0.031 C 
ATOM     69  C   UNL A   1      46.213  31.629  28.132  1.00  0.00     0.037 A 
BRANCH  56  70
ATOM     70  C   UNL A   1      50.619  27.850  25.989  1.00  0.00     0.064 A 
ATOM     71  C   UNL A   1      51.084  27.946  24.668  1.00  0.00     0.173 A 
ATOM     72  C   UNL A   1      51.559  27.570  26.993  1.00  0.00     0.173 A 
ATOM     73  F   UNL A   1      50.227  28.203  23.667  1.00  0.00    -0.203 F 
ATOM     74  C   UNL A   1      52.424  27.723  24.359  1.00  0.00     0.198 A 
ATOM     75  C   UNL A   1      52.906  27.384  26.685  1.00  0.00     0.198 A 
ATOM     76  F   UNL A   1      51.174  27.475  28.274  1.00  0.00    -0.203 F 
ATOM     77  F   UNL A   1      52.828  27.754  23.081  1.00  0.00    -0.200 F 
ATOM     78  C   UNL A   1      53.333  27.449  25.368  1.00  0.00     0.200 A 
ATOM     79  F   UNL A   1      53.786  27.133  27.662  1.00  0.00    -0.200 F 
ATOM     80  F   UNL A   1      54.623  27.235  25.069  1.00  0.00    -0.200 F 
ENDBRANCH  56  70
BRANCH  57  81
ATOM     81  C   UNL A   1      40.996  28.571  28.565  1.00  0.00     0.064 A 
ATOM     82  C   UNL A   1      40.594  28.259  29.872  1.00  0.00     0.173 A 
ATOM     83  C   UNL A   1      40.012  29.009  27.667  1.00  0.00     0.173 A 
ATOM     84  F   UNL A   1      41.496  27.821  30.763  1.00  0.00    -0.203 F 
ATOM     85  C   UNL A   1      39.261  28.371  30.261  1.00  0.00     0.198 A 
ATOM     86  C   UNL A   1      38.684  29.147  28.064  1.00  0.00     0.198 A 
ATOM     87  F   UNL A   1      40.348  29.328  26.408  1.00  0.00    -0.203 F 
ATOM     88  F   UNL A   1      38.897  28.035  31.505  1.00  0.00    -0.200 F 
ATOM     89  C   UNL A   1      38.309  28.823  29.359  1.00  0.00     0.200 A 
ATOM     90  F   UNL A   1      37.772  29.602  27.195  1.00  0.00    -0.200 F 
ATOM     91  F   UNL A   1      37.029  28.945  29.737  1.00  0.00    -0.200 F 
ENDBRANCH  57  81
BRANCH  69  92
ATOM     92  C   UNL A   1      46.320  33.083  28.497  1.00  0.00     0.064 A 
ATOM     93  C   UNL A   1      46.685  33.497  29.787  1.00  0.00     0.173 A 
ATOM     94  C   UNL A   1      46.093  34.075  27.530  1.00  0.00     0.173 A 
ATOM     95  F   UNL A   1      46.900  32.589  30.751  1.00  0.00    -0.203 F 
ATOM     96  C   UNL A   1      46.792  34.849  30.101  1.00  0.00     0.198 A 
ATOM     97  C   UNL A   1      46.234  35.424  27.839  1.00  0.00     0.198 A 
ATOM     98  F   UNL A   1      45.749  33.733  26.279  1.00  0.00    -0.203 F 
ATOM     99  F   UNL A   1      47.093  35.222  31.353  1.00  0.00    -0.200 F 
ATOM    100  C   UNL A   1      46.575  35.811  29.126  1.00  0.00     0.200 A 
ATOM    101  F   UNL A   1      46.038  36.351  26.891  1.00  0.00    -0.200 F 
ATOM    102  F   UNL A   1      46.686  37.111  29.429  1.00  0.00    -0.200 F 
ENDBRANCH  69  92
ENDBRANCH  43  44
ENDBRANCH  35  38
ENDBRANCH  33  34
ENDBRANCH  32  33
ENDBRANCH  31  32
ENDBRANCH  30  31
ENDBRANCH   1  30
TORSDOF 18
ENDMDL
MODEL 2
REMARK VINA RESULT:     -11.4      1.761      2.280
REMARK SMILES CSc1ccc(CNc2ccc(N3CCOCC3)c(C(=O)NCCCCCCNC(=O)c3ccc(-c4c5nc(c(-c6c(F)c(F)c(F)c(F)c6F)c6ccc([nH]6)c(-c6c(F)c(F)c(F)c(F)c6F)c6nc(c(-c7c(F)c(F)c(F)c(F)c7F)c7ccc4[nH]7)C=C6)C=C5)cc3)c2)cc1
REMARK SMILES IDX 24 1 23 2 22 3 20 4 21 5 19 7 9 8 10 9 95 10 11 11 12 12
REMARK SMILES IDX 8 13 7 15 6 16 3 17 4 18 97 19 5 20 96 21 2 22 1 23 13 24
REMARK SMILES IDX 14 25 18 26 15 27 17 28 16 29 25 30 26 31 27 32 28 33 29 34
REMARK SMILES IDX 30 35 31 37 32 38 33 39 94 40 34 41 93 42 35 43 36 44 37 45
REMARK SMILES IDX 87 46 38 47 92 48 86 49 88 50 39 51 91 52 85 53 84 54 40 56
REMARK SMILES IDX 72 57 52 58 71 59 53 60 56 61 70 62 89 63 54 64 55 65 69 67
REMARK SMILES IDX 90 68 57 69 41 70 42 71 50 72 43 73 44 74 48 75 51 76 45 77
REMARK SMILES IDX 46 78 49 79 47 80 73 81 74 82 82 83 75 84 76 85 80 86 83 87
REMARK SMILES IDX 77 88 78 89 81 90 79 91 58 92 59 93 67 94 60 95 61 96 65 97
REMARK SMILES IDX 68 98 62 99 63 100 66 101 64 102
REMARK H PARENT 22 6 8 14 29 36 88 55 56 66
REMARK Flexibility Score: inf
ROOT
ATOM      1  C   UNL A   1      36.997  21.607  24.463  1.00  0.00     0.021 C 
ENDROOT
BRANCH   1   2
ATOM      2  C   UNL A   1      36.301  22.608  25.374  1.00  0.00     0.116 C 
BRANCH   2   3
ATOM      3  N   UNL A   1      35.417  22.022  26.369  1.00  0.00    -0.352 N 
ATOM      4  C   UNL A   1      34.199  21.371  26.257  1.00  0.00     0.253 C 
ATOM      5  O   UNL A   1      33.752  20.863  27.282  1.00  0.00    -0.269 OA
ATOM      6  H   UNL A   1      35.745  22.103  27.294  1.00  0.00     0.163 HD
BRANCH   4   7
ATOM      7  C   UNL A   1      33.461  21.300  24.957  1.00  0.00     0.065 A 
ATOM      8  C   UNL A   1      32.413  22.618  23.165  1.00  0.00     0.035 A 
ATOM      9  C   UNL A   1      31.877  21.438  22.661  1.00  0.00     0.028 A 
ATOM     10  C   UNL A   1      33.264  22.503  24.259  1.00  0.00     0.041 A 
ATOM     11  C   UNL A   1      32.208  20.202  23.225  1.00  0.00     0.029 A 
ATOM     12  C   UNL A   1      33.021  20.098  24.370  1.00  0.00     0.050 A 
BRANCH   8  13
ATOM     13  N   UNL A   1      32.125  23.818  22.560  1.00  0.00    -0.381 N 
ATOM     14  H   UNL A   1      31.577  23.787  21.742  1.00  0.00     0.160 HD
BRANCH  13  15
ATOM     15  C   UNL A   1      32.552  25.130  23.015  1.00  0.00     0.148 C 
BRANCH  15  16
ATOM     16  C   UNL A   1      31.364  26.057  23.055  1.00  0.00    -0.029 A 
ATOM     17  C   UNL A   1      29.164  27.815  23.113  1.00  0.00     0.007 A 
ATOM     18  C   UNL A   1      30.309  28.142  22.384  1.00  0.00     0.015 A 
ATOM     19  C   UNL A   1      29.133  26.610  23.826  1.00  0.00     0.015 A 
ATOM     20  C   UNL A   1      31.405  27.281  22.373  1.00  0.00     0.007 A 
ATOM     21  C   UNL A   1      30.226  25.739  23.805  1.00  0.00     0.007 A 
BRANCH  17  22
ATOM     22  S   UNL A   1      27.705  28.842  23.108  1.00  0.00    -0.130 SA
ATOM     23  C   UNL A   1      28.077  29.974  21.744  1.00  0.00     0.091 C 
ENDBRANCH  17  22
ENDBRANCH  15  16
ENDBRANCH  13  15
ENDBRANCH   8  13
BRANCH  12  24
ATOM     24  N   UNL A   1      33.428  18.841  24.756  1.00  0.00    -0.366 N 
ATOM     25  C   UNL A   1      34.629  18.168  24.261  1.00  0.00     0.145 C 
ATOM     26  C   UNL A   1      32.645  18.124  25.766  1.00  0.00     0.145 C 
ATOM     27  C   UNL A   1      34.358  16.673  23.983  1.00  0.00     0.181 C 
ATOM     28  C   UNL A   1      32.399  16.690  25.287  1.00  0.00     0.181 C 
ATOM     29  O   UNL A   1      33.652  16.021  25.056  1.00  0.00    -0.378 OA
ENDBRANCH  12  24
ENDBRANCH   4   7
ENDBRANCH   2   3
ENDBRANCH   1   2
BRANCH   1  30
ATOM     30  C   UNL A   1      36.993  20.150  24.919  1.00  0.00     0.002 C 
BRANCH  30  31
ATOM     31  C   UNL A   1      38.347  19.442  24.966  1.00  0.00     0.002 C 
BRANCH  31  32
ATOM     32  C   UNL A   1      39.500  20.218  25.607  1.00  0.00     0.021 C 
BRANCH  32  33
ATOM     33  C   UNL A   1      40.349  19.440  26.604  1.00  0.00     0.116 C 
BRANCH  33  34
ATOM     34  N   UNL A   1      41.580  18.935  26.025  1.00  0.00    -0.352 N 
ATOM     35  C   UNL A   1      42.758  19.591  25.764  1.00  0.00     0.251 C 
ATOM     36  H   UNL A   1      41.570  17.980  25.784  1.00  0.00     0.163 HD
ATOM     37  O   UNL A   1      43.648  19.028  25.136  1.00  0.00    -0.269 OA
BRANCH  35  38
ATOM     38  C   UNL A   1      42.948  20.988  26.214  1.00  0.00     0.039 A 
ATOM     39  C   UNL A   1      42.898  21.260  27.584  1.00  0.00     0.014 A 
ATOM     40  C   UNL A   1      43.153  22.027  25.303  1.00  0.00     0.014 A 
ATOM     41  C   UNL A   1      43.105  22.563  28.040  1.00  0.00     0.010 A 
ATOM     42  C   UNL A   1      43.439  23.311  25.763  1.00  0.00     0.010 A 
ATOM     43  C   UNL A   1      43.407  23.595  27.136  1.00  0.00    -0.014 A 
BRANCH  43  44
ATOM     44  C   UNL A   1      43.688  24.969  27.623  1.00  0.00     0.031 A 
ATOM     45  C   UNL A   1      45.103  25.446  27.790  1.00  0.00     0.074 A 
ATOM     46  C   UNL A   1      42.662  25.776  27.955  1.00  0.00     0.049 A 
ATOM     47  N   UNL A   1      45.542  26.613  28.193  1.00  0.00    -0.248 NA
ATOM     48  C   UNL A   1      46.168  24.476  27.496  1.00  0.00     0.031 C 
ATOM     49  C   UNL A   1      41.248  25.408  27.900  1.00  0.00     0.029 A 
ATOM     50  N   UNL A   1      42.651  27.074  28.404  1.00  0.00    -0.354 N 
ATOM     51  C   UNL A   1      46.927  26.513  28.206  1.00  0.00     0.074 A 
ATOM     52  C   UNL A   1      47.254  25.153  27.837  1.00  0.00     0.031 C 
ATOM     53  C   UNL A   1      40.504  26.462  28.268  1.00  0.00     0.029 A 
ATOM     54  C   UNL A   1      41.388  27.570  28.615  1.00  0.00     0.049 A 
ATOM     55  H   UNL A   1      43.469  27.598  28.561  1.00  0.00     0.167 HD
ATOM     56  C   UNL A   1      47.843  27.474  28.474  1.00  0.00     0.037 A 
ATOM     57  C   UNL A   1      40.987  28.784  29.036  1.00  0.00     0.037 A 
ATOM     58  C   UNL A   1      47.510  28.831  28.827  1.00  0.00     0.049 A 
ATOM     59  C   UNL A   1      42.020  29.840  29.320  1.00  0.00     0.074 A 
ATOM     60  C   UNL A   1      48.361  29.898  29.054  1.00  0.00     0.029 A 
ATOM     61  N   UNL A   1      46.218  29.303  29.015  1.00  0.00    -0.354 N 
ATOM     62  N   UNL A   1      43.326  29.762  29.241  1.00  0.00    -0.248 NA
ATOM     63  C   UNL A   1      41.522  31.158  29.735  1.00  0.00     0.031 C 
ATOM     64  C   UNL A   1      47.588  31.000  29.433  1.00  0.00     0.029 A 
ATOM     65  C   UNL A   1      46.251  30.639  29.382  1.00  0.00     0.049 A 
ATOM     66  H   UNL A   1      45.400  28.768  28.903  1.00  0.00     0.167 HD
ATOM     67  C   UNL A   1      43.805  31.022  29.572  1.00  0.00     0.074 A 
ATOM     68  C   UNL A   1      42.648  31.851  29.837  1.00  0.00     0.031 C 
ATOM     69  C   UNL A   1      45.090  31.452  29.646  1.00  0.00     0.037 A 
BRANCH  56  70
ATOM     70  C   UNL A   1      49.294  27.086  28.401  1.00  0.00     0.064 A 
ATOM     71  C   UNL A   1      50.015  27.145  27.198  1.00  0.00     0.173 A 
ATOM     72  C   UNL A   1      49.977  26.661  29.551  1.00  0.00     0.173 A 
ATOM     73  F   UNL A   1      49.409  27.536  26.065  1.00  0.00    -0.203 F 
ATOM     74  C   UNL A   1      51.349  26.749  27.138  1.00  0.00     0.198 A 
ATOM     75  C   UNL A   1      51.322  26.301  29.495  1.00  0.00     0.198 A 
ATOM     76  F   UNL A   1      49.342  26.593  30.729  1.00  0.00    -0.203 F 
ATOM     77  F   UNL A   1      51.994  26.750  25.964  1.00  0.00    -0.200 F 
ATOM     78  C   UNL A   1      52.002  26.334  28.288  1.00  0.00     0.200 A 
ATOM     79  F   UNL A   1      51.956  25.913  30.610  1.00  0.00    -0.200 F 
ATOM     80  F   UNL A   1      53.286  25.953  28.230  1.00  0.00    -0.200 F 
ENDBRANCH  56  70
BRANCH  57  81
ATOM     81  C   UNL A   1      39.535  29.069  29.173  1.00  0.00     0.064 A 
ATOM     82  C   UNL A   1      38.889  28.946  30.412  1.00  0.00     0.173 A 
ATOM     83  C   UNL A   1      38.771  29.501  28.079  1.00  0.00     0.173 A 
ATOM     84  F   UNL A   1      39.574  28.521  31.484  1.00  0.00    -0.203 F 
ATOM     85  C   UNL A   1      37.533  29.235  30.548  1.00  0.00     0.198 A 
ATOM     86  C   UNL A   1      37.422  29.816  28.222  1.00  0.00     0.198 A 
ATOM     87  F   UNL A   1      39.344  29.642  26.875  1.00  0.00    -0.203 F 
ATOM     88  F   UNL A   1      36.933  29.078  31.735  1.00  0.00    -0.200 F 
ATOM     89  C   UNL A   1      36.803  29.677  29.456  1.00  0.00     0.200 A 
ATOM     90  F   UNL A   1      36.725  30.261  27.168  1.00  0.00    -0.200 F 
ATOM     91  F   UNL A   1      35.502  29.969  29.590  1.00  0.00    -0.200 F 
ENDBRANCH  57  81
BRANCH  69  92
ATOM     92  C   UNL A   1      45.313  32.895  30.001  1.00  0.00     0.064 A 
ATOM     93  C   UNL A   1      45.511  33.309  31.326  1.00  0.00     0.173 A 
ATOM     94  C   UNL A   1      45.368  33.872  28.993  1.00  0.00     0.173 A 
ATOM     95  F   UNL A   1      45.455  32.417  32.327  1.00  0.00    -0.203 F 
ATOM     96  C   UNL A   1      45.730  34.649  31.632  1.00  0.00     0.198 A 
ATOM     97  C   UNL A   1      45.620  35.206  29.300  1.00  0.00     0.198 A 
ATOM     98  F   UNL A   1      45.191  33.529  27.709  1.00  0.00    -0.203 F 
ATOM     99  F   UNL A   1      45.868  35.029  32.911  1.00  0.00    -0.200 F 
ATOM    100  C   UNL A   1      45.793  35.595  30.619  1.00  0.00     0.200 A 
ATOM    101  F   UNL A   1      45.695  36.115  28.318  1.00  0.00    -0.200 F 
ATOM    102  F   UNL A   1      46.011  36.883  30.916  1.00  0.00    -0.200 F 
ENDBRANCH  69  92
ENDBRANCH  43  44
ENDBRANCH  35  38
ENDBRANCH  33  34
ENDBRANCH  32  33
ENDBRANCH  31  32
ENDBRANCH  30  31
ENDBRANCH   1  30
TORSDOF 18
ENDMDL
MODEL 3
REMARK VINA RESULT:     -11.4      6.029     11.670
REMARK SMILES CSc1ccc(CNc2ccc(N3CCOCC3)c(C(=O)NCCCCCCNC(=O)c3ccc(-c4c5nc(c(-c6c(F)c(F)c(F)c(F)c6F)c6ccc([nH]6)c(-c6c(F)c(F)c(F)c(F)c6F)c6nc(c(-c7c(F)c(F)c(F)c(F)c7F)c7ccc4[nH]7)C=C6)C=C5)cc3)c2)cc1
REMARK SMILES IDX 24 1 23 2 22 3 20 4 21 5 19 7 9 8 10 9 95 10 11 11 12 12
REMARK SMILES IDX 8 13 7 15 6 16 3 17 4 18 97 19 5 20 96 21 2 22 1 23 13 24
REMARK SMILES IDX 14 25 18 26 15 27 17 28 16 29 25 30 26 31 27 32 28 33 29 34
REMARK SMILES IDX 30 35 31 37 32 38 33 39 94 40 34 41 93 42 35 43 36 44 37 45
REMARK SMILES IDX 87 46 38 47 92 48 86 49 88 50 39 51 91 52 85 53 84 54 40 56
REMARK SMILES IDX 72 57 52 58 71 59 53 60 56 61 70 62 89 63 54 64 55 65 69 67
REMARK SMILES IDX 90 68 57 69 41 70 42 71 50 72 43 73 44 74 48 75 51 76 45 77
REMARK SMILES IDX 46 78 49 79 47 80 73 81 74 82 82 83 75 84 76 85 80 86 83 87
REMARK SMILES IDX 77 88 78 89 81 90 79 91 58 92 59 93 67 94 60 95 61 96 65 97
REMARK SMILES IDX 68 98 62 99 63 100 66 101 64 102
REMARK H PARENT 22 6 8 14 29 36 88 55 56 66
REMARK Flexibility Score: inf
ROOT
ATOM      1  C   UNL A   1      32.423  29.219  26.423  1.00  0.00     0.021 C 
ENDROOT
BRANCH   1   2
ATOM      2  C   UNL A   1      32.121  28.233  27.543  1.00  0.00     0.116 C 
BRANCH   2   3
ATOM      3  N   UNL A   1      31.046  27.294  27.261  1.00  0.00    -0.352 N 
ATOM      4  C   UNL A   1      30.997  26.147  26.486  1.00  0.00     0.253 C 
ATOM      5  O   UNL A   1      29.966  25.484  26.552  1.00  0.00    -0.269 OA
ATOM      6  H   UNL A   1      30.194  27.515  27.704  1.00  0.00     0.163 HD
BRANCH   4   7
ATOM      7  C   UNL A   1      32.139  25.744  25.606  1.00  0.00     0.065 A 
ATOM      8  C   UNL A   1      34.210  24.425  25.476  1.00  0.00     0.035 A 
ATOM      9  C   UNL A   1      34.480  25.037  24.257  1.00  0.00     0.028 A 
ATOM     10  C   UNL A   1      32.997  24.738  26.080  1.00  0.00     0.041 A 
ATOM     11  C   UNL A   1      33.553  25.903  23.669  1.00  0.00     0.029 A 
ATOM     12  C   UNL A   1      32.355  26.263  24.315  1.00  0.00     0.050 A 
BRANCH   8  13
ATOM     13  N   UNL A   1      35.106  23.529  26.010  1.00  0.00    -0.381 N 
ATOM     14  H   UNL A   1      35.019  23.329  26.970  1.00  0.00     0.160 HD
BRANCH  13  15
ATOM     15  C   UNL A   1      36.170  22.851  25.290  1.00  0.00     0.148 C 
BRANCH  15  16
ATOM     16  C   UNL A   1      35.783  21.411  25.066  1.00  0.00    -0.029 A 
ATOM     17  C   UNL A   1      35.026  18.731  24.650  1.00  0.00     0.007 A 
ATOM     18  C   UNL A   1      34.063  19.741  24.668  1.00  0.00     0.015 A 
ATOM     19  C   UNL A   1      36.370  19.069  24.857  1.00  0.00     0.015 A 
ATOM     20  C   UNL A   1      34.436  21.064  24.894  1.00  0.00     0.007 A 
ATOM     21  C   UNL A   1      36.747  20.397  25.071  1.00  0.00     0.007 A 
BRANCH  17  22
ATOM     22  S   UNL A   1      34.619  17.030  24.295  1.00  0.00    -0.130 SA
ATOM     23  C   UNL A   1      33.082  17.227  23.354  1.00  0.00     0.091 C 
ENDBRANCH  17  22
ENDBRANCH  15  16
ENDBRANCH  13  15
ENDBRANCH   8  13
BRANCH  12  24
ATOM     24  N   UNL A   1      31.430  26.986  23.595  1.00  0.00    -0.366 N 
ATOM     25  C   UNL A   1      31.620  28.365  23.148  1.00  0.00     0.145 C 
ATOM     26  C   UNL A   1      30.179  26.334  23.197  1.00  0.00     0.145 C 
ATOM     27  C   UNL A   1      30.328  29.194  23.329  1.00  0.00     0.181 C 
ATOM     28  C   UNL A   1      29.003  27.260  23.526  1.00  0.00     0.181 C 
ATOM     29  O   UNL A   1      29.153  28.517  22.843  1.00  0.00    -0.378 OA
ENDBRANCH  12  24
ENDBRANCH   4   7
ENDBRANCH   2   3
ENDBRANCH   1   2
BRANCH   1  30
ATOM     30  C   UNL A   1      33.797  29.884  26.450  1.00  0.00     0.002 C 
BRANCH  30  31
ATOM     31  C   UNL A   1      34.132  30.713  27.691  1.00  0.00     0.002 C 
BRANCH  31  32
ATOM     32  C   UNL A   1      33.992  32.231  27.554  1.00  0.00     0.021 C 
BRANCH  32  33
ATOM     33  C   UNL A   1      32.566  32.768  27.567  1.00  0.00     0.116 C 
BRANCH  33  34
ATOM     34  N   UNL A   1      32.493  34.174  27.919  1.00  0.00    -0.352 N 
ATOM     35  C   UNL A   1      33.266  34.897  28.794  1.00  0.00     0.251 C 
ATOM     36  H   UNL A   1      31.785  34.684  27.464  1.00  0.00     0.163 HD
ATOM     37  O   UNL A   1      32.962  36.052  29.071  1.00  0.00    -0.269 OA
BRANCH  35  38
ATOM     38  C   UNL A   1      34.452  34.278  29.428  1.00  0.00     0.039 A 
ATOM     39  C   UNL A   1      34.257  33.424  30.516  1.00  0.00     0.014 A 
ATOM     40  C   UNL A   1      35.746  34.546  28.973  1.00  0.00     0.014 A 
ATOM     41  C   UNL A   1      35.353  32.802  31.115  1.00  0.00     0.010 A 
ATOM     42  C   UNL A   1      36.831  33.863  29.519  1.00  0.00     0.010 A 
ATOM     43  C   UNL A   1      36.647  32.992  30.603  1.00  0.00    -0.014 A 
BRANCH  43  44
ATOM     44  C   UNL A   1      37.808  32.284  31.199  1.00  0.00     0.031 A 
ATOM     45  C   UNL A   1      38.304  32.647  32.571  1.00  0.00     0.074 A 
ATOM     46  C   UNL A   1      38.444  31.336  30.484  1.00  0.00     0.049 A 
ATOM     47  N   UNL A   1      39.295  32.134  33.257  1.00  0.00    -0.248 NA
ATOM     48  C   UNL A   1      37.616  33.755  33.251  1.00  0.00     0.031 C 
ATOM     49  C   UNL A   1      38.100  30.939  29.118  1.00  0.00     0.029 A 
ATOM     50  N   UNL A   1      39.511  30.534  30.805  1.00  0.00    -0.354 N 
ATOM     51  C   UNL A   1      39.352  32.858  34.440  1.00  0.00     0.074 A 
ATOM     52  C   UNL A   1      38.341  33.890  34.351  1.00  0.00     0.031 C 
ATOM     53  C   UNL A   1      38.917  29.948  28.730  1.00  0.00     0.029 A 
ATOM     54  C   UNL A   1      39.862  29.661  29.805  1.00  0.00     0.049 A 
ATOM     55  H   UNL A   1      39.980  30.581  31.669  1.00  0.00     0.167 HD
ATOM     56  C   UNL A   1      40.154  32.664  35.514  1.00  0.00     0.037 A 
ATOM     57  C   UNL A   1      40.834  28.730  29.760  1.00  0.00     0.037 A 
ATOM     58  C   UNL A   1      41.148  31.625  35.602  1.00  0.00     0.049 A 
ATOM     59  C   UNL A   1      41.707  28.524  30.967  1.00  0.00     0.074 A 
ATOM     60  C   UNL A   1      41.966  31.301  36.669  1.00  0.00     0.029 A 
ATOM     61  N   UNL A   1      41.465  30.747  34.574  1.00  0.00    -0.354 N 
ATOM     62  N   UNL A   1      41.693  29.155  32.116  1.00  0.00    -0.248 NA
ATOM     63  C   UNL A   1      42.722  27.466  30.876  1.00  0.00     0.031 C 
ATOM     64  C   UNL A   1      42.817  30.265  36.269  1.00  0.00     0.029 A 
ATOM     65  C   UNL A   1      42.487  29.899  34.973  1.00  0.00     0.049 A 
ATOM     66  H   UNL A   1      41.028  30.729  33.692  1.00  0.00     0.167 HD
ATOM     67  C   UNL A   1      42.675  28.557  32.894  1.00  0.00     0.074 A 
ATOM     68  C   UNL A   1      43.256  27.501  32.090  1.00  0.00     0.031 C 
ATOM     69  C   UNL A   1      43.058  28.854  34.161  1.00  0.00     0.037 A 
BRANCH  56  70
ATOM     70  C   UNL A   1      39.989  33.601  36.678  1.00  0.00     0.064 A 
ATOM     71  C   UNL A   1      40.749  34.776  36.795  1.00  0.00     0.173 A 
ATOM     72  C   UNL A   1      39.052  33.327  37.686  1.00  0.00     0.173 A 
ATOM     73  F   UNL A   1      41.667  35.081  35.864  1.00  0.00    -0.203 F 
ATOM     74  C   UNL A   1      40.610  35.616  37.897  1.00  0.00     0.198 A 
ATOM     75  C   UNL A   1      38.889  34.190  38.769  1.00  0.00     0.198 A 
ATOM     76  F   UNL A   1      38.292  32.224  37.624  1.00  0.00    -0.203 F 
ATOM     77  F   UNL A   1      41.395  36.696  38.017  1.00  0.00    -0.200 F 
ATOM     78  C   UNL A   1      39.676  35.325  38.879  1.00  0.00     0.200 A 
ATOM     79  F   UNL A   1      37.976  33.915  39.710  1.00  0.00    -0.200 F 
ATOM     80  F   UNL A   1      39.543  36.135  39.940  1.00  0.00    -0.200 F 
ENDBRANCH  56  70
BRANCH  57  81
ATOM     81  C   UNL A   1      40.996  27.900  28.539  1.00  0.00     0.064 A 
ATOM     82  C   UNL A   1      41.861  28.295  27.508  1.00  0.00     0.173 A 
ATOM     83  C   UNL A   1      40.319  26.680  28.392  1.00  0.00     0.173 A 
ATOM     84  F   UNL A   1      42.518  29.461  27.596  1.00  0.00    -0.203 F 
ATOM     85  C   UNL A   1      42.033  27.507  26.372  1.00  0.00     0.198 A 
ATOM     86  C   UNL A   1      40.513  25.880  27.269  1.00  0.00     0.198 A 
ATOM     87  F   UNL A   1      39.488  26.255  29.354  1.00  0.00    -0.203 F 
ATOM     88  F   UNL A   1      42.840  27.923  25.387  1.00  0.00    -0.200 F 
ATOM     89  C   UNL A   1      41.366  26.297  26.258  1.00  0.00     0.200 A 
ATOM     90  F   UNL A   1      39.881  24.703  27.171  1.00  0.00    -0.200 F 
ATOM     91  F   UNL A   1      41.543  25.531  25.172  1.00  0.00    -0.200 F 
ENDBRANCH  57  81
BRANCH  69  92
ATOM     92  C   UNL A   1      44.139  28.007  34.770  1.00  0.00     0.064 A 
ATOM     93  C   UNL A   1      45.490  28.382  34.717  1.00  0.00     0.173 A 
ATOM     94  C   UNL A   1      43.813  26.824  35.450  1.00  0.00     0.173 A 
ATOM     95  F   UNL A   1      45.856  29.497  34.067  1.00  0.00    -0.203 F 
ATOM     96  C   UNL A   1      46.475  27.590  35.300  1.00  0.00     0.198 A 
ATOM     97  C   UNL A   1      44.797  26.052  36.061  1.00  0.00     0.198 A 
ATOM     98  F   UNL A   1      42.535  26.423  35.536  1.00  0.00    -0.203 F 
ATOM     99  F   UNL A   1      47.765  27.942  35.195  1.00  0.00    -0.200 F 
ATOM    100  C   UNL A   1      46.128  26.431  35.978  1.00  0.00     0.200 A 
ATOM    101  F   UNL A   1      44.457  24.940  36.728  1.00  0.00    -0.200 F 
ATOM    102  F   UNL A   1      47.078  25.674  36.545  1.00  0.00    -0.200 F 
ENDBRANCH  69  92
ENDBRANCH  43  44
ENDBRANCH  35  38
ENDBRANCH  33  34
ENDBRANCH  32  33
ENDBRANCH  31  32
ENDBRANCH  30  31
ENDBRANCH   1  30
TORSDOF 18
ENDMDL
