MODEL 1
REMARK VINA RESULT:     -11.6      0.000      0.000
REMARK SMILES O=C(CCCN1C(=O)C(=O)/C(=C(\[O-])c2ccccc2)[C@H]1c1ccc([N+](=O)[O-])cc1)NCCCCCCNC(=O)c1ccc(-c2c3nc(c(-c4c(F)c(F)c(F)c(F)c4F)c4ccc([nH]4)c(-c4c(F)c(F)c(F)c(F)c4F)c4nc(c(-c5c(F)c(F)c(F)c(F)c5F)c5ccc2[nH]5)C=C4)C=C3)cc1
REMARK SMILES IDX 32 1 31 2 30 3 1 4 2 5 3 7 4 8 5 9 6 10 7 11 20 12 8 13 9 14
REMARK SMILES IDX 11 15 10 16 12 17 13 18 21 19 22 20 29 21 23 22 28 23 24 24
REMARK SMILES IDX 25 25 26 26 27 27 14 28 15 29 19 30 16 31 18 32 17 33 33 34
REMARK SMILES IDX 34 35 35 36 36 37 37 38 38 39 39 41 40 42 41 43 102 44 42 45
REMARK SMILES IDX 101 46 43 47 44 48 45 49 95 50 46 51 100 52 94 53 96 54
REMARK SMILES IDX 47 55 99 56 93 57 92 58 48 60 80 61 60 62 79 63 61 64 64 65
REMARK SMILES IDX 78 66 97 67 62 68 63 69 77 71 98 72 65 73 49 74 50 75 58 76
REMARK SMILES IDX 51 77 52 78 56 79 59 80 53 81 54 82 57 83 55 84 81 85 82 86
REMARK SMILES IDX 90 87 83 88 84 89 88 90 91 91 85 92 86 93 89 94 87 95 66 96
REMARK SMILES IDX 67 97 75 98 68 99 69 100 73 101 76 102 70 103 71 104 74 105
REMARK SMILES IDX 72 106
REMARK H PARENT 30 6 37 40 96 59 64 70
REMARK Flexibility Score: inf
ROOT
ATOM      1  C   UNL A   1      40.949  22.213  26.136  1.00  0.00     0.021 C 
ENDROOT
BRANCH   1   2
ATOM      2  C   UNL A   1      39.489  21.769  26.225  1.00  0.00     0.116 C 
BRANCH   2   3
ATOM      3  N   UNL A   1      38.581  22.781  25.721  1.00  0.00    -0.356 N 
ATOM      4  O   UNL A   1      36.809  21.369  25.366  1.00  0.00    -0.275 OA
ATOM      5  C   UNL A   1      37.294  22.494  25.335  1.00  0.00     0.220 C 
ATOM      6  H   UNL A   1      38.898  23.709  25.654  1.00  0.00     0.163 HD
BRANCH   5   7
ATOM      7  C   UNL A   1      36.519  23.703  24.853  1.00  0.00     0.102 C 
BRANCH   7   8
ATOM      8  C   UNL A   1      35.003  23.545  25.007  1.00  0.00     0.031 C 
BRANCH   8   9
ATOM      9  C   UNL A   1      34.400  24.029  26.340  1.00  0.00     0.121 C 
BRANCH   9  10
ATOM     10  N   UNL A   1      32.989  24.404  26.298  1.00  0.00    -0.325 N 
ATOM     11  C   UNL A   1      32.005  23.740  27.004  1.00  0.00     0.295 C 
ATOM     12  C   UNL A   1      32.484  25.587  25.592  1.00  0.00     0.150 C 
ATOM     13  O   UNL A   1      32.110  22.835  27.805  1.00  0.00    -0.265 OA
ATOM     14  C   UNL A   1      30.676  24.287  26.501  1.00  0.00     0.248 C 
ATOM     15  C   UNL A   1      30.986  25.377  25.552  1.00  0.00     0.025 C 
ATOM     16  O   UNL A   1      29.568  23.875  26.774  1.00  0.00    -0.283 OA
ATOM     17  C   UNL A   1      30.009  25.982  24.852  1.00  0.00    -0.092 C 
ATOM     18  O   UNL A   1      28.675  25.643  24.947  1.00  0.00    -0.872 OA
BRANCH  12  19
ATOM     19  C   UNL A   1      32.947  26.910  26.205  1.00  0.00    -0.020 A 
ATOM     20  C   UNL A   1      32.219  27.578  27.209  1.00  0.00     0.013 A 
ATOM     21  C   UNL A   1      34.102  27.542  25.703  1.00  0.00     0.013 A 
ATOM     22  C   UNL A   1      32.572  28.867  27.626  1.00  0.00     0.086 A 
ATOM     23  C   UNL A   1      34.486  28.815  26.141  1.00  0.00     0.086 A 
ATOM     24  C   UNL A   1      33.700  29.485  27.081  1.00  0.00     0.269 A 
BRANCH  24  25
ATOM     25  N   UNL A   1      34.045  30.854  27.478  1.00  0.00     0.062 N 
ATOM     26  O   UNL A   1      33.118  31.666  27.609  1.00  0.00    -0.258 OA
ATOM     27  O   UNL A   1      35.243  31.116  27.655  1.00  0.00    -0.258 OA
ENDBRANCH  24  25
ENDBRANCH  12  19
BRANCH  17  28
ATOM     28  C   UNL A   1      30.248  27.137  23.979  1.00  0.00    -0.033 A 
ATOM     29  C   UNL A   1      30.843  26.939  22.726  1.00  0.00     0.007 A 
ATOM     30  C   UNL A   1      29.905  28.434  24.367  1.00  0.00     0.007 A 
ATOM     31  C   UNL A   1      31.030  28.009  21.849  1.00  0.00     0.001 A 
ATOM     32  C   UNL A   1      30.093  29.507  23.490  1.00  0.00     0.001 A 
ATOM     33  C   UNL A   1      30.640  29.291  22.226  1.00  0.00     0.000 A 
ENDBRANCH  17  28
ENDBRANCH   9  10
ENDBRANCH   8   9
ENDBRANCH   7   8
ENDBRANCH   5   7
ENDBRANCH   2   3
ENDBRANCH   1   2
BRANCH   1  34
ATOM     34  C   UNL A   1      41.914  21.444  27.042  1.00  0.00     0.002 C 
BRANCH  34  35
ATOM     35  C   UNL A   1      41.682  19.936  27.153  1.00  0.00     0.002 C 
BRANCH  35  36
ATOM     36  C   UNL A   1      42.192  19.123  25.963  1.00  0.00     0.021 C 
BRANCH  36  37
ATOM     37  C   UNL A   1      43.619  18.603  26.106  1.00  0.00     0.116 C 
BRANCH  37  38
ATOM     38  N   UNL A   1      44.326  18.499  24.839  1.00  0.00    -0.352 N 
ATOM     39  C   UNL A   1      44.902  19.506  24.100  1.00  0.00     0.251 C 
ATOM     40  H   UNL A   1      44.403  17.592  24.463  1.00  0.00     0.163 HD
ATOM     41  O   UNL A   1      45.401  19.270  23.004  1.00  0.00    -0.269 OA
BRANCH  39  42
ATOM     42  C   UNL A   1      44.881  20.888  24.625  1.00  0.00     0.039 A 
ATOM     43  C   UNL A   1      45.464  21.151  25.866  1.00  0.00     0.014 A 
ATOM     44  C   UNL A   1      44.324  21.926  23.873  1.00  0.00     0.014 A 
ATOM     45  C   UNL A   1      45.557  22.468  26.322  1.00  0.00     0.010 A 
ATOM     46  C   UNL A   1      44.473  23.243  24.298  1.00  0.00     0.010 A 
ATOM     47  C   UNL A   1      45.097  23.528  25.522  1.00  0.00    -0.014 A 
BRANCH  47  48
ATOM     48  C   UNL A   1      45.269  24.941  25.943  1.00  0.00     0.031 A 
ATOM     49  C   UNL A   1      46.622  25.590  25.875  1.00  0.00     0.074 A 
ATOM     50  C   UNL A   1      44.223  25.616  26.458  1.00  0.00     0.049 A 
ATOM     51  N   UNL A   1      46.990  26.782  26.269  1.00  0.00    -0.248 NA
ATOM     52  C   UNL A   1      47.714  24.780  25.312  1.00  0.00     0.031 C 
ATOM     53  C   UNL A   1      42.870  25.081  26.624  1.00  0.00     0.029 A 
ATOM     54  N   UNL A   1      44.137  26.895  26.951  1.00  0.00    -0.354 N 
ATOM     55  C   UNL A   1      48.354  26.860  26.018  1.00  0.00     0.074 A 
ATOM     56  C   UNL A   1      48.757  25.578  25.481  1.00  0.00     0.031 C 
ATOM     57  C   UNL A   1      42.086  26.029  27.162  1.00  0.00     0.029 A 
ATOM     58  C   UNL A   1      42.885  27.225  27.410  1.00  0.00     0.049 A 
ATOM     59  H   UNL A   1      44.899  27.516  26.971  1.00  0.00     0.167 HD
ATOM     60  C   UNL A   1      49.188  27.912  26.196  1.00  0.00     0.037 A 
ATOM     61  C   UNL A   1      42.435  28.362  27.975  1.00  0.00     0.037 A 
ATOM     62  C   UNL A   1      48.778  29.195  26.702  1.00  0.00     0.049 A 
ATOM     63  C   UNL A   1      43.382  29.518  28.158  1.00  0.00     0.074 A 
ATOM     64  C   UNL A   1      49.536  30.342  26.862  1.00  0.00     0.029 A 
ATOM     65  N   UNL A   1      47.495  29.500  27.132  1.00  0.00    -0.354 N 
ATOM     66  N   UNL A   1      44.654  29.601  27.852  1.00  0.00    -0.248 NA
ATOM     67  C   UNL A   1      42.828  30.741  28.756  1.00  0.00     0.031 C 
ATOM     68  C   UNL A   1      48.721  31.330  27.425  1.00  0.00     0.029 A 
ATOM     69  C   UNL A   1      47.444  30.814  27.573  1.00  0.00     0.049 A 
ATOM     70  H   UNL A   1      46.733  28.878  27.124  1.00  0.00     0.167 HD
ATOM     71  C   UNL A   1      45.044  30.889  28.193  1.00  0.00     0.074 A 
ATOM     72  C   UNL A   1      43.872  31.557  28.718  1.00  0.00     0.031 C 
ATOM     73  C   UNL A   1      46.265  31.467  28.080  1.00  0.00     0.037 A 
BRANCH  60  74
ATOM     74  C   UNL A   1      50.631  27.720  25.833  1.00  0.00     0.064 A 
ATOM     75  C   UNL A   1      51.589  27.363  26.794  1.00  0.00     0.173 A 
ATOM     76  C   UNL A   1      51.055  27.861  24.503  1.00  0.00     0.173 A 
ATOM     77  F   UNL A   1      51.236  27.229  28.081  1.00  0.00    -0.203 F 
ATOM     78  C   UNL A   1      52.924  27.184  26.441  1.00  0.00     0.198 A 
ATOM     79  C   UNL A   1      52.387  27.651  24.150  1.00  0.00     0.198 A 
ATOM     80  F   UNL A   1      50.179  28.195  23.544  1.00  0.00    -0.203 F 
ATOM     81  F   UNL A   1      53.830  26.892  27.386  1.00  0.00    -0.200 F 
ATOM     82  C   UNL A   1      53.320  27.320  25.120  1.00  0.00     0.200 A 
ATOM     83  F   UNL A   1      52.766  27.773  22.871  1.00  0.00    -0.200 F 
ATOM     84  F   UNL A   1      54.605  27.141  24.782  1.00  0.00    -0.200 F 
ENDBRANCH  60  74
BRANCH  61  85
ATOM     85  C   UNL A   1      41.011  28.476  28.384  1.00  0.00     0.064 A 
ATOM     86  C   UNL A   1      40.044  28.954  27.490  1.00  0.00     0.173 A 
ATOM     87  C   UNL A   1      40.591  28.120  29.672  1.00  0.00     0.173 A 
ATOM     88  F   UNL A   1      40.402  29.328  26.253  1.00  0.00    -0.203 F 
ATOM     89  C   UNL A   1      38.712  29.090  27.876  1.00  0.00     0.198 A 
ATOM     90  C   UNL A   1      39.253  28.231  30.049  1.00  0.00     0.198 A 
ATOM     91  F   UNL A   1      41.476  27.652  30.564  1.00  0.00    -0.203 F 
ATOM     92  F   UNL A   1      37.815  29.591  27.015  1.00  0.00    -0.200 F 
ATOM     93  C   UNL A   1      38.316  28.723  29.153  1.00  0.00     0.200 A 
ATOM     94  F   UNL A   1      38.873  27.862  31.280  1.00  0.00    -0.200 F 
ATOM     95  F   UNL A   1      37.034  28.851  29.523  1.00  0.00    -0.200 F 
ENDBRANCH  61  85
BRANCH  73  96
ATOM     96  C   UNL A   1      46.389  32.902  28.498  1.00  0.00     0.064 A 
ATOM     97  C   UNL A   1      46.157  33.953  27.598  1.00  0.00     0.173 A 
ATOM     98  C   UNL A   1      46.702  33.230  29.826  1.00  0.00     0.173 A 
ATOM     99  F   UNL A   1      45.870  33.690  26.314  1.00  0.00    -0.203 F 
ATOM    100  C   UNL A   1      46.255  35.280  28.008  1.00  0.00     0.198 A 
ATOM    101  C   UNL A   1      46.772  34.557  30.238  1.00  0.00     0.198 A 
ATOM    102  F   UNL A   1      46.928  32.261  30.725  1.00  0.00    -0.203 F 
ATOM    103  F   UNL A   1      46.072  36.268  27.122  1.00  0.00    -0.200 F 
ATOM    104  C   UNL A   1      46.555  35.581  29.329  1.00  0.00     0.200 A 
ATOM    105  F   UNL A   1      47.050  34.846  31.517  1.00  0.00    -0.200 F 
ATOM    106  F   UNL A   1      46.641  36.859  29.723  1.00  0.00    -0.200 F 
ENDBRANCH  73  96
ENDBRANCH  47  48
ENDBRANCH  39  42
ENDBRANCH  37  38
ENDBRANCH  36  37
ENDBRANCH  35  36
ENDBRANCH  34  35
ENDBRANCH   1  34
TORSDOF 19
ENDMDL
MODEL 2
REMARK VINA RESULT:     -11.0      0.561      6.814
REMARK SMILES O=C(CCCN1C(=O)C(=O)/C(=C(\[O-])c2ccccc2)[C@H]1c1ccc([N+](=O)[O-])cc1)NCCCCCCNC(=O)c1ccc(-c2c3nc(c(-c4c(F)c(F)c(F)c(F)c4F)c4ccc([nH]4)c(-c4c(F)c(F)c(F)c(F)c4F)c4nc(c(-c5c(F)c(F)c(F)c(F)c5F)c5ccc2[nH]5)C=C4)C=C3)cc1
REMARK SMILES IDX 32 1 31 2 30 3 1 4 2 5 3 7 4 8 5 9 6 10 7 11 20 12 8 13 9 14
REMARK SMILES IDX 11 15 10 16 12 17 13 18 21 19 22 20 29 21 23 22 28 23 24 24
REMARK SMILES IDX 25 25 26 26 27 27 14 28 15 29 19 30 16 31 18 32 17 33 33 34
REMARK SMILES IDX 34 35 35 36 36 37 37 38 38 39 39 41 40 42 41 43 102 44 42 45
REMARK SMILES IDX 101 46 43 47 44 48 45 49 95 50 46 51 100 52 94 53 96 54
REMARK SMILES IDX 47 55 99 56 93 57 92 58 48 60 80 61 60 62 79 63 61 64 64 65
REMARK SMILES IDX 78 66 97 67 62 68 63 69 77 71 98 72 65 73 49 74 50 75 58 76
REMARK SMILES IDX 51 77 52 78 56 79 59 80 53 81 54 82 57 83 55 84 81 85 82 86
REMARK SMILES IDX 90 87 83 88 84 89 88 90 91 91 85 92 86 93 89 94 87 95 66 96
REMARK SMILES IDX 67 97 75 98 68 99 69 100 73 101 76 102 70 103 71 104 74 105
REMARK SMILES IDX 72 106
REMARK H PARENT 30 6 37 40 96 59 64 70
REMARK Flexibility Score: inf
ROOT
ATOM      1  C   UNL A   1      39.562  22.814  26.696  1.00  0.00     0.021 C 
ENDROOT
BRANCH   1   2
ATOM      2  C   UNL A   1      38.750  21.851  25.830  1.00  0.00     0.116 C 
BRANCH   2   3
ATOM      3  N   UNL A   1      37.695  22.531  25.104  1.00  0.00    -0.356 N 
ATOM      4  O   UNL A   1      36.119  20.884  25.360  1.00  0.00    -0.275 OA
ATOM      5  C   UNL A   1      36.445  21.986  24.933  1.00  0.00     0.220 C 
ATOM      6  H   UNL A   1      37.880  23.416  24.718  1.00  0.00     0.163 HD
BRANCH   5   7
ATOM      7  C   UNL A   1      35.495  22.872  24.153  1.00  0.00     0.102 C 
BRANCH   7   8
ATOM      8  C   UNL A   1      35.132  24.161  24.895  1.00  0.00     0.031 C 
BRANCH   8   9
ATOM      9  C   UNL A   1      34.371  23.993  26.224  1.00  0.00     0.121 C 
BRANCH   9  10
ATOM     10  N   UNL A   1      32.966  24.392  26.205  1.00  0.00    -0.325 N 
ATOM     11  C   UNL A   1      31.985  23.754  26.939  1.00  0.00     0.295 C 
ATOM     12  C   UNL A   1      32.469  25.576  25.495  1.00  0.00     0.150 C 
ATOM     13  O   UNL A   1      32.089  22.857  27.748  1.00  0.00    -0.265 OA
ATOM     14  C   UNL A   1      30.656  24.320  26.455  1.00  0.00     0.248 C 
ATOM     15  C   UNL A   1      30.966  25.393  25.488  1.00  0.00     0.025 C 
ATOM     16  O   UNL A   1      29.546  23.932  26.754  1.00  0.00    -0.283 OA
ATOM     17  C   UNL A   1      29.987  26.007  24.800  1.00  0.00    -0.092 C 
ATOM     18  O   UNL A   1      28.649  25.693  24.925  1.00  0.00    -0.872 OA
BRANCH  12  19
ATOM     19  C   UNL A   1      32.967  26.898  26.083  1.00  0.00    -0.020 A 
ATOM     20  C   UNL A   1      32.371  27.503  27.207  1.00  0.00     0.013 A 
ATOM     21  C   UNL A   1      34.012  27.593  25.441  1.00  0.00     0.013 A 
ATOM     22  C   UNL A   1      32.734  28.791  27.615  1.00  0.00     0.086 A 
ATOM     23  C   UNL A   1      34.408  28.866  25.866  1.00  0.00     0.086 A 
ATOM     24  C   UNL A   1      33.745  29.473  26.935  1.00  0.00     0.269 A 
BRANCH  24  25
ATOM     25  N   UNL A   1      34.094  30.843  27.329  1.00  0.00     0.062 N 
ATOM     26  O   UNL A   1      35.257  31.057  27.697  1.00  0.00    -0.258 OA
ATOM     27  O   UNL A   1      33.201  31.700  27.273  1.00  0.00    -0.258 OA
ENDBRANCH  24  25
ENDBRANCH  12  19
BRANCH  17  28
ATOM     28  C   UNL A   1      30.229  27.148  23.908  1.00  0.00    -0.033 A 
ATOM     29  C   UNL A   1      29.638  28.384  24.199  1.00  0.00     0.007 A 
ATOM     30  C   UNL A   1      31.030  27.033  22.770  1.00  0.00     0.007 A 
ATOM     31  C   UNL A   1      29.895  29.502  23.404  1.00  0.00     0.001 A 
ATOM     32  C   UNL A   1      31.287  28.151  21.971  1.00  0.00     0.001 A 
ATOM     33  C   UNL A   1      30.734  29.388  22.298  1.00  0.00     0.000 A 
ENDBRANCH  17  28
ENDBRANCH   9  10
ENDBRANCH   8   9
ENDBRANCH   7   8
ENDBRANCH   5   7
ENDBRANCH   2   3
ENDBRANCH   1   2
BRANCH   1  34
ATOM     34  C   UNL A   1      41.075  22.585  26.672  1.00  0.00     0.002 C 
BRANCH  34  35
ATOM     35  C   UNL A   1      41.633  21.643  27.742  1.00  0.00     0.002 C 
BRANCH  35  36
ATOM     36  C   UNL A   1      42.188  20.325  27.204  1.00  0.00     0.021 C 
BRANCH  36  37
ATOM     37  C   UNL A   1      41.905  20.066  25.726  1.00  0.00     0.116 C 
BRANCH  37  38
ATOM     38  N   UNL A   1      42.949  19.298  25.064  1.00  0.00    -0.352 N 
ATOM     39  C   UNL A   1      44.210  19.711  24.703  1.00  0.00     0.251 C 
ATOM     40  H   UNL A   1      42.724  18.364  24.848  1.00  0.00     0.163 HD
ATOM     41  O   UNL A   1      44.957  18.966  24.077  1.00  0.00    -0.269 OA
BRANCH  39  42
ATOM     42  C   UNL A   1      44.646  21.083  25.044  1.00  0.00     0.039 A 
ATOM     43  C   UNL A   1      44.209  22.148  24.254  1.00  0.00     0.014 A 
ATOM     44  C   UNL A   1      45.446  21.317  26.165  1.00  0.00     0.014 A 
ATOM     45  C   UNL A   1      44.513  23.458  24.631  1.00  0.00     0.010 A 
ATOM     46  C   UNL A   1      45.696  22.624  26.574  1.00  0.00     0.010 A 
ATOM     47  C   UNL A   1      45.226  23.707  25.816  1.00  0.00    -0.014 A 
BRANCH  47  48
ATOM     48  C   UNL A   1      45.481  25.093  26.285  1.00  0.00     0.031 A 
ATOM     49  C   UNL A   1      44.358  25.917  26.848  1.00  0.00     0.074 A 
ATOM     50  C   UNL A   1      46.705  25.634  26.134  1.00  0.00     0.049 A 
ATOM     51  N   UNL A   1      44.362  27.167  27.235  1.00  0.00    -0.248 NA
ATOM     52  C   UNL A   1      43.049  25.255  26.968  1.00  0.00     0.031 C 
ATOM     53  C   UNL A   1      47.865  24.954  25.555  1.00  0.00     0.029 A 
ATOM     54  N   UNL A   1      47.174  26.887  26.442  1.00  0.00    -0.354 N 
ATOM     55  C   UNL A   1      43.059  27.446  27.628  1.00  0.00     0.074 A 
ATOM     56  C   UNL A   1      42.281  26.249  27.388  1.00  0.00     0.031 C 
ATOM     57  C   UNL A   1      48.916  25.790  25.566  1.00  0.00     0.029 A 
ATOM     58  C   UNL A   1      48.497  27.074  26.120  1.00  0.00     0.049 A 
ATOM     59  H   UNL A   1      46.617  27.584  26.855  1.00  0.00     0.167 HD
ATOM     60  C   UNL A   1      42.563  28.587  28.162  1.00  0.00     0.037 A 
ATOM     61  C   UNL A   1      49.281  28.161  26.251  1.00  0.00     0.037 A 
ATOM     62  C   UNL A   1      43.344  29.765  28.427  1.00  0.00     0.049 A 
ATOM     63  C   UNL A   1      48.706  29.415  26.852  1.00  0.00     0.074 A 
ATOM     64  C   UNL A   1      42.946  30.950  29.022  1.00  0.00     0.029 A 
ATOM     65  N   UNL A   1      44.689  29.908  28.113  1.00  0.00    -0.354 N 
ATOM     66  N   UNL A   1      47.489  29.644  27.282  1.00  0.00    -0.248 NA
ATOM     67  C   UNL A   1      49.615  30.561  26.992  1.00  0.00     0.031 C 
ATOM     68  C   UNL A   1      44.039  31.824  29.033  1.00  0.00     0.029 A 
ATOM     69  C   UNL A   1      45.131  31.168  28.486  1.00  0.00     0.049 A 
ATOM     70  H   UNL A   1      45.246  29.217  27.689  1.00  0.00     0.167 HD
ATOM     71  C   UNL A   1      47.494  30.943  27.769  1.00  0.00     0.074 A 
ATOM     72  C   UNL A   1      48.838  31.451  27.593  1.00  0.00     0.031 C 
ATOM     73  C   UNL A   1      46.475  31.652  28.315  1.00  0.00     0.037 A 
BRANCH  60  74
ATOM     74  C   UNL A   1      41.102  28.613  28.503  1.00  0.00     0.064 A 
ATOM     75  C   UNL A   1      40.635  28.223  29.767  1.00  0.00     0.173 A 
ATOM     76  C   UNL A   1      40.160  29.066  27.566  1.00  0.00     0.173 A 
ATOM     77  F   UNL A   1      41.493  27.770  30.693  1.00  0.00    -0.203 F 
ATOM     78  C   UNL A   1      39.277  28.258  30.071  1.00  0.00     0.198 A 
ATOM     79  C   UNL A   1      38.805  29.127  27.884  1.00  0.00     0.198 A 
ATOM     80  F   UNL A   1      40.554  29.456  26.344  1.00  0.00    -0.203 F 
ATOM     81  F   UNL A   1      38.849  27.833  31.268  1.00  0.00    -0.200 F 
ATOM     82  C   UNL A   1      38.365  28.716  29.133  1.00  0.00     0.200 A 
ATOM     83  F   UNL A   1      37.927  29.581  26.980  1.00  0.00    -0.200 F 
ATOM     84  F   UNL A   1      37.058  28.754  29.429  1.00  0.00    -0.200 F 
ENDBRANCH  60  74
BRANCH  61  85
ATOM     85  C   UNL A   1      50.705  28.105  25.831  1.00  0.00     0.064 A 
ATOM     86  C   UNL A   1      51.060  28.211  24.480  1.00  0.00     0.173 A 
ATOM     87  C   UNL A   1      51.736  27.938  26.766  1.00  0.00     0.173 A 
ATOM     88  F   UNL A   1      50.107  28.350  23.547  1.00  0.00    -0.203 F 
ATOM     89  C   UNL A   1      52.391  28.131  24.077  1.00  0.00     0.198 A 
ATOM     90  C   UNL A   1      53.070  27.885  26.365  1.00  0.00     0.198 A 
ATOM     91  F   UNL A   1      51.450  27.837  28.073  1.00  0.00    -0.203 F 
ATOM     92  F   UNL A   1      52.699  28.190  22.773  1.00  0.00    -0.200 F 
ATOM     93  C   UNL A   1      53.395  27.973  25.019  1.00  0.00     0.200 A 
ATOM     94  F   UNL A   1      54.039  27.747  27.281  1.00  0.00    -0.200 F 
ATOM     95  F   UNL A   1      54.676  27.900  24.632  1.00  0.00    -0.200 F 
ENDBRANCH  61  85
BRANCH  73  96
ATOM     96  C   UNL A   1      46.782  33.040  28.795  1.00  0.00     0.064 A 
ATOM     97  C   UNL A   1      46.615  34.160  27.967  1.00  0.00     0.173 A 
ATOM     98  C   UNL A   1      47.208  33.256  30.115  1.00  0.00     0.173 A 
ATOM     99  F   UNL A   1      46.225  34.003  26.692  1.00  0.00    -0.203 F 
ATOM    100  C   UNL A   1      46.883  35.443  28.436  1.00  0.00     0.198 A 
ATOM    101  C   UNL A   1      47.449  34.542  30.588  1.00  0.00     0.198 A 
ATOM    102  F   UNL A   1      47.378  32.218  30.948  1.00  0.00    -0.203 F 
ATOM    103  F   UNL A   1      46.759  36.494  27.615  1.00  0.00    -0.200 F 
ATOM    104  C   UNL A   1      47.293  35.634  29.748  1.00  0.00     0.200 A 
ATOM    105  F   UNL A   1      47.833  34.725  31.859  1.00  0.00    -0.200 F 
ATOM    106  F   UNL A   1      47.543  36.870  30.199  1.00  0.00    -0.200 F 
ENDBRANCH  73  96
ENDBRANCH  47  48
ENDBRANCH  39  42
ENDBRANCH  37  38
ENDBRANCH  36  37
ENDBRANCH  35  36
ENDBRANCH  34  35
ENDBRANCH   1  34
TORSDOF 19
ENDMDL
MODEL 3
REMARK VINA RESULT:     -10.9      1.856      7.381
REMARK SMILES O=C(CCCN1C(=O)C(=O)/C(=C(\[O-])c2ccccc2)[C@H]1c1ccc([N+](=O)[O-])cc1)NCCCCCCNC(=O)c1ccc(-c2c3nc(c(-c4c(F)c(F)c(F)c(F)c4F)c4ccc([nH]4)c(-c4c(F)c(F)c(F)c(F)c4F)c4nc(c(-c5c(F)c(F)c(F)c(F)c5F)c5ccc2[nH]5)C=C4)C=C3)cc1
REMARK SMILES IDX 32 1 31 2 30 3 1 4 2 5 3 7 4 8 5 9 6 10 7 11 20 12 8 13 9 14
REMARK SMILES IDX 11 15 10 16 12 17 13 18 21 19 22 20 29 21 23 22 28 23 24 24
REMARK SMILES IDX 25 25 26 26 27 27 14 28 15 29 19 30 16 31 18 32 17 33 33 34
REMARK SMILES IDX 34 35 35 36 36 37 37 38 38 39 39 41 40 42 41 43 102 44 42 45
REMARK SMILES IDX 101 46 43 47 44 48 45 49 95 50 46 51 100 52 94 53 96 54
REMARK SMILES IDX 47 55 99 56 93 57 92 58 48 60 80 61 60 62 79 63 61 64 64 65
REMARK SMILES IDX 78 66 97 67 62 68 63 69 77 71 98 72 65 73 49 74 50 75 58 76
REMARK SMILES IDX 51 77 52 78 56 79 59 80 53 81 54 82 57 83 55 84 81 85 82 86
REMARK SMILES IDX 90 87 83 88 84 89 88 90 91 91 85 92 86 93 89 94 87 95 66 96
REMARK SMILES IDX 67 97 75 98 68 99 69 100 73 101 76 102 70 103 71 104 74 105
REMARK SMILES IDX 72 106
REMARK H PARENT 30 6 37 40 96 59 64 70
REMARK Flexibility Score: inf
ROOT
ATOM      1  C   UNL A   1      36.520  23.692  25.222  1.00  0.00     0.021 C 
ENDROOT
BRANCH   1   2
ATOM      2  C   UNL A   1      35.069  23.352  24.881  1.00  0.00     0.116 C 
BRANCH   2   3
ATOM      3  N   UNL A   1      34.696  23.821  23.560  1.00  0.00    -0.356 N 
ATOM      4  O   UNL A   1      32.628  22.831  23.520  1.00  0.00    -0.275 OA
ATOM      5  C   UNL A   1      33.485  23.524  22.984  1.00  0.00     0.220 C 
ATOM      6  H   UNL A   1      35.335  24.375  23.057  1.00  0.00     0.163 HD
BRANCH   5   7
ATOM      7  C   UNL A   1      33.301  24.126  21.606  1.00  0.00     0.102 C 
BRANCH   7   8
ATOM      8  C   UNL A   1      32.489  25.424  21.622  1.00  0.00     0.031 C 
BRANCH   8   9
ATOM      9  C   UNL A   1      32.376  26.141  22.981  1.00  0.00     0.121 C 
BRANCH   9  10
ATOM     10  N   UNL A   1      31.029  26.550  23.373  1.00  0.00    -0.325 N 
ATOM     11  C   UNL A   1      30.126  25.703  23.985  1.00  0.00     0.295 C 
ATOM     12  C   UNL A   1      30.534  27.925  23.258  1.00  0.00     0.150 C 
ATOM     13  O   UNL A   1      30.278  24.563  24.370  1.00  0.00    -0.265 OA
ATOM     14  C   UNL A   1      28.794  26.441  24.001  1.00  0.00     0.248 C 
ATOM     15  C   UNL A   1      29.040  27.794  23.461  1.00  0.00     0.025 C 
ATOM     16  O   UNL A   1      27.717  25.993  24.334  1.00  0.00    -0.283 OA
ATOM     17  C   UNL A   1      28.022  28.646  23.244  1.00  0.00    -0.092 C 
ATOM     18  O   UNL A   1      26.699  28.340  23.489  1.00  0.00    -0.872 OA
BRANCH  12  19
ATOM     19  C   UNL A   1      31.240  28.911  24.191  1.00  0.00    -0.020 A 
ATOM     20  C   UNL A   1      32.509  28.657  24.746  1.00  0.00     0.013 A 
ATOM     21  C   UNL A   1      30.577  30.091  24.585  1.00  0.00     0.013 A 
ATOM     22  C   UNL A   1      33.052  29.492  25.729  1.00  0.00     0.086 A 
ATOM     23  C   UNL A   1      31.129  30.953  25.539  1.00  0.00     0.086 A 
ATOM     24  C   UNL A   1      32.354  30.633  26.130  1.00  0.00     0.269 A 
BRANCH  24  25
ATOM     25  N   UNL A   1      32.896  31.484  27.195  1.00  0.00     0.062 N 
ATOM     26  O   UNL A   1      33.828  31.031  27.874  1.00  0.00    -0.258 OA
ATOM     27  O   UNL A   1      32.385  32.602  27.352  1.00  0.00    -0.258 OA
ENDBRANCH  24  25
ENDBRANCH  12  19
BRANCH  17  28
ATOM     28  C   UNL A   1      28.219  30.035  22.810  1.00  0.00    -0.033 A 
ATOM     29  C   UNL A   1      28.814  30.288  21.567  1.00  0.00     0.007 A 
ATOM     30  C   UNL A   1      27.837  31.115  23.609  1.00  0.00     0.007 A 
ATOM     31  C   UNL A   1      28.962  31.596  21.102  1.00  0.00     0.001 A 
ATOM     32  C   UNL A   1      27.987  32.425  23.145  1.00  0.00     0.001 A 
ATOM     33  C   UNL A   1      28.533  32.664  21.885  1.00  0.00     0.000 A 
ENDBRANCH  17  28
ENDBRANCH   9  10
ENDBRANCH   8   9
ENDBRANCH   7   8
ENDBRANCH   5   7
ENDBRANCH   2   3
ENDBRANCH   1   2
BRANCH   1  34
ATOM     34  C   UNL A   1      37.441  22.483  25.405  1.00  0.00     0.002 C 
BRANCH  34  35
ATOM     35  C   UNL A   1      36.916  21.146  24.878  1.00  0.00     0.002 C 
BRANCH  35  36
ATOM     36  C   UNL A   1      37.915  19.993  24.957  1.00  0.00     0.021 C 
BRANCH  36  37
ATOM     37  C   UNL A   1      39.223  20.325  25.670  1.00  0.00     0.116 C 
BRANCH  37  38
ATOM     38  N   UNL A   1      40.127  19.190  25.778  1.00  0.00    -0.352 N 
ATOM     39  C   UNL A   1      41.466  19.195  26.093  1.00  0.00     0.251 C 
ATOM     40  H   UNL A   1      39.730  18.306  25.605  1.00  0.00     0.163 HD
ATOM     41  O   UNL A   1      42.118  18.156  26.069  1.00  0.00    -0.269 OA
BRANCH  39  42
ATOM     42  C   UNL A   1      42.124  20.478  26.423  1.00  0.00     0.039 A 
ATOM     43  C   UNL A   1      42.629  21.266  25.387  1.00  0.00     0.014 A 
ATOM     44  C   UNL A   1      42.203  20.917  27.747  1.00  0.00     0.014 A 
ATOM     45  C   UNL A   1      43.146  22.533  25.671  1.00  0.00     0.010 A 
ATOM     46  C   UNL A   1      42.661  22.202  28.022  1.00  0.00     0.010 A 
ATOM     47  C   UNL A   1      43.130  23.025  26.987  1.00  0.00    -0.014 A 
BRANCH  47  48
ATOM     48  C   UNL A   1      43.589  24.403  27.299  1.00  0.00     0.031 A 
ATOM     49  C   UNL A   1      42.607  25.435  27.775  1.00  0.00     0.074 A 
ATOM     50  C   UNL A   1      44.873  24.744  27.083  1.00  0.00     0.049 A 
ATOM     51  N   UNL A   1      42.796  26.706  28.022  1.00  0.00    -0.248 NA
ATOM     52  C   UNL A   1      41.220  24.985  27.974  1.00  0.00     0.031 C 
ATOM     53  C   UNL A   1      45.913  23.846  26.576  1.00  0.00     0.029 A 
ATOM     54  N   UNL A   1      45.522  25.942  27.248  1.00  0.00    -0.354 N 
ATOM     55  C   UNL A   1      41.554  27.209  28.389  1.00  0.00     0.074 A 
ATOM     56  C   UNL A   1      40.609  26.118  28.286  1.00  0.00     0.031 C 
ATOM     57  C   UNL A   1      47.071  24.520  26.489  1.00  0.00     0.029 A 
ATOM     58  C   UNL A   1      46.851  25.903  26.901  1.00  0.00     0.049 A 
ATOM     59  H   UNL A   1      45.078  26.753  27.585  1.00  0.00     0.167 HD
ATOM     60  C   UNL A   1      41.236  28.460  28.797  1.00  0.00     0.037 A 
ATOM     61  C   UNL A   1      47.784  26.874  26.906  1.00  0.00     0.037 A 
ATOM     62  C   UNL A   1      42.182  29.536  28.927  1.00  0.00     0.049 A 
ATOM     63  C   UNL A   1      47.404  28.255  27.369  1.00  0.00     0.074 A 
ATOM     64  C   UNL A   1      41.968  30.823  29.390  1.00  0.00     0.029 A 
ATOM     65  N   UNL A   1      43.526  29.450  28.591  1.00  0.00    -0.354 N 
ATOM     66  N   UNL A   1      46.242  28.700  27.779  1.00  0.00    -0.248 NA
ATOM     67  C   UNL A   1      48.470  29.267  27.377  1.00  0.00     0.031 C 
ATOM     68  C   UNL A   1      43.173  31.528  29.298  1.00  0.00     0.029 A 
ATOM     69  C   UNL A   1      44.149  30.667  28.821  1.00  0.00     0.049 A 
ATOM     70  H   UNL A   1      43.970  28.645  28.243  1.00  0.00     0.167 HD
ATOM     71  C   UNL A   1      46.441  30.031  28.120  1.00  0.00     0.074 A 
ATOM     72  C   UNL A   1      47.839  30.319  27.881  1.00  0.00     0.031 C 
ATOM     73  C   UNL A   1      45.545  30.933  28.590  1.00  0.00     0.037 A 
BRANCH  60  74
ATOM     74  C   UNL A   1      39.800  28.732  29.141  1.00  0.00     0.064 A 
ATOM     75  C   UNL A   1      39.313  28.562  30.446  1.00  0.00     0.173 A 
ATOM     76  C   UNL A   1      38.910  29.201  28.163  1.00  0.00     0.173 A 
ATOM     77  F   UNL A   1      40.121  28.104  31.414  1.00  0.00    -0.203 F 
ATOM     78  C   UNL A   1      37.980  28.824  30.751  1.00  0.00     0.198 A 
ATOM     79  C   UNL A   1      37.585  29.489  28.480  1.00  0.00     0.198 A 
ATOM     80  F   UNL A   1      39.326  29.386  26.901  1.00  0.00    -0.203 F 
ATOM     81  F   UNL A   1      37.525  28.607  31.994  1.00  0.00    -0.200 F 
ATOM     82  C   UNL A   1      37.120  29.293  29.771  1.00  0.00     0.200 A 
ATOM     83  F   UNL A   1      36.758  29.953  27.534  1.00  0.00    -0.200 F 
ATOM     84  F   UNL A   1      35.838  29.550  30.069  1.00  0.00    -0.200 F 
ENDBRANCH  60  74
BRANCH  61  85
ATOM     85  C   UNL A   1      49.176  26.570  26.487  1.00  0.00     0.064 A 
ATOM     86  C   UNL A   1      50.121  26.110  27.414  1.00  0.00     0.173 A 
ATOM     87  C   UNL A   1      49.593  26.740  25.160  1.00  0.00     0.173 A 
ATOM     88  F   UNL A   1      49.775  25.953  28.700  1.00  0.00    -0.203 F 
ATOM     89  C   UNL A   1      51.436  25.850  27.033  1.00  0.00     0.198 A 
ATOM     90  C   UNL A   1      50.901  26.454  24.774  1.00  0.00     0.198 A 
ATOM     91  F   UNL A   1      48.726  27.173  24.232  1.00  0.00    -0.203 F 
ATOM     92  F   UNL A   1      52.330  25.453  27.950  1.00  0.00    -0.200 F 
ATOM     93  C   UNL A   1      51.824  26.017  25.713  1.00  0.00     0.200 A 
ATOM     94  F   UNL A   1      51.268  26.603  23.494  1.00  0.00    -0.200 F 
ATOM     95  F   UNL A   1      53.088  25.763  25.346  1.00  0.00    -0.200 F 
ENDBRANCH  61  85
BRANCH  73  96
ATOM     96  C   UNL A   1      46.056  32.306  28.912  1.00  0.00     0.064 A 
ATOM     97  C   UNL A   1      46.038  33.340  27.964  1.00  0.00     0.173 A 
ATOM     98  C   UNL A   1      46.528  32.603  30.200  1.00  0.00     0.173 A 
ATOM     99  F   UNL A   1      45.610  33.102  26.715  1.00  0.00    -0.203 F 
ATOM    100  C   UNL A   1      46.495  34.615  28.288  1.00  0.00     0.198 A 
ATOM    101  C   UNL A   1      46.959  33.885  30.528  1.00  0.00     0.198 A 
ATOM    102  F   UNL A   1      46.560  31.649  31.144  1.00  0.00    -0.203 F 
ATOM    103  F   UNL A   1      46.511  35.576  27.355  1.00  0.00    -0.200 F 
ATOM    104  C   UNL A   1      46.948  34.888  29.571  1.00  0.00     0.200 A 
ATOM    105  F   UNL A   1      47.384  34.149  31.770  1.00  0.00    -0.200 F 
ATOM    106  F   UNL A   1      47.381  36.117  29.882  1.00  0.00    -0.200 F 
ENDBRANCH  73  96
ENDBRANCH  47  48
ENDBRANCH  39  42
ENDBRANCH  37  38
ENDBRANCH  36  37
ENDBRANCH  35  36
ENDBRANCH  34  35
ENDBRANCH   1  34
TORSDOF 19
ENDMDL
