MODEL 1
REMARK VINA RESULT:     -12.9      0.000      0.000
REMARK SMILES Cc1nc2cc(C(=O)NCCCCCCNC(=O)c3ccc(-c4c5nc(c(-c6c(F)c(F)c(F)c(F)c6F)c6ccc([nH]6)c(-c6c(F)c(F)c(F)c(F)c6F)c6nc(c(-c7c(F)c(F)c(F)c(F)c7F)c7ccc4[nH]7)C=C6)C=C5)cc3)ccc2n1CCC[NH+]1CCOCC1
REMARK SMILES IDX 11 1 10 2 9 3 7 4 8 5 6 7 1 8 2 9 3 10 85 11 4 12 84 13 5 14
REMARK SMILES IDX 83 15 82 16 86 17 87 18 88 19 89 20 90 21 94 22 91 24 93 25
REMARK SMILES IDX 92 26 12 27 13 28 14 29 15 30 16 31 17 32 18 34 19 35 20 36
REMARK SMILES IDX 81 37 21 38 80 39 22 40 23 41 24 42 74 43 25 44 79 45 73 46
REMARK SMILES IDX 75 47 26 48 78 49 72 50 71 51 27 53 59 54 39 55 58 56 40 57
REMARK SMILES IDX 43 58 57 59 76 60 41 61 42 62 56 64 77 65 44 66 28 67 29 68
REMARK SMILES IDX 37 69 30 70 31 71 35 72 38 73 32 74 33 75 36 76 34 77 60 78
REMARK SMILES IDX 61 79 69 80 62 81 63 82 67 83 70 84 64 85 65 86 68 87 66 88
REMARK SMILES IDX 45 89 46 90 54 91 47 92 48 93 52 94 55 95 49 96 50 97 53 98
REMARK SMILES IDX 51 99
REMARK H PARENT 9 6 89 23 16 33 75 52 43 63
REMARK Flexibility Score: inf
ROOT
ATOM      1  C   UNL A   1      31.480  27.794  25.087  1.00  0.00     0.021 C 
ENDROOT
BRANCH   1   2
ATOM      2  C   UNL A   1      30.263  27.328  24.288  1.00  0.00     0.116 C 
BRANCH   2   3
ATOM      3  N   UNL A   1      30.621  27.234  22.896  1.00  0.00    -0.352 N 
ATOM      4  C   UNL A   1      31.274  26.283  22.156  1.00  0.00     0.251 C 
ATOM      5  O   UNL A   1      31.461  26.524  20.977  1.00  0.00    -0.269 OA
ATOM      6  H   UNL A   1      30.340  28.015  22.367  1.00  0.00     0.163 HD
BRANCH   4   7
ATOM      7  C   UNL A   1      31.698  24.976  22.728  1.00  0.00     0.042 A 
ATOM      8  C   UNL A   1      35.761  21.464  25.164  1.00  0.00     0.088 C 
ATOM      9  C   UNL A   1      34.675  22.061  24.355  1.00  0.00     0.106 A 
ATOM     10  N   UNL A   1      34.798  23.233  23.765  1.00  0.00    -0.233 NA
ATOM     11  N   UNL A   1      33.412  21.546  24.159  1.00  0.00    -0.328 N 
ATOM     12  C   UNL A   1      33.538  23.585  23.392  1.00  0.00     0.090 A 
ATOM     13  C   UNL A   1      32.639  22.565  23.658  1.00  0.00     0.068 A 
ATOM     14  C   UNL A   1      33.081  24.790  22.862  1.00  0.00     0.044 A 
ATOM     15  C   UNL A   1      31.268  22.697  23.497  1.00  0.00     0.029 A 
ATOM     16  C   UNL A   1      30.827  23.963  23.142  1.00  0.00     0.016 A 
BRANCH  11  17
ATOM     17  C   UNL A   1      32.847  20.280  24.578  1.00  0.00     0.130 C 
BRANCH  17  18
ATOM     18  C   UNL A   1      32.458  19.340  23.438  1.00  0.00     0.083 C 
BRANCH  18  19
ATOM     19  C   UNL A   1      32.977  17.920  23.630  1.00  0.00     0.264 C 
BRANCH  19  20
ATOM     20  N   UNL A   1      33.505  17.688  24.981  1.00  0.00    -0.331 N 
ATOM     21  C   UNL A   1      34.880  17.153  24.947  1.00  0.00     0.291 C 
ATOM     22  C   UNL A   1      32.689  16.818  25.845  1.00  0.00     0.291 C 
ATOM     23  H   UNL A   1      33.484  18.620  25.396  1.00  0.00     0.348 HD
ATOM     24  C   UNL A   1      34.924  15.671  24.555  1.00  0.00     0.221 C 
ATOM     25  C   UNL A   1      32.743  15.350  25.422  1.00  0.00     0.221 C 
ATOM     26  O   UNL A   1      34.094  14.872  25.408  1.00  0.00    -0.370 OA
ENDBRANCH  19  20
ENDBRANCH  18  19
ENDBRANCH  17  18
ENDBRANCH  11  17
ENDBRANCH   4   7
ENDBRANCH   2   3
ENDBRANCH   1   2
BRANCH   1  27
ATOM     27  C   UNL A   1      31.428  27.229  26.511  1.00  0.00     0.002 C 
BRANCH  27  28
ATOM     28  C   UNL A   1      31.862  28.251  27.576  1.00  0.00     0.002 C 
BRANCH  28  29
ATOM     29  C   UNL A   1      32.446  29.544  26.988  1.00  0.00     0.021 C 
BRANCH  29  30
ATOM     30  C   UNL A   1      33.939  29.667  27.253  1.00  0.00     0.116 C 
BRANCH  30  31
ATOM     31  N   UNL A   1      34.348  31.040  27.392  1.00  0.00    -0.352 N 
ATOM     32  C   UNL A   1      35.521  31.658  27.691  1.00  0.00     0.251 C 
ATOM     33  H   UNL A   1      33.612  31.675  27.233  1.00  0.00     0.163 HD
ATOM     34  O   UNL A   1      35.546  32.875  27.561  1.00  0.00    -0.269 OA
BRANCH  32  35
ATOM     35  C   UNL A   1      36.669  30.976  28.328  1.00  0.00     0.039 A 
ATOM     36  C   UNL A   1      37.485  31.412  29.367  1.00  0.00     0.014 A 
ATOM     37  C   UNL A   1      36.994  29.770  27.713  1.00  0.00     0.014 A 
ATOM     38  C   UNL A   1      38.783  30.884  29.458  1.00  0.00     0.010 A 
ATOM     39  C   UNL A   1      38.132  29.103  28.087  1.00  0.00     0.010 A 
ATOM     40  C   UNL A   1      39.179  29.813  28.628  1.00  0.00    -0.014 A 
BRANCH  40  41
ATOM     41  C   UNL A   1      40.452  29.064  28.765  1.00  0.00     0.031 A 
ATOM     42  C   UNL A   1      40.651  28.886  30.259  1.00  0.00     0.074 A 
ATOM     43  C   UNL A   1      41.241  28.587  27.723  1.00  0.00     0.049 A 
ATOM     44  N   UNL A   1      41.447  29.617  30.968  1.00  0.00    -0.248 NA
ATOM     45  C   UNL A   1      39.673  28.178  31.134  1.00  0.00     0.031 C 
ATOM     46  C   UNL A   1      41.102  28.688  26.242  1.00  0.00     0.029 A 
ATOM     47  N   UNL A   1      42.458  27.889  27.768  1.00  0.00    -0.354 N 
ATOM     48  C   UNL A   1      41.349  29.161  32.280  1.00  0.00     0.074 A 
ATOM     49  C   UNL A   1      40.101  28.478  32.367  1.00  0.00     0.031 C 
ATOM     50  C   UNL A   1      41.969  27.850  25.590  1.00  0.00     0.029 A 
ATOM     51  C   UNL A   1      42.854  27.219  26.552  1.00  0.00     0.049 A 
ATOM     52  H   UNL A   1      43.010  27.857  28.583  1.00  0.00     0.167 HD
ATOM     53  C   UNL A   1      42.488  29.091  33.020  1.00  0.00     0.037 A 
ATOM     54  C   UNL A   1      43.942  26.379  26.342  1.00  0.00     0.037 A 
ATOM     55  C   UNL A   1      43.493  29.912  32.386  1.00  0.00     0.049 A 
ATOM     56  C   UNL A   1      44.880  26.651  27.464  1.00  0.00     0.074 A 
ATOM     57  C   UNL A   1      43.614  31.260  32.121  1.00  0.00     0.029 A 
ATOM     58  N   UNL A   1      44.225  29.246  31.440  1.00  0.00    -0.354 N 
ATOM     59  N   UNL A   1      45.489  27.801  27.567  1.00  0.00    -0.248 NA
ATOM     60  C   UNL A   1      44.560  25.950  28.703  1.00  0.00     0.031 C 
ATOM     61  C   UNL A   1      44.138  31.338  30.797  1.00  0.00     0.029 A 
ATOM     62  C   UNL A   1      44.502  30.059  30.381  1.00  0.00     0.049 A 
ATOM     63  H   UNL A   1      44.512  28.307  31.514  1.00  0.00     0.167 HD
ATOM     64  C   UNL A   1      45.166  28.218  28.846  1.00  0.00     0.074 A 
ATOM     65  C   UNL A   1      44.573  27.030  29.495  1.00  0.00     0.031 C 
ATOM     66  C   UNL A   1      45.040  29.547  29.146  1.00  0.00     0.037 A 
BRANCH  53  67
ATOM     67  C   UNL A   1      42.874  27.929  33.911  1.00  0.00     0.064 A 
ATOM     68  C   UNL A   1      43.092  28.186  35.282  1.00  0.00     0.173 A 
ATOM     69  C   UNL A   1      43.335  26.676  33.452  1.00  0.00     0.173 A 
ATOM     70  F   UNL A   1      42.741  29.364  35.817  1.00  0.00    -0.203 F 
ATOM     71  C   UNL A   1      43.748  27.275  36.116  1.00  0.00     0.198 A 
ATOM     72  C   UNL A   1      43.950  25.750  34.298  1.00  0.00     0.198 A 
ATOM     73  F   UNL A   1      43.303  26.337  32.158  1.00  0.00    -0.203 F 
ATOM     74  F   UNL A   1      44.014  27.609  37.386  1.00  0.00    -0.200 F 
ATOM     75  C   UNL A   1      44.173  26.056  35.625  1.00  0.00     0.200 A 
ATOM     76  F   UNL A   1      44.388  24.585  33.798  1.00  0.00    -0.200 F 
ATOM     77  F   UNL A   1      44.825  25.193  36.416  1.00  0.00    -0.200 F 
ENDBRANCH  53  67
BRANCH  54  78
ATOM     78  C   UNL A   1      44.109  25.099  25.533  1.00  0.00     0.064 A 
ATOM     79  C   UNL A   1      45.309  24.642  24.911  1.00  0.00     0.173 A 
ATOM     80  C   UNL A   1      43.111  24.121  25.649  1.00  0.00     0.173 A 
ATOM     81  F   UNL A   1      46.371  25.454  24.786  1.00  0.00    -0.203 F 
ATOM     82  C   UNL A   1      45.470  23.310  24.451  1.00  0.00     0.198 A 
ATOM     83  C   UNL A   1      43.277  22.798  25.211  1.00  0.00     0.198 A 
ATOM     84  F   UNL A   1      41.973  24.411  26.291  1.00  0.00    -0.203 F 
ATOM     85  F   UNL A   1      46.625  22.904  23.895  1.00  0.00    -0.200 F 
ATOM     86  C   UNL A   1      44.454  22.386  24.618  1.00  0.00     0.200 A 
ATOM     87  F   UNL A   1      42.299  21.908  25.428  1.00  0.00    -0.200 F 
ATOM     88  F   UNL A   1      44.615  21.105  24.249  1.00  0.00    -0.200 F 
ENDBRANCH  54  78
BRANCH  66  89
ATOM     89  C   UNL A   1      45.435  30.585  28.126  1.00  0.00     0.064 A 
ATOM     90  C   UNL A   1      44.558  31.227  27.230  1.00  0.00     0.173 A 
ATOM     91  C   UNL A   1      46.723  31.118  28.243  1.00  0.00     0.173 A 
ATOM     92  F   UNL A   1      43.267  30.881  27.164  1.00  0.00    -0.203 F 
ATOM     93  C   UNL A   1      44.978  32.312  26.451  1.00  0.00     0.198 A 
ATOM     94  C   UNL A   1      47.125  32.225  27.502  1.00  0.00     0.198 A 
ATOM     95  F   UNL A   1      47.566  30.619  29.159  1.00  0.00    -0.203 F 
ATOM     96  F   UNL A   1      44.121  32.915  25.611  1.00  0.00    -0.200 F 
ATOM     97  C   UNL A   1      46.263  32.810  26.591  1.00  0.00     0.200 A 
ATOM     98  F   UNL A   1      48.334  32.758  27.719  1.00  0.00    -0.200 F 
ATOM     99  F   UNL A   1      46.656  33.877  25.882  1.00  0.00    -0.200 F 
ENDBRANCH  66  89
ENDBRANCH  40  41
ENDBRANCH  32  35
ENDBRANCH  30  31
ENDBRANCH  29  30
ENDBRANCH  28  29
ENDBRANCH  27  28
ENDBRANCH   1  27
TORSDOF 17
ENDMDL
MODEL 2
REMARK VINA RESULT:     -12.7      3.692      9.604
REMARK SMILES Cc1nc2cc(C(=O)NCCCCCCNC(=O)c3ccc(-c4c5nc(c(-c6c(F)c(F)c(F)c(F)c6F)c6ccc([nH]6)c(-c6c(F)c(F)c(F)c(F)c6F)c6nc(c(-c7c(F)c(F)c(F)c(F)c7F)c7ccc4[nH]7)C=C6)C=C5)cc3)ccc2n1CCC[NH+]1CCOCC1
REMARK SMILES IDX 11 1 10 2 9 3 7 4 8 5 6 7 1 8 2 9 3 10 85 11 4 12 84 13 5 14
REMARK SMILES IDX 83 15 82 16 86 17 87 18 88 19 89 20 90 21 94 22 91 24 93 25
REMARK SMILES IDX 92 26 12 27 13 28 14 29 15 30 16 31 17 32 18 34 19 35 20 36
REMARK SMILES IDX 81 37 21 38 80 39 22 40 23 41 24 42 74 43 25 44 79 45 73 46
REMARK SMILES IDX 75 47 26 48 78 49 72 50 71 51 27 53 59 54 39 55 58 56 40 57
REMARK SMILES IDX 43 58 57 59 76 60 41 61 42 62 56 64 77 65 44 66 28 67 29 68
REMARK SMILES IDX 37 69 30 70 31 71 35 72 38 73 32 74 33 75 36 76 34 77 60 78
REMARK SMILES IDX 61 79 69 80 62 81 63 82 67 83 70 84 64 85 65 86 68 87 66 88
REMARK SMILES IDX 45 89 46 90 54 91 47 92 48 93 52 94 55 95 49 96 50 97 53 98
REMARK SMILES IDX 51 99
REMARK H PARENT 9 6 89 23 16 33 75 52 43 63
REMARK Flexibility Score: inf
ROOT
ATOM      1  C   UNL A   1      35.103  21.867  26.027  1.00  0.00     0.021 C 
ENDROOT
BRANCH   1   2
ATOM      2  C   UNL A   1      34.534  22.976  26.914  1.00  0.00     0.116 C 
BRANCH   2   3
ATOM      3  N   UNL A   1      33.179  22.643  27.271  1.00  0.00    -0.352 N 
ATOM      4  C   UNL A   1      31.979  23.282  27.101  1.00  0.00     0.251 C 
ATOM      5  O   UNL A   1      30.989  22.744  27.563  1.00  0.00    -0.269 OA
ATOM      6  H   UNL A   1      33.098  21.778  27.734  1.00  0.00     0.163 HD
BRANCH   4   7
ATOM      7  C   UNL A   1      31.851  24.554  26.338  1.00  0.00     0.042 A 
ATOM      8  C   UNL A   1      34.035  28.659  22.712  1.00  0.00     0.088 C 
ATOM      9  C   UNL A   1      33.378  27.910  23.805  1.00  0.00     0.106 A 
ATOM     10  N   UNL A   1      33.976  26.924  24.444  1.00  0.00    -0.233 NA
ATOM     11  N   UNL A   1      32.085  28.069  24.257  1.00  0.00    -0.328 N 
ATOM     12  C   UNL A   1      32.992  26.290  25.137  1.00  0.00     0.090 A 
ATOM     13  C   UNL A   1      31.787  26.962  25.011  1.00  0.00     0.068 A 
ATOM     14  C   UNL A   1      33.050  25.100  25.859  1.00  0.00     0.044 A 
ATOM     15  C   UNL A   1      30.588  26.474  25.508  1.00  0.00     0.029 A 
ATOM     16  C   UNL A   1      30.643  25.203  26.063  1.00  0.00     0.016 A 
BRANCH  11  17
ATOM     17  C   UNL A   1      31.083  29.045  23.882  1.00  0.00     0.130 C 
BRANCH  17  18
ATOM     18  C   UNL A   1      30.263  28.683  22.645  1.00  0.00     0.083 C 
BRANCH  18  19
ATOM     19  C   UNL A   1      29.913  29.891  21.784  1.00  0.00     0.264 C 
BRANCH  19  20
ATOM     20  N   UNL A   1      28.465  30.057  21.604  1.00  0.00    -0.331 N 
ATOM     21  C   UNL A   1      28.144  31.296  20.869  1.00  0.00     0.291 C 
ATOM     22  C   UNL A   1      27.662  30.027  22.838  1.00  0.00     0.291 C 
ATOM     23  H   UNL A   1      28.207  29.232  21.063  1.00  0.00     0.348 HD
ATOM     24  C   UNL A   1      28.293  32.551  21.738  1.00  0.00     0.221 C 
ATOM     25  C   UNL A   1      27.841  31.285  23.689  1.00  0.00     0.221 C 
ATOM     26  O   UNL A   1      27.512  32.461  22.938  1.00  0.00    -0.370 OA
ENDBRANCH  19  20
ENDBRANCH  18  19
ENDBRANCH  17  18
ENDBRANCH  11  17
ENDBRANCH   4   7
ENDBRANCH   2   3
ENDBRANCH   1   2
BRANCH   1  27
ATOM     27  C   UNL A   1      36.177  22.434  25.092  1.00  0.00     0.002 C 
BRANCH  27  28
ATOM     28  C   UNL A   1      37.599  22.000  25.483  1.00  0.00     0.002 C 
BRANCH  28  29
ATOM     29  C   UNL A   1      38.424  23.112  26.147  1.00  0.00     0.021 C 
BRANCH  29  30
ATOM     30  C   UNL A   1      39.646  22.563  26.867  1.00  0.00     0.116 C 
BRANCH  30  31
ATOM     31  N   UNL A   1      40.786  22.466  25.993  1.00  0.00    -0.352 N 
ATOM     32  C   UNL A   1      41.971  23.125  25.898  1.00  0.00     0.251 C 
ATOM     33  H   UNL A   1      40.684  21.764  25.311  1.00  0.00     0.163 HD
ATOM     34  O   UNL A   1      42.792  22.662  25.117  1.00  0.00    -0.269 OA
BRANCH  32  35
ATOM     35  C   UNL A   1      42.233  24.438  26.529  1.00  0.00     0.039 A 
ATOM     36  C   UNL A   1      43.093  24.753  27.576  1.00  0.00     0.014 A 
ATOM     37  C   UNL A   1      41.421  25.452  26.030  1.00  0.00     0.014 A 
ATOM     38  C   UNL A   1      42.812  25.894  28.345  1.00  0.00     0.010 A 
ATOM     39  C   UNL A   1      41.434  26.686  26.628  1.00  0.00     0.010 A 
ATOM     40  C   UNL A   1      41.792  26.787  27.952  1.00  0.00    -0.014 A 
BRANCH  40  41
ATOM     41  C   UNL A   1      41.534  28.106  28.582  1.00  0.00     0.031 A 
ATOM     42  C   UNL A   1      42.698  28.983  28.159  1.00  0.00     0.074 A 
ATOM     43  C   UNL A   1      40.421  28.450  29.341  1.00  0.00     0.049 A 
ATOM     44  N   UNL A   1      43.711  29.245  28.919  1.00  0.00    -0.248 NA
ATOM     45  C   UNL A   1      43.024  29.276  26.734  1.00  0.00     0.031 C 
ATOM     46  C   UNL A   1      39.228  27.666  29.771  1.00  0.00     0.029 A 
ATOM     47  N   UNL A   1      40.112  29.661  29.981  1.00  0.00    -0.354 N 
ATOM     48  C   UNL A   1      44.563  30.064  28.183  1.00  0.00     0.074 A 
ATOM     49  C   UNL A   1      44.234  29.845  26.813  1.00  0.00     0.031 C 
ATOM     50  C   UNL A   1      38.249  28.472  30.291  1.00  0.00     0.029 A 
ATOM     51  C   UNL A   1      38.738  29.834  30.387  1.00  0.00     0.049 A 
ATOM     52  H   UNL A   1      40.794  30.353  30.142  1.00  0.00     0.167 HD
ATOM     53  C   UNL A   1      45.177  31.093  28.828  1.00  0.00     0.037 A 
ATOM     54  C   UNL A   1      38.135  30.960  30.939  1.00  0.00     0.037 A 
ATOM     55  C   UNL A   1      45.115  30.840  30.249  1.00  0.00     0.049 A 
ATOM     56  C   UNL A   1      39.249  31.798  31.456  1.00  0.00     0.074 A 
ATOM     57  C   UNL A   1      45.626  29.866  31.080  1.00  0.00     0.029 A 
ATOM     58  N   UNL A   1      43.979  31.323  30.839  1.00  0.00    -0.354 N 
ATOM     59  N   UNL A   1      39.975  31.402  32.468  1.00  0.00    -0.248 NA
ATOM     60  C   UNL A   1      39.903  32.625  30.447  1.00  0.00     0.031 C 
ATOM     61  C   UNL A   1      44.570  29.552  31.985  1.00  0.00     0.029 A 
ATOM     62  C   UNL A   1      43.536  30.469  31.808  1.00  0.00     0.049 A 
ATOM     63  H   UNL A   1      43.539  32.170  30.599  1.00  0.00     0.167 HD
ATOM     64  C   UNL A   1      41.266  31.473  31.978  1.00  0.00     0.074 A 
ATOM     65  C   UNL A   1      41.153  32.225  30.711  1.00  0.00     0.031 C 
ATOM     66  C   UNL A   1      42.235  30.609  32.411  1.00  0.00     0.037 A 
BRANCH  53  67
ATOM     67  C   UNL A   1      45.306  32.501  28.288  1.00  0.00     0.064 A 
ATOM     68  C   UNL A   1      46.591  33.084  28.249  1.00  0.00     0.173 A 
ATOM     69  C   UNL A   1      44.232  33.399  28.104  1.00  0.00     0.173 A 
ATOM     70  F   UNL A   1      47.684  32.335  28.461  1.00  0.00    -0.203 F 
ATOM     71  C   UNL A   1      46.783  34.457  28.075  1.00  0.00     0.198 A 
ATOM     72  C   UNL A   1      44.429  34.765  27.887  1.00  0.00     0.198 A 
ATOM     73  F   UNL A   1      42.956  33.017  28.229  1.00  0.00    -0.203 F 
ATOM     74  F   UNL A   1      48.018  34.971  28.143  1.00  0.00    -0.200 F 
ATOM     75  C   UNL A   1      45.701  35.297  27.890  1.00  0.00     0.200 A 
ATOM     76  F   UNL A   1      43.367  35.573  27.743  1.00  0.00    -0.200 F 
ATOM     77  F   UNL A   1      45.881  36.618  27.750  1.00  0.00    -0.200 F 
ENDBRANCH  53  67
BRANCH  54  78
ATOM     78  C   UNL A   1      36.766  31.596  30.732  1.00  0.00     0.064 A 
ATOM     79  C   UNL A   1      35.889  32.065  31.755  1.00  0.00     0.173 A 
ATOM     80  C   UNL A   1      36.449  32.052  29.445  1.00  0.00     0.173 A 
ATOM     81  F   UNL A   1      36.106  31.756  33.043  1.00  0.00    -0.203 F 
ATOM     82  C   UNL A   1      34.789  32.920  31.482  1.00  0.00     0.198 A 
ATOM     83  C   UNL A   1      35.373  32.913  29.178  1.00  0.00     0.198 A 
ATOM     84  F   UNL A   1      37.251  31.745  28.419  1.00  0.00    -0.203 F 
ATOM     85  F   UNL A   1      33.998  33.367  32.474  1.00  0.00    -0.200 F 
ATOM     86  C   UNL A   1      34.545  33.354  30.191  1.00  0.00     0.200 A 
ATOM     87  F   UNL A   1      35.185  33.360  27.929  1.00  0.00    -0.200 F 
ATOM     88  F   UNL A   1      33.550  34.215  29.927  1.00  0.00    -0.200 F 
ENDBRANCH  54  78
BRANCH  66  89
ATOM     89  C   UNL A   1      41.951  29.686  33.569  1.00  0.00     0.064 A 
ATOM     90  C   UNL A   1      41.602  28.326  33.465  1.00  0.00     0.173 A 
ATOM     91  C   UNL A   1      42.291  30.157  34.842  1.00  0.00     0.173 A 
ATOM     92  F   UNL A   1      41.409  27.755  32.270  1.00  0.00    -0.203 F 
ATOM     93  C   UNL A   1      41.543  27.500  34.593  1.00  0.00     0.198 A 
ATOM     94  C   UNL A   1      42.276  29.324  35.956  1.00  0.00     0.198 A 
ATOM     95  F   UNL A   1      42.736  31.413  34.986  1.00  0.00    -0.203 F 
ATOM     96  F   UNL A   1      41.218  26.202  34.469  1.00  0.00    -0.200 F 
ATOM     97  C   UNL A   1      41.882  28.002  35.839  1.00  0.00     0.200 A 
ATOM     98  F   UNL A   1      42.701  29.795  37.136  1.00  0.00    -0.200 F 
ATOM     99  F   UNL A   1      41.872  27.206  36.916  1.00  0.00    -0.200 F 
ENDBRANCH  66  89
ENDBRANCH  40  41
ENDBRANCH  32  35
ENDBRANCH  30  31
ENDBRANCH  29  30
ENDBRANCH  28  29
ENDBRANCH  27  28
ENDBRANCH   1  27
TORSDOF 17
ENDMDL
MODEL 3
REMARK VINA RESULT:     -12.6      3.409      5.391
REMARK SMILES Cc1nc2cc(C(=O)NCCCCCCNC(=O)c3ccc(-c4c5nc(c(-c6c(F)c(F)c(F)c(F)c6F)c6ccc([nH]6)c(-c6c(F)c(F)c(F)c(F)c6F)c6nc(c(-c7c(F)c(F)c(F)c(F)c7F)c7ccc4[nH]7)C=C6)C=C5)cc3)ccc2n1CCC[NH+]1CCOCC1
REMARK SMILES IDX 11 1 10 2 9 3 7 4 8 5 6 7 1 8 2 9 3 10 85 11 4 12 84 13 5 14
REMARK SMILES IDX 83 15 82 16 86 17 87 18 88 19 89 20 90 21 94 22 91 24 93 25
REMARK SMILES IDX 92 26 12 27 13 28 14 29 15 30 16 31 17 32 18 34 19 35 20 36
REMARK SMILES IDX 81 37 21 38 80 39 22 40 23 41 24 42 74 43 25 44 79 45 73 46
REMARK SMILES IDX 75 47 26 48 78 49 72 50 71 51 27 53 59 54 39 55 58 56 40 57
REMARK SMILES IDX 43 58 57 59 76 60 41 61 42 62 56 64 77 65 44 66 28 67 29 68
REMARK SMILES IDX 37 69 30 70 31 71 35 72 38 73 32 74 33 75 36 76 34 77 60 78
REMARK SMILES IDX 61 79 69 80 62 81 63 82 67 83 70 84 64 85 65 86 68 87 66 88
REMARK SMILES IDX 45 89 46 90 54 91 47 92 48 93 52 94 55 95 49 96 50 97 53 98
REMARK SMILES IDX 51 99
REMARK H PARENT 9 6 89 23 16 33 75 52 43 63
REMARK Flexibility Score: inf
ROOT
ATOM      1  C   UNL A   1      34.328  31.964  28.620  1.00  0.00     0.021 C 
ENDROOT
BRANCH   1   2
ATOM      2  C   UNL A   1      33.971  30.889  27.592  1.00  0.00     0.116 C 
BRANCH   2   3
ATOM      3  N   UNL A   1      32.715  31.227  26.974  1.00  0.00    -0.352 N 
ATOM      4  C   UNL A   1      31.946  30.621  26.016  1.00  0.00     0.251 C 
ATOM      5  O   UNL A   1      30.928  31.195  25.671  1.00  0.00    -0.269 OA
ATOM      6  H   UNL A   1      32.328  32.069  27.310  1.00  0.00     0.163 HD
BRANCH   4   7
ATOM      7  C   UNL A   1      32.284  29.290  25.442  1.00  0.00     0.042 A 
ATOM      8  C   UNL A   1      30.910  23.696  24.178  1.00  0.00     0.088 C 
ATOM      9  C   UNL A   1      31.558  24.956  24.604  1.00  0.00     0.106 A 
ATOM     10  N   UNL A   1      30.952  25.834  25.379  1.00  0.00    -0.233 NA
ATOM     11  N   UNL A   1      32.800  25.418  24.224  1.00  0.00    -0.328 N 
ATOM     12  C   UNL A   1      31.703  26.965  25.303  1.00  0.00     0.090 A 
ATOM     13  C   UNL A   1      32.850  26.749  24.556  1.00  0.00     0.068 A 
ATOM     14  C   UNL A   1      31.437  28.236  25.810  1.00  0.00     0.044 A 
ATOM     15  C   UNL A   1      33.734  27.759  24.208  1.00  0.00     0.029 A 
ATOM     16  C   UNL A   1      33.350  29.041  24.572  1.00  0.00     0.016 A 
BRANCH  11  17
ATOM     17  C   UNL A   1      33.824  24.779  23.424  1.00  0.00     0.130 C 
BRANCH  17  18
ATOM     18  C   UNL A   1      35.039  24.285  24.208  1.00  0.00     0.083 C 
BRANCH  18  19
ATOM     19  C   UNL A   1      35.324  22.802  23.998  1.00  0.00     0.264 C 
BRANCH  19  20
ATOM     20  N   UNL A   1      35.599  22.095  25.255  1.00  0.00    -0.331 N 
ATOM     21  C   UNL A   1      35.662  20.634  25.058  1.00  0.00     0.291 C 
ATOM     22  C   UNL A   1      34.667  22.375  26.362  1.00  0.00     0.291 C 
ATOM     23  H   UNL A   1      36.507  22.468  25.532  1.00  0.00     0.348 HD
ATOM     24  C   UNL A   1      34.275  20.005  24.878  1.00  0.00     0.221 C 
ATOM     25  C   UNL A   1      33.291  21.746  26.147  1.00  0.00     0.221 C 
ATOM     26  O   UNL A   1      33.400  20.328  25.967  1.00  0.00    -0.370 OA
ENDBRANCH  19  20
ENDBRANCH  18  19
ENDBRANCH  17  18
ENDBRANCH  11  17
ENDBRANCH   4   7
ENDBRANCH   2   3
ENDBRANCH   1   2
BRANCH   1  27
ATOM     27  C   UNL A   1      35.356  32.938  28.034  1.00  0.00     0.002 C 
BRANCH  27  28
ATOM     28  C   UNL A   1      34.893  34.403  28.094  1.00  0.00     0.002 C 
BRANCH  28  29
ATOM     29  C   UNL A   1      33.473  34.580  28.651  1.00  0.00     0.021 C 
BRANCH  29  30
ATOM     30  C   UNL A   1      33.371  35.780  29.580  1.00  0.00     0.116 C 
BRANCH  30  31
ATOM     31  N   UNL A   1      32.654  35.464  30.788  1.00  0.00    -0.352 N 
ATOM     32  C   UNL A   1      33.021  35.099  32.044  1.00  0.00     0.251 C 
ATOM     33  H   UNL A   1      31.677  35.528  30.679  1.00  0.00     0.163 HD
ATOM     34  O   UNL A   1      32.132  35.066  32.885  1.00  0.00    -0.269 OA
BRANCH  32  35
ATOM     35  C   UNL A   1      34.361  34.572  32.388  1.00  0.00     0.039 A 
ATOM     36  C   UNL A   1      35.484  35.257  32.842  1.00  0.00     0.014 A 
ATOM     37  C   UNL A   1      34.495  33.212  32.122  1.00  0.00     0.014 A 
ATOM     38  C   UNL A   1      36.747  34.690  32.605  1.00  0.00     0.010 A 
ATOM     39  C   UNL A   1      35.725  32.618  32.236  1.00  0.00     0.010 A 
ATOM     40  C   UNL A   1      36.857  33.383  32.083  1.00  0.00    -0.014 A 
BRANCH  40  41
ATOM     41  C   UNL A   1      38.127  32.625  31.966  1.00  0.00     0.031 A 
ATOM     42  C   UNL A   1      38.762  32.698  33.343  1.00  0.00     0.074 A 
ATOM     43  C   UNL A   1      38.581  31.950  30.838  1.00  0.00     0.049 A 
ATOM     44  N   UNL A   1      39.720  33.511  33.648  1.00  0.00    -0.248 NA
ATOM     45  C   UNL A   1      38.100  32.184  34.576  1.00  0.00     0.031 C 
ATOM     46  C   UNL A   1      38.008  31.801  29.469  1.00  0.00     0.029 A 
ATOM     47  N   UNL A   1      39.769  31.228  30.642  1.00  0.00    -0.354 N 
ATOM     48  C   UNL A   1      40.022  33.290  34.989  1.00  0.00     0.074 A 
ATOM     49  C   UNL A   1      38.868  32.675  35.557  1.00  0.00     0.031 C 
ATOM     50  C   UNL A   1      38.657  30.835  28.747  1.00  0.00     0.029 A 
ATOM     51  C   UNL A   1      39.798  30.347  29.499  1.00  0.00     0.049 A 
ATOM     52  H   UNL A   1      40.538  31.317  31.252  1.00  0.00     0.167 HD
ATOM     53  C   UNL A   1      41.331  33.307  35.361  1.00  0.00     0.037 A 
ATOM     54  C   UNL A   1      40.790  29.446  29.127  1.00  0.00     0.037 A 
ATOM     55  C   UNL A   1      42.088  33.973  34.327  1.00  0.00     0.049 A 
ATOM     56  C   UNL A   1      42.013  29.873  29.858  1.00  0.00     0.074 A 
ATOM     57  C   UNL A   1      42.102  35.251  33.809  1.00  0.00     0.029 A 
ATOM     58  N   UNL A   1      42.519  33.130  33.338  1.00  0.00    -0.354 N 
ATOM     59  N   UNL A   1      42.606  31.002  29.576  1.00  0.00    -0.248 NA
ATOM     60  C   UNL A   1      42.087  29.406  31.239  1.00  0.00     0.031 C 
ATOM     61  C   UNL A   1      42.209  35.084  32.397  1.00  0.00     0.029 A 
ATOM     62  C   UNL A   1      42.456  33.741  32.120  1.00  0.00     0.049 A 
ATOM     63  H   UNL A   1      42.831  32.208  33.485  1.00  0.00     0.167 HD
ATOM     64  C   UNL A   1      42.668  31.642  30.801  1.00  0.00     0.074 A 
ATOM     65  C   UNL A   1      42.315  30.604  31.791  1.00  0.00     0.031 C 
ATOM     66  C   UNL A   1      42.613  33.006  30.890  1.00  0.00     0.037 A 
BRANCH  53  67
ATOM     67  C   UNL A   1      41.984  32.302  36.286  1.00  0.00     0.064 A 
ATOM     68  C   UNL A   1      42.822  32.789  37.313  1.00  0.00     0.173 A 
ATOM     69  C   UNL A   1      42.080  30.916  36.035  1.00  0.00     0.173 A 
ATOM     70  F   UNL A   1      42.850  34.098  37.604  1.00  0.00    -0.203 F 
ATOM     71  C   UNL A   1      43.708  31.961  38.007  1.00  0.00     0.198 A 
ATOM     72  C   UNL A   1      42.936  30.084  36.762  1.00  0.00     0.198 A 
ATOM     73  F   UNL A   1      41.436  30.330  35.021  1.00  0.00    -0.203 F 
ATOM     74  F   UNL A   1      44.550  32.491  38.905  1.00  0.00    -0.200 F 
ATOM     75  C   UNL A   1      43.762  30.607  37.734  1.00  0.00     0.200 A 
ATOM     76  F   UNL A   1      43.001  28.778  36.461  1.00  0.00    -0.200 F 
ATOM     77  F   UNL A   1      44.629  29.816  38.380  1.00  0.00    -0.200 F 
ENDBRANCH  53  67
BRANCH  54  78
ATOM     78  C   UNL A   1      40.733  28.042  28.539  1.00  0.00     0.064 A 
ATOM     79  C   UNL A   1      39.915  26.966  28.996  1.00  0.00     0.173 A 
ATOM     80  C   UNL A   1      41.279  27.849  27.262  1.00  0.00     0.173 A 
ATOM     81  F   UNL A   1      39.280  27.039  30.177  1.00  0.00    -0.203 F 
ATOM     82  C   UNL A   1      39.682  25.802  28.219  1.00  0.00     0.198 A 
ATOM     83  C   UNL A   1      41.032  26.707  26.484  1.00  0.00     0.198 A 
ATOM     84  F   UNL A   1      41.994  28.828  26.694  1.00  0.00    -0.203 F 
ATOM     85  F   UNL A   1      38.883  24.819  28.669  1.00  0.00    -0.200 F 
ATOM     86  C   UNL A   1      40.232  25.685  26.955  1.00  0.00     0.200 A 
ATOM     87  F   UNL A   1      41.534  26.637  25.244  1.00  0.00    -0.200 F 
ATOM     88  F   UNL A   1      39.966  24.621  26.180  1.00  0.00    -0.200 F 
ENDBRANCH  54  78
BRANCH  66  89
ATOM     89  C   UNL A   1      42.670  33.841  29.635  1.00  0.00     0.064 A 
ATOM     90  C   UNL A   1      41.589  34.544  29.070  1.00  0.00     0.173 A 
ATOM     91  C   UNL A   1      43.943  34.126  29.132  1.00  0.00     0.173 A 
ATOM     92  F   UNL A   1      40.359  34.447  29.588  1.00  0.00    -0.203 F 
ATOM     93  C   UNL A   1      41.776  35.444  28.015  1.00  0.00     0.198 A 
ATOM     94  C   UNL A   1      44.134  35.055  28.113  1.00  0.00     0.198 A 
ATOM     95  F   UNL A   1      45.021  33.570  29.703  1.00  0.00    -0.203 F 
ATOM     96  F   UNL A   1      40.731  36.112  27.498  1.00  0.00    -0.200 F 
ATOM     97  C   UNL A   1      43.052  35.698  27.539  1.00  0.00     0.200 A 
ATOM     98  F   UNL A   1      45.379  35.365  27.730  1.00  0.00    -0.200 F 
ATOM     99  F   UNL A   1      43.244  36.593  26.559  1.00  0.00    -0.200 F 
ENDBRANCH  66  89
ENDBRANCH  40  41
ENDBRANCH  32  35
ENDBRANCH  30  31
ENDBRANCH  29  30
ENDBRANCH  28  29
ENDBRANCH  27  28
ENDBRANCH   1  27
TORSDOF 17
ENDMDL
