MODEL 1
REMARK VINA RESULT:     -12.4      0.000      0.000
REMARK SMILES CCn1cc(S(=O)(=O)Nc2c(C)cc(C)cc2C(=O)NCCCCCCNC(=O)c2ccc(-c3c4nc(c(-c5c(F)c(F)c(F)c(F)c5F)c5ccc([nH]5)c(-c5c(F)c(F)c(F)c(F)c5F)c5nc(c(-c6c(F)c(F)c(F)c(F)c6F)c6ccc3[nH]6)C=C5)C=C4)cc2)cn1
REMARK SMILES IDX 22 1 21 2 20 3 18 4 19 5 17 7 10 8 11 9 12 10 13 11 16 12
REMARK SMILES IDX 14 13 15 14 9 15 6 17 7 18 8 19 5 20 3 21 4 22 94 23 93 24
REMARK SMILES IDX 2 25 1 26 23 27 24 28 25 29 26 30 27 31 28 32 29 34 30 35
REMARK SMILES IDX 31 36 92 37 32 38 91 39 33 40 34 41 35 42 85 43 36 44 90 45
REMARK SMILES IDX 84 46 86 47 37 48 89 49 83 50 82 51 38 53 70 54 50 55 69 56
REMARK SMILES IDX 51 57 54 58 68 59 87 60 52 61 53 62 67 64 88 65 55 66 39 67
REMARK SMILES IDX 40 68 48 69 41 70 42 71 46 72 49 73 43 74 44 75 47 76 45 77
REMARK SMILES IDX 71 78 72 79 80 80 73 81 74 82 78 83 81 84 75 85 76 86 79 87
REMARK SMILES IDX 77 88 56 89 57 90 65 91 58 92 59 93 63 94 66 95 60 96 61 97
REMARK SMILES IDX 64 98 62 99
REMARK H PARENT 20 6 9 16 27 33 86 52 54 63
REMARK Flexibility Score: inf
ROOT
ATOM      1  C   UNL A   1      33.520  28.735  24.429  1.00  0.00     0.021 C 
ENDROOT
BRANCH   1   2
ATOM      2  C   UNL A   1      33.274  29.027  22.956  1.00  0.00     0.116 C 
BRANCH   2   3
ATOM      3  N   UNL A   1      33.543  27.970  22.030  1.00  0.00    -0.352 N 
ATOM      4  C   UNL A   1      33.059  26.685  22.020  1.00  0.00     0.253 C 
ATOM      5  O   UNL A   1      33.401  25.996  21.053  1.00  0.00    -0.269 OA
ATOM      6  H   UNL A   1      34.161  28.195  21.299  1.00  0.00     0.163 HD
BRANCH   4   7
ATOM      7  C   UNL A   1      32.209  26.025  23.082  1.00  0.00     0.064 A 
ATOM      8  C   UNL A   1      32.593  25.212  24.183  1.00  0.00     0.065 A 
ATOM      9  C   UNL A   1      31.674  25.026  25.254  1.00  0.00    -0.026 A 
ATOM     10  C   UNL A   1      32.009  24.369  26.571  1.00  0.00     0.046 C 
ATOM     11  C   UNL A   1      30.341  25.463  25.123  1.00  0.00     0.009 A 
ATOM     12  C   UNL A   1      30.859  26.458  23.011  1.00  0.00     0.019 A 
ATOM     13  C   UNL A   1      29.920  26.169  24.003  1.00  0.00    -0.050 A 
ATOM     14  C   UNL A   1      28.501  26.650  23.907  1.00  0.00     0.044 C 
BRANCH   8  15
ATOM     15  N   UNL A   1      33.927  24.695  24.313  1.00  0.00    -0.278 N 
ATOM     16  H   UNL A   1      34.585  25.205  24.840  1.00  0.00     0.180 HD
BRANCH  15  17
ATOM     17  S   UNL A   1      34.415  23.229  23.586  1.00  0.00     0.265 S 
ATOM     18  O   UNL A   1      35.824  23.100  23.878  1.00  0.00    -0.201 OA
ATOM     19  O   UNL A   1      33.972  23.224  22.204  1.00  0.00    -0.201 OA
BRANCH  17  20
ATOM     20  C   UNL A   1      33.728  21.800  24.223  1.00  0.00     0.125 A 
ATOM     21  N   UNL A   1      33.317  19.755  24.865  1.00  0.00    -0.272 N 
ATOM     22  C   UNL A   1      34.308  20.701  24.818  1.00  0.00     0.131 A 
ATOM     23  N   UNL A   1      32.096  20.263  24.592  1.00  0.00    -0.180 NA
ATOM     24  C   UNL A   1      32.356  21.510  24.186  1.00  0.00     0.157 A 
BRANCH  21  25
ATOM     25  C   UNL A   1      33.482  18.312  24.868  1.00  0.00     0.141 C 
ATOM     26  C   UNL A   1      32.901  17.582  23.671  1.00  0.00     0.029 C 
ENDBRANCH  21  25
ENDBRANCH  17  20
ENDBRANCH  15  17
ENDBRANCH   8  15
ENDBRANCH   4   7
ENDBRANCH   2   3
ENDBRANCH   1   2
BRANCH   1  27
ATOM     27  C   UNL A   1      32.391  29.026  25.423  1.00  0.00     0.002 C 
BRANCH  27  28
ATOM     28  C   UNL A   1      32.621  29.991  26.595  1.00  0.00     0.002 C 
BRANCH  28  29
ATOM     29  C   UNL A   1      33.870  29.857  27.477  1.00  0.00     0.021 C 
BRANCH  29  30
ATOM     30  C   UNL A   1      34.722  31.104  27.638  1.00  0.00     0.116 C 
BRANCH  30  31
ATOM     31  N   UNL A   1      34.551  31.791  28.917  1.00  0.00    -0.352 N 
ATOM     32  C   UNL A   1      35.289  31.643  30.078  1.00  0.00     0.251 C 
ATOM     33  H   UNL A   1      33.815  32.443  28.958  1.00  0.00     0.163 HD
ATOM     34  O   UNL A   1      34.854  32.036  31.156  1.00  0.00    -0.269 OA
BRANCH  32  35
ATOM     35  C   UNL A   1      36.611  30.990  30.015  1.00  0.00     0.039 A 
ATOM     36  C   UNL A   1      37.793  31.728  29.874  1.00  0.00     0.014 A 
ATOM     37  C   UNL A   1      36.663  29.607  30.120  1.00  0.00     0.014 A 
ATOM     38  C   UNL A   1      39.023  31.067  29.923  1.00  0.00     0.010 A 
ATOM     39  C   UNL A   1      37.860  28.989  30.368  1.00  0.00     0.010 A 
ATOM     40  C   UNL A   1      39.049  29.692  30.185  1.00  0.00    -0.014 A 
BRANCH  40  41
ATOM     41  C   UNL A   1      40.300  28.945  30.297  1.00  0.00     0.031 A 
ATOM     42  C   UNL A   1      40.826  28.687  31.667  1.00  0.00     0.074 A 
ATOM     43  C   UNL A   1      40.804  28.278  29.234  1.00  0.00     0.049 A 
ATOM     44  N   UNL A   1      42.013  28.931  32.121  1.00  0.00    -0.248 NA
ATOM     45  C   UNL A   1      39.916  28.116  32.672  1.00  0.00     0.031 C 
ATOM     46  C   UNL A   1      40.244  28.172  27.879  1.00  0.00     0.029 A 
ATOM     47  N   UNL A   1      41.849  27.408  29.191  1.00  0.00    -0.354 N 
ATOM     48  C   UNL A   1      42.056  28.426  33.420  1.00  0.00     0.074 A 
ATOM     49  C   UNL A   1      40.706  28.039  33.744  1.00  0.00     0.031 C 
ATOM     50  C   UNL A   1      40.784  27.109  27.251  1.00  0.00     0.029 A 
ATOM     51  C   UNL A   1      41.842  26.572  28.084  1.00  0.00     0.049 A 
ATOM     52  H   UNL A   1      42.549  27.376  29.883  1.00  0.00     0.167 HD
ATOM     53  C   UNL A   1      43.237  28.201  34.064  1.00  0.00     0.037 A 
ATOM     54  C   UNL A   1      42.622  25.484  27.881  1.00  0.00     0.037 A 
ATOM     55  C   UNL A   1      44.327  28.882  33.416  1.00  0.00     0.049 A 
ATOM     56  C   UNL A   1      43.804  25.623  28.769  1.00  0.00     0.074 A 
ATOM     57  C   UNL A   1      44.606  30.205  33.126  1.00  0.00     0.029 A 
ATOM     58  N   UNL A   1      45.193  28.150  32.639  1.00  0.00    -0.354 N 
ATOM     59  N   UNL A   1      44.724  26.534  28.615  1.00  0.00    -0.248 NA
ATOM     60  C   UNL A   1      43.734  25.024  30.093  1.00  0.00     0.031 C 
ATOM     61  C   UNL A   1      45.230  30.176  31.845  1.00  0.00     0.029 A 
ATOM     62  C   UNL A   1      45.341  28.838  31.463  1.00  0.00     0.049 A 
ATOM     63  H   UNL A   1      45.622  27.298  32.881  1.00  0.00     0.167 HD
ATOM     64  C   UNL A   1      45.042  26.931  29.906  1.00  0.00     0.074 A 
ATOM     65  C   UNL A   1      44.490  25.891  30.770  1.00  0.00     0.031 C 
ATOM     66  C   UNL A   1      45.464  28.202  30.173  1.00  0.00     0.037 A 
BRANCH  53  67
ATOM     67  C   UNL A   1      43.480  27.129  35.099  1.00  0.00     0.064 A 
ATOM     68  C   UNL A   1      43.919  27.499  36.390  1.00  0.00     0.173 A 
ATOM     69  C   UNL A   1      43.587  25.757  34.794  1.00  0.00     0.173 A 
ATOM     70  F   UNL A   1      43.877  28.780  36.786  1.00  0.00    -0.203 F 
ATOM     71  C   UNL A   1      44.499  26.579  37.267  1.00  0.00     0.198 A 
ATOM     72  C   UNL A   1      44.114  24.831  35.695  1.00  0.00     0.198 A 
ATOM     73  F   UNL A   1      43.294  25.276  33.580  1.00  0.00    -0.203 F 
ATOM     74  F   UNL A   1      45.020  27.001  38.427  1.00  0.00    -0.200 F 
ATOM     75  C   UNL A   1      44.603  25.246  36.916  1.00  0.00     0.200 A 
ATOM     76  F   UNL A   1      44.218  23.545  35.332  1.00  0.00    -0.200 F 
ATOM     77  F   UNL A   1      45.213  24.373  37.728  1.00  0.00    -0.200 F 
ENDBRANCH  53  67
BRANCH  54  78
ATOM     78  C   UNL A   1      42.298  24.250  27.129  1.00  0.00     0.064 A 
ATOM     79  C   UNL A   1      43.262  23.613  26.333  1.00  0.00     0.173 A 
ATOM     80  C   UNL A   1      41.106  23.533  27.361  1.00  0.00     0.173 A 
ATOM     81  F   UNL A   1      44.442  24.206  26.098  1.00  0.00    -0.203 F 
ATOM     82  C   UNL A   1      43.053  22.331  25.814  1.00  0.00     0.198 A 
ATOM     83  C   UNL A   1      40.893  22.260  26.832  1.00  0.00     0.198 A 
ATOM     84  F   UNL A   1      40.156  24.014  28.175  1.00  0.00    -0.203 F 
ATOM     85  F   UNL A   1      44.021  21.731  25.107  1.00  0.00    -0.200 F 
ATOM     86  C   UNL A   1      41.872  21.653  26.069  1.00  0.00     0.200 A 
ATOM     87  F   UNL A   1      39.757  21.604  27.110  1.00  0.00    -0.200 F 
ATOM     88  F   UNL A   1      41.693  20.405  25.615  1.00  0.00    -0.200 F 
ENDBRANCH  54  78
BRANCH  66  89
ATOM     89  C   UNL A   1      45.816  29.093  29.014  1.00  0.00     0.064 A 
ATOM     90  C   UNL A   1      44.888  29.919  28.353  1.00  0.00     0.173 A 
ATOM     91  C   UNL A   1      47.164  29.243  28.665  1.00  0.00     0.173 A 
ATOM     92  F   UNL A   1      43.597  29.923  28.700  1.00  0.00    -0.203 F 
ATOM     93  C   UNL A   1      45.285  30.812  27.361  1.00  0.00     0.198 A 
ATOM     94  C   UNL A   1      47.564  30.163  27.700  1.00  0.00     0.198 A 
ATOM     95  F   UNL A   1      48.106  28.530  29.303  1.00  0.00    -0.203 F 
ATOM     96  F   UNL A   1      44.374  31.577  26.742  1.00  0.00    -0.200 F 
ATOM     97  C   UNL A   1      46.625  30.939  27.041  1.00  0.00     0.200 A 
ATOM     98  F   UNL A   1      48.868  30.321  27.429  1.00  0.00    -0.200 F 
ATOM     99  F   UNL A   1      47.013  31.830  26.117  1.00  0.00    -0.200 F 
ENDBRANCH  66  89
ENDBRANCH  40  41
ENDBRANCH  32  35
ENDBRANCH  30  31
ENDBRANCH  29  30
ENDBRANCH  28  29
ENDBRANCH  27  28
ENDBRANCH   1  27
TORSDOF 17
ENDMDL
MODEL 2
REMARK VINA RESULT:     -12.3      1.564      2.932
REMARK SMILES CCn1cc(S(=O)(=O)Nc2c(C)cc(C)cc2C(=O)NCCCCCCNC(=O)c2ccc(-c3c4nc(c(-c5c(F)c(F)c(F)c(F)c5F)c5ccc([nH]5)c(-c5c(F)c(F)c(F)c(F)c5F)c5nc(c(-c6c(F)c(F)c(F)c(F)c6F)c6ccc3[nH]6)C=C5)C=C4)cc2)cn1
REMARK SMILES IDX 22 1 21 2 20 3 18 4 19 5 17 7 10 8 11 9 12 10 13 11 16 12
REMARK SMILES IDX 14 13 15 14 9 15 6 17 7 18 8 19 5 20 3 21 4 22 94 23 93 24
REMARK SMILES IDX 2 25 1 26 23 27 24 28 25 29 26 30 27 31 28 32 29 34 30 35
REMARK SMILES IDX 31 36 92 37 32 38 91 39 33 40 34 41 35 42 85 43 36 44 90 45
REMARK SMILES IDX 84 46 86 47 37 48 89 49 83 50 82 51 38 53 70 54 50 55 69 56
REMARK SMILES IDX 51 57 54 58 68 59 87 60 52 61 53 62 67 64 88 65 55 66 39 67
REMARK SMILES IDX 40 68 48 69 41 70 42 71 46 72 49 73 43 74 44 75 47 76 45 77
REMARK SMILES IDX 71 78 72 79 80 80 73 81 74 82 78 83 81 84 75 85 76 86 79 87
REMARK SMILES IDX 77 88 56 89 57 90 65 91 58 92 59 93 63 94 66 95 60 96 61 97
REMARK SMILES IDX 64 98 62 99
REMARK H PARENT 20 6 9 16 27 33 86 52 54 63
REMARK Flexibility Score: inf
ROOT
ATOM      1  C   UNL A   1      31.835  26.272  26.388  1.00  0.00     0.021 C 
ENDROOT
BRANCH   1   2
ATOM      2  C   UNL A   1      33.054  25.430  26.041  1.00  0.00     0.116 C 
BRANCH   2   3
ATOM      3  N   UNL A   1      33.421  25.355  24.660  1.00  0.00    -0.352 N 
ATOM      4  C   UNL A   1      34.326  24.522  24.049  1.00  0.00     0.253 C 
ATOM      5  O   UNL A   1      34.394  24.622  22.819  1.00  0.00    -0.269 OA
ATOM      6  H   UNL A   1      32.960  25.989  24.065  1.00  0.00     0.163 HD
BRANCH   4   7
ATOM      7  C   UNL A   1      35.269  23.552  24.726  1.00  0.00     0.064 A 
ATOM      8  C   UNL A   1      35.350  22.137  24.621  1.00  0.00     0.065 A 
ATOM      9  C   UNL A   1      36.543  21.484  25.042  1.00  0.00    -0.026 A 
ATOM     10  C   UNL A   1      36.857  20.028  24.803  1.00  0.00     0.046 C 
ATOM     11  C   UNL A   1      37.532  22.204  25.741  1.00  0.00     0.009 A 
ATOM     12  C   UNL A   1      36.304  24.231  25.420  1.00  0.00     0.019 A 
ATOM     13  C   UNL A   1      37.418  23.574  25.945  1.00  0.00    -0.050 A 
ATOM     14  C   UNL A   1      38.504  24.319  26.665  1.00  0.00     0.044 C 
BRANCH   8  15
ATOM     15  N   UNL A   1      34.325  21.366  23.973  1.00  0.00    -0.278 N 
ATOM     16  H   UNL A   1      34.331  21.301  22.990  1.00  0.00     0.180 HD
BRANCH  15  17
ATOM     17  S   UNL A   1      33.100  20.558  24.844  1.00  0.00     0.265 S 
ATOM     18  O   UNL A   1      31.854  21.107  24.361  1.00  0.00    -0.201 OA
ATOM     19  O   UNL A   1      33.408  20.633  26.261  1.00  0.00    -0.201 OA
BRANCH  17  20
ATOM     20  C   UNL A   1      32.949  18.880  24.564  1.00  0.00     0.125 A 
ATOM     21  N   UNL A   1      32.918  16.703  24.724  1.00  0.00    -0.272 N 
ATOM     22  C   UNL A   1      32.591  17.847  25.405  1.00  0.00     0.131 A 
ATOM     23  N   UNL A   1      33.201  16.931  23.424  1.00  0.00    -0.180 NA
ATOM     24  C   UNL A   1      33.232  18.264  23.335  1.00  0.00     0.157 A 
BRANCH  21  25
ATOM     25  C   UNL A   1      33.269  15.414  25.294  1.00  0.00     0.141 C 
ATOM     26  C   UNL A   1      32.159  14.707  26.050  1.00  0.00     0.029 C 
ENDBRANCH  21  25
ENDBRANCH  17  20
ENDBRANCH  15  17
ENDBRANCH   8  15
ENDBRANCH   4   7
ENDBRANCH   2   3
ENDBRANCH   1   2
BRANCH   1  27
ATOM     27  C   UNL A   1      32.062  27.632  27.054  1.00  0.00     0.002 C 
BRANCH  27  28
ATOM     28  C   UNL A   1      33.405  28.360  26.891  1.00  0.00     0.002 C 
BRANCH  28  29
ATOM     29  C   UNL A   1      33.459  29.893  26.874  1.00  0.00     0.021 C 
BRANCH  29  30
ATOM     30  C   UNL A   1      34.721  30.532  27.427  1.00  0.00     0.116 C 
BRANCH  30  31
ATOM     31  N   UNL A   1      34.483  31.549  28.450  1.00  0.00    -0.352 N 
ATOM     32  C   UNL A   1      35.116  31.705  29.671  1.00  0.00     0.251 C 
ATOM     33  H   UNL A   1      33.783  32.209  28.245  1.00  0.00     0.163 HD
ATOM     34  O   UNL A   1      34.616  32.391  30.557  1.00  0.00    -0.269 OA
BRANCH  32  35
ATOM     35  C   UNL A   1      36.402  31.020  29.911  1.00  0.00     0.039 A 
ATOM     36  C   UNL A   1      36.468  29.652  30.198  1.00  0.00     0.014 A 
ATOM     37  C   UNL A   1      37.567  31.770  29.823  1.00  0.00     0.014 A 
ATOM     38  C   UNL A   1      37.717  29.036  30.313  1.00  0.00     0.010 A 
ATOM     39  C   UNL A   1      38.777  31.136  29.737  1.00  0.00     0.010 A 
ATOM     40  C   UNL A   1      38.873  29.785  30.067  1.00  0.00    -0.014 A 
BRANCH  40  41
ATOM     41  C   UNL A   1      40.209  29.196  30.124  1.00  0.00     0.031 A 
ATOM     42  C   UNL A   1      40.815  28.997  31.471  1.00  0.00     0.074 A 
ATOM     43  C   UNL A   1      40.749  28.602  29.036  1.00  0.00     0.049 A 
ATOM     44  N   UNL A   1      41.980  29.382  31.882  1.00  0.00    -0.248 NA
ATOM     45  C   UNL A   1      40.021  28.313  32.503  1.00  0.00     0.031 C 
ATOM     46  C   UNL A   1      40.156  28.436  27.702  1.00  0.00     0.029 A 
ATOM     47  N   UNL A   1      41.891  27.867  28.945  1.00  0.00    -0.354 N 
ATOM     48  C   UNL A   1      42.134  28.879  33.174  1.00  0.00     0.074 A 
ATOM     49  C   UNL A   1      40.855  28.328  33.544  1.00  0.00     0.031 C 
ATOM     50  C   UNL A   1      40.796  27.450  27.044  1.00  0.00     0.029 A 
ATOM     51  C   UNL A   1      41.943  27.041  27.831  1.00  0.00     0.049 A 
ATOM     52  H   UNL A   1      42.615  27.917  29.611  1.00  0.00     0.167 HD
ATOM     53  C   UNL A   1      43.358  28.797  33.771  1.00  0.00     0.037 A 
ATOM     54  C   UNL A   1      42.842  26.059  27.588  1.00  0.00     0.037 A 
ATOM     55  C   UNL A   1      44.330  29.610  33.089  1.00  0.00     0.049 A 
ATOM     56  C   UNL A   1      44.031  26.336  28.433  1.00  0.00     0.074 A 
ATOM     57  C   UNL A   1      44.435  30.958  32.802  1.00  0.00     0.029 A 
ATOM     58  N   UNL A   1      45.249  28.993  32.273  1.00  0.00    -0.354 N 
ATOM     59  N   UNL A   1      44.827  27.354  28.254  1.00  0.00    -0.248 NA
ATOM     60  C   UNL A   1      44.085  25.725  29.752  1.00  0.00     0.031 C 
ATOM     61  C   UNL A   1      45.008  31.013  31.499  1.00  0.00     0.029 A 
ATOM     62  C   UNL A   1      45.267  29.700  31.099  1.00  0.00     0.049 A 
ATOM     63  H   UNL A   1      45.787  28.198  32.490  1.00  0.00     0.167 HD
ATOM     64  C   UNL A   1      45.143  27.779  29.536  1.00  0.00     0.074 A 
ATOM     65  C   UNL A   1      44.756  26.675  30.409  1.00  0.00     0.031 C 
ATOM     66  C   UNL A   1      45.417  29.091  29.799  1.00  0.00     0.037 A 
BRANCH  53  67
ATOM     67  C   UNL A   1      43.769  27.757  34.786  1.00  0.00     0.064 A 
ATOM     68  C   UNL A   1      43.593  26.388  34.485  1.00  0.00     0.173 A 
ATOM     69  C   UNL A   1      44.042  28.048  36.138  1.00  0.00     0.173 A 
ATOM     70  F   UNL A   1      43.315  25.992  33.233  1.00  0.00    -0.203 F 
ATOM     71  C   UNL A   1      43.606  25.403  35.476  1.00  0.00     0.198 A 
ATOM     72  C   UNL A   1      44.111  27.056  37.116  1.00  0.00     0.198 A 
ATOM     73  F   UNL A   1      44.142  29.306  36.585  1.00  0.00    -0.203 F 
ATOM     74  F   UNL A   1      43.304  24.136  35.162  1.00  0.00    -0.200 F 
ATOM     75  C   UNL A   1      43.858  25.739  36.793  1.00  0.00     0.200 A 
ATOM     76  F   UNL A   1      44.343  27.402  38.390  1.00  0.00    -0.200 F 
ATOM     77  F   UNL A   1      43.809  24.809  37.755  1.00  0.00    -0.200 F 
ENDBRANCH  53  67
BRANCH  54  78
ATOM     78  C   UNL A   1      42.642  24.799  26.836  1.00  0.00     0.064 A 
ATOM     79  C   UNL A   1      43.360  24.535  25.660  1.00  0.00     0.173 A 
ATOM     80  C   UNL A   1      41.918  23.718  27.382  1.00  0.00     0.173 A 
ATOM     81  F   UNL A   1      44.110  25.495  25.099  1.00  0.00    -0.203 F 
ATOM     82  C   UNL A   1      43.366  23.265  25.074  1.00  0.00     0.198 A 
ATOM     83  C   UNL A   1      41.914  22.455  26.788  1.00  0.00     0.198 A 
ATOM     84  F   UNL A   1      41.267  23.839  28.547  1.00  0.00    -0.203 F 
ATOM     85  F   UNL A   1      44.111  23.038  23.983  1.00  0.00    -0.200 F 
ATOM     86  C   UNL A   1      42.649  22.225  25.641  1.00  0.00     0.200 A 
ATOM     87  F   UNL A   1      41.238  21.450  27.364  1.00  0.00    -0.200 F 
ATOM     88  F   UNL A   1      42.696  20.997  25.108  1.00  0.00    -0.200 F 
ENDBRANCH  54  78
BRANCH  66  89
ATOM     89  C   UNL A   1      45.612  30.025  28.637  1.00  0.00     0.064 A 
ATOM     90  C   UNL A   1      44.563  30.718  28.006  1.00  0.00     0.173 A 
ATOM     91  C   UNL A   1      46.917  30.358  28.255  1.00  0.00     0.173 A 
ATOM     92  F   UNL A   1      43.294  30.545  28.386  1.00  0.00    -0.203 F 
ATOM     93  C   UNL A   1      44.808  31.660  27.009  1.00  0.00     0.198 A 
ATOM     94  C   UNL A   1      47.162  31.327  27.285  1.00  0.00     0.198 A 
ATOM     95  F   UNL A   1      47.965  29.779  28.863  1.00  0.00    -0.203 F 
ATOM     96  F   UNL A   1      43.785  32.294  26.419  1.00  0.00    -0.200 F 
ATOM     97  C   UNL A   1      46.109  31.969  26.655  1.00  0.00     0.200 A 
ATOM     98  F   UNL A   1      48.425  31.663  26.981  1.00  0.00    -0.200 F 
ATOM     99  F   UNL A   1      46.347  32.907  25.727  1.00  0.00    -0.200 F 
ENDBRANCH  66  89
ENDBRANCH  40  41
ENDBRANCH  32  35
ENDBRANCH  30  31
ENDBRANCH  29  30
ENDBRANCH  28  29
ENDBRANCH  27  28
ENDBRANCH   1  27
TORSDOF 17
ENDMDL
MODEL 3
REMARK VINA RESULT:     -12.2      3.152      8.118
REMARK SMILES CCn1cc(S(=O)(=O)Nc2c(C)cc(C)cc2C(=O)NCCCCCCNC(=O)c2ccc(-c3c4nc(c(-c5c(F)c(F)c(F)c(F)c5F)c5ccc([nH]5)c(-c5c(F)c(F)c(F)c(F)c5F)c5nc(c(-c6c(F)c(F)c(F)c(F)c6F)c6ccc3[nH]6)C=C5)C=C4)cc2)cn1
REMARK SMILES IDX 22 1 21 2 20 3 18 4 19 5 17 7 10 8 11 9 12 10 13 11 16 12
REMARK SMILES IDX 14 13 15 14 9 15 6 17 7 18 8 19 5 20 3 21 4 22 94 23 93 24
REMARK SMILES IDX 2 25 1 26 23 27 24 28 25 29 26 30 27 31 28 32 29 34 30 35
REMARK SMILES IDX 31 36 92 37 32 38 91 39 33 40 34 41 35 42 85 43 36 44 90 45
REMARK SMILES IDX 84 46 86 47 37 48 89 49 83 50 82 51 38 53 70 54 50 55 69 56
REMARK SMILES IDX 51 57 54 58 68 59 87 60 52 61 53 62 67 64 88 65 55 66 39 67
REMARK SMILES IDX 40 68 48 69 41 70 42 71 46 72 49 73 43 74 44 75 47 76 45 77
REMARK SMILES IDX 71 78 72 79 80 80 73 81 74 82 78 83 81 84 75 85 76 86 79 87
REMARK SMILES IDX 77 88 56 89 57 90 65 91 58 92 59 93 63 94 66 95 60 96 61 97
REMARK SMILES IDX 64 98 62 99
REMARK H PARENT 20 6 9 16 27 33 86 52 54 63
REMARK Flexibility Score: inf
ROOT
ATOM      1  C   UNL A   1      36.412  23.122  24.866  1.00  0.00     0.021 C 
ENDROOT
BRANCH   1   2
ATOM      2  C   UNL A   1      35.208  23.891  24.343  1.00  0.00     0.116 C 
BRANCH   2   3
ATOM      3  N   UNL A   1      34.617  23.426  23.126  1.00  0.00    -0.352 N 
ATOM      4  C   UNL A   1      33.501  23.888  22.473  1.00  0.00     0.253 C 
ATOM      5  O   UNL A   1      33.254  23.344  21.391  1.00  0.00    -0.269 OA
ATOM      6  H   UNL A   1      35.075  22.668  22.696  1.00  0.00     0.163 HD
BRANCH   4   7
ATOM      7  C   UNL A   1      32.532  24.939  22.964  1.00  0.00     0.064 A 
ATOM      8  C   UNL A   1      31.373  24.803  23.776  1.00  0.00     0.065 A 
ATOM      9  C   UNL A   1      30.845  25.958  24.419  1.00  0.00    -0.026 A 
ATOM     10  C   UNL A   1      29.757  25.939  25.465  1.00  0.00     0.046 C 
ATOM     11  C   UNL A   1      31.335  27.237  24.087  1.00  0.00     0.009 A 
ATOM     12  C   UNL A   1      32.997  26.250  22.679  1.00  0.00     0.019 A 
ATOM     13  C   UNL A   1      32.402  27.395  23.211  1.00  0.00    -0.050 A 
ATOM     14  C   UNL A   1      32.923  28.768  22.901  1.00  0.00     0.044 C 
BRANCH   8  15
ATOM     15  N   UNL A   1      30.808  23.518  24.080  1.00  0.00    -0.278 N 
ATOM     16  H   UNL A   1      30.019  23.214  23.573  1.00  0.00     0.180 HD
BRANCH  15  17
ATOM     17  S   UNL A   1      31.451  22.497  25.287  1.00  0.00     0.265 S 
ATOM     18  O   UNL A   1      30.309  21.948  25.981  1.00  0.00    -0.201 OA
ATOM     19  O   UNL A   1      32.451  23.236  26.037  1.00  0.00    -0.201 OA
BRANCH  17  20
ATOM     20  C   UNL A   1      32.306  21.122  24.744  1.00  0.00     0.125 A 
ATOM     21  N   UNL A   1      32.934  19.264  23.785  1.00  0.00    -0.272 N 
ATOM     22  C   UNL A   1      32.250  20.430  23.553  1.00  0.00     0.131 A 
ATOM     23  N   UNL A   1      33.638  19.292  24.937  1.00  0.00    -0.180 NA
ATOM     24  C   UNL A   1      33.239  20.423  25.525  1.00  0.00     0.157 A 
BRANCH  21  25
ATOM     25  C   UNL A   1      32.739  17.987  23.121  1.00  0.00     0.141 C 
ATOM     26  C   UNL A   1      33.568  16.835  23.659  1.00  0.00     0.029 C 
ENDBRANCH  21  25
ENDBRANCH  17  20
ENDBRANCH  15  17
ENDBRANCH   8  15
ENDBRANCH   4   7
ENDBRANCH   2   3
ENDBRANCH   1   2
BRANCH   1  27
ATOM     27  C   UNL A   1      37.140  23.669  26.098  1.00  0.00     0.002 C 
BRANCH  27  28
ATOM     28  C   UNL A   1      38.609  23.303  26.355  1.00  0.00     0.002 C 
BRANCH  28  29
ATOM     29  C   UNL A   1      39.119  21.887  26.057  1.00  0.00     0.021 C 
BRANCH  29  30
ATOM     30  C   UNL A   1      40.433  21.489  26.706  1.00  0.00     0.116 C 
BRANCH  30  31
ATOM     31  N   UNL A   1      41.602  21.634  25.840  1.00  0.00    -0.352 N 
ATOM     32  C   UNL A   1      42.335  22.776  25.569  1.00  0.00     0.251 C 
ATOM     33  H   UNL A   1      41.908  20.813  25.391  1.00  0.00     0.163 HD
ATOM     34  O   UNL A   1      43.083  22.830  24.598  1.00  0.00    -0.269 OA
BRANCH  32  35
ATOM     35  C   UNL A   1      42.199  23.949  26.456  1.00  0.00     0.039 A 
ATOM     36  C   UNL A   1      42.699  23.946  27.764  1.00  0.00     0.014 A 
ATOM     37  C   UNL A   1      41.575  25.081  25.951  1.00  0.00     0.014 A 
ATOM     38  C   UNL A   1      42.634  25.118  28.523  1.00  0.00     0.010 A 
ATOM     39  C   UNL A   1      41.691  26.273  26.615  1.00  0.00     0.010 A 
ATOM     40  C   UNL A   1      42.138  26.287  27.934  1.00  0.00    -0.014 A 
BRANCH  40  41
ATOM     41  C   UNL A   1      42.085  27.558  28.653  1.00  0.00     0.031 A 
ATOM     42  C   UNL A   1      43.131  28.571  28.336  1.00  0.00     0.074 A 
ATOM     43  C   UNL A   1      40.984  27.908  29.356  1.00  0.00     0.049 A 
ATOM     44  N   UNL A   1      43.902  29.201  29.163  1.00  0.00    -0.248 NA
ATOM     45  C   UNL A   1      43.377  28.908  26.926  1.00  0.00     0.031 C 
ATOM     46  C   UNL A   1      39.732  27.156  29.520  1.00  0.00     0.029 A 
ATOM     47  N   UNL A   1      40.691  29.101  29.943  1.00  0.00    -0.354 N 
ATOM     48  C   UNL A   1      44.639  30.112  28.407  1.00  0.00     0.074 A 
ATOM     49  C   UNL A   1      44.357  29.808  27.027  1.00  0.00     0.031 C 
ATOM     50  C   UNL A   1      38.752  27.994  29.912  1.00  0.00     0.029 A 
ATOM     51  C   UNL A   1      39.340  29.288  30.196  1.00  0.00     0.049 A 
ATOM     52  H   UNL A   1      41.378  29.771  30.168  1.00  0.00     0.167 HD
ATOM     53  C   UNL A   1      45.287  31.165  28.984  1.00  0.00     0.037 A 
ATOM     54  C   UNL A   1      38.734  30.439  30.573  1.00  0.00     0.037 A 
ATOM     55  C   UNL A   1      45.425  30.982  30.405  1.00  0.00     0.049 A 
ATOM     56  C   UNL A   1      39.784  31.315  31.151  1.00  0.00     0.074 A 
ATOM     57  C   UNL A   1      46.026  30.027  31.204  1.00  0.00     0.029 A 
ATOM     58  N   UNL A   1      44.595  31.686  31.244  1.00  0.00    -0.354 N 
ATOM     59  N   UNL A   1      40.403  31.064  32.272  1.00  0.00    -0.248 NA
ATOM     60  C   UNL A   1      40.459  32.247  30.261  1.00  0.00     0.031 C 
ATOM     61  C   UNL A   1      45.150  29.878  32.319  1.00  0.00     0.029 A 
ATOM     62  C   UNL A   1      44.105  30.788  32.155  1.00  0.00     0.049 A 
ATOM     63  H   UNL A   1      44.392  32.649  31.197  1.00  0.00     0.167 HD
ATOM     64  C   UNL A   1      41.716  31.445  32.038  1.00  0.00     0.074 A 
ATOM     65  C   UNL A   1      41.666  32.267  30.833  1.00  0.00     0.031 C 
ATOM     66  C   UNL A   1      42.757  30.823  32.669  1.00  0.00     0.037 A 
BRANCH  53  67
ATOM     67  C   UNL A   1      45.536  32.504  28.332  1.00  0.00     0.064 A 
ATOM     68  C   UNL A   1      46.857  32.995  28.241  1.00  0.00     0.173 A 
ATOM     69  C   UNL A   1      44.521  33.445  28.067  1.00  0.00     0.173 A 
ATOM     70  F   UNL A   1      47.904  32.193  28.485  1.00  0.00    -0.203 F 
ATOM     71  C   UNL A   1      47.131  34.342  27.990  1.00  0.00     0.198 A 
ATOM     72  C   UNL A   1      44.800  34.778  27.761  1.00  0.00     0.198 A 
ATOM     73  F   UNL A   1      43.223  33.145  28.204  1.00  0.00    -0.203 F 
ATOM     74  F   UNL A   1      48.394  34.787  28.044  1.00  0.00    -0.200 F 
ATOM     75  C   UNL A   1      46.101  35.235  27.757  1.00  0.00     0.200 A 
ATOM     76  F   UNL A   1      43.788  35.631  27.550  1.00  0.00    -0.200 F 
ATOM     77  F   UNL A   1      46.356  36.537  27.579  1.00  0.00    -0.200 F 
ENDBRANCH  53  67
BRANCH  54  78
ATOM     78  C   UNL A   1      37.359  30.894  30.268  1.00  0.00     0.064 A 
ATOM     79  C   UNL A   1      36.510  31.364  31.281  1.00  0.00     0.173 A 
ATOM     80  C   UNL A   1      36.925  31.102  28.942  1.00  0.00     0.173 A 
ATOM     81  F   UNL A   1      36.867  31.247  32.568  1.00  0.00    -0.203 F 
ATOM     82  C   UNL A   1      35.309  32.018  30.986  1.00  0.00     0.198 A 
ATOM     83  C   UNL A   1      35.719  31.742  28.650  1.00  0.00     0.198 A 
ATOM     84  F   UNL A   1      37.697  30.766  27.900  1.00  0.00    -0.203 F 
ATOM     85  F   UNL A   1      34.553  32.505  31.981  1.00  0.00    -0.200 F 
ATOM     86  C   UNL A   1      34.917  32.212  29.672  1.00  0.00     0.200 A 
ATOM     87  F   UNL A   1      35.366  31.947  27.373  1.00  0.00    -0.200 F 
ATOM     88  F   UNL A   1      33.792  32.882  29.389  1.00  0.00    -0.200 F 
ENDBRANCH  54  78
BRANCH  66  89
ATOM     89  C   UNL A   1      42.444  29.888  33.804  1.00  0.00     0.064 A 
ATOM     90  C   UNL A   1      42.101  28.535  33.631  1.00  0.00     0.173 A 
ATOM     91  C   UNL A   1      42.659  30.328  35.116  1.00  0.00     0.173 A 
ATOM     92  F   UNL A   1      41.987  28.002  32.411  1.00  0.00    -0.203 F 
ATOM     93  C   UNL A   1      41.934  27.680  34.718  1.00  0.00     0.198 A 
ATOM     94  C   UNL A   1      42.528  29.463  36.200  1.00  0.00     0.198 A 
ATOM     95  F   UNL A   1      43.050  31.592  35.346  1.00  0.00    -0.203 F 
ATOM     96  F   UNL A   1      41.595  26.398  34.519  1.00  0.00    -0.200 F 
ATOM     97  C   UNL A   1      42.156  28.144  36.002  1.00  0.00     0.200 A 
ATOM     98  F   UNL A   1      42.795  29.902  37.439  1.00  0.00    -0.200 F 
ATOM     99  F   UNL A   1      42.038  27.312  37.047  1.00  0.00    -0.200 F 
ENDBRANCH  66  89
ENDBRANCH  40  41
ENDBRANCH  32  35
ENDBRANCH  30  31
ENDBRANCH  29  30
ENDBRANCH  28  29
ENDBRANCH  27  28
ENDBRANCH   1  27
TORSDOF 17
ENDMDL
