MODEL 1
REMARK VINA RESULT:     -11.6      0.000      0.000
REMARK SMILES CSc1ncc(Cl)c(C(=O)Nc2ccsc2C(=O)NCCCCCCNC(=O)c2ccc(-c3c4nc(c(-c5c(F)c(F)c(F)c(F)c5F)c5ccc([nH]5)c(-c5c(F)c(F)c(F)c(F)c5F)c5nc(c(-c6c(F)c(F)c(F)c(F)c6F)c6ccc3[nH]6)C=C5)C=C4)cc2)n1
REMARK SMILES IDX 22 1 21 2 20 3 19 4 17 5 18 6 16 8 12 9 13 10 14 11 15 12
REMARK SMILES IDX 11 13 9 14 10 15 8 17 3 18 4 19 92 20 5 21 6 22 7 23 2 24
REMARK SMILES IDX 1 25 23 26 24 27 25 28 26 29 27 30 28 32 29 33 30 34 91 35
REMARK SMILES IDX 31 36 90 37 32 38 33 39 34 40 84 41 35 42 89 43 83 44 85 45
REMARK SMILES IDX 36 46 88 47 82 48 81 49 37 51 69 52 49 53 68 54 50 55 53 56
REMARK SMILES IDX 67 57 86 58 51 59 52 60 66 62 87 63 54 64 38 65 39 66 47 67
REMARK SMILES IDX 40 68 41 69 45 70 48 71 42 72 43 73 46 74 44 75 70 76 71 77
REMARK SMILES IDX 79 78 72 79 73 80 77 81 80 82 74 83 75 84 78 85 76 86 55 87
REMARK SMILES IDX 56 88 64 89 57 90 58 91 62 92 65 93 59 94 60 95 63 96 61 97
REMARK H PARENT 19 7 11 16 26 31 85 50 53 61
REMARK Flexibility Score: inf
ROOT
ATOM      1  C   UNL A   1      33.587  30.271  27.131  1.00  0.00     0.002 C 
ENDROOT
BRANCH   1   2
ATOM      2  C   UNL A   1      34.068  28.826  27.256  1.00  0.00     0.021 C 
BRANCH   2   3
ATOM      3  C   UNL A   1      33.782  27.896  26.084  1.00  0.00     0.116 C 
BRANCH   3   4
ATOM      4  N   UNL A   1      34.252  28.317  24.788  1.00  0.00    -0.351 N 
ATOM      5  C   UNL A   1      33.605  28.483  23.578  1.00  0.00     0.263 C 
ATOM      6  O   UNL A   1      34.345  28.918  22.685  1.00  0.00    -0.268 OA
ATOM      7  H   UNL A   1      35.214  28.526  24.761  1.00  0.00     0.163 HD
BRANCH   5   8
ATOM      8  C   UNL A   1      32.193  28.142  23.329  1.00  0.00     0.115 A 
ATOM      9  C   UNL A   1      31.489  27.433  22.355  1.00  0.00     0.065 A 
ATOM     10  C   UNL A   1      30.071  27.479  22.537  1.00  0.00     0.038 A 
ATOM     11  C   UNL A   1      29.709  28.206  23.643  1.00  0.00     0.068 A 
ATOM     12  S   UNL A   1      31.064  28.822  24.467  1.00  0.00    -0.137 S 
BRANCH   9  13
ATOM     13  N   UNL A   1      32.091  26.725  21.341  1.00  0.00    -0.319 N 
ATOM     14  C   UNL A   1      32.788  25.534  21.374  1.00  0.00     0.276 C 
ATOM     15  O   UNL A   1      33.154  25.089  20.280  1.00  0.00    -0.267 OA
ATOM     16  H   UNL A   1      32.013  27.134  20.448  1.00  0.00     0.170 HD
BRANCH  14  17
ATOM     17  C   UNL A   1      33.055  24.712  22.603  1.00  0.00     0.151 A 
ATOM     18  C   UNL A   1      34.768  23.626  23.720  1.00  0.00     0.188 A 
ATOM     19  N   UNL A   1      33.940  23.146  24.654  1.00  0.00    -0.230 NA
ATOM     20  N   UNL A   1      34.386  24.445  22.735  1.00  0.00    -0.216 NA
ATOM     21  C   UNL A   1      32.632  23.413  24.489  1.00  0.00     0.137 A 
ATOM     22  C   UNL A   1      32.112  24.134  23.435  1.00  0.00     0.090 A 
ATOM     23  Cl  UNL A   1      30.413  24.048  23.226  1.00  0.00    -0.080 Cl
BRANCH  18  24
ATOM     24  S   UNL A   1      36.437  23.032  23.669  1.00  0.00    -0.090 SA
ATOM     25  C   UNL A   1      36.675  22.583  25.408  1.00  0.00     0.094 C 
ENDBRANCH  18  24
ENDBRANCH  14  17
ENDBRANCH   9  13
ENDBRANCH   5   8
ENDBRANCH   3   4
ENDBRANCH   2   3
ENDBRANCH   1   2
BRANCH   1  26
ATOM     26  C   UNL A   1      32.077  30.517  27.118  1.00  0.00     0.002 C 
BRANCH  26  27
ATOM     27  C   UNL A   1      31.588  31.956  26.931  1.00  0.00     0.021 C 
BRANCH  27  28
ATOM     28  C   UNL A   1      32.653  33.034  26.760  1.00  0.00     0.116 C 
BRANCH  28  29
ATOM     29  N   UNL A   1      32.392  34.231  27.536  1.00  0.00    -0.352 N 
ATOM     30  C   UNL A   1      33.030  34.728  28.643  1.00  0.00     0.251 C 
ATOM     31  H   UNL A   1      31.637  34.774  27.216  1.00  0.00     0.163 HD
ATOM     32  O   UNL A   1      32.573  35.731  29.197  1.00  0.00    -0.269 OA
BRANCH  30  33
ATOM     33  C   UNL A   1      34.238  34.080  29.208  1.00  0.00     0.039 A 
ATOM     34  C   UNL A   1      34.059  33.042  30.130  1.00  0.00     0.014 A 
ATOM     35  C   UNL A   1      35.533  34.507  28.898  1.00  0.00     0.014 A 
ATOM     36  C   UNL A   1      35.166  32.413  30.707  1.00  0.00     0.010 A 
ATOM     37  C   UNL A   1      36.639  33.832  29.420  1.00  0.00     0.010 A 
ATOM     38  C   UNL A   1      36.468  32.790  30.343  1.00  0.00    -0.014 A 
BRANCH  38  39
ATOM     39  C   UNL A   1      37.648  32.118  30.949  1.00  0.00     0.031 A 
ATOM     40  C   UNL A   1      38.106  32.486  32.334  1.00  0.00     0.074 A 
ATOM     41  C   UNL A   1      38.325  31.190  30.245  1.00  0.00     0.049 A 
ATOM     42  N   UNL A   1      39.108  32.009  33.031  1.00  0.00    -0.248 NA
ATOM     43  C   UNL A   1      37.355  33.548  33.020  1.00  0.00     0.031 C 
ATOM     44  C   UNL A   1      38.016  30.779  28.874  1.00  0.00     0.029 A 
ATOM     45  N   UNL A   1      39.414  30.425  30.584  1.00  0.00    -0.354 N 
ATOM     46  C   UNL A   1      39.113  32.717  34.226  1.00  0.00     0.074 A 
ATOM     47  C   UNL A   1      38.048  33.694  34.139  1.00  0.00     0.031 C 
ATOM     48  C   UNL A   1      38.877  29.818  28.500  1.00  0.00     0.029 A 
ATOM     49  C   UNL A   1      39.813  29.564  29.591  1.00  0.00     0.049 A 
ATOM     50  H   UNL A   1      39.866  30.489  31.456  1.00  0.00     0.167 HD
ATOM     51  C   UNL A   1      39.912  32.553  35.307  1.00  0.00     0.037 A 
ATOM     52  C   UNL A   1      40.816  28.666  29.567  1.00  0.00     0.037 A 
ATOM     53  C   UNL A   1      40.955  31.566  35.404  1.00  0.00     0.049 A 
ATOM     54  C   UNL A   1      41.678  28.490  30.789  1.00  0.00     0.074 A 
ATOM     55  C   UNL A   1      41.783  31.285  36.479  1.00  0.00     0.029 A 
ATOM     56  N   UNL A   1      41.314  30.695  34.387  1.00  0.00    -0.354 N 
ATOM     57  N   UNL A   1      41.623  29.115  31.939  1.00  0.00    -0.248 NA
ATOM     58  C   UNL A   1      42.733  27.471  30.710  1.00  0.00     0.031 C 
ATOM     59  C   UNL A   1      42.668  30.271  36.096  1.00  0.00     0.029 A 
ATOM     60  C   UNL A   1      42.361  29.887  34.801  1.00  0.00     0.049 A 
ATOM     61  H   UNL A   1      40.887  30.658  33.499  1.00  0.00     0.167 HD
ATOM     62  C   UNL A   1      42.613  28.549  32.729  1.00  0.00     0.074 A 
ATOM     63  C   UNL A   1      43.242  27.515  31.933  1.00  0.00     0.031 C 
ATOM     64  C   UNL A   1      42.972  28.858  34.000  1.00  0.00     0.037 A 
BRANCH  51  65
ATOM     65  C   UNL A   1      39.684  33.463  36.481  1.00  0.00     0.064 A 
ATOM     66  C   UNL A   1      38.824  33.105  37.531  1.00  0.00     0.173 A 
ATOM     67  C   UNL A   1      40.352  34.692  36.573  1.00  0.00     0.173 A 
ATOM     68  F   UNL A   1      38.151  31.945  37.487  1.00  0.00    -0.203 F 
ATOM     69  C   UNL A   1      38.619  33.957  38.613  1.00  0.00     0.198 A 
ATOM     70  C   UNL A   1      40.168  35.529  37.671  1.00  0.00     0.198 A 
ATOM     71  F   UNL A   1      41.191  35.081  35.601  1.00  0.00    -0.203 F 
ATOM     72  F   UNL A   1      37.753  33.616  39.578  1.00  0.00    -0.200 F 
ATOM     73  C   UNL A   1      39.295  35.165  38.685  1.00  0.00     0.200 A 
ATOM     74  F   UNL A   1      40.832  36.691  37.746  1.00  0.00    -0.200 F 
ATOM     75  F   UNL A   1      39.101  35.982  39.729  1.00  0.00    -0.200 F 
ENDBRANCH  51  65
BRANCH  52  76
ATOM     76  C   UNL A   1      41.035  27.830  28.358  1.00  0.00     0.064 A 
ATOM     77  C   UNL A   1      41.864  28.273  27.319  1.00  0.00     0.173 A 
ATOM     78  C   UNL A   1      40.414  26.582  28.213  1.00  0.00     0.173 A 
ATOM     79  F   UNL A   1      42.462  29.470  27.403  1.00  0.00    -0.203 F 
ATOM     80  C   UNL A   1      42.048  27.508  26.168  1.00  0.00     0.198 A 
ATOM     81  C   UNL A   1      40.620  25.806  27.074  1.00  0.00     0.198 A 
ATOM     82  F   UNL A   1      39.613  26.112  29.180  1.00  0.00    -0.203 F 
ATOM     83  F   UNL A   1      42.808  27.977  25.169  1.00  0.00    -0.200 F 
ATOM     84  C   UNL A   1      41.429  26.273  26.049  1.00  0.00     0.200 A 
ATOM     85  F   UNL A   1      40.031  24.607  26.967  1.00  0.00    -0.200 F 
ATOM     86  F   UNL A   1      41.607  25.537  24.944  1.00  0.00    -0.200 F 
ENDBRANCH  52  76
BRANCH  64  87
ATOM     87  C   UNL A   1      44.072  28.043  34.618  1.00  0.00     0.064 A 
ATOM     88  C   UNL A   1      45.416  28.434  34.529  1.00  0.00     0.173 A 
ATOM     89  C   UNL A   1      43.774  26.868  35.323  1.00  0.00     0.173 A 
ATOM     90  F   UNL A   1      45.754  29.542  33.853  1.00  0.00    -0.203 F 
ATOM     91  C   UNL A   1      46.425  27.658  35.094  1.00  0.00     0.198 A 
ATOM     92  C   UNL A   1      44.783  26.111  35.914  1.00  0.00     0.198 A 
ATOM     93  F   UNL A   1      42.503  26.455  35.444  1.00  0.00    -0.203 F 
ATOM     94  F   UNL A   1      47.707  28.021  34.950  1.00  0.00    -0.200 F 
ATOM     95  C   UNL A   1      46.107  26.502  35.791  1.00  0.00     0.200 A 
ATOM     96  F   UNL A   1      44.472  25.000  36.596  1.00  0.00    -0.200 F 
ATOM     97  F   UNL A   1      47.080  25.756  36.334  1.00  0.00    -0.200 F 
ENDBRANCH  64  87
ENDBRANCH  38  39
ENDBRANCH  30  33
ENDBRANCH  28  29
ENDBRANCH  27  28
ENDBRANCH  26  27
ENDBRANCH   1  26
TORSDOF 16
ENDMDL
MODEL 2
REMARK VINA RESULT:     -11.4      1.260      2.443
REMARK SMILES CSc1ncc(Cl)c(C(=O)Nc2ccsc2C(=O)NCCCCCCNC(=O)c2ccc(-c3c4nc(c(-c5c(F)c(F)c(F)c(F)c5F)c5ccc([nH]5)c(-c5c(F)c(F)c(F)c(F)c5F)c5nc(c(-c6c(F)c(F)c(F)c(F)c6F)c6ccc3[nH]6)C=C5)C=C4)cc2)n1
REMARK SMILES IDX 22 1 21 2 20 3 19 4 17 5 18 6 16 8 12 9 13 10 14 11 15 12
REMARK SMILES IDX 11 13 9 14 10 15 8 17 3 18 4 19 92 20 5 21 6 22 7 23 2 24
REMARK SMILES IDX 1 25 23 26 24 27 25 28 26 29 27 30 28 32 29 33 30 34 91 35
REMARK SMILES IDX 31 36 90 37 32 38 33 39 34 40 84 41 35 42 89 43 83 44 85 45
REMARK SMILES IDX 36 46 88 47 82 48 81 49 37 51 69 52 49 53 68 54 50 55 53 56
REMARK SMILES IDX 67 57 86 58 51 59 52 60 66 62 87 63 54 64 38 65 39 66 47 67
REMARK SMILES IDX 40 68 41 69 45 70 48 71 42 72 43 73 46 74 44 75 70 76 71 77
REMARK SMILES IDX 79 78 72 79 73 80 77 81 80 82 74 83 75 84 78 85 76 86 55 87
REMARK SMILES IDX 56 88 64 89 57 90 58 91 62 92 65 93 59 94 60 95 63 96 61 97
REMARK H PARENT 19 7 11 16 26 31 85 50 53 61
REMARK Flexibility Score: inf
ROOT
ATOM      1  C   UNL A   1      32.154  29.463  27.224  1.00  0.00     0.002 C 
ENDROOT
BRANCH   1   2
ATOM      2  C   UNL A   1      31.510  28.117  27.554  1.00  0.00     0.021 C 
BRANCH   2   3
ATOM      3  C   UNL A   1      31.702  26.992  26.546  1.00  0.00     0.116 C 
BRANCH   3   4
ATOM      4  N   UNL A   1      30.563  26.643  25.734  1.00  0.00    -0.351 N 
ATOM      5  C   UNL A   1      30.433  26.392  24.381  1.00  0.00     0.263 C 
ATOM      6  O   UNL A   1      29.284  26.065  24.054  1.00  0.00    -0.268 OA
ATOM      7  H   UNL A   1      29.721  26.569  26.238  1.00  0.00     0.163 HD
BRANCH   5   8
ATOM      8  C   UNL A   1      31.519  26.536  23.393  1.00  0.00     0.115 A 
ATOM      9  C   UNL A   1      32.223  25.681  22.546  1.00  0.00     0.065 A 
ATOM     10  C   UNL A   1      33.278  26.335  21.834  1.00  0.00     0.038 A 
ATOM     11  C   UNL A   1      33.361  27.671  22.134  1.00  0.00     0.068 A 
ATOM     12  S   UNL A   1      32.173  28.143  23.256  1.00  0.00    -0.137 S 
BRANCH   9  13
ATOM     13  N   UNL A   1      31.916  24.351  22.375  1.00  0.00    -0.319 N 
ATOM     14  C   UNL A   1      32.131  23.271  23.207  1.00  0.00     0.276 C 
ATOM     15  O   UNL A   1      31.673  22.189  22.822  1.00  0.00    -0.267 OA
ATOM     16  H   UNL A   1      31.473  24.134  21.523  1.00  0.00     0.170 HD
BRANCH  14  17
ATOM     17  C   UNL A   1      32.790  23.325  24.557  1.00  0.00     0.151 A 
ATOM     18  C   UNL A   1      34.880  23.350  25.553  1.00  0.00     0.188 A 
ATOM     19  N   UNL A   1      34.363  23.333  26.786  1.00  0.00    -0.230 NA
ATOM     20  N   UNL A   1      34.146  23.408  24.437  1.00  0.00    -0.216 NA
ATOM     21  C   UNL A   1      33.024  23.236  26.872  1.00  0.00     0.137 A 
ATOM     22  C   UNL A   1      32.179  23.152  25.786  1.00  0.00     0.090 A 
ATOM     23  Cl  UNL A   1      30.566  22.675  26.119  1.00  0.00    -0.080 Cl
BRANCH  18  24
ATOM     24  S   UNL A   1      36.627  23.123  25.355  1.00  0.00    -0.090 SA
ATOM     25  C   UNL A   1      36.694  22.634  23.612  1.00  0.00     0.094 C 
ENDBRANCH  18  24
ENDBRANCH  14  17
ENDBRANCH   9  13
ENDBRANCH   5   8
ENDBRANCH   3   4
ENDBRANCH   2   3
ENDBRANCH   1   2
BRANCH   1  26
ATOM     26  C   UNL A   1      31.428  30.370  26.227  1.00  0.00     0.002 C 
BRANCH  26  27
ATOM     27  C   UNL A   1      31.379  31.870  26.530  1.00  0.00     0.021 C 
BRANCH  27  28
ATOM     28  C   UNL A   1      32.698  32.553  26.875  1.00  0.00     0.116 C 
BRANCH  28  29
ATOM     29  N   UNL A   1      32.530  33.837  27.528  1.00  0.00    -0.352 N 
ATOM     30  C   UNL A   1      33.241  34.416  28.547  1.00  0.00     0.251 C 
ATOM     31  H   UNL A   1      31.786  34.381  27.183  1.00  0.00     0.163 HD
ATOM     32  O   UNL A   1      32.857  35.494  29.008  1.00  0.00    -0.269 OA
BRANCH  30  33
ATOM     33  C   UNL A   1      34.443  33.771  29.128  1.00  0.00     0.039 A 
ATOM     34  C   UNL A   1      34.256  32.703  30.014  1.00  0.00     0.014 A 
ATOM     35  C   UNL A   1      35.739  34.226  28.867  1.00  0.00     0.014 A 
ATOM     36  C   UNL A   1      35.355  32.075  30.605  1.00  0.00     0.010 A 
ATOM     37  C   UNL A   1      36.841  33.554  29.402  1.00  0.00     0.010 A 
ATOM     38  C   UNL A   1      36.661  32.483  30.289  1.00  0.00    -0.014 A 
BRANCH  38  39
ATOM     39  C   UNL A   1      37.835  31.813  30.910  1.00  0.00     0.031 A 
ATOM     40  C   UNL A   1      38.269  32.174  32.304  1.00  0.00     0.074 A 
ATOM     41  C   UNL A   1      38.526  30.892  30.211  1.00  0.00     0.049 A 
ATOM     42  N   UNL A   1      39.263  31.697  33.014  1.00  0.00    -0.248 NA
ATOM     43  C   UNL A   1      37.503  33.228  32.984  1.00  0.00     0.031 C 
ATOM     44  C   UNL A   1      38.241  30.488  28.833  1.00  0.00     0.029 A 
ATOM     45  N   UNL A   1      39.614  30.129  30.562  1.00  0.00    -0.354 N 
ATOM     46  C   UNL A   1      39.245  32.398  34.212  1.00  0.00     0.074 A 
ATOM     47  C   UNL A   1      38.178  33.370  34.115  1.00  0.00     0.031 C 
ATOM     48  C   UNL A   1      39.112  29.533  28.466  1.00  0.00     0.029 A 
ATOM     49  C   UNL A   1      40.031  29.276  29.570  1.00  0.00     0.049 A 
ATOM     50  H   UNL A   1      40.052  30.189  31.442  1.00  0.00     0.167 HD
ATOM     51  C   UNL A   1      40.028  32.231  35.305  1.00  0.00     0.037 A 
ATOM     52  C   UNL A   1      41.039  28.383  29.557  1.00  0.00     0.037 A 
ATOM     53  C   UNL A   1      41.074  31.247  35.413  1.00  0.00     0.049 A 
ATOM     54  C   UNL A   1      41.882  28.203  30.791  1.00  0.00     0.074 A 
ATOM     55  C   UNL A   1      41.886  30.963  36.499  1.00  0.00     0.029 A 
ATOM     56  N   UNL A   1      41.452  30.385  34.396  1.00  0.00    -0.354 N 
ATOM     57  N   UNL A   1      41.806  28.821  31.944  1.00  0.00    -0.248 NA
ATOM     58  C   UNL A   1      42.943  27.188  30.723  1.00  0.00     0.031 C 
ATOM     59  C   UNL A   1      42.781  29.955  36.124  1.00  0.00     0.029 A 
ATOM     60  C   UNL A   1      42.496  29.578  34.822  1.00  0.00     0.049 A 
ATOM     61  H   UNL A   1      41.040  30.350  33.502  1.00  0.00     0.167 HD
ATOM     62  C   UNL A   1      42.787  28.254  32.745  1.00  0.00     0.074 A 
ATOM     63  C   UNL A   1      43.432  27.228  31.953  1.00  0.00     0.031 C 
ATOM     64  C   UNL A   1      43.124  28.556  34.024  1.00  0.00     0.037 A 
BRANCH  51  65
ATOM     65  C   UNL A   1      39.777  33.132  36.481  1.00  0.00     0.064 A 
ATOM     66  C   UNL A   1      40.460  34.349  36.632  1.00  0.00     0.173 A 
ATOM     67  C   UNL A   1      38.824  32.792  37.451  1.00  0.00     0.173 A 
ATOM     68  F   UNL A   1      41.391  34.717  35.739  1.00  0.00    -0.203 F 
ATOM     69  C   UNL A   1      40.221  35.175  37.727  1.00  0.00     0.198 A 
ATOM     70  C   UNL A   1      38.564  33.635  38.529  1.00  0.00     0.198 A 
ATOM     71  F   UNL A   1      38.136  31.644  37.352  1.00  0.00    -0.203 F 
ATOM     72  F   UNL A   1      40.923  36.307  37.878  1.00  0.00    -0.200 F 
ATOM     73  C   UNL A   1      39.269  34.821  38.671  1.00  0.00     0.200 A 
ATOM     74  F   UNL A   1      37.635  33.298  39.434  1.00  0.00    -0.200 F 
ATOM     75  F   UNL A   1      39.036  35.619  39.722  1.00  0.00    -0.200 F 
ENDBRANCH  51  65
BRANCH  52  76
ATOM     76  C   UNL A   1      41.280  27.555  28.347  1.00  0.00     0.064 A 
ATOM     77  C   UNL A   1      40.589  26.350  28.151  1.00  0.00     0.173 A 
ATOM     78  C   UNL A   1      42.207  27.943  27.370  1.00  0.00     0.173 A 
ATOM     79  F   UNL A   1      39.708  25.927  29.069  1.00  0.00    -0.203 F 
ATOM     80  C   UNL A   1      40.834  25.554  27.034  1.00  0.00     0.198 A 
ATOM     81  C   UNL A   1      42.431  27.158  26.240  1.00  0.00     0.198 A 
ATOM     82  F   UNL A   1      42.891  29.088  27.509  1.00  0.00    -0.203 F 
ATOM     83  F   UNL A   1      40.195  24.383  26.896  1.00  0.00    -0.200 F 
ATOM     84  C   UNL A   1      41.751  25.961  26.077  1.00  0.00     0.200 A 
ATOM     85  F   UNL A   1      43.309  27.561  25.311  1.00  0.00    -0.200 F 
ATOM     86  F   UNL A   1      41.985  25.195  25.003  1.00  0.00    -0.200 F 
ENDBRANCH  52  76
BRANCH  64  87
ATOM     87  C   UNL A   1      44.217  27.743  34.654  1.00  0.00     0.064 A 
ATOM     88  C   UNL A   1      43.948  26.540  35.323  1.00  0.00     0.173 A 
ATOM     89  C   UNL A   1      45.553  28.164  34.573  1.00  0.00     0.173 A 
ATOM     90  F   UNL A   1      42.686  26.101  35.441  1.00  0.00    -0.203 F 
ATOM     91  C   UNL A   1      44.972  25.806  35.916  1.00  0.00     0.198 A 
ATOM     92  C   UNL A   1      46.578  27.412  35.140  1.00  0.00     0.198 A 
ATOM     93  F   UNL A   1      45.865  29.304  33.937  1.00  0.00    -0.203 F 
ATOM     94  F   UNL A   1      44.685  24.688  36.597  1.00  0.00    -0.200 F 
ATOM     95  C   UNL A   1      46.286  26.239  35.819  1.00  0.00     0.200 A 
ATOM     96  F   UNL A   1      47.848  27.827  35.035  1.00  0.00    -0.200 F 
ATOM     97  F   UNL A   1      47.270  25.532  36.391  1.00  0.00    -0.200 F 
ENDBRANCH  64  87
ENDBRANCH  38  39
ENDBRANCH  30  33
ENDBRANCH  28  29
ENDBRANCH  27  28
ENDBRANCH  26  27
ENDBRANCH   1  26
TORSDOF 16
ENDMDL
MODEL 3
REMARK VINA RESULT:     -11.4      1.329      3.055
REMARK SMILES CSc1ncc(Cl)c(C(=O)Nc2ccsc2C(=O)NCCCCCCNC(=O)c2ccc(-c3c4nc(c(-c5c(F)c(F)c(F)c(F)c5F)c5ccc([nH]5)c(-c5c(F)c(F)c(F)c(F)c5F)c5nc(c(-c6c(F)c(F)c(F)c(F)c6F)c6ccc3[nH]6)C=C5)C=C4)cc2)n1
REMARK SMILES IDX 22 1 21 2 20 3 19 4 17 5 18 6 16 8 12 9 13 10 14 11 15 12
REMARK SMILES IDX 11 13 9 14 10 15 8 17 3 18 4 19 92 20 5 21 6 22 7 23 2 24
REMARK SMILES IDX 1 25 23 26 24 27 25 28 26 29 27 30 28 32 29 33 30 34 91 35
REMARK SMILES IDX 31 36 90 37 32 38 33 39 34 40 84 41 35 42 89 43 83 44 85 45
REMARK SMILES IDX 36 46 88 47 82 48 81 49 37 51 69 52 49 53 68 54 50 55 53 56
REMARK SMILES IDX 67 57 86 58 51 59 52 60 66 62 87 63 54 64 38 65 39 66 47 67
REMARK SMILES IDX 40 68 41 69 45 70 48 71 42 72 43 73 46 74 44 75 70 76 71 77
REMARK SMILES IDX 79 78 72 79 73 80 77 81 80 82 74 83 75 84 78 85 76 86 55 87
REMARK SMILES IDX 56 88 64 89 57 90 58 91 62 92 65 93 59 94 60 95 63 96 61 97
REMARK H PARENT 19 7 11 16 26 31 85 50 53 61
REMARK Flexibility Score: inf
ROOT
ATOM      1  C   UNL A   1      33.154  29.570  27.592  1.00  0.00     0.002 C 
ENDROOT
BRANCH   1   2
ATOM      2  C   UNL A   1      34.078  28.572  26.895  1.00  0.00     0.021 C 
BRANCH   2   3
ATOM      3  C   UNL A   1      33.417  27.419  26.152  1.00  0.00     0.116 C 
BRANCH   3   4
ATOM      4  N   UNL A   1      34.292  26.482  25.493  1.00  0.00    -0.351 N 
ATOM      5  C   UNL A   1      34.053  25.267  24.878  1.00  0.00     0.263 C 
ATOM      6  O   UNL A   1      35.067  24.770  24.369  1.00  0.00    -0.268 OA
ATOM      7  H   UNL A   1      35.236  26.760  25.477  1.00  0.00     0.163 HD
BRANCH   5   8
ATOM      8  C   UNL A   1      32.748  24.582  24.855  1.00  0.00     0.115 A 
ATOM      9  C   UNL A   1      31.773  24.313  23.895  1.00  0.00     0.065 A 
ATOM     10  C   UNL A   1      30.612  23.673  24.432  1.00  0.00     0.038 A 
ATOM     11  C   UNL A   1      30.715  23.451  25.783  1.00  0.00     0.068 A 
ATOM     12  S   UNL A   1      32.201  23.998  26.402  1.00  0.00    -0.137 S 
BRANCH   9  13
ATOM     13  N   UNL A   1      31.920  24.596  22.557  1.00  0.00    -0.319 N 
ATOM     14  C   UNL A   1      31.815  25.795  21.880  1.00  0.00     0.276 C 
ATOM     15  O   UNL A   1      32.081  25.762  20.673  1.00  0.00    -0.267 OA
ATOM     16  H   UNL A   1      32.135  23.819  21.990  1.00  0.00     0.170 HD
BRANCH  14  17
ATOM     17  C   UNL A   1      31.494  27.124  22.503  1.00  0.00     0.151 A 
ATOM     18  C   UNL A   1      29.700  28.487  23.040  1.00  0.00     0.188 A 
ATOM     19  N   UNL A   1      30.495  29.466  23.485  1.00  0.00    -0.230 NA
ATOM     20  N   UNL A   1      30.146  27.302  22.609  1.00  0.00    -0.216 NA
ATOM     21  C   UNL A   1      31.820  29.267  23.353  1.00  0.00     0.137 A 
ATOM     22  C   UNL A   1      32.386  28.140  22.798  1.00  0.00     0.090 A 
ATOM     23  Cl  UNL A   1      34.050  28.248  22.400  1.00  0.00    -0.080 Cl
BRANCH  18  24
ATOM     24  S   UNL A   1      27.967  28.810  22.854  1.00  0.00    -0.090 SA
ATOM     25  C   UNL A   1      28.023  30.246  21.751  1.00  0.00     0.094 C 
ENDBRANCH  18  24
ENDBRANCH  14  17
ENDBRANCH   9  13
ENDBRANCH   5   8
ENDBRANCH   3   4
ENDBRANCH   2   3
ENDBRANCH   1   2
BRANCH   1  26
ATOM     26  C   UNL A   1      31.850  29.943  26.884  1.00  0.00     0.002 C 
BRANCH  26  27
ATOM     27  C   UNL A   1      31.518  31.430  26.731  1.00  0.00     0.021 C 
BRANCH  27  28
ATOM     28  C   UNL A   1      32.693  32.399  26.653  1.00  0.00     0.116 C 
BRANCH  28  29
ATOM     29  N   UNL A   1      32.442  33.665  27.315  1.00  0.00    -0.352 N 
ATOM     30  C   UNL A   1      33.100  34.270  28.354  1.00  0.00     0.251 C 
ATOM     31  H   UNL A   1      31.676  34.171  26.961  1.00  0.00     0.163 HD
ATOM     32  O   UNL A   1      32.650  35.320  28.818  1.00  0.00    -0.269 OA
BRANCH  30  33
ATOM     33  C   UNL A   1      34.325  33.685  28.952  1.00  0.00     0.039 A 
ATOM     34  C   UNL A   1      34.187  32.547  29.757  1.00  0.00     0.014 A 
ATOM     35  C   UNL A   1      35.589  34.259  28.787  1.00  0.00     0.014 A 
ATOM     36  C   UNL A   1      35.307  31.970  30.360  1.00  0.00     0.010 A 
ATOM     37  C   UNL A   1      36.717  33.642  29.332  1.00  0.00     0.010 A 
ATOM     38  C   UNL A   1      36.588  32.502  30.138  1.00  0.00    -0.014 A 
BRANCH  38  39
ATOM     39  C   UNL A   1      37.783  31.886  30.773  1.00  0.00     0.031 A 
ATOM     40  C   UNL A   1      38.208  32.297  32.156  1.00  0.00     0.074 A 
ATOM     41  C   UNL A   1      38.504  30.971  30.095  1.00  0.00     0.049 A 
ATOM     42  N   UNL A   1      39.217  31.871  32.876  1.00  0.00    -0.248 NA
ATOM     43  C   UNL A   1      37.408  33.342  32.812  1.00  0.00     0.031 C 
ATOM     44  C   UNL A   1      38.230  30.524  28.729  1.00  0.00     0.029 A 
ATOM     45  N   UNL A   1      39.616  30.254  30.463  1.00  0.00    -0.354 N 
ATOM     46  C   UNL A   1      39.178  32.601  34.056  1.00  0.00     0.074 A 
ATOM     47  C   UNL A   1      38.079  33.534  33.937  1.00  0.00     0.031 C 
ATOM     48  C   UNL A   1      39.131  29.589  28.384  1.00  0.00     0.029 A 
ATOM     49  C   UNL A   1      40.060  29.391  29.492  1.00  0.00     0.049 A 
ATOM     50  H   UNL A   1      40.054  30.351  31.340  1.00  0.00     0.167 HD
ATOM     51  C   UNL A   1      39.968  32.487  35.151  1.00  0.00     0.037 A 
ATOM     52  C   UNL A   1      41.097  28.531  29.499  1.00  0.00     0.037 A 
ATOM     53  C   UNL A   1      41.046  31.542  35.281  1.00  0.00     0.049 A 
ATOM     54  C   UNL A   1      41.948  28.410  30.735  1.00  0.00     0.074 A 
ATOM     55  C   UNL A   1      41.869  31.312  36.372  1.00  0.00     0.029 A 
ATOM     56  N   UNL A   1      41.451  30.666  34.285  1.00  0.00    -0.354 N 
ATOM     57  N   UNL A   1      41.853  29.054  31.872  1.00  0.00    -0.248 NA
ATOM     58  C   UNL A   1      43.042  27.430  30.689  1.00  0.00     0.031 C 
ATOM     59  C   UNL A   1      42.796  30.325  36.020  1.00  0.00     0.029 A 
ATOM     60  C   UNL A   1      42.522  29.906  34.729  1.00  0.00     0.049 A 
ATOM     61  H   UNL A   1      41.039  30.596  33.393  1.00  0.00     0.167 HD
ATOM     62  C   UNL A   1      42.853  28.540  32.685  1.00  0.00     0.074 A 
ATOM     63  C   UNL A   1      43.531  27.516  31.918  1.00  0.00     0.031 C 
ATOM     64  C   UNL A   1      43.182  28.886  33.955  1.00  0.00     0.037 A 
BRANCH  51  65
ATOM     65  C   UNL A   1      39.690  33.409  36.305  1.00  0.00     0.064 A 
ATOM     66  C   UNL A   1      40.252  34.692  36.371  1.00  0.00     0.173 A 
ATOM     67  C   UNL A   1      38.828  33.018  37.339  1.00  0.00     0.173 A 
ATOM     68  F   UNL A   1      41.093  35.112  35.413  1.00  0.00    -0.203 F 
ATOM     69  C   UNL A   1      39.988  35.537  37.446  1.00  0.00     0.198 A 
ATOM     70  C   UNL A   1      38.541  33.877  38.398  1.00  0.00     0.198 A 
ATOM     71  F   UNL A   1      38.256  31.804  37.322  1.00  0.00    -0.203 F 
ATOM     72  F   UNL A   1      40.579  36.739  37.514  1.00  0.00    -0.200 F 
ATOM     73  C   UNL A   1      39.129  35.131  38.455  1.00  0.00     0.200 A 
ATOM     74  F   UNL A   1      37.700  33.488  39.366  1.00  0.00    -0.200 F 
ATOM     75  F   UNL A   1      38.871  35.947  39.486  1.00  0.00    -0.200 F 
ENDBRANCH  51  65
BRANCH  52  76
ATOM     76  C   UNL A   1      41.363  27.681  28.309  1.00  0.00     0.064 A 
ATOM     77  C   UNL A   1      42.249  28.104  27.308  1.00  0.00     0.173 A 
ATOM     78  C   UNL A   1      40.735  26.440  28.143  1.00  0.00     0.173 A 
ATOM     79  F   UNL A   1      42.857  29.295  27.411  1.00  0.00    -0.203 F 
ATOM     80  C   UNL A   1      42.478  27.327  26.174  1.00  0.00     0.198 A 
ATOM     81  C   UNL A   1      40.986  25.651  27.022  1.00  0.00     0.198 A 
ATOM     82  F   UNL A   1      39.881  25.989  29.075  1.00  0.00    -0.203 F 
ATOM     83  F   UNL A   1      43.293  27.777  25.209  1.00  0.00    -0.200 F 
ATOM     84  C   UNL A   1      41.850  26.099  26.035  1.00  0.00     0.200 A 
ATOM     85  F   UNL A   1      40.387  24.459  26.897  1.00  0.00    -0.200 F 
ATOM     86  F   UNL A   1      42.073  25.351  24.946  1.00  0.00    -0.200 F 
ENDBRANCH  52  76
BRANCH  64  87
ATOM     87  C   UNL A   1      44.303  28.125  34.603  1.00  0.00     0.064 A 
ATOM     88  C   UNL A   1      44.074  26.931  35.303  1.00  0.00     0.173 A 
ATOM     89  C   UNL A   1      45.624  28.587  34.507  1.00  0.00     0.173 A 
ATOM     90  F   UNL A   1      42.827  26.454  35.435  1.00  0.00    -0.203 F 
ATOM     91  C   UNL A   1      45.123  26.247  35.912  1.00  0.00     0.198 A 
ATOM     92  C   UNL A   1      46.674  27.884  35.091  1.00  0.00     0.198 A 
ATOM     93  F   UNL A   1      45.897  29.721  33.842  1.00  0.00    -0.203 F 
ATOM     94  F   UNL A   1      44.874  25.138  36.622  1.00  0.00    -0.200 F 
ATOM     95  C   UNL A   1      46.422  26.720  35.800  1.00  0.00     0.200 A 
ATOM     96  F   UNL A   1      47.930  28.338  34.972  1.00  0.00    -0.200 F 
ATOM     97  F   UNL A   1      47.430  26.060  36.388  1.00  0.00    -0.200 F 
ENDBRANCH  64  87
ENDBRANCH  38  39
ENDBRANCH  30  33
ENDBRANCH  28  29
ENDBRANCH  27  28
ENDBRANCH  26  27
ENDBRANCH   1  26
TORSDOF 16
ENDMDL
