MODEL 1
REMARK VINA RESULT:     -11.9      0.000      0.000
REMARK SMILES C[C@H](Oc1ccc(-c2ccccc2)cc1)C(=O)N[C@H](C)C(=O)NCCCCCCNC(=O)c1ccc(-c2c3nc(c(-c4c(F)c(F)c(F)c(F)c4F)c4ccc([nH]4)c(-c4c(F)c(F)c(F)c(F)c4F)c4nc(c(-c5c(F)c(F)c(F)c(F)c5F)c5ccc2[nH]5)C=C4)C=C3)cc1
REMARK SMILES IDX 25 1 24 2 23 3 21 4 22 5 19 7 20 8 18 9 16 10 17 11 2 13
REMARK SMILES IDX 1 14 3 15 4 16 5 17 15 18 6 19 14 20 7 21 8 22 9 23 13 24
REMARK SMILES IDX 10 25 12 26 11 27 26 28 27 29 28 30 29 31 30 32 31 33 32 35
REMARK SMILES IDX 33 36 34 37 95 38 35 39 94 40 36 41 37 42 38 43 88 44 39 45
REMARK SMILES IDX 93 46 87 47 89 48 40 49 92 50 86 51 85 52 41 54 73 55 53 56
REMARK SMILES IDX 72 57 54 58 57 59 71 60 90 61 55 62 56 63 70 65 91 66 58 67
REMARK SMILES IDX 42 68 43 69 51 70 44 71 45 72 49 73 52 74 46 75 47 76 50 77
REMARK SMILES IDX 48 78 74 79 75 80 83 81 76 82 77 83 81 84 84 85 78 86 79 87
REMARK SMILES IDX 82 88 80 89 59 90 60 91 68 92 61 93 62 94 66 95 69 96 63 97
REMARK SMILES IDX 64 98 67 99 65 100
REMARK H PARENT 23 6 18 12 30 34 89 53 57 64
REMARK Flexibility Score: inf
ROOT
ATOM      1  C   UNL A   1      36.200  22.955  25.996  1.00  0.00     0.021 C 
ENDROOT
BRANCH   1   2
ATOM      2  C   UNL A   1      34.924  23.784  26.013  1.00  0.00     0.116 C 
BRANCH   2   3
ATOM      3  N   UNL A   1      34.524  24.124  24.666  1.00  0.00    -0.354 N 
ATOM      4  C   UNL A   1      34.203  25.341  24.145  1.00  0.00     0.242 C 
ATOM      5  O   UNL A   1      33.875  25.388  22.955  1.00  0.00    -0.273 OA
ATOM      6  H   UNL A   1      34.475  23.370  24.036  1.00  0.00     0.163 HD
BRANCH   4   7
ATOM      7  C   UNL A   1      34.036  26.571  25.050  1.00  0.00     0.168 C 
ATOM      8  C   UNL A   1      33.962  27.769  24.089  1.00  0.00     0.041 C 
BRANCH   7   9
ATOM      9  N   UNL A   1      32.892  26.609  25.968  1.00  0.00    -0.341 N 
ATOM     10  C   UNL A   1      31.601  26.192  25.823  1.00  0.00     0.261 C 
ATOM     11  O   UNL A   1      30.927  26.140  26.859  1.00  0.00    -0.271 OA
ATOM     12  H   UNL A   1      33.092  27.007  26.846  1.00  0.00     0.164 HD
BRANCH  10  13
ATOM     13  C   UNL A   1      30.968  25.790  24.469  1.00  0.00     0.258 C 
ATOM     14  C   UNL A   1      29.998  26.870  24.005  1.00  0.00     0.064 C 
BRANCH  13  15
ATOM     15  O   UNL A   1      30.299  24.544  24.553  1.00  0.00    -0.481 OA
BRANCH  15  16
ATOM     16  C   UNL A   1      30.958  23.353  24.549  1.00  0.00     0.120 A 
ATOM     17  C   UNL A   1      31.253  22.538  25.633  1.00  0.00     0.047 A 
ATOM     18  C   UNL A   1      31.316  22.918  23.271  1.00  0.00     0.047 A 
ATOM     19  C   UNL A   1      31.885  21.295  25.429  1.00  0.00     0.012 A 
ATOM     20  C   UNL A   1      31.925  21.680  23.065  1.00  0.00     0.012 A 
ATOM     21  C   UNL A   1      32.228  20.840  24.141  1.00  0.00    -0.018 A 
BRANCH  21  22
ATOM     22  C   UNL A   1      32.900  19.546  23.910  1.00  0.00    -0.018 A 
ATOM     23  C   UNL A   1      32.428  18.627  22.958  1.00  0.00     0.009 A 
ATOM     24  C   UNL A   1      34.058  19.198  24.632  1.00  0.00     0.009 A 
ATOM     25  C   UNL A   1      33.082  17.409  22.744  1.00  0.00     0.001 A 
ATOM     26  C   UNL A   1      34.713  17.983  24.419  1.00  0.00     0.001 A 
ATOM     27  C   UNL A   1      34.223  17.086  23.476  1.00  0.00     0.000 A 
ENDBRANCH  21  22
ENDBRANCH  15  16
ENDBRANCH  13  15
ENDBRANCH  10  13
ENDBRANCH   7   9
ENDBRANCH   4   7
ENDBRANCH   2   3
ENDBRANCH   1   2
BRANCH   1  28
ATOM     28  C   UNL A   1      36.099  21.714  25.099  1.00  0.00     0.002 C 
BRANCH  28  29
ATOM     29  C   UNL A   1      37.405  21.305  24.406  1.00  0.00     0.002 C 
BRANCH  29  30
ATOM     30  C   UNL A   1      38.024  20.000  24.908  1.00  0.00     0.021 C 
BRANCH  30  31
ATOM     31  C   UNL A   1      39.030  20.166  26.039  1.00  0.00     0.116 C 
BRANCH  31  32
ATOM     32  N   UNL A   1      40.135  19.227  25.958  1.00  0.00    -0.352 N 
ATOM     33  C   UNL A   1      41.477  19.493  26.058  1.00  0.00     0.251 C 
ATOM     34  H   UNL A   1      39.891  18.285  25.815  1.00  0.00     0.163 HD
ATOM     35  O   UNL A   1      42.309  18.618  25.835  1.00  0.00    -0.269 OA
BRANCH  33  36
ATOM     36  C   UNL A   1      41.916  20.858  26.411  1.00  0.00     0.039 A 
ATOM     37  C   UNL A   1      41.977  21.829  25.410  1.00  0.00     0.014 A 
ATOM     38  C   UNL A   1      42.245  21.184  27.730  1.00  0.00     0.014 A 
ATOM     39  C   UNL A   1      42.338  23.136  25.738  1.00  0.00     0.010 A 
ATOM     40  C   UNL A   1      42.515  22.505  28.070  1.00  0.00     0.010 A 
ATOM     41  C   UNL A   1      42.591  23.489  27.073  1.00  0.00    -0.014 A 
BRANCH  41  42
ATOM     42  C   UNL A   1      42.987  24.873  27.438  1.00  0.00     0.031 A 
ATOM     43  C   UNL A   1      44.392  25.341  27.181  1.00  0.00     0.074 A 
ATOM     44  C   UNL A   1      42.098  25.692  28.031  1.00  0.00     0.049 A 
ATOM     45  N   UNL A   1      44.941  26.504  27.433  1.00  0.00    -0.248 NA
ATOM     46  C   UNL A   1      45.317  24.361  26.590  1.00  0.00     0.031 C 
ATOM     47  C   UNL A   1      40.720  25.340  28.371  1.00  0.00     0.029 A 
ATOM     48  N   UNL A   1      42.224  26.993  28.448  1.00  0.00    -0.354 N 
ATOM     49  C   UNL A   1      46.270  26.385  27.047  1.00  0.00     0.074 A 
ATOM     50  C   UNL A   1      46.463  25.019  26.614  1.00  0.00     0.031 C 
ATOM     51  C   UNL A   1      40.112  26.414  28.902  1.00  0.00     0.029 A 
ATOM     52  C   UNL A   1      41.068  27.515  28.974  1.00  0.00     0.049 A 
ATOM     53  H   UNL A   1      43.063  27.504  28.377  1.00  0.00     0.167 HD
ATOM     54  C   UNL A   1      47.235  27.336  27.026  1.00  0.00     0.037 A 
ATOM     55  C   UNL A   1      40.809  28.748  29.451  1.00  0.00     0.037 A 
ATOM     56  C   UNL A   1      47.029  28.698  27.441  1.00  0.00     0.049 A 
ATOM     57  C   UNL A   1      41.903  29.782  29.438  1.00  0.00     0.074 A 
ATOM     58  C   UNL A   1      47.920  29.756  27.406  1.00  0.00     0.029 A 
ATOM     59  N   UNL A   1      45.846  29.188  27.977  1.00  0.00    -0.354 N 
ATOM     60  N   UNL A   1      43.135  29.684  28.998  1.00  0.00    -0.248 NA
ATOM     61  C   UNL A   1      41.565  31.104  29.982  1.00  0.00     0.031 C 
ATOM     62  C   UNL A   1      47.296  30.870  27.980  1.00  0.00     0.029 A 
ATOM     63  C   UNL A   1      45.993  30.526  28.306  1.00  0.00     0.049 A 
ATOM     64  H   UNL A   1      45.023  28.662  28.106  1.00  0.00     0.167 HD
ATOM     65  C   UNL A   1      43.703  30.939  29.171  1.00  0.00     0.074 A 
ATOM     66  C   UNL A   1      42.678  31.783  29.751  1.00  0.00     0.031 C 
ATOM     67  C   UNL A   1      44.959  31.357  28.872  1.00  0.00     0.037 A 
BRANCH  54  68
ATOM     68  C   UNL A   1      48.600  26.921  26.551  1.00  0.00     0.064 A 
ATOM     69  C   UNL A   1      48.994  27.060  25.210  1.00  0.00     0.173 A 
ATOM     70  C   UNL A   1      49.526  26.365  27.447  1.00  0.00     0.173 A 
ATOM     71  F   UNL A   1      48.146  27.574  24.306  1.00  0.00    -0.203 F 
ATOM     72  C   UNL A   1      50.238  26.609  24.774  1.00  0.00     0.198 A 
ATOM     73  C   UNL A   1      50.785  25.953  27.016  1.00  0.00     0.198 A 
ATOM     74  F   UNL A   1      49.210  26.215  28.741  1.00  0.00    -0.203 F 
ATOM     75  F   UNL A   1      50.557  26.680  23.475  1.00  0.00    -0.200 F 
ATOM     76  C   UNL A   1      51.134  26.060  25.679  1.00  0.00     0.200 A 
ATOM     77  F   UNL A   1      51.656  25.438  27.895  1.00  0.00    -0.200 F 
ATOM     78  F   UNL A   1      52.330  25.624  25.259  1.00  0.00    -0.200 F 
ENDBRANCH  54  68
BRANCH  55  79
ATOM     79  C   UNL A   1      39.443  29.089  29.923  1.00  0.00     0.064 A 
ATOM     80  C   UNL A   1      38.512  29.677  29.054  1.00  0.00     0.173 A 
ATOM     81  C   UNL A   1      39.035  28.839  31.242  1.00  0.00     0.173 A 
ATOM     82  F   UNL A   1      38.862  29.954  27.789  1.00  0.00    -0.203 F 
ATOM     83  C   UNL A   1      37.234  30.019  29.488  1.00  0.00     0.198 A 
ATOM     84  C   UNL A   1      37.746  29.154  31.668  1.00  0.00     0.198 A 
ATOM     85  F   UNL A   1      39.885  28.274  32.112  1.00  0.00    -0.203 F 
ATOM     86  F   UNL A   1      36.381  30.620  28.649  1.00  0.00    -0.200 F 
ATOM     87  C   UNL A   1      36.850  29.751  30.793  1.00  0.00     0.200 A 
ATOM     88  F   UNL A   1      37.373  28.881  32.925  1.00  0.00    -0.200 F 
ATOM     89  F   UNL A   1      35.618  30.074  31.211  1.00  0.00    -0.200 F 
ENDBRANCH  55  79
BRANCH  67  90
ATOM     90  C   UNL A   1      45.279  32.807  29.111  1.00  0.00     0.064 A 
ATOM     91  C   UNL A   1      45.872  33.252  30.301  1.00  0.00     0.173 A 
ATOM     92  C   UNL A   1      45.011  33.760  28.116  1.00  0.00     0.173 A 
ATOM     93  F   UNL A   1      46.137  32.386  31.290  1.00  0.00    -0.203 F 
ATOM     94  C   UNL A   1      46.151  34.603  30.500  1.00  0.00     0.198 A 
ATOM     95  C   UNL A   1      45.326  35.103  28.304  1.00  0.00     0.198 A 
ATOM     96  F   UNL A   1      44.452  33.387  26.954  1.00  0.00    -0.203 F 
ATOM     97  F   UNL A   1      46.661  35.013  31.669  1.00  0.00    -0.200 F 
ATOM     98  C   UNL A   1      45.885  35.525  29.500  1.00  0.00     0.200 A 
ATOM     99  F   UNL A   1      45.084  35.989  27.327  1.00  0.00    -0.200 F 
ATOM    100  F   UNL A   1      46.160  36.822  29.690  1.00  0.00    -0.200 F 
ENDBRANCH  67  90
ENDBRANCH  41  42
ENDBRANCH  33  36
ENDBRANCH  31  32
ENDBRANCH  30  31
ENDBRANCH  29  30
ENDBRANCH  28  29
ENDBRANCH   1  28
TORSDOF 18
ENDMDL
MODEL 2
REMARK VINA RESULT:     -11.9      1.123      7.115
REMARK SMILES C[C@H](Oc1ccc(-c2ccccc2)cc1)C(=O)N[C@H](C)C(=O)NCCCCCCNC(=O)c1ccc(-c2c3nc(c(-c4c(F)c(F)c(F)c(F)c4F)c4ccc([nH]4)c(-c4c(F)c(F)c(F)c(F)c4F)c4nc(c(-c5c(F)c(F)c(F)c(F)c5F)c5ccc2[nH]5)C=C4)C=C3)cc1
REMARK SMILES IDX 25 1 24 2 23 3 21 4 22 5 19 7 20 8 18 9 16 10 17 11 2 13
REMARK SMILES IDX 1 14 3 15 4 16 5 17 15 18 6 19 14 20 7 21 8 22 9 23 13 24
REMARK SMILES IDX 10 25 12 26 11 27 26 28 27 29 28 30 29 31 30 32 31 33 32 35
REMARK SMILES IDX 33 36 34 37 95 38 35 39 94 40 36 41 37 42 38 43 88 44 39 45
REMARK SMILES IDX 93 46 87 47 89 48 40 49 92 50 86 51 85 52 41 54 73 55 53 56
REMARK SMILES IDX 72 57 54 58 57 59 71 60 90 61 55 62 56 63 70 65 91 66 58 67
REMARK SMILES IDX 42 68 43 69 51 70 44 71 45 72 49 73 52 74 46 75 47 76 50 77
REMARK SMILES IDX 48 78 74 79 75 80 83 81 76 82 77 83 81 84 84 85 78 86 79 87
REMARK SMILES IDX 82 88 80 89 59 90 60 91 68 92 61 93 62 94 66 95 69 96 63 97
REMARK SMILES IDX 64 98 67 99 65 100
REMARK H PARENT 23 6 18 12 30 34 89 53 57 64
REMARK Flexibility Score: inf
ROOT
ATOM      1  C   UNL A   1      36.812  22.751  23.574  1.00  0.00     0.021 C 
ENDROOT
BRANCH   1   2
ATOM      2  C   UNL A   1      35.686  23.692  23.976  1.00  0.00     0.116 C 
BRANCH   2   3
ATOM      3  N   UNL A   1      34.440  23.278  23.370  1.00  0.00    -0.354 N 
ATOM      4  C   UNL A   1      33.495  24.031  22.743  1.00  0.00     0.242 C 
ATOM      5  O   UNL A   1      32.493  23.453  22.310  1.00  0.00    -0.273 OA
ATOM      6  H   UNL A   1      34.247  22.314  23.419  1.00  0.00     0.163 HD
BRANCH   4   7
ATOM      7  C   UNL A   1      33.560  25.566  22.770  1.00  0.00     0.168 C 
ATOM      8  C   UNL A   1      32.232  26.035  22.152  1.00  0.00     0.041 C 
BRANCH   7   9
ATOM      9  N   UNL A   1      33.759  26.231  24.063  1.00  0.00    -0.341 N 
ATOM     10  C   UNL A   1      33.137  26.073  25.267  1.00  0.00     0.261 C 
ATOM     11  O   UNL A   1      33.685  26.611  26.236  1.00  0.00    -0.271 OA
ATOM     12  H   UNL A   1      34.469  26.913  24.061  1.00  0.00     0.164 HD
BRANCH  10  13
ATOM     13  C   UNL A   1      31.825  25.276  25.466  1.00  0.00     0.258 C 
ATOM     14  C   UNL A   1      30.683  26.225  25.806  1.00  0.00     0.064 C 
BRANCH  13  15
ATOM     15  O   UNL A   1      31.957  24.296  26.481  1.00  0.00    -0.481 OA
BRANCH  15  16
ATOM     16  C   UNL A   1      32.407  23.036  26.234  1.00  0.00     0.120 A 
ATOM     17  C   UNL A   1      33.519  22.406  26.776  1.00  0.00     0.047 A 
ATOM     18  C   UNL A   1      31.591  22.314  25.361  1.00  0.00     0.047 A 
ATOM     19  C   UNL A   1      33.792  21.061  26.456  1.00  0.00     0.012 A 
ATOM     20  C   UNL A   1      31.850  20.977  25.057  1.00  0.00     0.012 A 
ATOM     21  C   UNL A   1      32.961  20.320  25.594  1.00  0.00    -0.018 A 
BRANCH  21  22
ATOM     22  C   UNL A   1      33.240  18.914  25.239  1.00  0.00    -0.018 A 
ATOM     23  C   UNL A   1      32.540  17.849  25.831  1.00  0.00     0.009 A 
ATOM     24  C   UNL A   1      34.212  18.596  24.272  1.00  0.00     0.009 A 
ATOM     25  C   UNL A   1      32.808  16.523  25.476  1.00  0.00     0.001 A 
ATOM     26  C   UNL A   1      34.481  17.272  23.916  1.00  0.00     0.001 A 
ATOM     27  C   UNL A   1      33.780  16.234  24.520  1.00  0.00     0.000 A 
ENDBRANCH  21  22
ENDBRANCH  15  16
ENDBRANCH  13  15
ENDBRANCH  10  13
ENDBRANCH   7   9
ENDBRANCH   4   7
ENDBRANCH   2   3
ENDBRANCH   1   2
BRANCH   1  28
ATOM     28  C   UNL A   1      37.425  22.003  24.765  1.00  0.00     0.002 C 
BRANCH  28  29
ATOM     29  C   UNL A   1      36.997  20.536  24.901  1.00  0.00     0.002 C 
BRANCH  29  30
ATOM     30  C   UNL A   1      38.146  19.530  24.980  1.00  0.00     0.021 C 
BRANCH  30  31
ATOM     31  C   UNL A   1      39.333  19.983  25.819  1.00  0.00     0.116 C 
BRANCH  31  32
ATOM     32  N   UNL A   1      40.377  18.978  25.913  1.00  0.00    -0.352 N 
ATOM     33  C   UNL A   1      41.722  19.174  26.104  1.00  0.00     0.251 C 
ATOM     34  H   UNL A   1      40.085  18.042  25.831  1.00  0.00     0.163 HD
ATOM     35  O   UNL A   1      42.511  18.236  26.027  1.00  0.00    -0.269 OA
BRANCH  33  36
ATOM     36  C   UNL A   1      42.219  20.539  26.374  1.00  0.00     0.039 A 
ATOM     37  C   UNL A   1      42.562  21.358  25.298  1.00  0.00     0.014 A 
ATOM     38  C   UNL A   1      42.326  21.012  27.685  1.00  0.00     0.014 A 
ATOM     39  C   UNL A   1      42.982  22.668  25.536  1.00  0.00     0.010 A 
ATOM     40  C   UNL A   1      42.657  22.343  27.914  1.00  0.00     0.010 A 
ATOM     41  C   UNL A   1      43.014  23.177  26.844  1.00  0.00    -0.014 A 
BRANCH  41  42
ATOM     42  C   UNL A   1      43.469  24.564  27.115  1.00  0.00     0.031 A 
ATOM     43  C   UNL A   1      42.506  25.571  27.680  1.00  0.00     0.074 A 
ATOM     44  C   UNL A   1      44.732  24.926  26.821  1.00  0.00     0.049 A 
ATOM     45  N   UNL A   1      42.701  26.832  27.979  1.00  0.00    -0.248 NA
ATOM     46  C   UNL A   1      41.128  25.109  27.912  1.00  0.00     0.031 C 
ATOM     47  C   UNL A   1      45.746  24.053  26.230  1.00  0.00     0.029 A 
ATOM     48  N   UNL A   1      45.377  26.126  26.984  1.00  0.00    -0.354 N 
ATOM     49  C   UNL A   1      41.472  27.309  28.416  1.00  0.00     0.074 A 
ATOM     50  C   UNL A   1      40.523  26.228  28.273  1.00  0.00     0.031 C 
ATOM     51  C   UNL A   1      46.901  24.732  26.124  1.00  0.00     0.029 A 
ATOM     52  C   UNL A   1      46.696  26.097  26.602  1.00  0.00     0.049 A 
ATOM     53  H   UNL A   1      44.937  26.931  27.340  1.00  0.00     0.167 HD
ATOM     54  C   UNL A   1      41.167  28.530  28.919  1.00  0.00     0.037 A 
ATOM     55  C   UNL A   1      47.635  27.061  26.645  1.00  0.00     0.037 A 
ATOM     56  C   UNL A   1      42.121  29.595  29.075  1.00  0.00     0.049 A 
ATOM     57  C   UNL A   1      47.268  28.416  27.187  1.00  0.00     0.074 A 
ATOM     58  C   UNL A   1      41.934  30.850  29.627  1.00  0.00     0.029 A 
ATOM     59  N   UNL A   1      43.447  29.531  28.669  1.00  0.00    -0.354 N 
ATOM     60  N   UNL A   1      46.123  28.836  27.671  1.00  0.00    -0.248 NA
ATOM     61  C   UNL A   1      48.330  29.430  27.197  1.00  0.00     0.031 C 
ATOM     62  C   UNL A   1      43.129  31.567  29.496  1.00  0.00     0.029 A 
ATOM     63  C   UNL A   1      44.082  30.736  28.929  1.00  0.00     0.049 A 
ATOM     64  H   UNL A   1      43.875  28.746  28.255  1.00  0.00     0.167 HD
ATOM     65  C   UNL A   1      46.339  30.145  28.082  1.00  0.00     0.074 A 
ATOM     66  C   UNL A   1      47.727  30.447  27.795  1.00  0.00     0.031 C 
ATOM     67  C   UNL A   1      45.468  31.017  28.649  1.00  0.00     0.037 A 
BRANCH  54  68
ATOM     68  C   UNL A   1      39.738  28.772  29.318  1.00  0.00     0.064 A 
ATOM     69  C   UNL A   1      38.794  29.298  28.420  1.00  0.00     0.173 A 
ATOM     70  C   UNL A   1      39.306  28.486  30.622  1.00  0.00     0.173 A 
ATOM     71  F   UNL A   1      39.153  29.601  27.163  1.00  0.00    -0.203 F 
ATOM     72  C   UNL A   1      37.491  29.577  28.826  1.00  0.00     0.198 A 
ATOM     73  C   UNL A   1      37.991  28.729  31.013  1.00  0.00     0.198 A 
ATOM     74  F   UNL A   1      40.159  27.976  31.522  1.00  0.00    -0.203 F 
ATOM     75  F   UNL A   1      36.634  30.153  27.972  1.00  0.00    -0.200 F 
ATOM     76  C   UNL A   1      37.090  29.288  30.121  1.00  0.00     0.200 A 
ATOM     77  F   UNL A   1      37.600  28.433  32.261  1.00  0.00    -0.200 F 
ATOM     78  F   UNL A   1      35.837  29.561  30.512  1.00  0.00    -0.200 F 
ENDBRANCH  54  68
BRANCH  55  79
ATOM     79  C   UNL A   1      49.026  26.762  26.217  1.00  0.00     0.064 A 
ATOM     80  C   UNL A   1      49.434  27.001  24.897  1.00  0.00     0.173 A 
ATOM     81  C   UNL A   1      49.975  26.237  27.108  1.00  0.00     0.173 A 
ATOM     82  F   UNL A   1      48.558  27.483  24.003  1.00  0.00    -0.203 F 
ATOM     83  C   UNL A   1      50.730  26.709  24.478  1.00  0.00     0.198 A 
ATOM     84  C   UNL A   1      51.279  25.973  26.695  1.00  0.00     0.198 A 
ATOM     85  F   UNL A   1      49.638  25.995  28.383  1.00  0.00    -0.203 F 
ATOM     86  F   UNL A   1      51.078  26.904  23.200  1.00  0.00    -0.200 F 
ATOM     87  C   UNL A   1      51.653  26.201  25.379  1.00  0.00     0.200 A 
ATOM     88  F   UNL A   1      52.173  25.496  27.571  1.00  0.00    -0.200 F 
ATOM     89  F   UNL A   1      52.902  25.925  24.977  1.00  0.00    -0.200 F 
ENDBRANCH  55  79
BRANCH  67  90
ATOM     90  C   UNL A   1      46.005  32.362  29.055  1.00  0.00     0.064 A 
ATOM     91  C   UNL A   1      46.576  32.586  30.316  1.00  0.00     0.173 A 
ATOM     92  C   UNL A   1      45.972  33.435  28.151  1.00  0.00     0.173 A 
ATOM     93  F   UNL A   1      46.621  31.599  31.224  1.00  0.00    -0.203 F 
ATOM     94  C   UNL A   1      47.060  33.843  30.670  1.00  0.00     0.198 A 
ATOM     95  C   UNL A   1      46.491  34.680  28.495  1.00  0.00     0.198 A 
ATOM     96  F   UNL A   1      45.446  33.274  26.927  1.00  0.00    -0.203 F 
ATOM     97  F   UNL A   1      47.544  34.049  31.902  1.00  0.00    -0.200 F 
ATOM     98  C   UNL A   1      47.024  34.886  29.757  1.00  0.00     0.200 A 
ATOM     99  F   UNL A   1      46.471  35.681  27.603  1.00  0.00    -0.200 F 
ATOM    100  F   UNL A   1      47.496  36.094  30.097  1.00  0.00    -0.200 F 
ENDBRANCH  67  90
ENDBRANCH  41  42
ENDBRANCH  33  36
ENDBRANCH  31  32
ENDBRANCH  30  31
ENDBRANCH  29  30
ENDBRANCH  28  29
ENDBRANCH   1  28
TORSDOF 18
ENDMDL
MODEL 3
REMARK VINA RESULT:     -11.9      1.157      2.061
REMARK SMILES C[C@H](Oc1ccc(-c2ccccc2)cc1)C(=O)N[C@H](C)C(=O)NCCCCCCNC(=O)c1ccc(-c2c3nc(c(-c4c(F)c(F)c(F)c(F)c4F)c4ccc([nH]4)c(-c4c(F)c(F)c(F)c(F)c4F)c4nc(c(-c5c(F)c(F)c(F)c(F)c5F)c5ccc2[nH]5)C=C4)C=C3)cc1
REMARK SMILES IDX 25 1 24 2 23 3 21 4 22 5 19 7 20 8 18 9 16 10 17 11 2 13
REMARK SMILES IDX 1 14 3 15 4 16 5 17 15 18 6 19 14 20 7 21 8 22 9 23 13 24
REMARK SMILES IDX 10 25 12 26 11 27 26 28 27 29 28 30 29 31 30 32 31 33 32 35
REMARK SMILES IDX 33 36 34 37 95 38 35 39 94 40 36 41 37 42 38 43 88 44 39 45
REMARK SMILES IDX 93 46 87 47 89 48 40 49 92 50 86 51 85 52 41 54 73 55 53 56
REMARK SMILES IDX 72 57 54 58 57 59 71 60 90 61 55 62 56 63 70 65 91 66 58 67
REMARK SMILES IDX 42 68 43 69 51 70 44 71 45 72 49 73 52 74 46 75 47 76 50 77
REMARK SMILES IDX 48 78 74 79 75 80 83 81 76 82 77 83 81 84 84 85 78 86 79 87
REMARK SMILES IDX 82 88 80 89 59 90 60 91 68 92 61 93 62 94 66 95 69 96 63 97
REMARK SMILES IDX 64 98 67 99 65 100
REMARK H PARENT 23 6 18 12 30 34 89 53 57 64
REMARK Flexibility Score: inf
ROOT
ATOM      1  C   UNL A   1      36.660  22.575  23.537  1.00  0.00     0.021 C 
ENDROOT
BRANCH   1   2
ATOM      2  C   UNL A   1      35.667  23.687  23.841  1.00  0.00     0.116 C 
BRANCH   2   3
ATOM      3  N   UNL A   1      34.361  23.356  23.315  1.00  0.00    -0.354 N 
ATOM      4  C   UNL A   1      33.419  24.176  22.772  1.00  0.00     0.242 C 
ATOM      5  O   UNL A   1      32.358  23.664  22.397  1.00  0.00    -0.273 OA
ATOM      6  H   UNL A   1      34.118  22.403  23.356  1.00  0.00     0.163 HD
BRANCH   4   7
ATOM      7  C   UNL A   1      33.571  25.704  22.828  1.00  0.00     0.168 C 
ATOM      8  C   UNL A   1      32.304  26.258  22.155  1.00  0.00     0.041 C 
BRANCH   7   9
ATOM      9  N   UNL A   1      33.745  26.338  24.140  1.00  0.00    -0.341 N 
ATOM     10  C   UNL A   1      33.124  26.127  25.336  1.00  0.00     0.261 C 
ATOM     11  O   UNL A   1      33.653  26.653  26.323  1.00  0.00    -0.271 OA
ATOM     12  H   UNL A   1      34.433  27.041  24.160  1.00  0.00     0.164 HD
BRANCH  10  13
ATOM     13  C   UNL A   1      31.838  25.284  25.507  1.00  0.00     0.258 C 
ATOM     14  C   UNL A   1      30.658  26.191  25.837  1.00  0.00     0.064 C 
BRANCH  13  15
ATOM     15  O   UNL A   1      31.986  24.300  26.515  1.00  0.00    -0.481 OA
BRANCH  15  16
ATOM     16  C   UNL A   1      32.427  23.039  26.255  1.00  0.00     0.120 A 
ATOM     17  C   UNL A   1      33.550  22.405  26.767  1.00  0.00     0.047 A 
ATOM     18  C   UNL A   1      31.587  22.320  25.401  1.00  0.00     0.047 A 
ATOM     19  C   UNL A   1      33.812  21.060  26.437  1.00  0.00     0.012 A 
ATOM     20  C   UNL A   1      31.835  20.984  25.088  1.00  0.00     0.012 A 
ATOM     21  C   UNL A   1      32.957  20.322  25.596  1.00  0.00    -0.018 A 
BRANCH  21  22
ATOM     22  C   UNL A   1      33.223  18.917  25.231  1.00  0.00    -0.018 A 
ATOM     23  C   UNL A   1      32.572  17.851  25.873  1.00  0.00     0.009 A 
ATOM     24  C   UNL A   1      34.133  18.600  24.203  1.00  0.00     0.009 A 
ATOM     25  C   UNL A   1      32.827  16.524  25.509  1.00  0.00     0.001 A 
ATOM     26  C   UNL A   1      34.388  17.276  23.837  1.00  0.00     0.001 A 
ATOM     27  C   UNL A   1      33.737  16.237  24.493  1.00  0.00     0.000 A 
ENDBRANCH  21  22
ENDBRANCH  15  16
ENDBRANCH  13  15
ENDBRANCH  10  13
ENDBRANCH   7   9
ENDBRANCH   4   7
ENDBRANCH   2   3
ENDBRANCH   1   2
BRANCH   1  28
ATOM     28  C   UNL A   1      37.256  21.939  24.800  1.00  0.00     0.002 C 
BRANCH  28  29
ATOM     29  C   UNL A   1      36.945  20.449  24.988  1.00  0.00     0.002 C 
BRANCH  29  30
ATOM     30  C   UNL A   1      38.163  19.526  24.983  1.00  0.00     0.021 C 
BRANCH  30  31
ATOM     31  C   UNL A   1      39.339  20.020  25.814  1.00  0.00     0.116 C 
BRANCH  31  32
ATOM     32  N   UNL A   1      40.440  19.073  25.858  1.00  0.00    -0.352 N 
ATOM     33  C   UNL A   1      41.764  19.330  26.108  1.00  0.00     0.251 C 
ATOM     34  H   UNL A   1      40.206  18.132  25.690  1.00  0.00     0.163 HD
ATOM     35  O   UNL A   1      42.610  18.448  25.979  1.00  0.00    -0.269 OA
BRANCH  33  36
ATOM     36  C   UNL A   1      42.170  20.693  26.506  1.00  0.00     0.039 A 
ATOM     37  C   UNL A   1      42.487  21.620  25.512  1.00  0.00     0.014 A 
ATOM     38  C   UNL A   1      42.218  21.058  27.854  1.00  0.00     0.014 A 
ATOM     39  C   UNL A   1      42.820  22.927  25.872  1.00  0.00     0.010 A 
ATOM     40  C   UNL A   1      42.461  22.381  28.204  1.00  0.00     0.010 A 
ATOM     41  C   UNL A   1      42.791  23.324  27.218  1.00  0.00    -0.014 A 
BRANCH  41  42
ATOM     42  C   UNL A   1      43.154  24.706  27.618  1.00  0.00     0.031 A 
ATOM     43  C   UNL A   1      44.599  25.123  27.642  1.00  0.00     0.074 A 
ATOM     44  C   UNL A   1      42.193  25.572  27.993  1.00  0.00     0.049 A 
ATOM     45  N   UNL A   1      45.126  26.278  27.969  1.00  0.00    -0.248 NA
ATOM     46  C   UNL A   1      45.588  24.097  27.280  1.00  0.00     0.031 C 
ATOM     47  C   UNL A   1      40.763  25.273  28.053  1.00  0.00     0.029 A 
ATOM     48  N   UNL A   1      42.278  26.882  28.391  1.00  0.00    -0.354 N 
ATOM     49  C   UNL A   1      46.500  26.106  27.867  1.00  0.00     0.074 A 
ATOM     50  C   UNL A   1      46.729  24.721  27.521  1.00  0.00     0.031 C 
ATOM     51  C   UNL A   1      40.098  26.382  28.417  1.00  0.00     0.029 A 
ATOM     52  C   UNL A   1      41.059  27.456  28.654  1.00  0.00     0.049 A 
ATOM     53  H   UNL A   1      43.132  27.365  28.479  1.00  0.00     0.167 HD
ATOM     54  C   UNL A   1      47.483  27.027  28.018  1.00  0.00     0.037 A 
ATOM     55  C   UNL A   1      40.753  28.712  29.032  1.00  0.00     0.037 A 
ATOM     56  C   UNL A   1      47.246  28.408  28.345  1.00  0.00     0.049 A 
ATOM     57  C   UNL A   1      41.863  29.712  29.216  1.00  0.00     0.074 A 
ATOM     58  C   UNL A   1      48.162  29.437  28.464  1.00  0.00     0.029 A 
ATOM     59  N   UNL A   1      45.997  28.951  28.613  1.00  0.00    -0.354 N 
ATOM     60  N   UNL A   1      43.154  29.562  29.041  1.00  0.00    -0.248 NA
ATOM     61  C   UNL A   1      41.468  31.061  29.642  1.00  0.00     0.031 C 
ATOM     62  C   UNL A   1      47.475  30.589  28.866  1.00  0.00     0.029 A 
ATOM     63  C   UNL A   1      46.122  30.295  28.928  1.00  0.00     0.049 A 
ATOM     64  H   UNL A   1      45.147  28.455  28.584  1.00  0.00     0.167 HD
ATOM     65  C   UNL A   1      43.720  30.805  29.292  1.00  0.00     0.074 A 
ATOM     66  C   UNL A   1      42.629  31.699  29.626  1.00  0.00     0.031 C 
ATOM     67  C   UNL A   1      45.025  31.175  29.246  1.00  0.00     0.037 A 
BRANCH  54  68
ATOM     68  C   UNL A   1      48.901  26.555  27.846  1.00  0.00     0.064 A 
ATOM     69  C   UNL A   1      49.714  26.228  28.943  1.00  0.00     0.173 A 
ATOM     70  C   UNL A   1      49.460  26.438  26.564  1.00  0.00     0.173 A 
ATOM     71  F   UNL A   1      49.236  26.333  30.193  1.00  0.00    -0.203 F 
ATOM     72  C   UNL A   1      51.045  25.857  28.768  1.00  0.00     0.198 A 
ATOM     73  C   UNL A   1      50.779  26.026  26.390  1.00  0.00     0.198 A 
ATOM     74  F   UNL A   1      48.730  26.728  25.477  1.00  0.00    -0.203 F 
ATOM     75  F   UNL A   1      51.821  25.629  29.836  1.00  0.00    -0.200 F 
ATOM     76  C   UNL A   1      51.574  25.751  27.491  1.00  0.00     0.200 A 
ATOM     77  F   UNL A   1      51.285  25.909  25.154  1.00  0.00    -0.200 F 
ATOM     78  F   UNL A   1      52.856  25.397  27.324  1.00  0.00    -0.200 F 
ENDBRANCH  54  68
BRANCH  55  79
ATOM     79  C   UNL A   1      39.332  29.110  29.205  1.00  0.00     0.064 A 
ATOM     80  C   UNL A   1      38.723  29.057  30.468  1.00  0.00     0.173 A 
ATOM     81  C   UNL A   1      38.553  29.550  28.124  1.00  0.00     0.173 A 
ATOM     82  F   UNL A   1      39.421  28.623  31.528  1.00  0.00    -0.203 F 
ATOM     83  C   UNL A   1      37.387  29.410  30.641  1.00  0.00     0.198 A 
ATOM     84  C   UNL A   1      37.225  29.931  28.304  1.00  0.00     0.198 A 
ATOM     85  F   UNL A   1      39.088  29.624  26.897  1.00  0.00    -0.203 F 
ATOM     86  F   UNL A   1      36.820  29.306  31.849  1.00  0.00    -0.200 F 
ATOM     87  C   UNL A   1      36.641  29.853  29.560  1.00  0.00     0.200 A 
ATOM     88  F   UNL A   1      36.510  30.372  27.260  1.00  0.00    -0.200 F 
ATOM     89  F   UNL A   1      35.357  30.198  29.726  1.00  0.00    -0.200 F 
ENDBRANCH  55  79
BRANCH  67  90
ATOM     90  C   UNL A   1      45.341  32.622  29.504  1.00  0.00     0.064 A 
ATOM     91  C   UNL A   1      45.658  33.098  30.785  1.00  0.00     0.173 A 
ATOM     92  C   UNL A   1      45.354  33.541  28.443  1.00  0.00     0.173 A 
ATOM     93  F   UNL A   1      45.647  32.265  31.838  1.00  0.00    -0.203 F 
ATOM     94  C   UNL A   1      45.940  34.445  31.000  1.00  0.00     0.198 A 
ATOM     95  C   UNL A   1      45.673  34.879  28.656  1.00  0.00     0.198 A 
ATOM     96  F   UNL A   1      45.068  33.138  27.196  1.00  0.00    -0.203 F 
ATOM     97  F   UNL A   1      46.178  34.887  32.242  1.00  0.00    -0.200 F 
ATOM     98  C   UNL A   1      45.954  35.332  29.935  1.00  0.00     0.200 A 
ATOM     99  F   UNL A   1      45.705  35.731  27.620  1.00  0.00    -0.200 F 
ATOM    100  F   UNL A   1      46.232  36.627  30.142  1.00  0.00    -0.200 F 
ENDBRANCH  67  90
ENDBRANCH  41  42
ENDBRANCH  33  36
ENDBRANCH  31  32
ENDBRANCH  30  31
ENDBRANCH  29  30
ENDBRANCH  28  29
ENDBRANCH   1  28
TORSDOF 18
ENDMDL
