MODEL 1
REMARK VINA RESULT:     -12.1      0.000      0.000
REMARK SMILES CC[C@@](C)(NC(=O)Nc1c(C)cccc1Cl)C(=O)NCCCCCCNC(=O)c1ccc(-c2c3nc(c(-c4c(F)c(F)c(F)c(F)c4F)c4ccc([nH]4)c(-c4c(F)c(F)c(F)c(F)c4F)c4nc(c(-c5c(F)c(F)c(F)c(F)c5F)c5ccc2[nH]5)C=C4)C=C3)cc1
REMARK SMILES IDX 22 1 21 2 20 3 19 4 17 5 18 6 3 8 4 9 2 10 1 11 5 12 6 13
REMARK SMILES IDX 7 15 8 16 9 18 10 19 15 20 11 21 12 22 14 23 16 24 13 25
REMARK SMILES IDX 23 26 24 27 25 28 26 29 27 30 28 32 29 33 30 34 91 35 31 36
REMARK SMILES IDX 90 37 32 38 33 39 34 40 84 41 35 42 89 43 83 44 85 45 36 46
REMARK SMILES IDX 88 47 82 48 81 49 37 51 69 52 49 53 68 54 50 55 53 56 67 57
REMARK SMILES IDX 86 58 51 59 52 60 66 62 87 63 54 64 38 65 39 66 47 67 40 68
REMARK SMILES IDX 41 69 45 70 48 71 42 72 43 73 46 74 44 75 70 76 71 77 79 78
REMARK SMILES IDX 72 79 73 80 77 81 80 82 74 83 75 84 78 85 76 86 55 87 56 88
REMARK SMILES IDX 64 89 57 90 58 91 62 92 65 93 59 94 60 95 63 96 61 97
REMARK H PARENT 19 7 5 14 8 17 26 31 85 50 53 61
REMARK Flexibility Score: inf
ROOT
ATOM      1  C   UNL A   1      32.754  30.015  27.171  1.00  0.00     0.002 C 
ENDROOT
BRANCH   1   2
ATOM      2  C   UNL A   1      32.753  28.479  27.223  1.00  0.00     0.021 C 
BRANCH   2   3
ATOM      3  C   UNL A   1      31.447  27.672  27.092  1.00  0.00     0.116 C 
BRANCH   3   4
ATOM      4  N   UNL A   1      30.901  27.511  25.756  1.00  0.00    -0.354 N 
ATOM      5  C   UNL A   1      30.483  26.414  25.000  1.00  0.00     0.245 C 
ATOM      6  O   UNL A   1      29.456  26.488  24.321  1.00  0.00    -0.272 OA
ATOM      7  H   UNL A   1      30.804  28.365  25.276  1.00  0.00     0.163 HD
BRANCH   5   8
ATOM      8  C   UNL A   1      31.218  25.080  25.124  1.00  0.00     0.117 C 
ATOM      9  C   UNL A   1      30.949  24.419  23.749  1.00  0.00     0.045 C 
BRANCH   8  10
ATOM     10  C   UNL A   1      32.743  24.978  25.402  1.00  0.00     0.035 C 
ATOM     11  C   UNL A   1      33.697  24.787  24.243  1.00  0.00     0.007 C 
ENDBRANCH   8  10
BRANCH   8  12
ATOM     12  N   UNL A   1      30.541  24.442  26.236  1.00  0.00    -0.324 N 
ATOM     13  C   UNL A   1      30.660  23.226  26.767  1.00  0.00     0.320 C 
ATOM     14  H   UNL A   1      29.871  25.011  26.679  1.00  0.00     0.166 HD
ATOM     15  O   UNL A   1      29.797  22.976  27.627  1.00  0.00    -0.248 OA
ATOM     16  N   UNL A   1      31.501  22.214  26.516  1.00  0.00    -0.306 N 
ATOM     17  H   UNL A   1      31.304  21.561  27.226  1.00  0.00     0.171 HD
BRANCH  16  18
ATOM     18  C   UNL A   1      32.546  21.586  25.746  1.00  0.00     0.064 A 
ATOM     19  C   UNL A   1      32.673  20.952  24.471  1.00  0.00    -0.026 A 
ATOM     20  C   UNL A   1      33.797  21.742  26.425  1.00  0.00     0.064 A 
ATOM     21  C   UNL A   1      32.037  21.307  23.132  1.00  0.00     0.046 C 
ATOM     22  C   UNL A   1      33.842  20.190  24.180  1.00  0.00     0.005 A 
ATOM     23  C   UNL A   1      34.986  21.123  26.031  1.00  0.00     0.023 A 
ATOM     24  Cl  UNL A   1      33.939  22.776  27.829  1.00  0.00    -0.082 Cl
ATOM     25  C   UNL A   1      34.990  20.282  24.942  1.00  0.00     0.002 A 
ENDBRANCH  16  18
ENDBRANCH   8  12
ENDBRANCH   5   8
ENDBRANCH   3   4
ENDBRANCH   2   3
ENDBRANCH   1   2
BRANCH   1  26
ATOM     26  C   UNL A   1      31.662  30.741  26.387  1.00  0.00     0.002 C 
BRANCH  26  27
ATOM     27  C   UNL A   1      31.462  32.215  26.678  1.00  0.00     0.021 C 
BRANCH  27  28
ATOM     28  C   UNL A   1      32.696  32.934  27.183  1.00  0.00     0.116 C 
BRANCH  28  29
ATOM     29  N   UNL A   1      32.422  34.276  27.667  1.00  0.00    -0.352 N 
ATOM     30  C   UNL A   1      33.047  34.957  28.693  1.00  0.00     0.251 C 
ATOM     31  H   UNL A   1      31.700  34.761  27.207  1.00  0.00     0.163 HD
ATOM     32  O   UNL A   1      32.629  36.034  29.076  1.00  0.00    -0.269 OA
BRANCH  30  33
ATOM     33  C   UNL A   1      34.220  34.333  29.352  1.00  0.00     0.039 A 
ATOM     34  C   UNL A   1      34.007  33.393  30.361  1.00  0.00     0.014 A 
ATOM     35  C   UNL A   1      35.520  34.649  28.948  1.00  0.00     0.014 A 
ATOM     36  C   UNL A   1      35.100  32.729  30.924  1.00  0.00     0.010 A 
ATOM     37  C   UNL A   1      36.594  33.912  29.432  1.00  0.00     0.010 A 
ATOM     38  C   UNL A   1      36.400  32.961  30.444  1.00  0.00    -0.014 A 
BRANCH  38  39
ATOM     39  C   UNL A   1      37.573  32.264  31.028  1.00  0.00     0.031 A 
ATOM     40  C   UNL A   1      38.079  32.672  32.386  1.00  0.00     0.074 A 
ATOM     41  C   UNL A   1      38.200  31.294  30.333  1.00  0.00     0.049 A 
ATOM     42  N   UNL A   1      39.116  32.229  33.053  1.00  0.00    -0.248 NA
ATOM     43  C   UNL A   1      37.339  33.741  33.078  1.00  0.00     0.031 C 
ATOM     44  C   UNL A   1      37.836  30.843  28.989  1.00  0.00     0.029 A 
ATOM     45  N   UNL A   1      39.284  30.518  30.660  1.00  0.00    -0.354 N 
ATOM     46  C   UNL A   1      39.146  32.962  34.232  1.00  0.00     0.074 A 
ATOM     47  C   UNL A   1      38.078  33.933  34.158  1.00  0.00     0.031 C 
ATOM     48  C   UNL A   1      38.665  29.853  28.618  1.00  0.00     0.029 A 
ATOM     49  C   UNL A   1      39.642  29.626  29.678  1.00  0.00     0.049 A 
ATOM     50  H   UNL A   1      39.759  30.593  31.520  1.00  0.00     0.167 HD
ATOM     51  C   UNL A   1      39.962  32.813  35.302  1.00  0.00     0.037 A 
ATOM     52  C   UNL A   1      40.649  28.733  29.639  1.00  0.00     0.037 A 
ATOM     53  C   UNL A   1      41.015  31.837  35.382  1.00  0.00     0.049 A 
ATOM     54  C   UNL A   1      41.558  28.605  30.835  1.00  0.00     0.074 A 
ATOM     55  C   UNL A   1      41.893  31.596  36.423  1.00  0.00     0.029 A 
ATOM     56  N   UNL A   1      41.328  30.933  34.377  1.00  0.00    -0.354 N 
ATOM     57  N   UNL A   1      41.542  29.269  31.965  1.00  0.00    -0.248 NA
ATOM     58  C   UNL A   1      42.614  27.586  30.756  1.00  0.00     0.031 C 
ATOM     59  C   UNL A   1      42.764  30.575  36.034  1.00  0.00     0.029 A 
ATOM     60  C   UNL A   1      42.388  30.135  34.774  1.00  0.00     0.049 A 
ATOM     61  H   UNL A   1      40.864  30.867  33.511  1.00  0.00     0.167 HD
ATOM     62  C   UNL A   1      42.552  28.720  32.745  1.00  0.00     0.074 A 
ATOM     63  C   UNL A   1      43.151  27.658  31.965  1.00  0.00     0.031 C 
ATOM     64  C   UNL A   1      42.950  29.063  33.996  1.00  0.00     0.037 A 
BRANCH  51  65
ATOM     65  C   UNL A   1      39.729  33.711  36.484  1.00  0.00     0.064 A 
ATOM     66  C   UNL A   1      40.311  34.986  36.556  1.00  0.00     0.173 A 
ATOM     67  C   UNL A   1      38.884  33.316  37.530  1.00  0.00     0.173 A 
ATOM     68  F   UNL A   1      41.141  35.408  35.590  1.00  0.00    -0.203 F 
ATOM     69  C   UNL A   1      40.074  35.822  37.644  1.00  0.00     0.198 A 
ATOM     70  C   UNL A   1      38.621  34.168  38.600  1.00  0.00     0.198 A 
ATOM     71  F   UNL A   1      38.299  32.108  37.510  1.00  0.00    -0.203 F 
ATOM     72  F   UNL A   1      40.681  37.016  37.715  1.00  0.00    -0.200 F 
ATOM     73  C   UNL A   1      39.221  35.417  38.660  1.00  0.00     0.200 A 
ATOM     74  F   UNL A   1      37.785  33.781  39.574  1.00  0.00    -0.200 F 
ATOM     75  F   UNL A   1      38.982  36.228  39.699  1.00  0.00    -0.200 F 
ENDBRANCH  51  65
BRANCH  52  76
ATOM     76  C   UNL A   1      40.856  27.880  28.436  1.00  0.00     0.064 A 
ATOM     77  C   UNL A   1      41.621  28.331  27.349  1.00  0.00     0.173 A 
ATOM     78  C   UNL A   1      40.252  26.620  28.326  1.00  0.00     0.173 A 
ATOM     79  F   UNL A   1      42.207  29.537  27.396  1.00  0.00    -0.203 F 
ATOM     80  C   UNL A   1      41.732  27.576  26.183  1.00  0.00     0.198 A 
ATOM     81  C   UNL A   1      40.396  25.849  27.174  1.00  0.00     0.198 A 
ATOM     82  F   UNL A   1      39.517  26.136  29.338  1.00  0.00    -0.203 F 
ATOM     83  F   UNL A   1      42.405  28.066  25.133  1.00  0.00    -0.200 F 
ATOM     84  C   UNL A   1      41.121  26.334  26.097  1.00  0.00     0.200 A 
ATOM     85  F   UNL A   1      39.819  24.642  27.103  1.00  0.00    -0.200 F 
ATOM     86  F   UNL A   1      41.221  25.612  24.973  1.00  0.00    -0.200 F 
ENDBRANCH  52  76
BRANCH  64  87
ATOM     87  C   UNL A   1      44.035  28.234  34.626  1.00  0.00     0.064 A 
ATOM     88  C   UNL A   1      45.390  28.575  34.520  1.00  0.00     0.173 A 
ATOM     89  C   UNL A   1      43.701  27.092  35.371  1.00  0.00     0.173 A 
ATOM     90  F   UNL A   1      45.764  29.651  33.810  1.00  0.00    -0.203 F 
ATOM     91  C   UNL A   1      46.375  27.780  35.101  1.00  0.00     0.198 A 
ATOM     92  C   UNL A   1      44.685  26.321  35.982  1.00  0.00     0.198 A 
ATOM     93  F   UNL A   1      42.418  26.727  35.514  1.00  0.00    -0.203 F 
ATOM     94  F   UNL A   1      47.669  28.089  34.930  1.00  0.00    -0.200 F 
ATOM     95  C   UNL A   1      46.022  26.658  35.836  1.00  0.00     0.200 A 
ATOM     96  F   UNL A   1      44.340  25.249  36.708  1.00  0.00    -0.200 F 
ATOM     97  F   UNL A   1      46.971  25.897  36.397  1.00  0.00    -0.200 F 
ENDBRANCH  64  87
ENDBRANCH  38  39
ENDBRANCH  30  33
ENDBRANCH  28  29
ENDBRANCH  27  28
ENDBRANCH  26  27
ENDBRANCH   1  26
TORSDOF 16
ENDMDL
MODEL 2
REMARK VINA RESULT:     -12.1      1.090      2.180
REMARK SMILES CC[C@@](C)(NC(=O)Nc1c(C)cccc1Cl)C(=O)NCCCCCCNC(=O)c1ccc(-c2c3nc(c(-c4c(F)c(F)c(F)c(F)c4F)c4ccc([nH]4)c(-c4c(F)c(F)c(F)c(F)c4F)c4nc(c(-c5c(F)c(F)c(F)c(F)c5F)c5ccc2[nH]5)C=C4)C=C3)cc1
REMARK SMILES IDX 22 1 21 2 20 3 19 4 17 5 18 6 3 8 4 9 2 10 1 11 5 12 6 13
REMARK SMILES IDX 7 15 8 16 9 18 10 19 15 20 11 21 12 22 14 23 16 24 13 25
REMARK SMILES IDX 23 26 24 27 25 28 26 29 27 30 28 32 29 33 30 34 91 35 31 36
REMARK SMILES IDX 90 37 32 38 33 39 34 40 84 41 35 42 89 43 83 44 85 45 36 46
REMARK SMILES IDX 88 47 82 48 81 49 37 51 69 52 49 53 68 54 50 55 53 56 67 57
REMARK SMILES IDX 86 58 51 59 52 60 66 62 87 63 54 64 38 65 39 66 47 67 40 68
REMARK SMILES IDX 41 69 45 70 48 71 42 72 43 73 46 74 44 75 70 76 71 77 79 78
REMARK SMILES IDX 72 79 73 80 77 81 80 82 74 83 75 84 78 85 76 86 55 87 56 88
REMARK SMILES IDX 64 89 57 90 58 91 62 92 65 93 59 94 60 95 63 96 61 97
REMARK H PARENT 19 7 5 14 8 17 26 31 85 50 53 61
REMARK Flexibility Score: inf
ROOT
ATOM      1  C   UNL A   1      32.143  29.993  27.219  1.00  0.00     0.002 C 
ENDROOT
BRANCH   1   2
ATOM      2  C   UNL A   1      33.664  29.768  27.210  1.00  0.00     0.021 C 
BRANCH   2   3
ATOM      3  C   UNL A   1      34.306  28.651  26.364  1.00  0.00     0.116 C 
BRANCH   3   4
ATOM      4  N   UNL A   1      34.209  28.777  24.920  1.00  0.00    -0.354 N 
ATOM      5  C   UNL A   1      33.395  28.197  23.945  1.00  0.00     0.245 C 
ATOM      6  O   UNL A   1      32.945  28.887  23.027  1.00  0.00    -0.272 OA
ATOM      7  H   UNL A   1      34.861  29.413  24.546  1.00  0.00     0.163 HD
BRANCH   5   8
ATOM      8  C   UNL A   1      32.949  26.743  24.092  1.00  0.00     0.117 C 
ATOM      9  C   UNL A   1      33.564  26.074  22.837  1.00  0.00     0.045 C 
BRANCH   8  10
ATOM     10  C   UNL A   1      33.320  25.865  25.319  1.00  0.00     0.035 C 
ATOM     11  C   UNL A   1      34.447  24.863  25.201  1.00  0.00     0.007 C 
ENDBRANCH   8  10
BRANCH   8  12
ATOM     12  N   UNL A   1      31.504  26.846  24.066  1.00  0.00    -0.324 N 
ATOM     13  C   UNL A   1      30.549  25.920  23.988  1.00  0.00     0.320 C 
ATOM     14  H   UNL A   1      31.165  27.770  24.114  1.00  0.00     0.166 HD
ATOM     15  O   UNL A   1      29.410  26.395  23.835  1.00  0.00    -0.248 OA
ATOM     16  N   UNL A   1      30.594  24.581  23.996  1.00  0.00    -0.306 N 
ATOM     17  H   UNL A   1      29.648  24.312  24.040  1.00  0.00     0.171 HD
BRANCH  16  18
ATOM     18  C   UNL A   1      31.309  23.329  23.975  1.00  0.00     0.064 A 
ATOM     19  C   UNL A   1      32.046  22.558  23.024  1.00  0.00    -0.026 A 
ATOM     20  C   UNL A   1      31.359  22.787  25.300  1.00  0.00     0.064 A 
ATOM     21  C   UNL A   1      33.004  23.008  21.927  1.00  0.00     0.046 C 
ATOM     22  C   UNL A   1      32.373  21.202  23.322  1.00  0.00     0.005 A 
ATOM     23  C   UNL A   1      31.844  21.513  25.609  1.00  0.00     0.023 A 
ATOM     24  Cl  UNL A   1      30.824  23.722  26.678  1.00  0.00    -0.082 Cl
ATOM     25  C   UNL A   1      32.287  20.688  24.601  1.00  0.00     0.002 A 
ENDBRANCH  16  18
ENDBRANCH   8  12
ENDBRANCH   5   8
ENDBRANCH   3   4
ENDBRANCH   2   3
ENDBRANCH   1   2
BRANCH   1  26
ATOM     26  C   UNL A   1      31.514  30.916  26.176  1.00  0.00     0.002 C 
BRANCH  26  27
ATOM     27  C   UNL A   1      31.326  32.370  26.561  1.00  0.00     0.021 C 
BRANCH  27  28
ATOM     28  C   UNL A   1      32.555  33.035  27.146  1.00  0.00     0.116 C 
BRANCH  28  29
ATOM     29  N   UNL A   1      32.300  34.374  27.648  1.00  0.00    -0.352 N 
ATOM     30  C   UNL A   1      32.950  35.041  28.668  1.00  0.00     0.251 C 
ATOM     31  H   UNL A   1      31.574  34.869  27.206  1.00  0.00     0.163 HD
ATOM     32  O   UNL A   1      32.547  36.117  29.069  1.00  0.00    -0.269 OA
BRANCH  30  33
ATOM     33  C   UNL A   1      34.129  34.402  29.300  1.00  0.00     0.039 A 
ATOM     34  C   UNL A   1      33.930  33.495  30.341  1.00  0.00     0.014 A 
ATOM     35  C   UNL A   1      35.421  34.670  28.838  1.00  0.00     0.014 A 
ATOM     36  C   UNL A   1      35.025  32.816  30.882  1.00  0.00     0.010 A 
ATOM     37  C   UNL A   1      36.492  33.916  29.302  1.00  0.00     0.010 A 
ATOM     38  C   UNL A   1      36.312  32.999  30.346  1.00  0.00    -0.014 A 
BRANCH  38  39
ATOM     39  C   UNL A   1      37.487  32.284  30.905  1.00  0.00     0.031 A 
ATOM     40  C   UNL A   1      38.013  32.668  32.263  1.00  0.00     0.074 A 
ATOM     41  C   UNL A   1      38.098  31.321  30.187  1.00  0.00     0.049 A 
ATOM     42  N   UNL A   1      39.055  32.208  32.909  1.00  0.00    -0.248 NA
ATOM     43  C   UNL A   1      37.289  33.732  32.979  1.00  0.00     0.031 C 
ATOM     44  C   UNL A   1      37.715  30.893  28.842  1.00  0.00     0.029 A 
ATOM     45  N   UNL A   1      39.181  30.532  30.489  1.00  0.00    -0.354 N 
ATOM     46  C   UNL A   1      39.105  32.923  34.099  1.00  0.00     0.074 A 
ATOM     47  C   UNL A   1      38.043  33.902  34.053  1.00  0.00     0.031 C 
ATOM     48  C   UNL A   1      38.532  29.903  28.445  1.00  0.00     0.029 A 
ATOM     49  C   UNL A   1      39.520  29.653  29.489  1.00  0.00     0.049 A 
ATOM     50  H   UNL A   1      39.668  30.591  31.343  1.00  0.00     0.167 HD
ATOM     51  C   UNL A   1      39.933  32.752  35.156  1.00  0.00     0.037 A 
ATOM     52  C   UNL A   1      40.520  28.754  29.423  1.00  0.00     0.037 A 
ATOM     53  C   UNL A   1      40.980  31.767  35.208  1.00  0.00     0.049 A 
ATOM     54  C   UNL A   1      41.443  28.601  30.606  1.00  0.00     0.074 A 
ATOM     55  C   UNL A   1      41.870  31.504  36.234  1.00  0.00     0.029 A 
ATOM     56  N   UNL A   1      41.274  30.876  34.185  1.00  0.00    -0.354 N 
ATOM     57  N   UNL A   1      41.446  29.248  31.746  1.00  0.00    -0.248 NA
ATOM     58  C   UNL A   1      42.491  27.576  30.498  1.00  0.00     0.031 C 
ATOM     59  C   UNL A   1      42.729  30.483  35.818  1.00  0.00     0.029 A 
ATOM     60  C   UNL A   1      42.334  30.066  34.557  1.00  0.00     0.049 A 
ATOM     61  H   UNL A   1      40.799  30.827  33.324  1.00  0.00     0.167 HD
ATOM     62  C   UNL A   1      42.462  28.680  32.505  1.00  0.00     0.074 A 
ATOM     63  C   UNL A   1      43.043  27.626  31.701  1.00  0.00     0.031 C 
ATOM     64  C   UNL A   1      42.879  29.001  33.755  1.00  0.00     0.037 A 
BRANCH  51  65
ATOM     65  C   UNL A   1      39.722  33.633  36.354  1.00  0.00     0.064 A 
ATOM     66  C   UNL A   1      40.348  34.885  36.458  1.00  0.00     0.173 A 
ATOM     67  C   UNL A   1      38.854  33.247  37.385  1.00  0.00     0.173 A 
ATOM     68  F   UNL A   1      41.201  35.297  35.507  1.00  0.00    -0.203 F 
ATOM     69  C   UNL A   1      40.131  35.706  37.561  1.00  0.00     0.198 A 
ATOM     70  C   UNL A   1      38.612  34.086  38.470  1.00  0.00     0.198 A 
ATOM     71  F   UNL A   1      38.227  32.062  37.335  1.00  0.00    -0.203 F 
ATOM     72  F   UNL A   1      40.779  36.876  37.661  1.00  0.00    -0.200 F 
ATOM     73  C   UNL A   1      39.256  35.312  38.560  1.00  0.00     0.200 A 
ATOM     74  F   UNL A   1      37.754  33.710  39.429  1.00  0.00    -0.200 F 
ATOM     75  F   UNL A   1      39.036  36.110  39.614  1.00  0.00    -0.200 F 
ENDBRANCH  51  65
BRANCH  52  76
ATOM     76  C   UNL A   1      40.706  27.918  28.205  1.00  0.00     0.064 A 
ATOM     77  C   UNL A   1      40.137  26.639  28.109  1.00  0.00     0.173 A 
ATOM     78  C   UNL A   1      41.497  28.358  27.135  1.00  0.00     0.173 A 
ATOM     79  F   UNL A   1      39.385  26.162  29.113  1.00  0.00    -0.203 F 
ATOM     80  C   UNL A   1      40.392  25.816  27.013  1.00  0.00     0.198 A 
ATOM     81  C   UNL A   1      41.720  27.550  26.022  1.00  0.00     0.198 A 
ATOM     82  F   UNL A   1      42.058  29.576  27.170  1.00  0.00    -0.203 F 
ATOM     83  F   UNL A   1      39.898  24.571  26.984  1.00  0.00    -0.200 F 
ATOM     84  C   UNL A   1      41.181  26.274  25.969  1.00  0.00     0.200 A 
ATOM     85  F   UNL A   1      42.469  28.003  25.007  1.00  0.00    -0.200 F 
ATOM     86  F   UNL A   1      41.433  25.480  24.920  1.00  0.00    -0.200 F 
ENDBRANCH  52  76
BRANCH  64  87
ATOM     87  C   UNL A   1      43.965  28.156  34.359  1.00  0.00     0.064 A 
ATOM     88  C   UNL A   1      43.689  26.967  35.048  1.00  0.00     0.173 A 
ATOM     89  C   UNL A   1      45.310  28.536  34.218  1.00  0.00     0.173 A 
ATOM     90  F   UNL A   1      42.420  26.564  35.221  1.00  0.00    -0.203 F 
ATOM     91  C   UNL A   1      44.714  26.212  35.611  1.00  0.00     0.198 A 
ATOM     92  C   UNL A   1      46.334  27.759  34.749  1.00  0.00     0.198 A 
ATOM     93  F   UNL A   1      45.630  29.658  33.557  1.00  0.00    -0.203 F 
ATOM     94  F   UNL A   1      44.421  25.114  36.323  1.00  0.00    -0.200 F 
ATOM     95  C   UNL A   1      46.036  26.604  35.456  1.00  0.00     0.200 A 
ATOM     96  F   UNL A   1      47.610  28.129  34.581  1.00  0.00    -0.200 F 
ATOM     97  F   UNL A   1      47.020  25.874  35.995  1.00  0.00    -0.200 F 
ENDBRANCH  64  87
ENDBRANCH  38  39
ENDBRANCH  30  33
ENDBRANCH  28  29
ENDBRANCH  27  28
ENDBRANCH  26  27
ENDBRANCH   1  26
TORSDOF 16
ENDMDL
MODEL 3
REMARK VINA RESULT:     -12.1      1.350      7.523
REMARK SMILES CC[C@@](C)(NC(=O)Nc1c(C)cccc1Cl)C(=O)NCCCCCCNC(=O)c1ccc(-c2c3nc(c(-c4c(F)c(F)c(F)c(F)c4F)c4ccc([nH]4)c(-c4c(F)c(F)c(F)c(F)c4F)c4nc(c(-c5c(F)c(F)c(F)c(F)c5F)c5ccc2[nH]5)C=C4)C=C3)cc1
REMARK SMILES IDX 22 1 21 2 20 3 19 4 17 5 18 6 3 8 4 9 2 10 1 11 5 12 6 13
REMARK SMILES IDX 7 15 8 16 9 18 10 19 15 20 11 21 12 22 14 23 16 24 13 25
REMARK SMILES IDX 23 26 24 27 25 28 26 29 27 30 28 32 29 33 30 34 91 35 31 36
REMARK SMILES IDX 90 37 32 38 33 39 34 40 84 41 35 42 89 43 83 44 85 45 36 46
REMARK SMILES IDX 88 47 82 48 81 49 37 51 69 52 49 53 68 54 50 55 53 56 67 57
REMARK SMILES IDX 86 58 51 59 52 60 66 62 87 63 54 64 38 65 39 66 47 67 40 68
REMARK SMILES IDX 41 69 45 70 48 71 42 72 43 73 46 74 44 75 70 76 71 77 79 78
REMARK SMILES IDX 72 79 73 80 77 81 80 82 74 83 75 84 78 85 76 86 55 87 56 88
REMARK SMILES IDX 64 89 57 90 58 91 62 92 65 93 59 94 60 95 63 96 61 97
REMARK H PARENT 19 7 5 14 8 17 26 31 85 50 53 61
REMARK Flexibility Score: inf
ROOT
ATOM      1  C   UNL A   1      32.220  29.562  26.961  1.00  0.00     0.002 C 
ENDROOT
BRANCH   1   2
ATOM      2  C   UNL A   1      33.621  28.983  26.712  1.00  0.00     0.021 C 
BRANCH   2   3
ATOM      3  C   UNL A   1      33.835  27.764  25.793  1.00  0.00     0.116 C 
BRANCH   3   4
ATOM      4  N   UNL A   1      33.349  26.482  26.274  1.00  0.00    -0.354 N 
ATOM      5  C   UNL A   1      32.674  25.413  25.683  1.00  0.00     0.245 C 
ATOM      6  O   UNL A   1      32.999  24.254  25.951  1.00  0.00    -0.272 OA
ATOM      7  H   UNL A   1      33.537  26.334  27.229  1.00  0.00     0.163 HD
BRANCH   5   8
ATOM      8  C   UNL A   1      31.629  25.677  24.600  1.00  0.00     0.117 C 
ATOM      9  C   UNL A   1      30.916  24.307  24.479  1.00  0.00     0.045 C 
BRANCH   8  10
ATOM     10  C   UNL A   1      30.529  26.767  24.735  1.00  0.00     0.035 C 
ATOM     11  C   UNL A   1      30.229  27.668  23.557  1.00  0.00     0.007 C 
ENDBRANCH   8  10
BRANCH   8  12
ATOM     12  N   UNL A   1      32.439  26.033  23.452  1.00  0.00    -0.324 N 
ATOM     13  C   UNL A   1      33.294  25.324  22.716  1.00  0.00     0.320 C 
ATOM     14  H   UNL A   1      32.341  26.970  23.164  1.00  0.00     0.166 HD
ATOM     15  O   UNL A   1      33.928  26.011  21.895  1.00  0.00    -0.248 OA
ATOM     16  N   UNL A   1      33.628  24.027  22.726  1.00  0.00    -0.306 N 
ATOM     17  H   UNL A   1      34.203  23.923  21.934  1.00  0.00     0.171 HD
BRANCH  16  18
ATOM     18  C   UNL A   1      33.582  22.703  23.297  1.00  0.00     0.064 A 
ATOM     19  C   UNL A   1      32.699  21.580  23.272  1.00  0.00    -0.026 A 
ATOM     20  C   UNL A   1      34.809  22.440  23.987  1.00  0.00     0.064 A 
ATOM     21  C   UNL A   1      31.876  21.005  22.125  1.00  0.00     0.046 C 
ATOM     22  C   UNL A   1      32.875  20.527  24.217  1.00  0.00     0.005 A 
ATOM     23  C   UNL A   1      35.037  21.312  24.780  1.00  0.00     0.023 A 
ATOM     24  Cl  UNL A   1      36.168  23.535  23.862  1.00  0.00    -0.082 Cl
ATOM     25  C   UNL A   1      34.034  20.386  24.954  1.00  0.00     0.002 A 
ENDBRANCH  16  18
ENDBRANCH   8  12
ENDBRANCH   5   8
ENDBRANCH   3   4
ENDBRANCH   2   3
ENDBRANCH   1   2
BRANCH   1  26
ATOM     26  C   UNL A   1      31.726  30.729  26.106  1.00  0.00     0.002 C 
BRANCH  26  27
ATOM     27  C   UNL A   1      31.425  32.033  26.818  1.00  0.00     0.021 C 
BRANCH  27  28
ATOM     28  C   UNL A   1      32.648  32.811  27.258  1.00  0.00     0.116 C 
BRANCH  28  29
ATOM     29  N   UNL A   1      32.362  34.199  27.578  1.00  0.00    -0.352 N 
ATOM     30  C   UNL A   1      32.955  34.993  28.540  1.00  0.00     0.251 C 
ATOM     31  H   UNL A   1      31.657  34.628  27.043  1.00  0.00     0.163 HD
ATOM     32  O   UNL A   1      32.528  36.105  28.784  1.00  0.00    -0.269 OA
BRANCH  30  33
ATOM     33  C   UNL A   1      34.104  34.449  29.303  1.00  0.00     0.039 A 
ATOM     34  C   UNL A   1      33.862  33.774  30.501  1.00  0.00     0.014 A 
ATOM     35  C   UNL A   1      35.409  34.572  28.818  1.00  0.00     0.014 A 
ATOM     36  C   UNL A   1      34.925  33.177  31.182  1.00  0.00     0.010 A 
ATOM     37  C   UNL A   1      36.446  33.886  29.438  1.00  0.00     0.010 A 
ATOM     38  C   UNL A   1      36.222  33.202  30.640  1.00  0.00    -0.014 A 
BRANCH  38  39
ATOM     39  C   UNL A   1      37.364  32.569  31.347  1.00  0.00     0.031 A 
ATOM     40  C   UNL A   1      38.100  31.428  30.697  1.00  0.00     0.074 A 
ATOM     41  C   UNL A   1      37.717  32.992  32.577  1.00  0.00     0.049 A 
ATOM     42  N   UNL A   1      39.087  30.705  31.163  1.00  0.00    -0.248 NA
ATOM     43  C   UNL A   1      37.648  31.025  29.354  1.00  0.00     0.031 C 
ATOM     44  C   UNL A   1      37.053  34.055  33.332  1.00  0.00     0.029 A 
ATOM     45  N   UNL A   1      38.723  32.572  33.412  1.00  0.00    -0.354 N 
ATOM     46  C   UNL A   1      39.370  29.772  30.173  1.00  0.00     0.074 A 
ATOM     47  C   UNL A   1      38.401  29.963  29.118  1.00  0.00     0.031 C 
ATOM     48  C   UNL A   1      37.683  34.220  34.507  1.00  0.00     0.029 A 
ATOM     49  C   UNL A   1      38.770  33.252  34.605  1.00  0.00     0.049 A 
ATOM     50  H   UNL A   1      39.352  31.852  33.176  1.00  0.00     0.167 HD
ATOM     51  C   UNL A   1      40.374  28.865  30.126  1.00  0.00     0.037 A 
ATOM     52  C   UNL A   1      39.594  33.102  35.660  1.00  0.00     0.037 A 
ATOM     53  C   UNL A   1      41.347  28.685  31.169  1.00  0.00     0.049 A 
ATOM     54  C   UNL A   1      40.688  32.067  35.590  1.00  0.00     0.074 A 
ATOM     55  C   UNL A   1      42.409  27.800  31.217  1.00  0.00     0.029 A 
ATOM     56  N   UNL A   1      41.377  29.412  32.351  1.00  0.00    -0.354 N 
ATOM     57  N   UNL A   1      40.976  31.227  34.626  1.00  0.00    -0.248 NA
ATOM     58  C   UNL A   1      41.585  31.974  36.751  1.00  0.00     0.031 C 
ATOM     59  C   UNL A   1      43.059  27.962  32.444  1.00  0.00     0.029 A 
ATOM     60  C   UNL A   1      42.439  28.992  33.134  1.00  0.00     0.049 A 
ATOM     61  H   UNL A   1      40.740  30.121  32.595  1.00  0.00     0.167 HD
ATOM     62  C   UNL A   1      42.109  30.540  35.043  1.00  0.00     0.074 A 
ATOM     63  C   UNL A   1      42.465  31.072  36.341  1.00  0.00     0.031 C 
ATOM     64  C   UNL A   1      42.796  29.556  34.410  1.00  0.00     0.037 A 
BRANCH  51  65
ATOM     65  C   UNL A   1      40.484  28.014  28.892  1.00  0.00     0.064 A 
ATOM     66  C   UNL A   1      39.790  26.799  28.779  1.00  0.00     0.173 A 
ATOM     67  C   UNL A   1      41.250  28.435  27.797  1.00  0.00     0.173 A 
ATOM     68  F   UNL A   1      39.054  26.342  29.804  1.00  0.00    -0.203 F 
ATOM     69  C   UNL A   1      39.879  26.027  27.625  1.00  0.00     0.198 A 
ATOM     70  C   UNL A   1      41.310  27.677  26.630  1.00  0.00     0.198 A 
ATOM     71  F   UNL A   1      41.931  29.590  27.850  1.00  0.00    -0.203 F 
ATOM     72  F   UNL A   1      39.247  24.846  27.559  1.00  0.00    -0.200 F 
ATOM     73  C   UNL A   1      40.630  26.471  26.547  1.00  0.00     0.200 A 
ATOM     74  F   UNL A   1      42.024  28.114  25.583  1.00  0.00    -0.200 F 
ATOM     75  F   UNL A   1      40.703  25.733  25.431  1.00  0.00    -0.200 F 
ENDBRANCH  51  65
BRANCH  52  76
ATOM     76  C   UNL A   1      39.432  33.951  36.872  1.00  0.00     0.064 A 
ATOM     77  C   UNL A   1      40.023  35.222  36.952  1.00  0.00     0.173 A 
ATOM     78  C   UNL A   1      38.728  33.492  37.993  1.00  0.00     0.173 A 
ATOM     79  F   UNL A   1      40.723  35.702  35.913  1.00  0.00    -0.203 F 
ATOM     80  C   UNL A   1      39.957  35.976  38.123  1.00  0.00     0.198 A 
ATOM     81  C   UNL A   1      38.629  34.263  39.150  1.00  0.00     0.198 A 
ATOM     82  F   UNL A   1      38.135  32.289  37.969  1.00  0.00    -0.203 F 
ATOM     83  F   UNL A   1      40.596  37.151  38.196  1.00  0.00    -0.200 F 
ATOM     84  C   UNL A   1      39.258  35.497  39.220  1.00  0.00     0.200 A 
ATOM     85  F   UNL A   1      37.937  33.804  40.201  1.00  0.00    -0.200 F 
ATOM     86  F   UNL A   1      39.201  36.218  40.347  1.00  0.00    -0.200 F 
ENDBRANCH  52  76
BRANCH  64  87
ATOM     87  C   UNL A   1      44.042  29.045  35.077  1.00  0.00     0.064 A 
ATOM     88  C   UNL A   1      44.020  27.965  35.972  1.00  0.00     0.173 A 
ATOM     89  C   UNL A   1      45.284  29.635  34.791  1.00  0.00     0.173 A 
ATOM     90  F   UNL A   1      42.858  27.373  36.288  1.00  0.00    -0.203 F 
ATOM     91  C   UNL A   1      45.188  27.524  36.588  1.00  0.00     0.198 A 
ATOM     92  C   UNL A   1      46.453  29.166  35.380  1.00  0.00     0.198 A 
ATOM     93  F   UNL A   1      45.363  30.663  33.933  1.00  0.00    -0.203 F 
ATOM     94  F   UNL A   1      45.133  26.533  37.490  1.00  0.00    -0.200 F 
ATOM     95  C   UNL A   1      46.404  28.119  36.287  1.00  0.00     0.200 A 
ATOM     96  F   UNL A   1      47.630  29.730  35.072  1.00  0.00    -0.200 F 
ATOM     97  F   UNL A   1      47.526  27.689  36.878  1.00  0.00    -0.200 F 
ENDBRANCH  64  87
ENDBRANCH  38  39
ENDBRANCH  30  33
ENDBRANCH  28  29
ENDBRANCH  27  28
ENDBRANCH  26  27
ENDBRANCH   1  26
TORSDOF 16
ENDMDL
