MODEL 1
REMARK VINA RESULT:     -11.4      0.000      0.000
REMARK SMILES O=C(NCCCCCCNC(=O)[C@H](F)[C@H](O)C1CCOCC1)c1ccc(-c2c3nc(c(-c4c(F)c(F)c(F)c(F)c4F)c4ccc([nH]4)c(-c4c(F)c(F)c(F)c(F)c4F)c4nc(c(-c5c(F)c(F)c(F)c(F)c5F)c5ccc2[nH]5)C=C4)C=C3)cc1
REMARK SMILES IDX 6 1 5 2 4 3 3 4 1 5 2 6 23 8 24 9 85 10 25 11 84 12 26 13
REMARK SMILES IDX 27 14 28 15 78 16 29 17 83 18 77 19 79 20 30 21 82 22 76 23
REMARK SMILES IDX 75 24 31 26 63 27 43 28 62 29 44 30 47 31 61 32 80 33 45 34
REMARK SMILES IDX 46 35 60 37 81 38 48 39 32 40 33 41 41 42 34 43 35 44 39 45
REMARK SMILES IDX 42 46 36 47 37 48 40 49 38 50 64 51 65 52 73 53 66 54 67 55
REMARK SMILES IDX 71 56 74 57 68 58 69 59 72 60 70 61 49 62 50 63 58 64 51 65
REMARK SMILES IDX 52 66 56 67 59 68 53 69 54 70 57 71 55 72 7 73 8 74 9 75
REMARK SMILES IDX 10 76 11 77 12 79 13 80 14 81 15 82 17 83 18 84 22 85 19 86
REMARK SMILES IDX 21 87 20 88 16 89
REMARK H PARENT 3 7 79 25 47 36 10 78 16 90
REMARK Flexibility Score: inf
ROOT
ATOM      1  C   UNL A   1      31.487  30.853  26.077  1.00  0.00     0.002 C 
ENDROOT
BRANCH   1   2
ATOM      2  C   UNL A   1      31.300  32.233  26.706  1.00  0.00     0.021 C 
BRANCH   2   3
ATOM      3  C   UNL A   1      32.593  32.892  27.169  1.00  0.00     0.116 C 
BRANCH   3   4
ATOM      4  N   UNL A   1      32.382  34.266  27.600  1.00  0.00    -0.352 N 
ATOM      5  O   UNL A   1      32.559  36.049  28.972  1.00  0.00    -0.269 OA
ATOM      6  C   UNL A   1      32.998  34.961  28.608  1.00  0.00     0.251 C 
ATOM      7  H   UNL A   1      31.699  34.766  27.097  1.00  0.00     0.163 HD
BRANCH   6   8
ATOM      8  C   UNL A   1      34.185  34.386  29.272  1.00  0.00     0.039 A 
ATOM      9  C   UNL A   1      35.472  34.685  28.816  1.00  0.00     0.014 A 
ATOM     10  C   UNL A   1      34.004  33.543  30.370  1.00  0.00     0.014 A 
ATOM     11  C   UNL A   1      36.570  34.040  29.373  1.00  0.00     0.010 A 
ATOM     12  C   UNL A   1      35.115  32.960  30.982  1.00  0.00     0.010 A 
ATOM     13  C   UNL A   1      36.404  33.183  30.470  1.00  0.00    -0.014 A 
BRANCH  13  14
ATOM     14  C   UNL A   1      37.587  32.559  31.112  1.00  0.00     0.031 A 
ATOM     15  C   UNL A   1      38.331  31.445  30.436  1.00  0.00     0.074 A 
ATOM     16  C   UNL A   1      37.971  32.991  32.328  1.00  0.00     0.049 A 
ATOM     17  N   UNL A   1      39.334  30.730  30.879  1.00  0.00    -0.248 NA
ATOM     18  C   UNL A   1      37.883  31.077  29.085  1.00  0.00     0.031 C 
ATOM     19  C   UNL A   1      37.326  34.068  33.081  1.00  0.00     0.029 A 
ATOM     20  N   UNL A   1      38.988  32.574  33.148  1.00  0.00    -0.354 N 
ATOM     21  C   UNL A   1      39.622  29.815  29.875  1.00  0.00     0.074 A 
ATOM     22  C   UNL A   1      38.669  30.046  28.811  1.00  0.00     0.031 C 
ATOM     23  C   UNL A   1      37.969  34.236  34.244  1.00  0.00     0.029 A 
ATOM     24  C   UNL A   1      39.027  33.237  34.349  1.00  0.00     0.049 A 
ATOM     25  H   UNL A   1      39.628  31.867  32.899  1.00  0.00     0.167 HD
ATOM     26  C   UNL A   1      40.596  28.873  29.848  1.00  0.00     0.037 A 
ATOM     27  C   UNL A   1      39.803  33.041  35.430  1.00  0.00     0.037 A 
ATOM     28  C   UNL A   1      41.538  28.654  30.917  1.00  0.00     0.049 A 
ATOM     29  C   UNL A   1      40.841  31.955  35.396  1.00  0.00     0.074 A 
ATOM     30  C   UNL A   1      42.583  27.749  30.974  1.00  0.00     0.029 A 
ATOM     31  N   UNL A   1      41.538  29.338  32.125  1.00  0.00    -0.354 N 
ATOM     32  N   UNL A   1      41.130  31.117  34.431  1.00  0.00    -0.248 NA
ATOM     33  C   UNL A   1      41.664  31.790  36.602  1.00  0.00     0.031 C 
ATOM     34  C   UNL A   1      43.173  27.840  32.239  1.00  0.00     0.029 A 
ATOM     35  C   UNL A   1      42.546  28.854  32.945  1.00  0.00     0.049 A 
ATOM     36  H   UNL A   1      40.914  30.061  32.365  1.00  0.00     0.167 HD
ATOM     37  C   UNL A   1      42.186  30.347  34.896  1.00  0.00     0.074 A 
ATOM     38  C   UNL A   1      42.490  30.823  36.230  1.00  0.00     0.031 C 
ATOM     39  C   UNL A   1      42.847  29.343  34.268  1.00  0.00     0.037 A 
BRANCH  26  40
ATOM     40  C   UNL A   1      40.669  27.984  28.637  1.00  0.00     0.064 A 
ATOM     41  C   UNL A   1      41.447  28.315  27.517  1.00  0.00     0.173 A 
ATOM     42  C   UNL A   1      39.962  26.771  28.605  1.00  0.00     0.173 A 
ATOM     43  F   UNL A   1      42.138  29.465  27.490  1.00  0.00    -0.203 F 
ATOM     44  C   UNL A   1      41.481  27.488  26.396  1.00  0.00     0.198 A 
ATOM     45  C   UNL A   1      40.027  25.931  27.496  1.00  0.00     0.198 A 
ATOM     46  F   UNL A   1      39.209  26.398  29.650  1.00  0.00    -0.203 F 
ATOM     47  F   UNL A   1      42.181  27.858  25.314  1.00  0.00    -0.200 F 
ATOM     48  C   UNL A   1      40.776  26.295  26.389  1.00  0.00     0.200 A 
ATOM     49  F   UNL A   1      39.356  24.770  27.499  1.00  0.00    -0.200 F 
ATOM     50  F   UNL A   1      40.809  25.501  25.310  1.00  0.00    -0.200 F 
ENDBRANCH  26  40
BRANCH  27  51
ATOM     51  C   UNL A   1      39.610  33.893  36.631  1.00  0.00     0.064 A 
ATOM     52  C   UNL A   1      38.805  33.470  37.694  1.00  0.00     0.173 A 
ATOM     53  C   UNL A   1      40.260  35.131  36.754  1.00  0.00     0.173 A 
ATOM     54  F   UNL A   1      38.152  32.301  37.615  1.00  0.00    -0.203 F 
ATOM     55  C   UNL A   1      38.646  34.257  38.833  1.00  0.00     0.198 A 
ATOM     56  C   UNL A   1      40.126  35.902  37.905  1.00  0.00     0.198 A 
ATOM     57  F   UNL A   1      41.052  35.577  35.767  1.00  0.00    -0.203 F 
ATOM     58  F   UNL A   1      37.841  33.844  39.822  1.00  0.00    -0.200 F 
ATOM     59  C   UNL A   1      39.313  35.467  38.942  1.00  0.00     0.200 A 
ATOM     60  F   UNL A   1      40.790  37.062  38.015  1.00  0.00    -0.200 F 
ATOM     61  F   UNL A   1      39.173  36.216  40.044  1.00  0.00    -0.200 F 
ENDBRANCH  27  51
BRANCH  39  62
ATOM     62  C   UNL A   1      44.007  28.721  34.993  1.00  0.00     0.064 A 
ATOM     63  C   UNL A   1      43.856  27.591  35.808  1.00  0.00     0.173 A 
ATOM     64  C   UNL A   1      45.301  29.239  34.819  1.00  0.00     0.173 A 
ATOM     65  F   UNL A   1      42.639  27.068  36.020  1.00  0.00    -0.203 F 
ATOM     66  C   UNL A   1      44.955  27.012  36.439  1.00  0.00     0.198 A 
ATOM     67  C   UNL A   1      46.401  28.638  35.424  1.00  0.00     0.198 A 
ATOM     68  F   UNL A   1      45.500  30.317  34.047  1.00  0.00    -0.203 F 
ATOM     69  F   UNL A   1      44.782  25.958  37.249  1.00  0.00    -0.200 F 
ATOM     70  C   UNL A   1      46.227  27.529  36.238  1.00  0.00     0.200 A 
ATOM     71  F   UNL A   1      47.629  29.131  35.215  1.00  0.00    -0.200 F 
ATOM     72  F   UNL A   1      47.285  26.962  36.834  1.00  0.00    -0.200 F 
ENDBRANCH  39  62
ENDBRANCH  13  14
ENDBRANCH   6   8
ENDBRANCH   3   4
ENDBRANCH   2   3
ENDBRANCH   1   2
BRANCH   1  73
ATOM     73  C   UNL A   1      32.719  30.084  26.566  1.00  0.00     0.002 C 
BRANCH  73  74
ATOM     74  C   UNL A   1      32.423  28.712  27.188  1.00  0.00     0.021 C 
BRANCH  74  75
ATOM     75  C   UNL A   1      31.573  27.801  26.307  1.00  0.00     0.116 C 
BRANCH  75  76
ATOM     76  N   UNL A   1      32.238  27.518  25.049  1.00  0.00    -0.353 N 
ATOM     77  C   UNL A   1      31.753  27.705  23.784  1.00  0.00     0.257 C 
ATOM     78  H   UNL A   1      33.146  27.145  25.114  1.00  0.00     0.163 HD
ATOM     79  O   UNL A   1      32.458  27.382  22.826  1.00  0.00    -0.272 OA
BRANCH  77  80
ATOM     80  C   UNL A   1      30.393  28.374  23.627  1.00  0.00     0.283 C 
ATOM     81  F   UNL A   1      29.374  27.478  23.801  1.00  0.00    -0.234 F 
BRANCH  80  82
ATOM     82  C   UNL A   1      30.246  29.049  22.255  1.00  0.00     0.161 C 
BRANCH  82  83
ATOM     83  C   UNL A   1      29.011  29.988  22.258  1.00  0.00     0.026 C 
ATOM     84  C   UNL A   1      29.060  30.958  21.065  1.00  0.00     0.035 C 
ATOM     85  C   UNL A   1      28.830  30.782  23.559  1.00  0.00     0.035 C 
ATOM     86  C   UNL A   1      27.878  31.920  21.095  1.00  0.00     0.160 C 
ATOM     87  C   UNL A   1      27.647  31.734  23.444  1.00  0.00     0.160 C 
ATOM     88  O   UNL A   1      27.819  32.617  22.337  1.00  0.00    -0.381 OA
ENDBRANCH  82  83
BRANCH  82  89
ATOM     89  O   UNL A   1      31.433  29.795  21.956  1.00  0.00    -0.389 OA
ATOM     90  H   UNL A   1      31.298  30.306  21.143  1.00  0.00     0.211 HD
ENDBRANCH  82  89
ENDBRANCH  80  82
ENDBRANCH  77  80
ENDBRANCH  75  76
ENDBRANCH  74  75
ENDBRANCH  73  74
ENDBRANCH   1  73
TORSDOF 16
ENDMDL
MODEL 2
REMARK VINA RESULT:     -11.4      6.635     11.888
REMARK SMILES O=C(NCCCCCCNC(=O)[C@H](F)[C@H](O)C1CCOCC1)c1ccc(-c2c3nc(c(-c4c(F)c(F)c(F)c(F)c4F)c4ccc([nH]4)c(-c4c(F)c(F)c(F)c(F)c4F)c4nc(c(-c5c(F)c(F)c(F)c(F)c5F)c5ccc2[nH]5)C=C4)C=C3)cc1
REMARK SMILES IDX 6 1 5 2 4 3 3 4 1 5 2 6 23 8 24 9 85 10 25 11 84 12 26 13
REMARK SMILES IDX 27 14 28 15 78 16 29 17 83 18 77 19 79 20 30 21 82 22 76 23
REMARK SMILES IDX 75 24 31 26 63 27 43 28 62 29 44 30 47 31 61 32 80 33 45 34
REMARK SMILES IDX 46 35 60 37 81 38 48 39 32 40 33 41 41 42 34 43 35 44 39 45
REMARK SMILES IDX 42 46 36 47 37 48 40 49 38 50 64 51 65 52 73 53 66 54 67 55
REMARK SMILES IDX 71 56 74 57 68 58 69 59 72 60 70 61 49 62 50 63 58 64 51 65
REMARK SMILES IDX 52 66 56 67 59 68 53 69 54 70 57 71 55 72 7 73 8 74 9 75
REMARK SMILES IDX 10 76 11 77 12 79 13 80 14 81 15 82 17 83 18 84 22 85 19 86
REMARK SMILES IDX 21 87 20 88 16 89
REMARK H PARENT 3 7 79 25 47 36 10 78 16 90
REMARK Flexibility Score: inf
ROOT
ATOM      1  C   UNL A   1      36.759  20.599  24.998  1.00  0.00     0.002 C 
ENDROOT
BRANCH   1   2
ATOM      2  C   UNL A   1      38.018  19.736  24.917  1.00  0.00     0.021 C 
BRANCH   2   3
ATOM      3  C   UNL A   1      39.124  20.148  25.879  1.00  0.00     0.116 C 
BRANCH   3   4
ATOM      4  N   UNL A   1      40.195  19.164  25.934  1.00  0.00    -0.352 N 
ATOM      5  O   UNL A   1      42.329  18.432  25.900  1.00  0.00    -0.269 OA
ATOM      6  C   UNL A   1      41.544  19.360  26.075  1.00  0.00     0.251 C 
ATOM      7  H   UNL A   1      39.909  18.225  25.859  1.00  0.00     0.163 HD
BRANCH   6   8
ATOM      8  C   UNL A   1      42.055  20.702  26.422  1.00  0.00     0.039 A 
ATOM      9  C   UNL A   1      42.298  21.050  27.753  1.00  0.00     0.014 A 
ATOM     10  C   UNL A   1      42.299  21.618  25.397  1.00  0.00     0.014 A 
ATOM     11  C   UNL A   1      42.660  22.354  28.072  1.00  0.00     0.010 A 
ATOM     12  C   UNL A   1      42.743  22.902  25.713  1.00  0.00     0.010 A 
ATOM     13  C   UNL A   1      42.900  23.289  27.055  1.00  0.00    -0.014 A 
BRANCH  13  14
ATOM     14  C   UNL A   1      43.364  24.655  27.395  1.00  0.00     0.031 A 
ATOM     15  C   UNL A   1      42.419  25.667  27.974  1.00  0.00     0.074 A 
ATOM     16  C   UNL A   1      44.647  24.987  27.154  1.00  0.00     0.049 A 
ATOM     17  N   UNL A   1      42.626  26.927  28.258  1.00  0.00    -0.248 NA
ATOM     18  C   UNL A   1      41.054  25.203  28.264  1.00  0.00     0.031 C 
ATOM     19  C   UNL A   1      45.657  24.087  26.595  1.00  0.00     0.029 A 
ATOM     20  N   UNL A   1      45.317  26.169  27.336  1.00  0.00    -0.354 N 
ATOM     21  C   UNL A   1      41.417  27.414  28.737  1.00  0.00     0.074 A 
ATOM     22  C   UNL A   1      40.471  26.320  28.678  1.00  0.00     0.031 C 
ATOM     23  C   UNL A   1      46.821  24.744  26.494  1.00  0.00     0.029 A 
ATOM     24  C   UNL A   1      46.622  26.126  26.915  1.00  0.00     0.049 A 
ATOM     25  H   UNL A   1      44.903  26.970  27.731  1.00  0.00     0.167 HD
ATOM     26  C   UNL A   1      41.129  28.660  29.187  1.00  0.00     0.037 A 
ATOM     27  C   UNL A   1      47.549  27.099  26.841  1.00  0.00     0.037 A 
ATOM     28  C   UNL A   1      42.081  29.741  29.238  1.00  0.00     0.049 A 
ATOM     29  C   UNL A   1      47.190  28.485  27.296  1.00  0.00     0.074 A 
ATOM     30  C   UNL A   1      41.899  31.029  29.708  1.00  0.00     0.029 A 
ATOM     31  N   UNL A   1      43.393  29.662  28.791  1.00  0.00    -0.354 N 
ATOM     32  N   UNL A   1      46.055  28.928  27.779  1.00  0.00    -0.248 NA
ATOM     33  C   UNL A   1      48.242  29.505  27.198  1.00  0.00     0.031 C 
ATOM     34  C   UNL A   1      43.078  31.748  29.484  1.00  0.00     0.029 A 
ATOM     35  C   UNL A   1      44.021  30.888  28.944  1.00  0.00     0.049 A 
ATOM     36  H   UNL A   1      43.815  28.854  28.417  1.00  0.00     0.167 HD
ATOM     37  C   UNL A   1      46.263  30.268  28.073  1.00  0.00     0.074 A 
ATOM     38  C   UNL A   1      47.635  30.563  27.718  1.00  0.00     0.031 C 
ATOM     39  C   UNL A   1      45.393  31.167  28.598  1.00  0.00     0.037 A 
BRANCH  26  40
ATOM     40  C   UNL A   1      39.716  28.930  29.625  1.00  0.00     0.064 A 
ATOM     41  C   UNL A   1      38.740  29.407  28.737  1.00  0.00     0.173 A 
ATOM     42  C   UNL A   1      39.327  28.690  30.953  1.00  0.00     0.173 A 
ATOM     43  F   UNL A   1      39.056  29.662  27.458  1.00  0.00    -0.203 F 
ATOM     44  C   UNL A   1      37.443  29.674  29.170  1.00  0.00     0.198 A 
ATOM     45  C   UNL A   1      38.021  28.924  31.373  1.00  0.00     0.198 A 
ATOM     46  F   UNL A   1      40.215  28.225  31.845  1.00  0.00    -0.203 F 
ATOM     47  F   UNL A   1      36.547  30.190  28.318  1.00  0.00    -0.200 F 
ATOM     48  C   UNL A   1      37.083  29.427  30.486  1.00  0.00     0.200 A 
ATOM     49  F   UNL A   1      37.672  28.669  32.642  1.00  0.00    -0.200 F 
ATOM     50  F   UNL A   1      35.835  29.684  30.901  1.00  0.00    -0.200 F 
ENDBRANCH  26  40
BRANCH  27  51
ATOM     51  C   UNL A   1      48.897  26.783  26.305  1.00  0.00     0.064 A 
ATOM     52  C   UNL A   1      49.874  26.191  27.114  1.00  0.00     0.173 A 
ATOM     53  C   UNL A   1      49.223  27.032  24.963  1.00  0.00     0.173 A 
ATOM     54  F   UNL A   1      49.615  25.948  28.408  1.00  0.00    -0.203 F 
ATOM     55  C   UNL A   1      51.131  25.869  26.606  1.00  0.00     0.198 A 
ATOM     56  C   UNL A   1      50.467  26.681  24.447  1.00  0.00     0.198 A 
ATOM     57  F   UNL A   1      48.318  27.588  24.143  1.00  0.00    -0.203 F 
ATOM     58  F   UNL A   1      52.060  25.335  27.411  1.00  0.00    -0.200 F 
ATOM     59  C   UNL A   1      51.423  26.106  25.271  1.00  0.00     0.200 A 
ATOM     60  F   UNL A   1      50.738  26.891  23.151  1.00  0.00    -0.200 F 
ATOM     61  F   UNL A   1      52.626  25.781  24.778  1.00  0.00    -0.200 F 
ENDBRANCH  27  51
BRANCH  39  62
ATOM     62  C   UNL A   1      45.914  32.549  28.876  1.00  0.00     0.064 A 
ATOM     63  C   UNL A   1      45.818  33.584  27.936  1.00  0.00     0.173 A 
ATOM     64  C   UNL A   1      46.468  32.851  30.130  1.00  0.00     0.173 A 
ATOM     65  F   UNL A   1      45.312  33.345  26.716  1.00  0.00    -0.203 F 
ATOM     66  C   UNL A   1      46.275  34.866  28.233  1.00  0.00     0.198 A 
ATOM     67  C   UNL A   1      46.893  34.140  30.436  1.00  0.00     0.198 A 
ATOM     68  F   UNL A   1      46.580  31.897  31.068  1.00  0.00    -0.203 F 
ATOM     69  F   UNL A   1      46.214  35.830  27.304  1.00  0.00    -0.200 F 
ATOM     70  C   UNL A   1      46.802  35.145  29.486  1.00  0.00     0.200 A 
ATOM     71  F   UNL A   1      47.387  34.410  31.652  1.00  0.00    -0.200 F 
ATOM     72  F   UNL A   1      47.228  36.382  29.776  1.00  0.00    -0.200 F 
ENDBRANCH  39  62
ENDBRANCH  13  14
ENDBRANCH   6   8
ENDBRANCH   3   4
ENDBRANCH   2   3
ENDBRANCH   1   2
BRANCH   1  73
ATOM     73  C   UNL A   1      37.017  22.102  25.146  1.00  0.00     0.002 C 
BRANCH  73  74
ATOM     74  C   UNL A   1      36.597  22.954  23.941  1.00  0.00     0.021 C 
BRANCH  74  75
ATOM     75  C   UNL A   1      35.173  22.693  23.461  1.00  0.00     0.116 C 
BRANCH  75  76
ATOM     76  N   UNL A   1      34.211  22.915  24.523  1.00  0.00    -0.353 N 
ATOM     77  C   UNL A   1      33.210  22.079  24.937  1.00  0.00     0.257 C 
ATOM     78  H   UNL A   1      34.288  23.770  25.005  1.00  0.00     0.163 HD
ATOM     79  O   UNL A   1      32.469  22.449  25.849  1.00  0.00    -0.272 OA
BRANCH  77  80
ATOM     80  C   UNL A   1      33.114  20.700  24.294  1.00  0.00     0.283 C 
ATOM     81  F   UNL A   1      32.310  20.722  23.188  1.00  0.00    -0.234 F 
BRANCH  80  82
ATOM     82  C   UNL A   1      32.590  19.648  25.283  1.00  0.00     0.161 C 
BRANCH  82  83
ATOM     83  C   UNL A   1      32.742  18.230  24.674  1.00  0.00     0.026 C 
ATOM     84  C   UNL A   1      32.610  17.150  25.763  1.00  0.00     0.035 C 
ATOM     85  C   UNL A   1      34.048  18.018  23.896  1.00  0.00     0.035 C 
ATOM     86  C   UNL A   1      32.816  15.757  25.179  1.00  0.00     0.160 C 
ATOM     87  C   UNL A   1      34.151  16.580  23.405  1.00  0.00     0.160 C 
ATOM     88  O   UNL A   1      34.066  15.669  24.498  1.00  0.00    -0.381 OA
ENDBRANCH  82  83
BRANCH  82  89
ATOM     89  O   UNL A   1      33.320  19.738  26.514  1.00  0.00    -0.389 OA
ATOM     90  H   UNL A   1      32.985  19.075  27.137  1.00  0.00     0.211 HD
ENDBRANCH  82  89
ENDBRANCH  80  82
ENDBRANCH  77  80
ENDBRANCH  75  76
ENDBRANCH  74  75
ENDBRANCH  73  74
ENDBRANCH   1  73
TORSDOF 16
ENDMDL
MODEL 3
REMARK VINA RESULT:     -11.4      6.668     12.006
REMARK SMILES O=C(NCCCCCCNC(=O)[C@H](F)[C@H](O)C1CCOCC1)c1ccc(-c2c3nc(c(-c4c(F)c(F)c(F)c(F)c4F)c4ccc([nH]4)c(-c4c(F)c(F)c(F)c(F)c4F)c4nc(c(-c5c(F)c(F)c(F)c(F)c5F)c5ccc2[nH]5)C=C4)C=C3)cc1
REMARK SMILES IDX 6 1 5 2 4 3 3 4 1 5 2 6 23 8 24 9 85 10 25 11 84 12 26 13
REMARK SMILES IDX 27 14 28 15 78 16 29 17 83 18 77 19 79 20 30 21 82 22 76 23
REMARK SMILES IDX 75 24 31 26 63 27 43 28 62 29 44 30 47 31 61 32 80 33 45 34
REMARK SMILES IDX 46 35 60 37 81 38 48 39 32 40 33 41 41 42 34 43 35 44 39 45
REMARK SMILES IDX 42 46 36 47 37 48 40 49 38 50 64 51 65 52 73 53 66 54 67 55
REMARK SMILES IDX 71 56 74 57 68 58 69 59 72 60 70 61 49 62 50 63 58 64 51 65
REMARK SMILES IDX 52 66 56 67 59 68 53 69 54 70 57 71 55 72 7 73 8 74 9 75
REMARK SMILES IDX 10 76 11 77 12 79 13 80 14 81 15 82 17 83 18 84 22 85 19 86
REMARK SMILES IDX 21 87 20 88 16 89
REMARK H PARENT 3 7 79 25 47 36 10 78 16 90
REMARK Flexibility Score: inf
ROOT
ATOM      1  C   UNL A   1      36.720  20.403  25.000  1.00  0.00     0.002 C 
ENDROOT
BRANCH   1   2
ATOM      2  C   UNL A   1      38.064  19.697  24.824  1.00  0.00     0.021 C 
BRANCH   2   3
ATOM      3  C   UNL A   1      39.128  20.112  25.832  1.00  0.00     0.116 C 
BRANCH   3   4
ATOM      4  N   UNL A   1      40.190  19.124  25.943  1.00  0.00    -0.352 N 
ATOM      5  O   UNL A   1      42.320  18.378  25.981  1.00  0.00    -0.269 OA
ATOM      6  C   UNL A   1      41.537  19.316  26.108  1.00  0.00     0.251 C 
ATOM      7  H   UNL A   1      39.900  18.185  25.892  1.00  0.00     0.163 HD
BRANCH   6   8
ATOM      8  C   UNL A   1      42.049  20.666  26.422  1.00  0.00     0.039 A 
ATOM      9  C   UNL A   1      42.278  21.050  27.746  1.00  0.00     0.014 A 
ATOM     10  C   UNL A   1      42.309  21.551  25.375  1.00  0.00     0.014 A 
ATOM     11  C   UNL A   1      42.642  22.362  28.032  1.00  0.00     0.010 A 
ATOM     12  C   UNL A   1      42.755  22.842  25.660  1.00  0.00     0.010 A 
ATOM     13  C   UNL A   1      42.897  23.266  26.991  1.00  0.00    -0.014 A 
BRANCH  13  14
ATOM     14  C   UNL A   1      43.363  24.641  27.298  1.00  0.00     0.031 A 
ATOM     15  C   UNL A   1      42.423  25.662  27.869  1.00  0.00     0.074 A 
ATOM     16  C   UNL A   1      44.641  24.970  27.033  1.00  0.00     0.049 A 
ATOM     17  N   UNL A   1      42.632  26.928  28.125  1.00  0.00    -0.248 NA
ATOM     18  C   UNL A   1      41.063  25.201  28.186  1.00  0.00     0.031 C 
ATOM     19  C   UNL A   1      45.646  24.061  26.479  1.00  0.00     0.029 A 
ATOM     20  N   UNL A   1      45.312  26.157  27.183  1.00  0.00    -0.354 N 
ATOM     21  C   UNL A   1      41.427  27.422  28.610  1.00  0.00     0.074 A 
ATOM     22  C   UNL A   1      40.483  26.325  28.585  1.00  0.00     0.031 C 
ATOM     23  C   UNL A   1      46.808  24.717  26.349  1.00  0.00     0.029 A 
ATOM     24  C   UNL A   1      46.611  26.108  26.745  1.00  0.00     0.049 A 
ATOM     25  H   UNL A   1      44.900  26.965  27.567  1.00  0.00     0.167 HD
ATOM     26  C   UNL A   1      41.142  28.676  29.038  1.00  0.00     0.037 A 
ATOM     27  C   UNL A   1      47.534  27.080  26.639  1.00  0.00     0.037 A 
ATOM     28  C   UNL A   1      42.093  29.759  29.056  1.00  0.00     0.049 A 
ATOM     29  C   UNL A   1      47.179  28.475  27.071  1.00  0.00     0.074 A 
ATOM     30  C   UNL A   1      41.914  31.057  29.501  1.00  0.00     0.029 A 
ATOM     31  N   UNL A   1      43.399  29.674  28.592  1.00  0.00    -0.354 N 
ATOM     32  N   UNL A   1      46.049  28.925  27.560  1.00  0.00    -0.248 NA
ATOM     33  C   UNL A   1      48.227  29.495  26.940  1.00  0.00     0.031 C 
ATOM     34  C   UNL A   1      43.089  31.773  29.247  1.00  0.00     0.029 A 
ATOM     35  C   UNL A   1      44.027  30.904  28.713  1.00  0.00     0.049 A 
ATOM     36  H   UNL A   1      43.818  28.860  28.230  1.00  0.00     0.167 HD
ATOM     37  C   UNL A   1      46.258  30.271  27.825  1.00  0.00     0.074 A 
ATOM     38  C   UNL A   1      47.625  30.562  27.446  1.00  0.00     0.031 C 
ATOM     39  C   UNL A   1      45.393  31.179  28.343  1.00  0.00     0.037 A 
BRANCH  26  40
ATOM     40  C   UNL A   1      39.735  28.952  29.490  1.00  0.00     0.064 A 
ATOM     41  C   UNL A   1      39.321  28.733  30.813  1.00  0.00     0.173 A 
ATOM     42  C   UNL A   1      38.788  29.461  28.586  1.00  0.00     0.173 A 
ATOM     43  F   UNL A   1      40.181  28.240  31.717  1.00  0.00    -0.203 F 
ATOM     44  C   UNL A   1      38.005  28.973  31.203  1.00  0.00     0.198 A 
ATOM     45  C   UNL A   1      37.483  29.734  28.990  1.00  0.00     0.198 A 
ATOM     46  F   UNL A   1      39.128  29.700  27.311  1.00  0.00    -0.203 F 
ATOM     47  F   UNL A   1      37.619  28.695  32.456  1.00  0.00    -0.200 F 
ATOM     48  C   UNL A   1      37.090  29.478  30.293  1.00  0.00     0.200 A 
ATOM     49  F   UNL A   1      36.604  30.237  28.112  1.00  0.00    -0.200 F 
ATOM     50  F   UNL A   1      35.824  29.708  30.671  1.00  0.00    -0.200 F 
ENDBRANCH  26  40
BRANCH  27  51
ATOM     51  C   UNL A   1      48.877  26.756  26.092  1.00  0.00     0.064 A 
ATOM     52  C   UNL A   1      49.179  26.979  24.744  1.00  0.00     0.173 A 
ATOM     53  C   UNL A   1      49.895  26.254  26.917  1.00  0.00     0.173 A 
ATOM     54  F   UNL A   1      48.233  27.444  23.914  1.00  0.00    -0.203 F 
ATOM     55  C   UNL A   1      50.446  26.702  24.236  1.00  0.00     0.198 A 
ATOM     56  C   UNL A   1      51.170  26.007  26.416  1.00  0.00     0.198 A 
ATOM     57  F   UNL A   1      49.659  26.033  28.219  1.00  0.00    -0.203 F 
ATOM     58  F   UNL A   1      50.699  26.891  22.934  1.00  0.00    -0.200 F 
ATOM     59  C   UNL A   1      51.443  26.225  25.074  1.00  0.00     0.200 A 
ATOM     60  F   UNL A   1      52.136  25.566  27.234  1.00  0.00    -0.200 F 
ATOM     61  F   UNL A   1      52.666  25.973  24.588  1.00  0.00    -0.200 F 
ENDBRANCH  27  51
BRANCH  39  62
ATOM     62  C   UNL A   1      45.914  32.567  28.586  1.00  0.00     0.064 A 
ATOM     63  C   UNL A   1      45.785  33.589  27.635  1.00  0.00     0.173 A 
ATOM     64  C   UNL A   1      46.504  32.889  29.819  1.00  0.00     0.173 A 
ATOM     65  F   UNL A   1      45.244  33.330  26.435  1.00  0.00    -0.203 F 
ATOM     66  C   UNL A   1      46.244  34.877  27.901  1.00  0.00     0.198 A 
ATOM     67  C   UNL A   1      46.931  34.185  30.095  1.00  0.00     0.198 A 
ATOM     68  F   UNL A   1      46.649  31.949  30.766  1.00  0.00    -0.203 F 
ATOM     69  F   UNL A   1      46.150  35.828  26.961  1.00  0.00    -0.200 F 
ATOM     70  C   UNL A   1      46.806  35.176  29.134  1.00  0.00     0.200 A 
ATOM     71  F   UNL A   1      47.459  34.473  31.292  1.00  0.00    -0.200 F 
ATOM     72  F   UNL A   1      47.234  36.419  29.394  1.00  0.00    -0.200 F 
ENDBRANCH  39  62
ENDBRANCH  13  14
ENDBRANCH   6   8
ENDBRANCH   3   4
ENDBRANCH   2   3
ENDBRANCH   1   2
BRANCH   1  73
ATOM     73  C   UNL A   1      36.790  21.934  24.987  1.00  0.00     0.002 C 
BRANCH  73  74
ATOM     74  C   UNL A   1      36.561  22.582  23.615  1.00  0.00     0.021 C 
BRANCH  74  75
ATOM     75  C   UNL A   1      35.090  22.734  23.237  1.00  0.00     0.116 C 
BRANCH  75  76
ATOM     76  N   UNL A   1      34.264  22.935  24.412  1.00  0.00    -0.353 N 
ATOM     77  C   UNL A   1      33.318  22.091  24.926  1.00  0.00     0.257 C 
ATOM     78  H   UNL A   1      34.400  23.780  24.897  1.00  0.00     0.163 HD
ATOM     79  O   UNL A   1      32.692  22.443  25.928  1.00  0.00    -0.272 OA
BRANCH  77  80
ATOM     80  C   UNL A   1      33.142  20.725  24.273  1.00  0.00     0.283 C 
ATOM     81  F   UNL A   1      32.334  20.801  23.172  1.00  0.00    -0.234 F 
BRANCH  80  82
ATOM     82  C   UNL A   1      32.565  19.696  25.256  1.00  0.00     0.161 C 
BRANCH  82  83
ATOM     83  C   UNL A   1      32.681  18.270  24.655  1.00  0.00     0.026 C 
ATOM     84  C   UNL A   1      32.530  17.201  25.751  1.00  0.00     0.035 C 
ATOM     85  C   UNL A   1      33.977  18.023  23.872  1.00  0.00     0.035 C 
ATOM     86  C   UNL A   1      32.699  15.800  25.175  1.00  0.00     0.160 C 
ATOM     87  C   UNL A   1      34.044  16.580  23.389  1.00  0.00     0.160 C 
ATOM     88  O   UNL A   1      33.943  15.678  24.488  1.00  0.00    -0.381 OA
ENDBRANCH  82  83
BRANCH  82  89
ATOM     89  O   UNL A   1      33.276  19.766  26.499  1.00  0.00    -0.389 OA
ATOM     90  H   UNL A   1      34.141  20.180  26.355  1.00  0.00     0.211 HD
ENDBRANCH  82  89
ENDBRANCH  80  82
ENDBRANCH  77  80
ENDBRANCH  75  76
ENDBRANCH  74  75
ENDBRANCH  73  74
ENDBRANCH   1  73
TORSDOF 16
ENDMDL
