MODEL 1
REMARK VINA RESULT:     -12.2      0.000      0.000
REMARK SMILES C[C@H]1SCCC[C@]1(Nc1ccc(Cl)cc1)C(=O)NCCCCCCNC(=O)c1ccc(-c2c3nc(c(-c4c(F)c(F)c(F)c(F)c4F)c4ccc([nH]4)c(-c4c(F)c(F)c(F)c(F)c4F)c4nc(c(-c5c(F)c(F)c(F)c(F)c5F)c5ccc2[nH]5)C=C4)C=C3)cc1
REMARK SMILES IDX 21 1 20 2 19 3 18 4 16 5 17 6 7 8 1 9 2 10 3 11 4 12 6 13
REMARK SMILES IDX 5 14 8 15 9 17 10 18 15 19 11 20 14 21 12 22 13 23 22 24
REMARK SMILES IDX 23 25 24 26 25 27 26 28 27 30 28 31 29 32 90 33 30 34 89 35
REMARK SMILES IDX 31 36 32 37 33 38 83 39 34 40 88 41 82 42 84 43 35 44 87 45
REMARK SMILES IDX 81 46 80 47 36 49 68 50 48 51 67 52 49 53 52 54 66 55 85 56
REMARK SMILES IDX 50 57 51 58 65 60 86 61 53 62 37 63 38 64 46 65 39 66 40 67
REMARK SMILES IDX 44 68 47 69 41 70 42 71 45 72 43 73 69 74 70 75 78 76 71 77
REMARK SMILES IDX 72 78 76 79 79 80 73 81 74 82 77 83 75 84 54 85 55 86 63 87
REMARK SMILES IDX 56 88 57 89 61 90 64 91 58 92 59 93 62 94 60 95
REMARK H PARENT 18 7 8 16 25 29 84 48 52 59
REMARK Flexibility Score: inf
ROOT
ATOM      1  C   UNL A   1      32.233  29.535  26.860  1.00  0.00     0.002 C 
ENDROOT
BRANCH   1   2
ATOM      2  C   UNL A   1      33.684  29.157  26.563  1.00  0.00     0.021 C 
BRANCH   2   3
ATOM      3  C   UNL A   1      33.837  27.729  26.051  1.00  0.00     0.116 C 
BRANCH   3   4
ATOM      4  N   UNL A   1      32.757  26.910  26.553  1.00  0.00    -0.354 N 
ATOM      5  C   UNL A   1      32.298  25.686  26.189  1.00  0.00     0.246 C 
ATOM      6  O   UNL A   1      31.345  25.285  26.875  1.00  0.00    -0.272 OA
ATOM      7  H   UNL A   1      32.262  27.317  27.300  1.00  0.00     0.163 HD
BRANCH   5   8
ATOM      8  C   UNL A   1      32.867  24.816  24.999  1.00  0.00     0.128 C 
ATOM      9  C   UNL A   1      31.009  22.906  25.057  1.00  0.00     0.022 C 
ATOM     10  C   UNL A   1      32.478  23.298  25.192  1.00  0.00     0.078 C 
ATOM     11  S   UNL A   1      33.316  22.188  23.972  1.00  0.00    -0.156 SA
ATOM     12  C   UNL A   1      35.018  22.568  24.420  1.00  0.00     0.070 C 
ATOM     13  C   UNL A   1      34.427  24.941  25.112  1.00  0.00     0.040 C 
ATOM     14  C   UNL A   1      35.274  24.047  24.205  1.00  0.00     0.014 C 
BRANCH   8  15
ATOM     15  N   UNL A   1      32.455  25.287  23.647  1.00  0.00    -0.370 N 
ATOM     16  H   UNL A   1      32.759  24.736  22.889  1.00  0.00     0.161 HD
BRANCH  15  17
ATOM     17  C   UNL A   1      31.703  26.397  23.321  1.00  0.00     0.035 A 
ATOM     18  C   UNL A   1      32.248  27.626  22.931  1.00  0.00     0.027 A 
ATOM     19  C   UNL A   1      30.318  26.350  23.562  1.00  0.00     0.027 A 
ATOM     20  C   UNL A   1      31.457  28.779  22.843  1.00  0.00     0.022 A 
ATOM     21  C   UNL A   1      29.525  27.502  23.502  1.00  0.00     0.022 A 
ATOM     22  C   UNL A   1      30.104  28.717  23.156  1.00  0.00     0.041 A 
ATOM     23  Cl  UNL A   1      29.153  30.150  23.155  1.00  0.00    -0.084 Cl
ENDBRANCH  15  17
ENDBRANCH   8  15
ENDBRANCH   5   8
ENDBRANCH   3   4
ENDBRANCH   2   3
ENDBRANCH   1   2
BRANCH   1  24
ATOM     24  C   UNL A   1      31.681  30.670  25.991  1.00  0.00     0.002 C 
BRANCH  24  25
ATOM     25  C   UNL A   1      31.405  31.975  26.741  1.00  0.00     0.021 C 
BRANCH  25  26
ATOM     26  C   UNL A   1      32.653  32.659  27.284  1.00  0.00     0.116 C 
BRANCH  26  27
ATOM     27  N   UNL A   1      32.424  34.071  27.550  1.00  0.00    -0.352 N 
ATOM     28  C   UNL A   1      32.988  34.869  28.509  1.00  0.00     0.251 C 
ATOM     29  H   UNL A   1      31.774  34.513  26.958  1.00  0.00     0.163 HD
ATOM     30  O   UNL A   1      32.528  35.981  28.752  1.00  0.00    -0.269 OA
BRANCH  28  31
ATOM     31  C   UNL A   1      34.153  34.368  29.260  1.00  0.00     0.039 A 
ATOM     32  C   UNL A   1      33.950  33.705  30.471  1.00  0.00     0.014 A 
ATOM     33  C   UNL A   1      35.443  34.544  28.750  1.00  0.00     0.014 A 
ATOM     34  C   UNL A   1      35.042  33.161  31.146  1.00  0.00     0.010 A 
ATOM     35  C   UNL A   1      36.519  33.935  29.384  1.00  0.00     0.010 A 
ATOM     36  C   UNL A   1      36.330  33.243  30.590  1.00  0.00    -0.014 A 
BRANCH  36  37
ATOM     37  C   UNL A   1      37.502  32.622  31.253  1.00  0.00     0.031 A 
ATOM     38  C   UNL A   1      38.215  31.480  30.586  1.00  0.00     0.074 A 
ATOM     39  C   UNL A   1      37.869  33.031  32.482  1.00  0.00     0.049 A 
ATOM     40  N   UNL A   1      39.178  30.723  31.046  1.00  0.00    -0.248 NA
ATOM     41  C   UNL A   1      37.762  31.121  29.233  1.00  0.00     0.031 C 
ATOM     42  C   UNL A   1      37.232  34.108  33.241  1.00  0.00     0.029 A 
ATOM     43  N   UNL A   1      38.858  32.575  33.318  1.00  0.00    -0.354 N 
ATOM     44  C   UNL A   1      39.432  29.791  30.048  1.00  0.00     0.074 A 
ATOM     45  C   UNL A   1      38.488  30.041  28.982  1.00  0.00     0.031 C 
ATOM     46  C   UNL A   1      37.853  34.239  34.424  1.00  0.00     0.029 A 
ATOM     47  C   UNL A   1      38.898  33.224  34.527  1.00  0.00     0.049 A 
ATOM     48  H   UNL A   1      39.479  31.850  33.074  1.00  0.00     0.167 HD
ATOM     49  C   UNL A   1      40.383  28.828  30.018  1.00  0.00     0.037 A 
ATOM     50  C   UNL A   1      39.677  33.011  35.605  1.00  0.00     0.037 A 
ATOM     51  C   UNL A   1      41.332  28.601  31.076  1.00  0.00     0.049 A 
ATOM     52  C   UNL A   1      40.708  31.914  35.557  1.00  0.00     0.074 A 
ATOM     53  C   UNL A   1      42.372  27.689  31.120  1.00  0.00     0.029 A 
ATOM     54  N   UNL A   1      41.351  29.290  32.280  1.00  0.00    -0.354 N 
ATOM     55  N   UNL A   1      40.983  31.079  34.585  1.00  0.00    -0.248 NA
ATOM     56  C   UNL A   1      41.537  31.730  36.756  1.00  0.00     0.031 C 
ATOM     57  C   UNL A   1      42.982  27.784  32.374  1.00  0.00     0.029 A 
ATOM     58  C   UNL A   1      42.367  28.802  33.086  1.00  0.00     0.049 A 
ATOM     59  H   UNL A   1      40.736  30.017  32.527  1.00  0.00     0.167 HD
ATOM     60  C   UNL A   1      42.038  30.298  35.038  1.00  0.00     0.074 A 
ATOM     61  C   UNL A   1      42.357  30.762  36.371  1.00  0.00     0.031 C 
ATOM     62  C   UNL A   1      42.684  29.288  34.406  1.00  0.00     0.037 A 
BRANCH  49  63
ATOM     63  C   UNL A   1      40.441  27.943  28.807  1.00  0.00     0.064 A 
ATOM     64  C   UNL A   1      39.720  26.741  28.736  1.00  0.00     0.173 A 
ATOM     65  C   UNL A   1      41.196  28.320  27.685  1.00  0.00     0.173 A 
ATOM     66  F   UNL A   1      38.990  26.327  29.783  1.00  0.00    -0.203 F 
ATOM     67  C   UNL A   1      39.780  25.934  27.601  1.00  0.00     0.198 A 
ATOM     68  C   UNL A   1      41.225  27.529  26.540  1.00  0.00     0.198 A 
ATOM     69  F   UNL A   1      41.899  29.462  27.697  1.00  0.00    -0.203 F 
ATOM     70  F   UNL A   1      39.126  24.765  27.578  1.00  0.00    -0.200 F 
ATOM     71  C   UNL A   1      40.525  26.333  26.502  1.00  0.00     0.200 A 
ATOM     72  F   UNL A   1      41.933  27.925  25.473  1.00  0.00    -0.200 F 
ATOM     73  F   UNL A   1      40.573  25.562  25.407  1.00  0.00    -0.200 F 
ENDBRANCH  49  63
BRANCH  50  74
ATOM     74  C   UNL A   1      39.520  33.859  36.816  1.00  0.00     0.064 A 
ATOM     75  C   UNL A   1      38.740  33.430  37.900  1.00  0.00     0.173 A 
ATOM     76  C   UNL A   1      40.136  35.115  36.916  1.00  0.00     0.173 A 
ATOM     77  F   UNL A   1      38.114  32.245  37.846  1.00  0.00    -0.203 F 
ATOM     78  C   UNL A   1      38.564  34.234  39.024  1.00  0.00     0.198 A 
ATOM     79  C   UNL A   1      39.986  35.904  38.054  1.00  0.00     0.198 A 
ATOM     80  F   UNL A   1      40.898  35.571  35.911  1.00  0.00    -0.203 F 
ATOM     81  F   UNL A   1      37.772  33.819  40.023  1.00  0.00    -0.200 F 
ATOM     82  C   UNL A   1      39.192  35.468  39.103  1.00  0.00     0.200 A 
ATOM     83  F   UNL A   1      40.608  37.088  38.133  1.00  0.00    -0.200 F 
ATOM     84  F   UNL A   1      39.025  36.238  40.187  1.00  0.00    -0.200 F 
ENDBRANCH  50  74
BRANCH  62  85
ATOM     85  C   UNL A   1      43.836  28.644  35.120  1.00  0.00     0.064 A 
ATOM     86  C   UNL A   1      45.141  29.150  35.025  1.00  0.00     0.173 A 
ATOM     87  C   UNL A   1      43.617  27.548  35.969  1.00  0.00     0.173 A 
ATOM     88  F   UNL A   1      45.407  30.186  34.217  1.00  0.00    -0.203 F 
ATOM     89  C   UNL A   1      46.186  28.570  35.741  1.00  0.00     0.198 A 
ATOM     90  C   UNL A   1      44.657  26.992  36.707  1.00  0.00     0.198 A 
ATOM     91  F   UNL A   1      42.385  27.031  36.101  1.00  0.00    -0.203 F 
ATOM     92  F   UNL A   1      47.432  29.043  35.604  1.00  0.00    -0.200 F 
ATOM     93  C   UNL A   1      45.941  27.500  36.589  1.00  0.00     0.200 A 
ATOM     94  F   UNL A   1      44.415  25.970  37.539  1.00  0.00    -0.200 F 
ATOM     95  F   UNL A   1      46.945  26.956  37.290  1.00  0.00    -0.200 F 
ENDBRANCH  62  85
ENDBRANCH  36  37
ENDBRANCH  28  31
ENDBRANCH  26  27
ENDBRANCH  25  26
ENDBRANCH  24  25
ENDBRANCH   1  24
TORSDOF 15
ENDMDL
MODEL 2
REMARK VINA RESULT:     -12.2      0.557      2.032
REMARK SMILES C[C@H]1SCCC[C@]1(Nc1ccc(Cl)cc1)C(=O)NCCCCCCNC(=O)c1ccc(-c2c3nc(c(-c4c(F)c(F)c(F)c(F)c4F)c4ccc([nH]4)c(-c4c(F)c(F)c(F)c(F)c4F)c4nc(c(-c5c(F)c(F)c(F)c(F)c5F)c5ccc2[nH]5)C=C4)C=C3)cc1
REMARK SMILES IDX 21 1 20 2 19 3 18 4 16 5 17 6 7 8 1 9 2 10 3 11 4 12 6 13
REMARK SMILES IDX 5 14 8 15 9 17 10 18 15 19 11 20 14 21 12 22 13 23 22 24
REMARK SMILES IDX 23 25 24 26 25 27 26 28 27 30 28 31 29 32 90 33 30 34 89 35
REMARK SMILES IDX 31 36 32 37 33 38 83 39 34 40 88 41 82 42 84 43 35 44 87 45
REMARK SMILES IDX 81 46 80 47 36 49 68 50 48 51 67 52 49 53 52 54 66 55 85 56
REMARK SMILES IDX 50 57 51 58 65 60 86 61 53 62 37 63 38 64 46 65 39 66 40 67
REMARK SMILES IDX 44 68 47 69 41 70 42 71 45 72 43 73 69 74 70 75 78 76 71 77
REMARK SMILES IDX 72 78 76 79 79 80 73 81 74 82 77 83 75 84 54 85 55 86 63 87
REMARK SMILES IDX 56 88 57 89 61 90 64 91 58 92 59 93 62 94 60 95
REMARK H PARENT 18 7 8 16 25 29 84 48 52 59
REMARK Flexibility Score: inf
ROOT
ATOM      1  C   UNL A   1      32.517  29.750  27.014  1.00  0.00     0.002 C 
ENDROOT
BRANCH   1   2
ATOM      2  C   UNL A   1      31.801  28.471  27.450  1.00  0.00     0.021 C 
BRANCH   2   3
ATOM      3  C   UNL A   1      31.722  27.424  26.344  1.00  0.00     0.116 C 
BRANCH   3   4
ATOM      4  N   UNL A   1      31.279  26.164  26.893  1.00  0.00    -0.354 N 
ATOM      5  C   UNL A   1      31.446  24.882  26.480  1.00  0.00     0.246 C 
ATOM      6  O   UNL A   1      30.929  24.043  27.233  1.00  0.00    -0.272 OA
ATOM      7  H   UNL A   1      30.758  26.251  27.724  1.00  0.00     0.163 HD
BRANCH   5   8
ATOM      8  C   UNL A   1      32.197  24.439  25.162  1.00  0.00     0.128 C 
ATOM      9  C   UNL A   1      31.686  21.830  25.341  1.00  0.00     0.022 C 
ATOM     10  C   UNL A   1      32.718  22.955  25.296  1.00  0.00     0.078 C 
ATOM     11  S   UNL A   1      33.815  22.455  23.895  1.00  0.00    -0.156 SA
ATOM     12  C   UNL A   1      35.095  23.701  24.127  1.00  0.00     0.070 C 
ATOM     13  C   UNL A   1      33.443  25.389  25.064  1.00  0.00     0.040 C 
ATOM     14  C   UNL A   1      34.482  25.081  23.987  1.00  0.00     0.014 C 
BRANCH   8  15
ATOM     15  N   UNL A   1      31.392  24.594  23.918  1.00  0.00    -0.370 N 
ATOM     16  H   UNL A   1      31.307  23.789  23.359  1.00  0.00     0.161 HD
BRANCH  15  17
ATOM     17  C   UNL A   1      30.750  25.723  23.452  1.00  0.00     0.035 A 
ATOM     18  C   UNL A   1      31.383  26.743  22.732  1.00  0.00     0.027 A 
ATOM     19  C   UNL A   1      29.427  25.951  23.869  1.00  0.00     0.027 A 
ATOM     20  C   UNL A   1      30.747  27.968  22.489  1.00  0.00     0.022 A 
ATOM     21  C   UNL A   1      28.793  27.181  23.655  1.00  0.00     0.022 A 
ATOM     22  C   UNL A   1      29.465  28.191  22.977  1.00  0.00     0.041 A 
ATOM     23  Cl  UNL A   1      28.722  29.730  22.777  1.00  0.00    -0.084 Cl
ENDBRANCH  15  17
ENDBRANCH   8  15
ENDBRANCH   5   8
ENDBRANCH   3   4
ENDBRANCH   2   3
ENDBRANCH   1   2
BRANCH   1  24
ATOM     24  C   UNL A   1      31.701  30.648  26.079  1.00  0.00     0.002 C 
BRANCH  24  25
ATOM     25  C   UNL A   1      31.422  32.052  26.621  1.00  0.00     0.021 C 
BRANCH  25  26
ATOM     26  C   UNL A   1      32.604  32.690  27.340  1.00  0.00     0.116 C 
BRANCH  26  27
ATOM     27  N   UNL A   1      32.385  34.106  27.589  1.00  0.00    -0.352 N 
ATOM     28  C   UNL A   1      32.966  34.915  28.528  1.00  0.00     0.251 C 
ATOM     29  H   UNL A   1      31.727  34.543  27.001  1.00  0.00     0.163 HD
ATOM     30  O   UNL A   1      32.515  36.032  28.762  1.00  0.00    -0.269 OA
BRANCH  28  31
ATOM     31  C   UNL A   1      34.141  34.420  29.268  1.00  0.00     0.039 A 
ATOM     32  C   UNL A   1      33.953  33.772  30.490  1.00  0.00     0.014 A 
ATOM     33  C   UNL A   1      35.424  34.586  28.738  1.00  0.00     0.014 A 
ATOM     34  C   UNL A   1      35.054  33.233  31.155  1.00  0.00     0.010 A 
ATOM     35  C   UNL A   1      36.507  33.982  29.363  1.00  0.00     0.010 A 
ATOM     36  C   UNL A   1      36.333  33.305  30.580  1.00  0.00    -0.014 A 
BRANCH  36  37
ATOM     37  C   UNL A   1      37.514  32.688  31.233  1.00  0.00     0.031 A 
ATOM     38  C   UNL A   1      38.225  31.548  30.560  1.00  0.00     0.074 A 
ATOM     39  C   UNL A   1      37.889  33.099  32.459  1.00  0.00     0.049 A 
ATOM     40  N   UNL A   1      39.195  30.795  31.012  1.00  0.00    -0.248 NA
ATOM     41  C   UNL A   1      37.763  31.188  29.210  1.00  0.00     0.031 C 
ATOM     42  C   UNL A   1      37.254  34.173  33.224  1.00  0.00     0.029 A 
ATOM     43  N   UNL A   1      38.886  32.645  33.287  1.00  0.00    -0.354 N 
ATOM     44  C   UNL A   1      39.445  29.865  30.012  1.00  0.00     0.074 A 
ATOM     45  C   UNL A   1      38.490  30.111  28.954  1.00  0.00     0.031 C 
ATOM     46  C   UNL A   1      37.884  34.306  34.401  1.00  0.00     0.029 A 
ATOM     47  C   UNL A   1      38.934  33.295  34.496  1.00  0.00     0.049 A 
ATOM     48  H   UNL A   1      39.508  31.923  33.038  1.00  0.00     0.167 HD
ATOM     49  C   UNL A   1      40.399  28.905  29.974  1.00  0.00     0.037 A 
ATOM     50  C   UNL A   1      39.723  33.085  35.568  1.00  0.00     0.037 A 
ATOM     51  C   UNL A   1      41.358  28.682  31.024  1.00  0.00     0.049 A 
ATOM     52  C   UNL A   1      40.757  31.992  35.511  1.00  0.00     0.074 A 
ATOM     53  C   UNL A   1      42.401  27.774  31.060  1.00  0.00     0.029 A 
ATOM     54  N   UNL A   1      41.384  29.371  32.228  1.00  0.00    -0.354 N 
ATOM     55  N   UNL A   1      41.028  31.158  34.536  1.00  0.00    -0.248 NA
ATOM     56  C   UNL A   1      41.596  31.811  36.703  1.00  0.00     0.031 C 
ATOM     57  C   UNL A   1      43.021  27.871  32.308  1.00  0.00     0.029 A 
ATOM     58  C   UNL A   1      42.408  28.886  33.026  1.00  0.00     0.049 A 
ATOM     59  H   UNL A   1      40.767  30.095  32.480  1.00  0.00     0.167 HD
ATOM     60  C   UNL A   1      42.089  30.381  34.980  1.00  0.00     0.074 A 
ATOM     61  C   UNL A   1      42.418  30.846  36.311  1.00  0.00     0.031 C 
ATOM     62  C   UNL A   1      42.733  29.373  34.343  1.00  0.00     0.037 A 
BRANCH  49  63
ATOM     63  C   UNL A   1      40.451  28.020  28.762  1.00  0.00     0.064 A 
ATOM     64  C   UNL A   1      41.198  28.367  27.626  1.00  0.00     0.173 A 
ATOM     65  C   UNL A   1      39.776  26.790  28.750  1.00  0.00     0.173 A 
ATOM     66  F   UNL A   1      41.855  29.537  27.579  1.00  0.00    -0.203 F 
ATOM     67  C   UNL A   1      41.241  27.531  26.513  1.00  0.00     0.198 A 
ATOM     68  C   UNL A   1      39.850  25.941  27.650  1.00  0.00     0.198 A 
ATOM     69  F   UNL A   1      39.052  26.406  29.813  1.00  0.00    -0.203 F 
ATOM     70  F   UNL A   1      41.918  27.909  25.420  1.00  0.00    -0.200 F 
ATOM     71  C   UNL A   1      40.574  26.316  26.529  1.00  0.00     0.200 A 
ATOM     72  F   UNL A   1      39.218  24.759  27.674  1.00  0.00    -0.200 F 
ATOM     73  F   UNL A   1      40.625  25.507  25.461  1.00  0.00    -0.200 F 
ENDBRANCH  49  63
BRANCH  50  74
ATOM     74  C   UNL A   1      39.572  33.932  36.780  1.00  0.00     0.064 A 
ATOM     75  C   UNL A   1      40.221  35.171  36.878  1.00  0.00     0.173 A 
ATOM     76  C   UNL A   1      38.784  33.522  37.866  1.00  0.00     0.173 A 
ATOM     77  F   UNL A   1      41.001  35.600  35.875  1.00  0.00    -0.203 F 
ATOM     78  C   UNL A   1      40.108  35.954  38.025  1.00  0.00     0.198 A 
ATOM     79  C   UNL A   1      38.646  34.321  38.999  1.00  0.00     0.198 A 
ATOM     80  F   UNL A   1      38.137  32.349  37.820  1.00  0.00    -0.203 F 
ATOM     81  F   UNL A   1      40.780  37.111  38.112  1.00  0.00    -0.200 F 
ATOM     82  C   UNL A   1      39.316  35.532  39.082  1.00  0.00     0.200 A 
ATOM     83  F   UNL A   1      37.866  33.917  40.010  1.00  0.00    -0.200 F 
ATOM     84  F   UNL A   1      39.205  36.288  40.183  1.00  0.00    -0.200 F 
ENDBRANCH  50  74
BRANCH  62  85
ATOM     85  C   UNL A   1      43.895  28.734  35.048  1.00  0.00     0.064 A 
ATOM     86  C   UNL A   1      43.722  27.662  35.935  1.00  0.00     0.173 A 
ATOM     87  C   UNL A   1      45.205  29.157  34.774  1.00  0.00     0.173 A 
ATOM     88  F   UNL A   1      42.491  27.230  36.242  1.00  0.00    -0.203 F 
ATOM     89  C   UNL A   1      44.820  27.048  36.535  1.00  0.00     0.198 A 
ATOM     90  C   UNL A   1      46.300  28.520  35.350  1.00  0.00     0.198 A 
ATOM     91  F   UNL A   1      45.424  30.174  33.926  1.00  0.00    -0.203 F 
ATOM     92  F   UNL A   1      44.631  26.052  37.411  1.00  0.00    -0.200 F 
ATOM     93  C   UNL A   1      46.106  27.470  36.234  1.00  0.00     0.200 A 
ATOM     94  F   UNL A   1      47.542  28.918  35.043  1.00  0.00    -0.200 F 
ATOM     95  F   UNL A   1      47.160  26.865  36.798  1.00  0.00    -0.200 F 
ENDBRANCH  62  85
ENDBRANCH  36  37
ENDBRANCH  28  31
ENDBRANCH  26  27
ENDBRANCH  25  26
ENDBRANCH  24  25
ENDBRANCH   1  24
TORSDOF 15
ENDMDL
MODEL 3
REMARK VINA RESULT:     -12.2      1.828      2.976
REMARK SMILES C[C@H]1SCCC[C@]1(Nc1ccc(Cl)cc1)C(=O)NCCCCCCNC(=O)c1ccc(-c2c3nc(c(-c4c(F)c(F)c(F)c(F)c4F)c4ccc([nH]4)c(-c4c(F)c(F)c(F)c(F)c4F)c4nc(c(-c5c(F)c(F)c(F)c(F)c5F)c5ccc2[nH]5)C=C4)C=C3)cc1
REMARK SMILES IDX 21 1 20 2 19 3 18 4 16 5 17 6 7 8 1 9 2 10 3 11 4 12 6 13
REMARK SMILES IDX 5 14 8 15 9 17 10 18 15 19 11 20 14 21 12 22 13 23 22 24
REMARK SMILES IDX 23 25 24 26 25 27 26 28 27 30 28 31 29 32 90 33 30 34 89 35
REMARK SMILES IDX 31 36 32 37 33 38 83 39 34 40 88 41 82 42 84 43 35 44 87 45
REMARK SMILES IDX 81 46 80 47 36 49 68 50 48 51 67 52 49 53 52 54 66 55 85 56
REMARK SMILES IDX 50 57 51 58 65 60 86 61 53 62 37 63 38 64 46 65 39 66 40 67
REMARK SMILES IDX 44 68 47 69 41 70 42 71 45 72 43 73 69 74 70 75 78 76 71 77
REMARK SMILES IDX 72 78 76 79 79 80 73 81 74 82 77 83 75 84 54 85 55 86 63 87
REMARK SMILES IDX 56 88 57 89 61 90 64 91 58 92 59 93 62 94 60 95
REMARK H PARENT 18 7 8 16 25 29 84 48 52 59
REMARK Flexibility Score: inf
ROOT
ATOM      1  C   UNL A   1      31.319  30.004  25.127  1.00  0.00     0.002 C 
ENDROOT
BRANCH   1   2
ATOM      2  C   UNL A   1      32.401  29.264  24.339  1.00  0.00     0.021 C 
BRANCH   2   3
ATOM      3  C   UNL A   1      32.284  27.747  24.442  1.00  0.00     0.116 C 
BRANCH   3   4
ATOM      4  N   UNL A   1      32.973  27.127  23.334  1.00  0.00    -0.354 N 
ATOM      5  C   UNL A   1      33.290  25.834  23.068  1.00  0.00     0.246 C 
ATOM      6  O   UNL A   1      33.879  25.676  21.988  1.00  0.00    -0.272 OA
ATOM      7  H   UNL A   1      33.268  27.761  22.642  1.00  0.00     0.163 HD
BRANCH   5   8
ATOM      8  C   UNL A   1      32.983  24.607  24.015  1.00  0.00     0.128 C 
ATOM      9  C   UNL A   1      30.541  24.068  23.093  1.00  0.00     0.022 C 
ATOM     10  C   UNL A   1      31.430  24.477  24.266  1.00  0.00     0.078 C 
ATOM     11  S   UNL A   1      31.019  23.219  25.556  1.00  0.00    -0.156 SA
ATOM     12  C   UNL A   1      31.919  23.965  26.925  1.00  0.00     0.070 C 
ATOM     13  C   UNL A   1      33.673  24.962  25.380  1.00  0.00     0.040 C 
ATOM     14  C   UNL A   1      33.392  24.047  26.572  1.00  0.00     0.014 C 
BRANCH   8  15
ATOM     15  N   UNL A   1      33.539  23.311  23.534  1.00  0.00    -0.370 N 
ATOM     16  H   UNL A   1      33.064  22.894  22.779  1.00  0.00     0.161 HD
BRANCH  15  17
ATOM     17  C   UNL A   1      34.636  22.622  24.011  1.00  0.00     0.035 A 
ATOM     18  C   UNL A   1      35.961  22.963  23.720  1.00  0.00     0.027 A 
ATOM     19  C   UNL A   1      34.412  21.407  24.682  1.00  0.00     0.027 A 
ATOM     20  C   UNL A   1      37.021  22.099  24.030  1.00  0.00     0.022 A 
ATOM     21  C   UNL A   1      35.461  20.527  24.973  1.00  0.00     0.022 A 
ATOM     22  C   UNL A   1      36.762  20.872  24.630  1.00  0.00     0.041 A 
ATOM     23  Cl  UNL A   1      38.046  19.764  24.914  1.00  0.00    -0.084 Cl
ENDBRANCH  15  17
ENDBRANCH   8  15
ENDBRANCH   5   8
ENDBRANCH   3   4
ENDBRANCH   2   3
ENDBRANCH   1   2
BRANCH   1  24
ATOM     24  C   UNL A   1      31.766  30.505  26.504  1.00  0.00     0.002 C 
BRANCH  24  25
ATOM     25  C   UNL A   1      31.559  32.003  26.738  1.00  0.00     0.021 C 
BRANCH  25  26
ATOM     26  C   UNL A   1      32.790  32.728  27.270  1.00  0.00     0.116 C 
BRANCH  26  27
ATOM     27  N   UNL A   1      32.501  34.114  27.601  1.00  0.00    -0.352 N 
ATOM     28  C   UNL A   1      33.019  34.885  28.606  1.00  0.00     0.251 C 
ATOM     29  H   UNL A   1      31.840  34.558  27.022  1.00  0.00     0.163 HD
ATOM     30  O   UNL A   1      32.512  35.965  28.896  1.00  0.00    -0.269 OA
BRANCH  28  31
ATOM     31  C   UNL A   1      34.195  34.395  29.348  1.00  0.00     0.039 A 
ATOM     32  C   UNL A   1      34.005  33.704  30.546  1.00  0.00     0.014 A 
ATOM     33  C   UNL A   1      35.481  34.607  28.843  1.00  0.00     0.014 A 
ATOM     34  C   UNL A   1      35.108  33.171  31.212  1.00  0.00     0.010 A 
ATOM     35  C   UNL A   1      36.569  34.009  29.466  1.00  0.00     0.010 A 
ATOM     36  C   UNL A   1      36.394  33.291  30.659  1.00  0.00    -0.014 A 
BRANCH  36  37
ATOM     37  C   UNL A   1      37.579  32.682  31.310  1.00  0.00     0.031 A 
ATOM     38  C   UNL A   1      38.294  31.544  30.639  1.00  0.00     0.074 A 
ATOM     39  C   UNL A   1      37.955  33.097  32.534  1.00  0.00     0.049 A 
ATOM     40  N   UNL A   1      39.269  30.797  31.090  1.00  0.00    -0.248 NA
ATOM     41  C   UNL A   1      37.830  31.177  29.291  1.00  0.00     0.031 C 
ATOM     42  C   UNL A   1      37.317  34.170  33.298  1.00  0.00     0.029 A 
ATOM     43  N   UNL A   1      38.957  32.651  33.361  1.00  0.00    -0.354 N 
ATOM     44  C   UNL A   1      39.521  29.865  30.093  1.00  0.00     0.074 A 
ATOM     45  C   UNL A   1      38.563  30.103  29.036  1.00  0.00     0.031 C 
ATOM     46  C   UNL A   1      37.949  34.310  34.473  1.00  0.00     0.029 A 
ATOM     47  C   UNL A   1      39.004  33.305  34.568  1.00  0.00     0.049 A 
ATOM     48  H   UNL A   1      39.581  31.932  33.112  1.00  0.00     0.167 HD
ATOM     49  C   UNL A   1      40.480  28.910  30.055  1.00  0.00     0.037 A 
ATOM     50  C   UNL A   1      39.796  33.102  35.638  1.00  0.00     0.037 A 
ATOM     51  C   UNL A   1      41.442  28.694  31.103  1.00  0.00     0.049 A 
ATOM     52  C   UNL A   1      40.836  32.013  35.582  1.00  0.00     0.074 A 
ATOM     53  C   UNL A   1      42.490  27.791  31.138  1.00  0.00     0.029 A 
ATOM     54  N   UNL A   1      41.468  29.386  32.305  1.00  0.00    -0.354 N 
ATOM     55  N   UNL A   1      41.109  31.179  34.609  1.00  0.00    -0.248 NA
ATOM     56  C   UNL A   1      41.680  31.840  36.773  1.00  0.00     0.031 C 
ATOM     57  C   UNL A   1      43.113  27.895  32.385  1.00  0.00     0.029 A 
ATOM     58  C   UNL A   1      42.497  28.909  33.101  1.00  0.00     0.049 A 
ATOM     59  H   UNL A   1      40.848  30.108  32.556  1.00  0.00     0.167 HD
ATOM     60  C   UNL A   1      42.175  30.408  35.053  1.00  0.00     0.074 A 
ATOM     61  C   UNL A   1      42.505  30.878  36.381  1.00  0.00     0.031 C 
ATOM     62  C   UNL A   1      42.823  29.402  34.416  1.00  0.00     0.037 A 
BRANCH  49  63
ATOM     63  C   UNL A   1      40.533  28.022  28.845  1.00  0.00     0.064 A 
ATOM     64  C   UNL A   1      39.812  26.819  28.780  1.00  0.00     0.173 A 
ATOM     65  C   UNL A   1      41.282  28.397  27.719  1.00  0.00     0.173 A 
ATOM     66  F   UNL A   1      39.086  26.408  29.831  1.00  0.00    -0.203 F 
ATOM     67  C   UNL A   1      39.867  26.011  27.647  1.00  0.00     0.198 A 
ATOM     68  C   UNL A   1      41.306  27.604  26.576  1.00  0.00     0.198 A 
ATOM     69  F   UNL A   1      41.986  29.539  27.726  1.00  0.00    -0.203 F 
ATOM     70  F   UNL A   1      39.213  24.841  27.629  1.00  0.00    -0.200 F 
ATOM     71  C   UNL A   1      40.607  26.407  26.544  1.00  0.00     0.200 A 
ATOM     72  F   UNL A   1      42.009  27.997  25.505  1.00  0.00    -0.200 F 
ATOM     73  F   UNL A   1      40.650  25.634  25.450  1.00  0.00    -0.200 F 
ENDBRANCH  49  63
BRANCH  50  74
ATOM     74  C   UNL A   1      39.644  33.951  36.849  1.00  0.00     0.064 A 
ATOM     75  C   UNL A   1      38.846  33.536  37.924  1.00  0.00     0.173 A 
ATOM     76  C   UNL A   1      40.285  35.194  36.955  1.00  0.00     0.173 A 
ATOM     77  F   UNL A   1      38.197  32.364  37.863  1.00  0.00    -0.203 F 
ATOM     78  C   UNL A   1      38.675  34.343  39.048  1.00  0.00     0.198 A 
ATOM     79  C   UNL A   1      40.139  35.986  38.093  1.00  0.00     0.198 A 
ATOM     80  F   UNL A   1      41.065  35.636  35.958  1.00  0.00    -0.203 F 
ATOM     81  F   UNL A   1      37.867  33.943  40.039  1.00  0.00    -0.200 F 
ATOM     82  C   UNL A   1      39.327  35.564  39.134  1.00  0.00     0.200 A 
ATOM     83  F   UNL A   1      40.784  37.157  38.179  1.00  0.00    -0.200 F 
ATOM     84  F   UNL A   1      39.165  36.337  40.217  1.00  0.00    -0.200 F 
ENDBRANCH  50  74
BRANCH  62  85
ATOM     85  C   UNL A   1      43.989  28.770  35.120  1.00  0.00     0.064 A 
ATOM     86  C   UNL A   1      43.836  27.643  35.941  1.00  0.00     0.173 A 
ATOM     87  C   UNL A   1      45.288  29.260  34.911  1.00  0.00     0.173 A 
ATOM     88  F   UNL A   1      42.615  27.146  36.184  1.00  0.00    -0.203 F 
ATOM     89  C   UNL A   1      44.940  27.041  36.539  1.00  0.00     0.198 A 
ATOM     90  C   UNL A   1      46.391  28.635  35.484  1.00  0.00     0.198 A 
ATOM     91  F   UNL A   1      45.489  30.331  34.128  1.00  0.00    -0.203 F 
ATOM     92  F   UNL A   1      44.768  25.989  37.352  1.00  0.00    -0.200 F 
ATOM     93  C   UNL A   1      46.216  27.530  36.301  1.00  0.00     0.200 A 
ATOM     94  F   UNL A   1      47.624  29.099  35.239  1.00  0.00    -0.200 F 
ATOM     95  F   UNL A   1      47.278  26.936  36.864  1.00  0.00    -0.200 F 
ENDBRANCH  62  85
ENDBRANCH  36  37
ENDBRANCH  28  31
ENDBRANCH  26  27
ENDBRANCH  25  26
ENDBRANCH  24  25
ENDBRANCH   1  24
TORSDOF 15
ENDMDL
