MODEL 1
REMARK VINA RESULT:     -12.4      0.000      0.000
REMARK SMILES O=C(NCCCCNC(=O)c1ccc(-c2c3nc(c(-c4c(F)c(F)c(F)c(F)c4F)c4ccc([nH]4)c(-c4c(F)c(F)c(F)c(F)c4F)c4nc(c(-c5c(F)c(F)c(F)c(F)c5F)c5ccc2[nH]5)C=C4)C=C3)cc1)c1ccc(Cc2nc3ccccc3s2)cc1
REMARK SMILES IDX 5 1 4 2 3 3 1 4 2 5 74 7 75 8 89 9 76 10 88 11 77 12 78 13
REMARK SMILES IDX 79 14 80 15 87 16 81 17 86 18 82 19 85 20 83 21 84 22 6 23
REMARK SMILES IDX 7 24 8 25 9 26 10 28 11 29 12 30 73 31 13 32 72 33 14 34
REMARK SMILES IDX 15 35 16 36 66 37 17 38 71 39 65 40 67 41 18 42 70 43 64 44
REMARK SMILES IDX 63 45 19 47 51 48 31 49 50 50 32 51 35 52 49 53 68 54 33 55
REMARK SMILES IDX 34 56 48 58 69 59 36 60 20 61 21 62 29 63 22 64 23 65 27 66
REMARK SMILES IDX 30 67 24 68 25 69 28 70 26 71 52 72 53 73 61 74 54 75 55 76
REMARK SMILES IDX 59 77 62 78 56 79 57 80 60 81 58 82 37 83 38 84 46 85 39 86
REMARK SMILES IDX 40 87 44 88 47 89 41 90 42 91 45 92 43 93
REMARK H PARENT 3 6 8 27 67 46 35 57
REMARK Flexibility Score: inf
ROOT
ATOM      1  C   UNL A   1      35.223  21.543  26.190  1.00  0.00     0.023 C 
ENDROOT
BRANCH   1   2
ATOM      2  C   UNL A   1      35.248  20.601  24.990  1.00  0.00     0.116 C 
BRANCH   2   3
ATOM      3  N   UNL A   1      34.251  19.546  25.089  1.00  0.00    -0.352 N 
ATOM      4  O   UNL A   1      32.182  18.665  25.273  1.00  0.00    -0.269 OA
ATOM      5  C   UNL A   1      32.882  19.634  25.002  1.00  0.00     0.251 C 
ATOM      6  H   UNL A   1      34.607  18.641  25.240  1.00  0.00     0.163 HD
BRANCH   5   7
ATOM      7  C   UNL A   1      32.254  20.911  24.607  1.00  0.00     0.039 A 
ATOM      8  C   UNL A   1      32.298  21.350  23.281  1.00  0.00     0.014 A 
ATOM      9  C   UNL A   1      31.624  21.679  25.587  1.00  0.00     0.014 A 
ATOM     10  C   UNL A   1      31.799  22.610  22.954  1.00  0.00     0.005 A 
ATOM     11  C   UNL A   1      31.114  22.936  25.256  1.00  0.00     0.005 A 
ATOM     12  C   UNL A   1      31.221  23.422  23.943  1.00  0.00    -0.041 A 
BRANCH  12  13
ATOM     13  C   UNL A   1      30.789  24.835  23.609  1.00  0.00     0.103 C 
BRANCH  13  14
ATOM     14  C   UNL A   1      31.475  25.879  24.451  1.00  0.00     0.098 A 
ATOM     15  N   UNL A   1      30.889  26.621  25.369  1.00  0.00    -0.241 NA
ATOM     16  S   UNL A   1      33.152  26.184  24.222  1.00  0.00    -0.118 S 
ATOM     17  C   UNL A   1      31.807  27.473  25.955  1.00  0.00     0.082 A 
ATOM     18  C   UNL A   1      33.108  27.385  25.456  1.00  0.00     0.055 A 
ATOM     19  C   UNL A   1      31.537  28.396  26.986  1.00  0.00     0.030 A 
ATOM     20  C   UNL A   1      34.147  28.193  25.946  1.00  0.00     0.021 A 
ATOM     21  C   UNL A   1      32.564  29.203  27.484  1.00  0.00     0.002 A 
ATOM     22  C   UNL A   1      33.852  29.102  26.968  1.00  0.00     0.002 A 
ENDBRANCH  13  14
ENDBRANCH  12  13
ENDBRANCH   5   7
ENDBRANCH   2   3
ENDBRANCH   1   2
BRANCH   1  23
ATOM     23  C   UNL A   1      35.258  23.033  25.850  1.00  0.00     0.023 C 
BRANCH  23  24
ATOM     24  C   UNL A   1      36.647  23.646  25.737  1.00  0.00     0.116 C 
BRANCH  24  25
ATOM     25  N   UNL A   1      37.717  22.670  25.873  1.00  0.00    -0.352 N 
ATOM     26  C   UNL A   1      38.997  22.835  26.345  1.00  0.00     0.251 C 
ATOM     27  H   UNL A   1      37.490  21.757  25.586  1.00  0.00     0.163 HD
ATOM     28  O   UNL A   1      39.802  21.913  26.260  1.00  0.00    -0.269 OA
BRANCH  26  29
ATOM     29  C   UNL A   1      39.420  24.128  26.930  1.00  0.00     0.039 A 
ATOM     30  C   UNL A   1      40.058  25.062  26.108  1.00  0.00     0.014 A 
ATOM     31  C   UNL A   1      39.218  24.417  28.282  1.00  0.00     0.014 A 
ATOM     32  C   UNL A   1      40.451  26.296  26.630  1.00  0.00     0.010 A 
ATOM     33  C   UNL A   1      39.529  25.680  28.780  1.00  0.00     0.010 A 
ATOM     34  C   UNL A   1      40.170  26.627  27.966  1.00  0.00    -0.014 A 
BRANCH  34  35
ATOM     35  C   UNL A   1      40.591  27.932  28.540  1.00  0.00     0.031 A 
ATOM     36  C   UNL A   1      42.038  28.164  28.891  1.00  0.00     0.074 A 
ATOM     37  C   UNL A   1      39.679  28.894  28.776  1.00  0.00     0.049 A 
ATOM     38  N   UNL A   1      42.601  29.208  29.449  1.00  0.00    -0.248 NA
ATOM     39  C   UNL A   1      42.976  27.068  28.597  1.00  0.00     0.031 C 
ATOM     40  C   UNL A   1      38.242  28.780  28.524  1.00  0.00     0.029 A 
ATOM     41  N   UNL A   1      39.824  30.160  29.291  1.00  0.00    -0.354 N 
ATOM     42  C   UNL A   1      43.948  28.890  29.574  1.00  0.00     0.074 A 
ATOM     43  C   UNL A   1      44.108  27.532  29.104  1.00  0.00     0.031 C 
ATOM     44  C   UNL A   1      37.641  29.933  28.864  1.00  0.00     0.029 A 
ATOM     45  C   UNL A   1      38.643  30.854  29.393  1.00  0.00     0.049 A 
ATOM     46  H   UNL A   1      40.694  30.533  29.561  1.00  0.00     0.167 HD
ATOM     47  C   UNL A   1      44.968  29.670  30.004  1.00  0.00     0.037 A 
ATOM     48  C   UNL A   1      38.397  32.090  29.867  1.00  0.00     0.037 A 
ATOM     49  C   UNL A   1      44.813  31.027  30.458  1.00  0.00     0.049 A 
ATOM     50  C   UNL A   1      39.550  32.931  30.354  1.00  0.00     0.074 A 
ATOM     51  C   UNL A   1      45.784  31.905  30.906  1.00  0.00     0.029 A 
ATOM     52  N   UNL A   1      43.604  31.705  30.514  1.00  0.00    -0.354 N 
ATOM     53  N   UNL A   1      40.826  32.635  30.420  1.00  0.00    -0.248 NA
ATOM     54  C   UNL A   1      39.229  34.290  30.816  1.00  0.00     0.031 C 
ATOM     55  C   UNL A   1      45.159  33.103  31.269  1.00  0.00     0.029 A 
ATOM     56  C   UNL A   1      43.807  32.991  30.989  1.00  0.00     0.049 A 
ATOM     57  H   UNL A   1      42.732  31.329  30.255  1.00  0.00     0.167 HD
ATOM     58  C   UNL A   1      41.461  33.781  30.883  1.00  0.00     0.074 A 
ATOM     59  C   UNL A   1      40.433  34.781  31.066  1.00  0.00     0.031 C 
ATOM     60  C   UNL A   1      42.777  33.987  31.136  1.00  0.00     0.037 A 
BRANCH  47  61
ATOM     61  C   UNL A   1      46.350  29.082  29.982  1.00  0.00     0.064 A 
ATOM     62  C   UNL A   1      46.867  28.391  31.089  1.00  0.00     0.173 A 
ATOM     63  C   UNL A   1      47.147  29.165  28.832  1.00  0.00     0.173 A 
ATOM     64  F   UNL A   1      46.151  28.294  32.220  1.00  0.00    -0.203 F 
ATOM     65  C   UNL A   1      48.138  27.825  31.053  1.00  0.00     0.198 A 
ATOM     66  C   UNL A   1      48.405  28.568  28.786  1.00  0.00     0.198 A 
ATOM     67  F   UNL A   1      46.702  29.811  27.744  1.00  0.00    -0.203 F 
ATOM     68  F   UNL A   1      48.627  27.209  32.138  1.00  0.00    -0.200 F 
ATOM     69  C   UNL A   1      48.902  27.905  29.899  1.00  0.00     0.200 A 
ATOM     70  F   UNL A   1      49.137  28.634  27.666  1.00  0.00    -0.200 F 
ATOM     71  F   UNL A   1      50.119  27.346  29.859  1.00  0.00    -0.200 F 
ENDBRANCH  47  61
BRANCH  48  72
ATOM     72  C   UNL A   1      37.009  32.628  29.896  1.00  0.00     0.064 A 
ATOM     73  C   UNL A   1      36.495  33.371  28.823  1.00  0.00     0.173 A 
ATOM     74  C   UNL A   1      36.187  32.457  31.019  1.00  0.00     0.173 A 
ATOM     75  F   UNL A   1      37.246  33.578  27.731  1.00  0.00    -0.203 F 
ATOM     76  C   UNL A   1      35.236  33.962  28.892  1.00  0.00     0.198 A 
ATOM     77  C   UNL A   1      34.912  33.018  31.073  1.00  0.00     0.198 A 
ATOM     78  F   UNL A   1      36.623  31.748  32.071  1.00  0.00    -0.203 F 
ATOM     79  F   UNL A   1      34.803  34.732  27.884  1.00  0.00    -0.200 F 
ATOM     80  C   UNL A   1      34.444  33.785  30.016  1.00  0.00     0.200 A 
ATOM     81  F   UNL A   1      34.144  32.829  32.154  1.00  0.00    -0.200 F 
ATOM     82  F   UNL A   1      33.238  34.363  30.087  1.00  0.00    -0.200 F 
ENDBRANCH  48  72
BRANCH  60  83
ATOM     83  C   UNL A   1      43.190  35.368  31.559  1.00  0.00     0.064 A 
ATOM     84  C   UNL A   1      43.604  36.340  30.635  1.00  0.00     0.173 A 
ATOM     85  C   UNL A   1      43.158  35.727  32.916  1.00  0.00     0.173 A 
ATOM     86  F   UNL A   1      43.664  36.047  29.328  1.00  0.00    -0.203 F 
ATOM     87  C   UNL A   1      44.014  37.602  31.060  1.00  0.00     0.198 A 
ATOM     88  C   UNL A   1      43.530  37.001  33.332  1.00  0.00     0.198 A 
ATOM     89  F   UNL A   1      42.758  34.840  33.841  1.00  0.00    -0.203 F 
ATOM     90  F   UNL A   1      44.473  38.489  30.166  1.00  0.00    -0.200 F 
ATOM     91  C   UNL A   1      43.972  37.933  32.406  1.00  0.00     0.200 A 
ATOM     92  F   UNL A   1      43.471  37.324  34.631  1.00  0.00    -0.200 F 
ATOM     93  F   UNL A   1      44.367  39.147  32.811  1.00  0.00    -0.200 F 
ENDBRANCH  60  83
ENDBRANCH  34  35
ENDBRANCH  26  29
ENDBRANCH  24  25
ENDBRANCH  23  24
ENDBRANCH   1  23
TORSDOF 13
ENDMDL
MODEL 2
REMARK VINA RESULT:     -12.4      3.507      8.884
REMARK SMILES O=C(NCCCCNC(=O)c1ccc(-c2c3nc(c(-c4c(F)c(F)c(F)c(F)c4F)c4ccc([nH]4)c(-c4c(F)c(F)c(F)c(F)c4F)c4nc(c(-c5c(F)c(F)c(F)c(F)c5F)c5ccc2[nH]5)C=C4)C=C3)cc1)c1ccc(Cc2nc3ccccc3s2)cc1
REMARK SMILES IDX 5 1 4 2 3 3 1 4 2 5 74 7 75 8 89 9 76 10 88 11 77 12 78 13
REMARK SMILES IDX 79 14 80 15 87 16 81 17 86 18 82 19 85 20 83 21 84 22 6 23
REMARK SMILES IDX 7 24 8 25 9 26 10 28 11 29 12 30 73 31 13 32 72 33 14 34
REMARK SMILES IDX 15 35 16 36 66 37 17 38 71 39 65 40 67 41 18 42 70 43 64 44
REMARK SMILES IDX 63 45 19 47 51 48 31 49 50 50 32 51 35 52 49 53 68 54 33 55
REMARK SMILES IDX 34 56 48 58 69 59 36 60 20 61 21 62 29 63 22 64 23 65 27 66
REMARK SMILES IDX 30 67 24 68 25 69 28 70 26 71 52 72 53 73 61 74 54 75 55 76
REMARK SMILES IDX 59 77 62 78 56 79 57 80 60 81 58 82 37 83 38 84 46 85 39 86
REMARK SMILES IDX 40 87 44 88 47 89 41 90 42 91 45 92 43 93
REMARK H PARENT 3 6 8 27 67 46 35 57
REMARK Flexibility Score: inf
ROOT
ATOM      1  C   UNL A   1      33.281  29.200  24.609  1.00  0.00     0.023 C 
ENDROOT
BRANCH   1   2
ATOM      2  C   UNL A   1      33.251  29.012  23.094  1.00  0.00     0.116 C 
BRANCH   2   3
ATOM      3  N   UNL A   1      31.953  29.328  22.519  1.00  0.00    -0.352 N 
ATOM      4  O   UNL A   1      29.887  28.907  21.716  1.00  0.00    -0.269 OA
ATOM      5  C   UNL A   1      30.848  28.524  22.375  1.00  0.00     0.251 C 
ATOM      6  H   UNL A   1      31.852  30.249  22.184  1.00  0.00     0.163 HD
BRANCH   5   7
ATOM      7  C   UNL A   1      30.831  27.184  22.994  1.00  0.00     0.039 A 
ATOM      8  C   UNL A   1      30.267  26.986  24.258  1.00  0.00     0.014 A 
ATOM      9  C   UNL A   1      31.402  26.117  22.299  1.00  0.00     0.014 A 
ATOM     10  C   UNL A   1      30.365  25.737  24.870  1.00  0.00     0.005 A 
ATOM     11  C   UNL A   1      31.490  24.865  22.909  1.00  0.00     0.005 A 
ATOM     12  C   UNL A   1      30.995  24.672  24.209  1.00  0.00    -0.041 A 
BRANCH  12  13
ATOM     13  C   UNL A   1      31.205  23.352  24.923  1.00  0.00     0.103 C 
BRANCH  13  14
ATOM     14  C   UNL A   1      32.657  22.970  25.047  1.00  0.00     0.098 A 
ATOM     15  N   UNL A   1      33.629  23.782  25.410  1.00  0.00    -0.241 NA
ATOM     16  S   UNL A   1      33.145  21.364  24.674  1.00  0.00    -0.118 S 
ATOM     17  C   UNL A   1      34.838  23.109  25.424  1.00  0.00     0.082 A 
ATOM     18  C   UNL A   1      34.777  21.767  25.044  1.00  0.00     0.055 A 
ATOM     19  C   UNL A   1      36.086  23.659  25.779  1.00  0.00     0.030 A 
ATOM     20  C   UNL A   1      35.925  20.957  25.000  1.00  0.00     0.021 A 
ATOM     21  C   UNL A   1      37.233  22.861  25.742  1.00  0.00     0.002 A 
ATOM     22  C   UNL A   1      37.152  21.527  25.356  1.00  0.00     0.002 A 
ENDBRANCH  13  14
ENDBRANCH  12  13
ENDBRANCH   5   7
ENDBRANCH   2   3
ENDBRANCH   1   2
BRANCH   1  23
ATOM     23  C   UNL A   1      33.688  27.965  25.411  1.00  0.00     0.023 C 
BRANCH  23  24
ATOM     24  C   UNL A   1      33.864  28.185  26.908  1.00  0.00     0.116 C 
BRANCH  24  25
ATOM     25  N   UNL A   1      33.658  29.567  27.311  1.00  0.00    -0.352 N 
ATOM     26  C   UNL A   1      34.515  30.429  27.953  1.00  0.00     0.251 C 
ATOM     27  H   UNL A   1      32.775  29.942  27.089  1.00  0.00     0.163 HD
ATOM     28  O   UNL A   1      34.112  31.525  28.327  1.00  0.00    -0.269 OA
BRANCH  26  29
ATOM     29  C   UNL A   1      35.917  30.031  28.220  1.00  0.00     0.039 A 
ATOM     30  C   UNL A   1      36.241  29.518  29.479  1.00  0.00     0.014 A 
ATOM     31  C   UNL A   1      36.914  30.183  27.253  1.00  0.00     0.014 A 
ATOM     32  C   UNL A   1      37.551  29.119  29.753  1.00  0.00     0.010 A 
ATOM     33  C   UNL A   1      38.199  29.703  27.496  1.00  0.00     0.010 A 
ATOM     34  C   UNL A   1      38.539  29.186  28.756  1.00  0.00    -0.014 A 
BRANCH  34  35
ATOM     35  C   UNL A   1      39.941  28.775  29.033  1.00  0.00     0.031 A 
ATOM     36  C   UNL A   1      40.862  29.708  29.775  1.00  0.00     0.074 A 
ATOM     37  C   UNL A   1      40.397  27.586  28.596  1.00  0.00     0.049 A 
ATOM     38  N   UNL A   1      42.131  29.564  30.069  1.00  0.00    -0.248 NA
ATOM     39  C   UNL A   1      40.288  30.987  30.226  1.00  0.00     0.031 C 
ATOM     40  C   UNL A   1      39.622  26.610  27.828  1.00  0.00     0.029 A 
ATOM     41  N   UNL A   1      41.631  26.997  28.727  1.00  0.00    -0.354 N 
ATOM     42  C   UNL A   1      42.500  30.728  30.732  1.00  0.00     0.074 A 
ATOM     43  C   UNL A   1      41.347  31.600  30.733  1.00  0.00     0.031 C 
ATOM     44  C   UNL A   1      40.390  25.537  27.576  1.00  0.00     0.029 A 
ATOM     45  C   UNL A   1      41.721  25.763  28.130  1.00  0.00     0.049 A 
ATOM     46  H   UNL A   1      42.380  27.419  29.206  1.00  0.00     0.167 HD
ATOM     47  C   UNL A   1      43.681  31.030  31.323  1.00  0.00     0.037 A 
ATOM     48  C   UNL A   1      42.763  24.915  28.034  1.00  0.00     0.037 A 
ATOM     49  C   UNL A   1      44.826  30.157  31.337  1.00  0.00     0.049 A 
ATOM     50  C   UNL A   1      44.071  25.285  28.688  1.00  0.00     0.074 A 
ATOM     51  C   UNL A   1      46.065  30.366  31.915  1.00  0.00     0.029 A 
ATOM     52  N   UNL A   1      44.865  28.902  30.749  1.00  0.00    -0.354 N 
ATOM     53  N   UNL A   1      44.391  26.367  29.354  1.00  0.00    -0.248 NA
ATOM     54  C   UNL A   1      45.159  24.300  28.592  1.00  0.00     0.031 C 
ATOM     55  C   UNL A   1      46.868  29.253  31.646  1.00  0.00     0.029 A 
ATOM     56  C   UNL A   1      46.109  28.325  30.952  1.00  0.00     0.049 A 
ATOM     57  H   UNL A   1      44.121  28.482  30.260  1.00  0.00     0.167 HD
ATOM     58  C   UNL A   1      45.695  26.174  29.794  1.00  0.00     0.074 A 
ATOM     59  C   UNL A   1      46.100  24.864  29.333  1.00  0.00     0.031 C 
ATOM     60  C   UNL A   1      46.487  27.006  30.514  1.00  0.00     0.037 A 
BRANCH  47  61
ATOM     61  C   UNL A   1      43.789  32.353  32.025  1.00  0.00     0.064 A 
ATOM     62  C   UNL A   1      44.199  33.510  31.344  1.00  0.00     0.173 A 
ATOM     63  C   UNL A   1      43.434  32.480  33.376  1.00  0.00     0.173 A 
ATOM     64  F   UNL A   1      44.564  33.441  30.055  1.00  0.00    -0.203 F 
ATOM     65  C   UNL A   1      44.270  34.739  31.994  1.00  0.00     0.198 A 
ATOM     66  C   UNL A   1      43.473  33.718  34.015  1.00  0.00     0.198 A 
ATOM     67  F   UNL A   1      43.031  31.408  34.074  1.00  0.00    -0.203 F 
ATOM     68  F   UNL A   1      44.709  35.820  31.335  1.00  0.00    -0.200 F 
ATOM     69  C   UNL A   1      43.898  34.844  33.325  1.00  0.00     0.200 A 
ATOM     70  F   UNL A   1      43.100  33.821  35.297  1.00  0.00    -0.200 F 
ATOM     71  F   UNL A   1      43.952  36.031  33.946  1.00  0.00    -0.200 F 
ENDBRANCH  47  61
BRANCH  48  72
ATOM     72  C   UNL A   1      42.624  23.624  27.306  1.00  0.00     0.064 A 
ATOM     73  C   UNL A   1      42.067  22.496  27.928  1.00  0.00     0.173 A 
ATOM     74  C   UNL A   1      43.095  23.475  25.994  1.00  0.00     0.173 A 
ATOM     75  F   UNL A   1      41.617  22.581  29.189  1.00  0.00    -0.203 F 
ATOM     76  C   UNL A   1      42.032  21.261  27.285  1.00  0.00     0.198 A 
ATOM     77  C   UNL A   1      43.025  22.247  25.337  1.00  0.00     0.198 A 
ATOM     78  F   UNL A   1      43.629  24.521  25.347  1.00  0.00    -0.203 F 
ATOM     79  F   UNL A   1      41.566  20.184  27.932  1.00  0.00    -0.200 F 
ATOM     80  C   UNL A   1      42.509  21.137  25.990  1.00  0.00     0.200 A 
ATOM     81  F   UNL A   1      43.473  22.136  24.079  1.00  0.00    -0.200 F 
ATOM     82  F   UNL A   1      42.486  19.947  25.376  1.00  0.00    -0.200 F 
ENDBRANCH  48  72
BRANCH  60  83
ATOM     83  C   UNL A   1      47.841  26.493  30.917  1.00  0.00     0.064 A 
ATOM     84  C   UNL A   1      48.982  26.697  30.128  1.00  0.00     0.173 A 
ATOM     85  C   UNL A   1      47.996  25.794  32.125  1.00  0.00     0.173 A 
ATOM     86  F   UNL A   1      48.888  27.348  28.960  1.00  0.00    -0.203 F 
ATOM     87  C   UNL A   1      50.218  26.179  30.510  1.00  0.00     0.198 A 
ATOM     88  C   UNL A   1      49.239  25.312  32.523  1.00  0.00     0.198 A 
ATOM     89  F   UNL A   1      46.939  25.581  32.925  1.00  0.00    -0.203 F 
ATOM     90  F   UNL A   1      51.279  26.325  29.705  1.00  0.00    -0.200 F 
ATOM     91  C   UNL A   1      50.346  25.493  31.709  1.00  0.00     0.200 A 
ATOM     92  F   UNL A   1      49.364  24.666  33.690  1.00  0.00    -0.200 F 
ATOM     93  F   UNL A   1      51.536  24.996  32.073  1.00  0.00    -0.200 F 
ENDBRANCH  60  83
ENDBRANCH  34  35
ENDBRANCH  26  29
ENDBRANCH  24  25
ENDBRANCH  23  24
ENDBRANCH   1  23
TORSDOF 13
ENDMDL
MODEL 3
REMARK VINA RESULT:     -12.2      2.720      8.395
REMARK SMILES O=C(NCCCCNC(=O)c1ccc(-c2c3nc(c(-c4c(F)c(F)c(F)c(F)c4F)c4ccc([nH]4)c(-c4c(F)c(F)c(F)c(F)c4F)c4nc(c(-c5c(F)c(F)c(F)c(F)c5F)c5ccc2[nH]5)C=C4)C=C3)cc1)c1ccc(Cc2nc3ccccc3s2)cc1
REMARK SMILES IDX 5 1 4 2 3 3 1 4 2 5 74 7 75 8 89 9 76 10 88 11 77 12 78 13
REMARK SMILES IDX 79 14 80 15 87 16 81 17 86 18 82 19 85 20 83 21 84 22 6 23
REMARK SMILES IDX 7 24 8 25 9 26 10 28 11 29 12 30 73 31 13 32 72 33 14 34
REMARK SMILES IDX 15 35 16 36 66 37 17 38 71 39 65 40 67 41 18 42 70 43 64 44
REMARK SMILES IDX 63 45 19 47 51 48 31 49 50 50 32 51 35 52 49 53 68 54 33 55
REMARK SMILES IDX 34 56 48 58 69 59 36 60 20 61 21 62 29 63 22 64 23 65 27 66
REMARK SMILES IDX 30 67 24 68 25 69 28 70 26 71 52 72 53 73 61 74 54 75 55 76
REMARK SMILES IDX 59 77 62 78 56 79 57 80 60 81 58 82 37 83 38 84 46 85 39 86
REMARK SMILES IDX 40 87 44 88 47 89 41 90 42 91 45 92 43 93
REMARK H PARENT 3 6 8 27 67 46 35 57
REMARK Flexibility Score: inf
ROOT
ATOM      1  C   UNL A   1      37.190  20.945  24.573  1.00  0.00     0.023 C 
ENDROOT
BRANCH   1   2
ATOM      2  C   UNL A   1      35.834  20.892  25.272  1.00  0.00     0.116 C 
BRANCH   2   3
ATOM      3  N   UNL A   1      35.129  19.643  25.026  1.00  0.00    -0.352 N 
ATOM      4  O   UNL A   1      33.342  18.305  24.703  1.00  0.00    -0.269 OA
ATOM      5  C   UNL A   1      33.806  19.440  24.717  1.00  0.00     0.251 C 
ATOM      6  H   UNL A   1      35.678  18.828  25.090  1.00  0.00     0.163 HD
BRANCH   5   7
ATOM      7  C   UNL A   1      32.934  20.597  24.427  1.00  0.00     0.039 A 
ATOM      8  C   UNL A   1      32.799  21.081  23.123  1.00  0.00     0.014 A 
ATOM      9  C   UNL A   1      32.257  21.206  25.484  1.00  0.00     0.014 A 
ATOM     10  C   UNL A   1      32.062  22.243  22.892  1.00  0.00     0.005 A 
ATOM     11  C   UNL A   1      31.511  22.362  25.249  1.00  0.00     0.005 A 
ATOM     12  C   UNL A   1      31.429  22.904  23.956  1.00  0.00    -0.041 A 
BRANCH  12  13
ATOM     13  C   UNL A   1      30.732  24.228  23.720  1.00  0.00     0.103 C 
BRANCH  13  14
ATOM     14  C   UNL A   1      31.254  25.337  24.595  1.00  0.00     0.098 A 
ATOM     15  N   UNL A   1      32.455  25.873  24.508  1.00  0.00    -0.241 NA
ATOM     16  S   UNL A   1      30.253  25.979  25.837  1.00  0.00    -0.118 S 
ATOM     17  C   UNL A   1      32.607  26.868  25.457  1.00  0.00     0.082 A 
ATOM     18  C   UNL A   1      31.504  27.073  26.288  1.00  0.00     0.055 A 
ATOM     19  C   UNL A   1      33.755  27.664  25.642  1.00  0.00     0.030 A 
ATOM     20  C   UNL A   1      31.513  28.044  27.304  1.00  0.00     0.021 A 
ATOM     21  C   UNL A   1      33.773  28.634  26.649  1.00  0.00     0.002 A 
ATOM     22  C   UNL A   1      32.665  28.819  27.469  1.00  0.00     0.002 A 
ENDBRANCH  13  14
ENDBRANCH  12  13
ENDBRANCH   5   7
ENDBRANCH   2   3
ENDBRANCH   1   2
BRANCH   1  23
ATOM     23  C   UNL A   1      38.126  19.776  24.874  1.00  0.00     0.023 C 
BRANCH  23  24
ATOM     24  C   UNL A   1      39.151  20.024  25.974  1.00  0.00     0.116 C 
BRANCH  24  25
ATOM     25  N   UNL A   1      40.296  19.131  25.901  1.00  0.00    -0.352 N 
ATOM     26  C   UNL A   1      41.634  19.411  26.047  1.00  0.00     0.251 C 
ATOM     27  H   UNL A   1      40.082  18.188  25.721  1.00  0.00     0.163 HD
ATOM     28  O   UNL A   1      42.468  18.540  25.820  1.00  0.00    -0.269 OA
BRANCH  26  29
ATOM     29  C   UNL A   1      42.077  20.765  26.452  1.00  0.00     0.039 A 
ATOM     30  C   UNL A   1      42.157  21.066  27.814  1.00  0.00     0.014 A 
ATOM     31  C   UNL A   1      42.389  21.743  25.504  1.00  0.00     0.014 A 
ATOM     32  C   UNL A   1      42.590  22.330  28.224  1.00  0.00     0.010 A 
ATOM     33  C   UNL A   1      42.905  22.971  25.913  1.00  0.00     0.010 A 
ATOM     34  C   UNL A   1      42.990  23.287  27.277  1.00  0.00    -0.014 A 
BRANCH  34  35
ATOM     35  C   UNL A   1      43.443  24.640  27.696  1.00  0.00     0.031 A 
ATOM     36  C   UNL A   1      42.426  25.708  28.005  1.00  0.00     0.074 A 
ATOM     37  C   UNL A   1      44.758  24.922  27.769  1.00  0.00     0.049 A 
ATOM     38  N   UNL A   1      42.612  26.963  28.333  1.00  0.00    -0.248 NA
ATOM     39  C   UNL A   1      41.009  25.322  27.909  1.00  0.00     0.031 C 
ATOM     40  C   UNL A   1      45.843  23.992  27.454  1.00  0.00     0.029 A 
ATOM     41  N   UNL A   1      45.408  26.079  28.125  1.00  0.00    -0.354 N 
ATOM     42  C   UNL A   1      41.343  27.509  28.477  1.00  0.00     0.074 A 
ATOM     43  C   UNL A   1      40.395  26.474  28.129  1.00  0.00     0.031 C 
ATOM     44  C   UNL A   1      47.022  24.607  27.650  1.00  0.00     0.029 A 
ATOM     45  C   UNL A   1      46.777  25.983  28.068  1.00  0.00     0.049 A 
ATOM     46  H   UNL A   1      44.936  26.899  28.396  1.00  0.00     0.167 HD
ATOM     47  C   UNL A   1      40.994  28.748  28.898  1.00  0.00     0.037 A 
ATOM     48  C   UNL A   1      47.726  26.906  28.319  1.00  0.00     0.037 A 
ATOM     49  C   UNL A   1      41.936  29.775  29.260  1.00  0.00     0.049 A 
ATOM     50  C   UNL A   1      47.309  28.282  28.771  1.00  0.00     0.074 A 
ATOM     51  C   UNL A   1      41.685  31.060  29.707  1.00  0.00     0.029 A 
ATOM     52  N   UNL A   1      43.315  29.627  29.221  1.00  0.00    -0.354 N 
ATOM     53  N   UNL A   1      46.105  28.769  28.951  1.00  0.00    -0.248 NA
ATOM     54  C   UNL A   1      48.388  29.233  29.076  1.00  0.00     0.031 C 
ATOM     55  C   UNL A   1      42.911  31.703  29.904  1.00  0.00     0.029 A 
ATOM     56  C   UNL A   1      43.926  30.799  29.638  1.00  0.00     0.049 A 
ATOM     57  H   UNL A   1      43.789  28.812  28.939  1.00  0.00     0.167 HD
ATOM     58  C   UNL A   1      46.282  30.060  29.432  1.00  0.00     0.074 A 
ATOM     59  C   UNL A   1      47.709  30.275  29.532  1.00  0.00     0.031 C 
ATOM     60  C   UNL A   1      45.349  30.987  29.761  1.00  0.00     0.037 A 
BRANCH  47  61
ATOM     61  C   UNL A   1      39.529  29.057  29.016  1.00  0.00     0.064 A 
ATOM     62  C   UNL A   1      38.765  29.409  27.893  1.00  0.00     0.173 A 
ATOM     63  C   UNL A   1      38.869  28.951  30.249  1.00  0.00     0.173 A 
ATOM     64  F   UNL A   1      39.349  29.538  26.692  1.00  0.00    -0.203 F 
ATOM     65  C   UNL A   1      37.402  29.667  28.003  1.00  0.00     0.198 A 
ATOM     66  C   UNL A   1      37.498  29.176  30.350  1.00  0.00     0.198 A 
ATOM     67  F   UNL A   1      39.550  28.614  31.355  1.00  0.00    -0.203 F 
ATOM     68  F   UNL A   1      36.703  30.046  26.924  1.00  0.00    -0.200 F 
ATOM     69  C   UNL A   1      36.767  29.540  29.229  1.00  0.00     0.200 A 
ATOM     70  F   UNL A   1      36.884  29.040  31.533  1.00  0.00    -0.200 F 
ATOM     71  F   UNL A   1      35.452  29.773  29.332  1.00  0.00    -0.200 F 
ENDBRANCH  47  61
BRANCH  48  72
ATOM     72  C   UNL A   1      49.169  26.569  28.166  1.00  0.00     0.064 A 
ATOM     73  C   UNL A   1      49.957  26.229  29.276  1.00  0.00     0.173 A 
ATOM     74  C   UNL A   1      49.801  26.633  26.916  1.00  0.00     0.173 A 
ATOM     75  F   UNL A   1      49.404  26.169  30.496  1.00  0.00    -0.203 F 
ATOM     76  C   UNL A   1      51.328  26.016  29.149  1.00  0.00     0.198 A 
ATOM     77  C   UNL A   1      51.167  26.384  26.785  1.00  0.00     0.198 A 
ATOM     78  F   UNL A   1      49.095  26.945  25.819  1.00  0.00    -0.203 F 
ATOM     79  F   UNL A   1      52.068  25.771  30.239  1.00  0.00    -0.200 F 
ATOM     80  C   UNL A   1      51.932  26.092  27.904  1.00  0.00     0.200 A 
ATOM     81  F   UNL A   1      51.743  26.442  25.576  1.00  0.00    -0.200 F 
ATOM     82  F   UNL A   1      53.252  25.899  27.785  1.00  0.00    -0.200 F 
ENDBRANCH  48  72
BRANCH  60  83
ATOM     83  C   UNL A   1      45.839  32.286  30.336  1.00  0.00     0.064 A 
ATOM     84  C   UNL A   1      46.024  32.470  31.714  1.00  0.00     0.173 A 
ATOM     85  C   UNL A   1      46.140  33.362  29.486  1.00  0.00     0.173 A 
ATOM     86  F   UNL A   1      45.742  31.479  32.573  1.00  0.00    -0.203 F 
ATOM     87  C   UNL A   1      46.447  33.697  32.222  1.00  0.00     0.198 A 
ATOM     88  C   UNL A   1      46.600  34.573  29.993  1.00  0.00     0.198 A 
ATOM     89  F   UNL A   1      45.993  33.236  28.157  1.00  0.00    -0.203 F 
ATOM     90  F   UNL A   1      46.548  33.870  33.547  1.00  0.00    -0.200 F 
ATOM     91  C   UNL A   1      46.739  34.744  31.361  1.00  0.00     0.200 A 
ATOM     92  F   UNL A   1      46.899  35.577  29.158  1.00  0.00    -0.200 F 
ATOM     93  F   UNL A   1      47.145  35.923  31.852  1.00  0.00    -0.200 F 
ENDBRANCH  60  83
ENDBRANCH  34  35
ENDBRANCH  26  29
ENDBRANCH  24  25
ENDBRANCH  23  24
ENDBRANCH   1  23
TORSDOF 13
ENDMDL
