MODEL 1
REMARK VINA RESULT:     -14.2      0.000      0.000
REMARK SMILES Cc1cc2c(=O)c3ccccc3oc2c(C(=O)NCCCCNC(=O)c2ccc(-c3c4nc(c(-c5c(F)c(F)c(F)c(F)c5F)c5ccc([nH]5)c(-c5c(F)c(F)c(F)c(F)c5F)c5nc(c(-c6c(F)c(F)c(F)c(F)c6F)c6ccc3[nH]6)C=C5)C=C4)cc2)c1C
REMARK SMILES IDX 21 1 20 2 19 3 18 4 16 5 17 6 15 8 1 9 2 10 3 11 89 12 4 13
REMARK SMILES IDX 90 14 5 15 14 16 6 17 7 18 13 19 8 20 12 21 9 22 11 23 10 24
REMARK SMILES IDX 22 25 23 26 24 27 25 29 26 30 27 31 88 32 28 33 87 34 29 35
REMARK SMILES IDX 30 36 31 37 81 38 32 39 86 40 80 41 82 42 33 43 85 44 79 45
REMARK SMILES IDX 78 46 34 48 66 49 46 50 65 51 47 52 50 53 64 54 83 55 48 56
REMARK SMILES IDX 49 57 63 59 84 60 51 61 35 62 36 63 44 64 37 65 38 66 42 67
REMARK SMILES IDX 45 68 39 69 40 70 43 71 41 72 67 73 68 74 76 75 69 76 70 77
REMARK SMILES IDX 74 78 77 79 71 80 72 81 75 82 73 83 52 84 53 85 61 86 54 87
REMARK SMILES IDX 55 88 59 89 62 90 56 91 57 92 60 93 58 94
REMARK H PARENT 18 7 23 28 82 47 50 58
REMARK Flexibility Score: inf
ROOT
ATOM      1  C   UNL A   1      32.551  29.494  25.081  1.00  0.00     0.023 C 
ENDROOT
BRANCH   1   2
ATOM      2  C   UNL A   1      33.698  28.646  24.541  1.00  0.00     0.023 C 
BRANCH   2   3
ATOM      3  C   UNL A   1      34.179  28.999  23.123  1.00  0.00     0.116 C 
BRANCH   3   4
ATOM      4  N   UNL A   1      33.954  27.893  22.214  1.00  0.00    -0.352 N 
ATOM      5  C   UNL A   1      33.275  26.711  22.112  1.00  0.00     0.255 C 
ATOM      6  O   UNL A   1      33.649  26.100  21.099  1.00  0.00    -0.269 OA
ATOM      7  H   UNL A   1      34.464  28.046  21.385  1.00  0.00     0.163 HD
BRANCH   5   8
ATOM      8  C   UNL A   1      32.215  26.063  23.001  1.00  0.00     0.086 A 
ATOM      9  C   UNL A   1      31.071  22.934  25.009  1.00  0.00     0.044 C 
ATOM     10  C   UNL A   1      31.091  24.275  24.311  1.00  0.00    -0.046 A 
ATOM     11  C   UNL A   1      29.907  25.008  24.323  1.00  0.00     0.019 A 
ATOM     12  C   UNL A   1      32.243  24.779  23.628  1.00  0.00    -0.032 A 
ATOM     13  C   UNL A   1      29.859  26.258  23.724  1.00  0.00     0.066 A 
ATOM     14  C   UNL A   1      33.432  23.875  23.608  1.00  0.00     0.045 C 
ATOM     15  C   UNL A   1      28.583  26.991  23.729  1.00  0.00     0.200 A 
ATOM     16  C   UNL A   1      30.989  26.804  23.107  1.00  0.00     0.151 A 
ATOM     17  O   UNL A   1      27.573  26.521  24.236  1.00  0.00    -0.288 OA
ATOM     18  C   UNL A   1      28.569  28.302  23.085  1.00  0.00     0.065 A 
ATOM     19  O   UNL A   1      30.947  28.096  22.608  1.00  0.00    -0.455 OA
ATOM     20  C   UNL A   1      27.394  29.056  23.006  1.00  0.00     0.016 A 
ATOM     21  C   UNL A   1      29.761  28.779  22.557  1.00  0.00     0.138 A 
ATOM     22  C   UNL A   1      27.421  30.306  22.391  1.00  0.00     0.001 A 
ATOM     23  C   UNL A   1      29.783  30.030  21.938  1.00  0.00     0.048 A 
ATOM     24  C   UNL A   1      28.615  30.793  21.858  1.00  0.00     0.004 A 
ENDBRANCH   5   8
ENDBRANCH   3   4
ENDBRANCH   2   3
ENDBRANCH   1   2
BRANCH   1  25
ATOM     25  C   UNL A   1      32.641  29.802  26.567  1.00  0.00     0.116 C 
BRANCH  25  26
ATOM     26  N   UNL A   1      32.398  31.196  26.914  1.00  0.00    -0.352 N 
ATOM     27  C   UNL A   1      33.292  32.090  27.470  1.00  0.00     0.251 C 
ATOM     28  H   UNL A   1      31.493  31.539  26.732  1.00  0.00     0.163 HD
ATOM     29  O   UNL A   1      32.960  33.225  27.763  1.00  0.00    -0.269 OA
BRANCH  27  30
ATOM     30  C   UNL A   1      34.654  31.598  27.765  1.00  0.00     0.039 A 
ATOM     31  C   UNL A   1      34.853  30.251  28.068  1.00  0.00     0.014 A 
ATOM     32  C   UNL A   1      35.690  32.524  27.900  1.00  0.00     0.014 A 
ATOM     33  C   UNL A   1      36.025  29.868  28.706  1.00  0.00     0.010 A 
ATOM     34  C   UNL A   1      36.904  32.115  28.458  1.00  0.00     0.010 A 
ATOM     35  C   UNL A   1      37.053  30.800  28.930  1.00  0.00    -0.014 A 
BRANCH  35  36
ATOM     36  C   UNL A   1      38.249  30.383  29.705  1.00  0.00     0.031 A 
ATOM     37  C   UNL A   1      38.422  30.806  31.140  1.00  0.00     0.074 A 
ATOM     38  C   UNL A   1      39.135  29.544  29.139  1.00  0.00     0.049 A 
ATOM     39  N   UNL A   1      39.389  30.513  31.975  1.00  0.00    -0.248 NA
ATOM     40  C   UNL A   1      37.380  31.670  31.717  1.00  0.00     0.031 C 
ATOM     41  C   UNL A   1      39.057  29.043  27.765  1.00  0.00     0.029 A 
ATOM     42  N   UNL A   1      40.248  28.932  29.655  1.00  0.00    -0.354 N 
ATOM     43  C   UNL A   1      39.088  31.177  33.157  1.00  0.00     0.074 A 
ATOM     44  C   UNL A   1      37.856  31.901  32.933  1.00  0.00     0.031 C 
ATOM     45  C   UNL A   1      40.034  28.147  27.569  1.00  0.00     0.029 A 
ATOM     46  C   UNL A   1      40.845  28.059  28.779  1.00  0.00     0.049 A 
ATOM     47  H   UNL A   1      40.585  29.101  30.564  1.00  0.00     0.167 HD
ATOM     48  C   UNL A   1      39.774  31.174  34.324  1.00  0.00     0.037 A 
ATOM     49  C   UNL A   1      41.931  27.278  28.931  1.00  0.00     0.037 A 
ATOM     50  C   UNL A   1      40.976  30.419  34.561  1.00  0.00     0.049 A 
ATOM     51  C   UNL A   1      42.684  27.311  30.228  1.00  0.00     0.074 A 
ATOM     52  C   UNL A   1      41.732  30.340  35.718  1.00  0.00     0.029 A 
ATOM     53  N   UNL A   1      41.590  29.601  33.624  1.00  0.00    -0.354 N 
ATOM     54  N   UNL A   1      42.404  27.968  31.327  1.00  0.00    -0.248 NA
ATOM     55  C   UNL A   1      43.914  26.513  30.300  1.00  0.00     0.031 C 
ATOM     56  C   UNL A   1      42.821  29.496  35.473  1.00  0.00     0.029 A 
ATOM     57  C   UNL A   1      42.724  29.025  34.174  1.00  0.00     0.049 A 
ATOM     58  H   UNL A   1      41.269  29.453  32.706  1.00  0.00     0.167 HD
ATOM     59  C   UNL A   1      43.421  27.666  32.219  1.00  0.00     0.074 A 
ATOM     60  C   UNL A   1      44.313  26.746  31.543  1.00  0.00     0.031 C 
ATOM     61  C   UNL A   1      43.604  28.119  33.483  1.00  0.00     0.037 A 
BRANCH  48  62
ATOM     62  C   UNL A   1      39.251  32.020  35.448  1.00  0.00     0.064 A 
ATOM     63  C   UNL A   1      38.435  31.484  36.452  1.00  0.00     0.173 A 
ATOM     64  C   UNL A   1      39.635  33.365  35.558  1.00  0.00     0.173 A 
ATOM     65  F   UNL A   1      38.030  30.207  36.384  1.00  0.00    -0.203 F 
ATOM     66  C   UNL A   1      38.014  32.267  37.525  1.00  0.00     0.198 A 
ATOM     67  C   UNL A   1      39.230  34.140  36.642  1.00  0.00     0.198 A 
ATOM     68  F   UNL A   1      40.421  33.923  34.625  1.00  0.00    -0.203 F 
ATOM     69  F   UNL A   1      37.213  31.742  38.463  1.00  0.00    -0.200 F 
ATOM     70  C   UNL A   1      38.419  33.590  37.624  1.00  0.00     0.200 A 
ATOM     71  F   UNL A   1      39.631  35.415  36.741  1.00  0.00    -0.200 F 
ATOM     72  F   UNL A   1      38.024  34.338  38.664  1.00  0.00    -0.200 F 
ENDBRANCH  48  62
BRANCH  49  73
ATOM     73  C   UNL A   1      42.356  26.400  27.815  1.00  0.00     0.064 A 
ATOM     74  C   UNL A   1      41.772  25.138  27.636  1.00  0.00     0.173 A 
ATOM     75  C   UNL A   1      43.314  26.820  26.881  1.00  0.00     0.173 A 
ATOM     76  F   UNL A   1      40.866  24.689  28.515  1.00  0.00    -0.203 F 
ATOM     77  C   UNL A   1      42.129  24.331  26.558  1.00  0.00     0.198 A 
ATOM     78  C   UNL A   1      43.652  26.022  25.791  1.00  0.00     0.198 A 
ATOM     79  F   UNL A   1      43.895  28.021  27.010  1.00  0.00    -0.203 F 
ATOM     80  F   UNL A   1      41.572  23.121  26.417  1.00  0.00    -0.200 F 
ATOM     81  C   UNL A   1      43.062  24.776  25.632  1.00  0.00     0.200 A 
ATOM     82  F   UNL A   1      44.540  26.463  24.891  1.00  0.00    -0.200 F 
ATOM     83  F   UNL A   1      43.390  24.007  24.586  1.00  0.00    -0.200 F 
ENDBRANCH  49  73
BRANCH  61  84
ATOM     84  C   UNL A   1      44.815  27.634  34.217  1.00  0.00     0.064 A 
ATOM     85  C   UNL A   1      46.007  28.371  34.214  1.00  0.00     0.173 A 
ATOM     86  C   UNL A   1      44.766  26.455  34.974  1.00  0.00     0.173 A 
ATOM     87  F   UNL A   1      46.102  29.498  33.491  1.00  0.00    -0.203 F 
ATOM     88  C   UNL A   1      47.114  27.940  34.940  1.00  0.00     0.198 A 
ATOM     89  C   UNL A   1      45.869  26.038  35.715  1.00  0.00     0.198 A 
ATOM     90  F   UNL A   1      43.645  25.720  35.010  1.00  0.00    -0.203 F 
ATOM     91  F   UNL A   1      48.252  28.645  34.903  1.00  0.00    -0.200 F 
ATOM     92  C   UNL A   1      47.041  26.778  35.694  1.00  0.00     0.200 A 
ATOM     93  F   UNL A   1      45.796  24.919  36.449  1.00  0.00    -0.200 F 
ATOM     94  F   UNL A   1      48.106  26.370  36.399  1.00  0.00    -0.200 F 
ENDBRANCH  61  84
ENDBRANCH  35  36
ENDBRANCH  27  30
ENDBRANCH  25  26
ENDBRANCH   1  25
TORSDOF 11
ENDMDL
MODEL 2
REMARK VINA RESULT:     -14.1      1.897      3.720
REMARK SMILES Cc1cc2c(=O)c3ccccc3oc2c(C(=O)NCCCCNC(=O)c2ccc(-c3c4nc(c(-c5c(F)c(F)c(F)c(F)c5F)c5ccc([nH]5)c(-c5c(F)c(F)c(F)c(F)c5F)c5nc(c(-c6c(F)c(F)c(F)c(F)c6F)c6ccc3[nH]6)C=C5)C=C4)cc2)c1C
REMARK SMILES IDX 21 1 20 2 19 3 18 4 16 5 17 6 15 8 1 9 2 10 3 11 89 12 4 13
REMARK SMILES IDX 90 14 5 15 14 16 6 17 7 18 13 19 8 20 12 21 9 22 11 23 10 24
REMARK SMILES IDX 22 25 23 26 24 27 25 29 26 30 27 31 88 32 28 33 87 34 29 35
REMARK SMILES IDX 30 36 31 37 81 38 32 39 86 40 80 41 82 42 33 43 85 44 79 45
REMARK SMILES IDX 78 46 34 48 66 49 46 50 65 51 47 52 50 53 64 54 83 55 48 56
REMARK SMILES IDX 49 57 63 59 84 60 51 61 35 62 36 63 44 64 37 65 38 66 42 67
REMARK SMILES IDX 45 68 39 69 40 70 43 71 41 72 67 73 68 74 76 75 69 76 70 77
REMARK SMILES IDX 74 78 77 79 71 80 72 81 75 82 73 83 52 84 53 85 61 86 54 87
REMARK SMILES IDX 55 88 59 89 62 90 56 91 57 92 60 93 58 94
REMARK H PARENT 18 7 23 28 82 47 50 58
REMARK Flexibility Score: inf
ROOT
ATOM      1  C   UNL A   1      32.304  31.162  26.909  1.00  0.00     0.023 C 
ENDROOT
BRANCH   1   2
ATOM      2  C   UNL A   1      32.703  29.717  27.188  1.00  0.00     0.023 C 
BRANCH   2   3
ATOM      3  C   UNL A   1      34.064  29.279  26.619  1.00  0.00     0.116 C 
BRANCH   3   4
ATOM      4  N   UNL A   1      34.020  29.215  25.172  1.00  0.00    -0.352 N 
ATOM      5  C   UNL A   1      33.388  28.568  24.147  1.00  0.00     0.255 C 
ATOM      6  O   UNL A   1      33.943  28.844  23.073  1.00  0.00    -0.269 OA
ATOM      7  H   UNL A   1      34.664  29.860  24.799  1.00  0.00     0.163 HD
BRANCH   5   8
ATOM      8  C   UNL A   1      32.198  27.609  24.125  1.00  0.00     0.086 A 
ATOM      9  C   UNL A   1      28.357  27.143  23.719  1.00  0.00     0.044 C 
ATOM     10  C   UNL A   1      29.820  26.897  24.015  1.00  0.00    -0.046 A 
ATOM     11  C   UNL A   1      30.159  25.640  24.507  1.00  0.00     0.019 A 
ATOM     12  C   UNL A   1      30.826  27.900  23.848  1.00  0.00    -0.032 A 
ATOM     13  C   UNL A   1      31.485  25.335  24.778  1.00  0.00     0.066 A 
ATOM     14  C   UNL A   1      30.340  29.238  23.394  1.00  0.00     0.045 C 
ATOM     15  C   UNL A   1      31.803  24.006  25.325  1.00  0.00     0.200 A 
ATOM     16  C   UNL A   1      32.498  26.274  24.560  1.00  0.00     0.151 A 
ATOM     17  O   UNL A   1      30.930  23.178  25.553  1.00  0.00    -0.288 OA
ATOM     18  C   UNL A   1      33.209  23.723  25.603  1.00  0.00     0.065 A 
ATOM     19  O   UNL A   1      33.823  25.914  24.738  1.00  0.00    -0.455 OA
ATOM     20  C   UNL A   1      33.603  22.502  26.159  1.00  0.00     0.016 A 
ATOM     21  C   UNL A   1      34.142  24.702  25.292  1.00  0.00     0.138 A 
ATOM     22  C   UNL A   1      34.955  22.264  26.402  1.00  0.00     0.001 A 
ATOM     23  C   UNL A   1      35.494  24.462  25.541  1.00  0.00     0.048 A 
ATOM     24  C   UNL A   1      35.900  23.244  26.093  1.00  0.00     0.004 A 
ENDBRANCH   5   8
ENDBRANCH   3   4
ENDBRANCH   2   3
ENDBRANCH   1   2
BRANCH   1  25
ATOM     25  C   UNL A   1      33.218  32.201  27.539  1.00  0.00     0.116 C 
BRANCH  25  26
ATOM     26  N   UNL A   1      32.636  33.531  27.656  1.00  0.00    -0.352 N 
ATOM     27  C   UNL A   1      33.065  34.567  28.464  1.00  0.00     0.251 C 
ATOM     28  H   UNL A   1      31.846  33.712  27.097  1.00  0.00     0.163 HD
ATOM     29  O   UNL A   1      32.467  35.627  28.514  1.00  0.00    -0.269 OA
BRANCH  27  30
ATOM     30  C   UNL A   1      34.242  34.318  29.324  1.00  0.00     0.039 A 
ATOM     31  C   UNL A   1      35.521  34.598  28.846  1.00  0.00     0.014 A 
ATOM     32  C   UNL A   1      34.060  33.648  30.536  1.00  0.00     0.014 A 
ATOM     33  C   UNL A   1      36.618  34.026  29.474  1.00  0.00     0.010 A 
ATOM     34  C   UNL A   1      35.175  33.151  31.215  1.00  0.00     0.010 A 
ATOM     35  C   UNL A   1      36.455  33.276  30.651  1.00  0.00    -0.014 A 
BRANCH  35  36
ATOM     36  C   UNL A   1      37.634  32.591  31.240  1.00  0.00     0.031 A 
ATOM     37  C   UNL A   1      38.088  32.907  32.640  1.00  0.00     0.074 A 
ATOM     38  C   UNL A   1      38.239  31.614  30.540  1.00  0.00     0.049 A 
ATOM     39  N   UNL A   1      39.079  32.387  33.322  1.00  0.00    -0.248 NA
ATOM     40  C   UNL A   1      37.338  33.939  33.373  1.00  0.00     0.031 C 
ATOM     41  C   UNL A   1      37.869  31.199  29.186  1.00  0.00     0.029 A 
ATOM     42  N   UNL A   1      39.261  30.766  30.882  1.00  0.00    -0.354 N 
ATOM     43  C   UNL A   1      39.089  33.048  34.544  1.00  0.00     0.074 A 
ATOM     44  C   UNL A   1      38.016  34.016  34.510  1.00  0.00     0.031 C 
ATOM     45  C   UNL A   1      38.602  30.132  28.839  1.00  0.00     0.029 A 
ATOM     46  C   UNL A   1      39.537  29.828  29.917  1.00  0.00     0.049 A 
ATOM     47  H   UNL A   1      39.748  30.824  31.735  1.00  0.00     0.167 HD
ATOM     48  C   UNL A   1      39.915  32.855  35.600  1.00  0.00     0.037 A 
ATOM     49  C   UNL A   1      40.447  28.838  29.901  1.00  0.00     0.037 A 
ATOM     50  C   UNL A   1      40.955  31.862  35.650  1.00  0.00     0.049 A 
ATOM     51  C   UNL A   1      41.363  28.660  31.075  1.00  0.00     0.074 A 
ATOM     52  C   UNL A   1      41.831  31.580  36.685  1.00  0.00     0.029 A 
ATOM     53  N   UNL A   1      41.250  30.977  34.624  1.00  0.00    -0.354 N 
ATOM     54  N   UNL A   1      41.380  29.313  32.212  1.00  0.00    -0.248 NA
ATOM     55  C   UNL A   1      42.398  27.626  30.958  1.00  0.00     0.031 C 
ATOM     56  C   UNL A   1      42.676  30.544  36.274  1.00  0.00     0.029 A 
ATOM     57  C   UNL A   1      42.305  30.159  34.996  1.00  0.00     0.049 A 
ATOM     58  H   UNL A   1      40.781  30.937  33.760  1.00  0.00     0.167 HD
ATOM     59  C   UNL A   1      42.426  28.771  32.944  1.00  0.00     0.074 A 
ATOM     60  C   UNL A   1      43.005  27.719  32.133  1.00  0.00     0.031 C 
ATOM     61  C   UNL A   1      42.872  29.123  34.174  1.00  0.00     0.037 A 
BRANCH  48  62
ATOM     62  C   UNL A   1      39.740  33.740  36.799  1.00  0.00     0.064 A 
ATOM     63  C   UNL A   1      40.337  35.006  36.871  1.00  0.00     0.173 A 
ATOM     64  C   UNL A   1      38.902  33.346  37.853  1.00  0.00     0.173 A 
ATOM     65  F   UNL A   1      41.156  35.423  35.895  1.00  0.00    -0.203 F 
ATOM     66  C   UNL A   1      40.109  35.843  37.961  1.00  0.00     0.198 A 
ATOM     67  C   UNL A   1      38.659  34.193  38.931  1.00  0.00     0.198 A 
ATOM     68  F   UNL A   1      38.302  32.146  37.828  1.00  0.00    -0.203 F 
ATOM     69  F   UNL A   1      40.709  37.040  38.023  1.00  0.00    -0.200 F 
ATOM     70  C   UNL A   1      39.264  35.440  38.985  1.00  0.00     0.200 A 
ATOM     71  F   UNL A   1      37.835  33.805  39.915  1.00  0.00    -0.200 F 
ATOM     72  F   UNL A   1      39.035  36.253  40.026  1.00  0.00    -0.200 F 
ENDBRANCH  48  62
BRANCH  49  73
ATOM     73  C   UNL A   1      40.522  27.939  28.723  1.00  0.00     0.064 A 
ATOM     74  C   UNL A   1      39.795  26.742  28.690  1.00  0.00     0.173 A 
ATOM     75  C   UNL A   1      41.278  28.281  27.593  1.00  0.00     0.173 A 
ATOM     76  F   UNL A   1      39.073  26.367  29.755  1.00  0.00    -0.203 F 
ATOM     77  C   UNL A   1      39.819  25.921  27.565  1.00  0.00     0.198 A 
ATOM     78  C   UNL A   1      41.282  27.471  26.460  1.00  0.00     0.198 A 
ATOM     79  F   UNL A   1      41.985  29.420  27.578  1.00  0.00    -0.203 F 
ATOM     80  F   UNL A   1      39.131  24.771  27.563  1.00  0.00    -0.200 F 
ATOM     81  C   UNL A   1      40.555  26.290  26.448  1.00  0.00     0.200 A 
ATOM     82  F   UNL A   1      41.980  27.840  25.378  1.00  0.00    -0.200 F 
ATOM     83  F   UNL A   1      40.562  25.508  25.359  1.00  0.00    -0.200 F 
ENDBRANCH  49  73
BRANCH  61  84
ATOM     84  C   UNL A   1      44.046  28.370  34.718  1.00  0.00     0.064 A 
ATOM     85  C   UNL A   1      45.354  28.844  34.544  1.00  0.00     0.173 A 
ATOM     86  C   UNL A   1      43.859  27.200  35.468  1.00  0.00     0.173 A 
ATOM     87  F   UNL A   1      45.580  29.952  33.822  1.00  0.00    -0.203 F 
ATOM     88  C   UNL A   1      46.437  28.166  35.096  1.00  0.00     0.198 A 
ATOM     89  C   UNL A   1      44.943  26.536  36.035  1.00  0.00     0.198 A 
ATOM     90  F   UNL A   1      42.624  26.713  35.664  1.00  0.00    -0.203 F 
ATOM     91  F   UNL A   1      47.681  28.620  34.896  1.00  0.00    -0.200 F 
ATOM     92  C   UNL A   1      46.230  27.017  35.846  1.00  0.00     0.200 A 
ATOM     93  F   UNL A   1      44.741  25.431  36.766  1.00  0.00    -0.200 F 
ATOM     94  F   UNL A   1      47.273  26.371  36.384  1.00  0.00    -0.200 F 
ENDBRANCH  61  84
ENDBRANCH  35  36
ENDBRANCH  27  30
ENDBRANCH  25  26
ENDBRANCH   1  25
TORSDOF 11
ENDMDL
MODEL 3
REMARK VINA RESULT:     -14.1      1.883      3.867
REMARK SMILES Cc1cc2c(=O)c3ccccc3oc2c(C(=O)NCCCCNC(=O)c2ccc(-c3c4nc(c(-c5c(F)c(F)c(F)c(F)c5F)c5ccc([nH]5)c(-c5c(F)c(F)c(F)c(F)c5F)c5nc(c(-c6c(F)c(F)c(F)c(F)c6F)c6ccc3[nH]6)C=C5)C=C4)cc2)c1C
REMARK SMILES IDX 21 1 20 2 19 3 18 4 16 5 17 6 15 8 1 9 2 10 3 11 89 12 4 13
REMARK SMILES IDX 90 14 5 15 14 16 6 17 7 18 13 19 8 20 12 21 9 22 11 23 10 24
REMARK SMILES IDX 22 25 23 26 24 27 25 29 26 30 27 31 88 32 28 33 87 34 29 35
REMARK SMILES IDX 30 36 31 37 81 38 32 39 86 40 80 41 82 42 33 43 85 44 79 45
REMARK SMILES IDX 78 46 34 48 66 49 46 50 65 51 47 52 50 53 64 54 83 55 48 56
REMARK SMILES IDX 49 57 63 59 84 60 51 61 35 62 36 63 44 64 37 65 38 66 42 67
REMARK SMILES IDX 45 68 39 69 40 70 43 71 41 72 67 73 68 74 76 75 69 76 70 77
REMARK SMILES IDX 74 78 77 79 71 80 72 81 75 82 73 83 52 84 53 85 61 86 54 87
REMARK SMILES IDX 55 88 59 89 62 90 56 91 57 92 60 93 58 94
REMARK H PARENT 18 7 23 28 82 47 50 58
REMARK Flexibility Score: inf
ROOT
ATOM      1  C   UNL A   1      32.329  31.179  26.904  1.00  0.00     0.023 C 
ENDROOT
BRANCH   1   2
ATOM      2  C   UNL A   1      32.730  29.739  27.205  1.00  0.00     0.023 C 
BRANCH   2   3
ATOM      3  C   UNL A   1      34.048  29.266  26.569  1.00  0.00     0.116 C 
BRANCH   3   4
ATOM      4  N   UNL A   1      33.950  29.263  25.123  1.00  0.00    -0.352 N 
ATOM      5  C   UNL A   1      33.281  28.657  24.096  1.00  0.00     0.255 C 
ATOM      6  O   UNL A   1      33.795  28.980  23.015  1.00  0.00    -0.269 OA
ATOM      7  H   UNL A   1      34.578  29.926  24.754  1.00  0.00     0.163 HD
BRANCH   5   8
ATOM      8  C   UNL A   1      32.094  27.695  24.078  1.00  0.00     0.086 A 
ATOM      9  C   UNL A   1      28.254  27.217  23.681  1.00  0.00     0.044 C 
ATOM     10  C   UNL A   1      29.718  26.976  23.975  1.00  0.00    -0.046 A 
ATOM     11  C   UNL A   1      30.061  25.721  24.469  1.00  0.00     0.019 A 
ATOM     12  C   UNL A   1      30.721  27.981  23.804  1.00  0.00    -0.032 A 
ATOM     13  C   UNL A   1      31.388  25.420  24.738  1.00  0.00     0.066 A 
ATOM     14  C   UNL A   1      30.230  29.317  23.347  1.00  0.00     0.045 C 
ATOM     15  C   UNL A   1      31.711  24.094  25.288  1.00  0.00     0.200 A 
ATOM     16  C   UNL A   1      32.399  26.361  24.517  1.00  0.00     0.151 A 
ATOM     17  O   UNL A   1      30.841  23.264  25.520  1.00  0.00    -0.288 OA
ATOM     18  C   UNL A   1      33.118  23.815  25.564  1.00  0.00     0.065 A 
ATOM     19  O   UNL A   1      33.725  26.005  24.693  1.00  0.00    -0.455 OA
ATOM     20  C   UNL A   1      33.517  22.597  26.123  1.00  0.00     0.016 A 
ATOM     21  C   UNL A   1      34.048  24.796  25.250  1.00  0.00     0.138 A 
ATOM     22  C   UNL A   1      34.870  22.363  26.365  1.00  0.00     0.001 A 
ATOM     23  C   UNL A   1      35.401  24.560  25.497  1.00  0.00     0.048 A 
ATOM     24  C   UNL A   1      35.811  23.344  26.052  1.00  0.00     0.004 A 
ENDBRANCH   5   8
ENDBRANCH   3   4
ENDBRANCH   2   3
ENDBRANCH   1   2
BRANCH   1  25
ATOM     25  C   UNL A   1      33.245  32.228  27.513  1.00  0.00     0.116 C 
BRANCH  25  26
ATOM     26  N   UNL A   1      32.651  33.552  27.643  1.00  0.00    -0.352 N 
ATOM     27  C   UNL A   1      33.069  34.583  28.462  1.00  0.00     0.251 C 
ATOM     28  H   UNL A   1      31.861  33.732  27.084  1.00  0.00     0.163 HD
ATOM     29  O   UNL A   1      32.462  35.637  28.522  1.00  0.00    -0.269 OA
BRANCH  27  30
ATOM     30  C   UNL A   1      34.247  34.335  29.322  1.00  0.00     0.039 A 
ATOM     31  C   UNL A   1      35.526  34.607  28.839  1.00  0.00     0.014 A 
ATOM     32  C   UNL A   1      34.064  33.675  30.539  1.00  0.00     0.014 A 
ATOM     33  C   UNL A   1      36.622  34.034  29.470  1.00  0.00     0.010 A 
ATOM     34  C   UNL A   1      35.178  33.179  31.220  1.00  0.00     0.010 A 
ATOM     35  C   UNL A   1      36.458  33.293  30.653  1.00  0.00    -0.014 A 
BRANCH  35  36
ATOM     36  C   UNL A   1      37.635  32.608  31.244  1.00  0.00     0.031 A 
ATOM     37  C   UNL A   1      38.086  32.924  32.646  1.00  0.00     0.074 A 
ATOM     38  C   UNL A   1      38.242  31.631  30.546  1.00  0.00     0.049 A 
ATOM     39  N   UNL A   1      39.075  32.404  33.331  1.00  0.00    -0.248 NA
ATOM     40  C   UNL A   1      37.334  33.956  33.377  1.00  0.00     0.031 C 
ATOM     41  C   UNL A   1      37.875  31.217  29.191  1.00  0.00     0.029 A 
ATOM     42  N   UNL A   1      39.262  30.783  30.890  1.00  0.00    -0.354 N 
ATOM     43  C   UNL A   1      39.082  33.064  34.553  1.00  0.00     0.074 A 
ATOM     44  C   UNL A   1      38.009  34.033  34.516  1.00  0.00     0.031 C 
ATOM     45  C   UNL A   1      38.608  30.149  28.845  1.00  0.00     0.029 A 
ATOM     46  C   UNL A   1      39.540  29.845  29.926  1.00  0.00     0.049 A 
ATOM     47  H   UNL A   1      39.747  30.840  31.745  1.00  0.00     0.167 HD
ATOM     48  C   UNL A   1      39.905  32.871  35.611  1.00  0.00     0.037 A 
ATOM     49  C   UNL A   1      40.450  28.854  29.912  1.00  0.00     0.037 A 
ATOM     50  C   UNL A   1      40.944  31.877  35.664  1.00  0.00     0.049 A 
ATOM     51  C   UNL A   1      41.363  28.676  31.089  1.00  0.00     0.074 A 
ATOM     52  C   UNL A   1      41.817  31.595  36.701  1.00  0.00     0.029 A 
ATOM     53  N   UNL A   1      41.242  30.992  34.638  1.00  0.00    -0.354 N 
ATOM     54  N   UNL A   1      41.378  29.328  32.226  1.00  0.00    -0.248 NA
ATOM     55  C   UNL A   1      42.398  27.641  30.974  1.00  0.00     0.031 C 
ATOM     56  C   UNL A   1      42.663  30.558  36.291  1.00  0.00     0.029 A 
ATOM     57  C   UNL A   1      42.295  30.174  35.012  1.00  0.00     0.049 A 
ATOM     58  H   UNL A   1      40.775  30.952  33.773  1.00  0.00     0.167 HD
ATOM     59  C   UNL A   1      42.421  28.786  32.960  1.00  0.00     0.074 A 
ATOM     60  C   UNL A   1      43.002  27.734  32.151  1.00  0.00     0.031 C 
ATOM     61  C   UNL A   1      42.864  29.138  34.191  1.00  0.00     0.037 A 
BRANCH  48  62
ATOM     62  C   UNL A   1      39.727  33.756  36.809  1.00  0.00     0.064 A 
ATOM     63  C   UNL A   1      40.323  35.021  36.883  1.00  0.00     0.173 A 
ATOM     64  C   UNL A   1      38.887  33.361  37.862  1.00  0.00     0.173 A 
ATOM     65  F   UNL A   1      41.145  35.439  35.908  1.00  0.00    -0.203 F 
ATOM     66  C   UNL A   1      40.093  35.858  37.972  1.00  0.00     0.198 A 
ATOM     67  C   UNL A   1      38.642  34.208  38.939  1.00  0.00     0.198 A 
ATOM     68  F   UNL A   1      38.288  32.161  37.835  1.00  0.00    -0.203 F 
ATOM     69  F   UNL A   1      40.693  37.055  38.035  1.00  0.00    -0.200 F 
ATOM     70  C   UNL A   1      39.246  35.455  38.995  1.00  0.00     0.200 A 
ATOM     71  F   UNL A   1      37.816  33.820  39.921  1.00  0.00    -0.200 F 
ATOM     72  F   UNL A   1      39.015  36.268  40.035  1.00  0.00    -0.200 F 
ENDBRANCH  48  62
BRANCH  49  73
ATOM     73  C   UNL A   1      40.527  27.956  28.734  1.00  0.00     0.064 A 
ATOM     74  C   UNL A   1      39.799  26.759  28.699  1.00  0.00     0.173 A 
ATOM     75  C   UNL A   1      41.287  28.297  27.606  1.00  0.00     0.173 A 
ATOM     76  F   UNL A   1      39.074  26.384  29.762  1.00  0.00    -0.203 F 
ATOM     77  C   UNL A   1      39.826  25.938  27.574  1.00  0.00     0.198 A 
ATOM     78  C   UNL A   1      41.294  27.488  26.473  1.00  0.00     0.198 A 
ATOM     79  F   UNL A   1      41.996  29.435  27.594  1.00  0.00    -0.203 F 
ATOM     80  F   UNL A   1      39.137  24.789  27.569  1.00  0.00    -0.200 F 
ATOM     81  C   UNL A   1      40.565  26.307  26.459  1.00  0.00     0.200 A 
ATOM     82  F   UNL A   1      41.995  27.856  25.394  1.00  0.00    -0.200 F 
ATOM     83  F   UNL A   1      40.575  25.526  25.370  1.00  0.00    -0.200 F 
ENDBRANCH  49  73
BRANCH  61  84
ATOM     84  C   UNL A   1      44.036  28.384  34.738  1.00  0.00     0.064 A 
ATOM     85  C   UNL A   1      43.862  27.183  35.438  1.00  0.00     0.173 A 
ATOM     86  C   UNL A   1      45.344  28.835  34.511  1.00  0.00     0.173 A 
ATOM     87  F   UNL A   1      42.626  26.722  35.690  1.00  0.00    -0.203 F 
ATOM     88  C   UNL A   1      44.958  26.460  35.901  1.00  0.00     0.198 A 
ATOM     89  C   UNL A   1      46.439  28.100  34.958  1.00  0.00     0.198 A 
ATOM     90  F   UNL A   1      45.559  29.978  33.842  1.00  0.00    -0.203 F 
ATOM     91  F   UNL A   1      44.769  25.328  36.591  1.00  0.00    -0.200 F 
ATOM     92  C   UNL A   1      46.245  26.917  35.655  1.00  0.00     0.200 A 
ATOM     93  F   UNL A   1      47.682  28.537  34.713  1.00  0.00    -0.200 F 
ATOM     94  F   UNL A   1      47.300  26.216  36.093  1.00  0.00    -0.200 F 
ENDBRANCH  61  84
ENDBRANCH  35  36
ENDBRANCH  27  30
ENDBRANCH  25  26
ENDBRANCH   1  25
TORSDOF 11
ENDMDL
