MODEL 1
REMARK VINA RESULT:     -13.5      0.000      0.000
REMARK SMILES O=C(NCCCCNC(=O)[C@@H]1Cc2ccccc2CN1C(=O)COc1ccccc1)c1ccc(-c2c3nc(c(-c4c(F)c(F)c(F)c(F)c4F)c4ccc([nH]4)c(-c4c(F)c(F)c(F)c(F)c4F)c4nc(c(-c5c(F)c(F)c(F)c(F)c5F)c5ccc2[nH]5)C=C4)C=C3)cc1
REMARK SMILES IDX 6 1 5 2 4 3 3 4 1 5 2 6 31 8 32 9 93 10 33 11 92 12 34 13
REMARK SMILES IDX 35 14 36 15 86 16 37 17 91 18 85 19 87 20 38 21 90 22 84 23
REMARK SMILES IDX 83 24 39 26 71 27 51 28 70 29 52 30 55 31 69 32 88 33 53 34
REMARK SMILES IDX 54 35 68 37 89 38 56 39 40 40 41 41 49 42 42 43 43 44 47 45
REMARK SMILES IDX 50 46 44 47 45 48 48 49 46 50 72 51 73 52 81 53 74 54 75 55
REMARK SMILES IDX 79 56 82 57 76 58 77 59 80 60 78 61 57 62 58 63 66 64 59 65
REMARK SMILES IDX 60 66 64 67 67 68 61 69 62 70 65 71 63 72 7 73 8 74 9 75
REMARK SMILES IDX 10 77 11 78 12 79 20 80 13 81 19 82 14 83 18 84 15 85 17 86
REMARK SMILES IDX 16 87 21 88 22 89 23 90 24 91 25 92 26 93 30 94 27 95 29 96
REMARK SMILES IDX 28 97
REMARK H PARENT 3 7 87 25 55 36 8 76
REMARK Flexibility Score: inf
ROOT
ATOM      1  C   UNL A   1      31.685  30.720  25.996  1.00  0.00     0.023 C 
ENDROOT
BRANCH   1   2
ATOM      2  C   UNL A   1      31.443  31.965  26.855  1.00  0.00     0.023 C 
BRANCH   2   3
ATOM      3  C   UNL A   1      32.657  32.806  27.257  1.00  0.00     0.116 C 
BRANCH   3   4
ATOM      4  N   UNL A   1      32.362  34.191  27.604  1.00  0.00    -0.352 N 
ATOM      5  O   UNL A   1      32.483  36.137  28.745  1.00  0.00    -0.269 OA
ATOM      6  C   UNL A   1      32.935  35.024  28.547  1.00  0.00     0.251 C 
ATOM      7  H   UNL A   1      31.634  34.599  27.082  1.00  0.00     0.163 HD
BRANCH   6   8
ATOM      8  C   UNL A   1      34.083  34.543  29.350  1.00  0.00     0.039 A 
ATOM      9  C   UNL A   1      35.376  34.578  28.834  1.00  0.00     0.014 A 
ATOM     10  C   UNL A   1      33.853  34.027  30.629  1.00  0.00     0.014 A 
ATOM     11  C   UNL A   1      36.396  33.899  29.491  1.00  0.00     0.010 A 
ATOM     12  C   UNL A   1      34.905  33.435  31.337  1.00  0.00     0.010 A 
ATOM     13  C   UNL A   1      36.172  33.310  30.746  1.00  0.00    -0.014 A 
BRANCH  13  14
ATOM     14  C   UNL A   1      37.281  32.584  31.416  1.00  0.00     0.031 A 
ATOM     15  C   UNL A   1      38.006  31.462  30.723  1.00  0.00     0.074 A 
ATOM     16  C   UNL A   1      37.664  32.971  32.648  1.00  0.00     0.049 A 
ATOM     17  N   UNL A   1      39.005  30.732  31.156  1.00  0.00    -0.248 NA
ATOM     18  C   UNL A   1      37.548  31.103  29.373  1.00  0.00     0.031 C 
ATOM     19  C   UNL A   1      37.032  34.039  33.425  1.00  0.00     0.029 A 
ATOM     20  N   UNL A   1      38.679  32.528  33.455  1.00  0.00    -0.354 N 
ATOM     21  C   UNL A   1      39.277  29.816  30.148  1.00  0.00     0.074 A 
ATOM     22  C   UNL A   1      38.324  30.065  29.087  1.00  0.00     0.031 C 
ATOM     23  C   UNL A   1      37.696  34.193  34.578  1.00  0.00     0.029 A 
ATOM     24  C   UNL A   1      38.757  33.196  34.651  1.00  0.00     0.049 A 
ATOM     25  H   UNL A   1      39.293  31.801  33.201  1.00  0.00     0.167 HD
ATOM     26  C   UNL A   1      40.238  28.861  30.109  1.00  0.00     0.037 A 
ATOM     27  C   UNL A   1      39.577  33.015  35.703  1.00  0.00     0.037 A 
ATOM     28  C   UNL A   1      41.202  28.636  31.155  1.00  0.00     0.049 A 
ATOM     29  C   UNL A   1      40.627  31.945  35.638  1.00  0.00     0.074 A 
ATOM     30  C   UNL A   1      42.249  27.730  31.183  1.00  0.00     0.029 A 
ATOM     31  N   UNL A   1      41.234  29.319  32.362  1.00  0.00    -0.354 N 
ATOM     32  N   UNL A   1      40.895  31.111  34.663  1.00  0.00    -0.248 NA
ATOM     33  C   UNL A   1      41.485  31.788  36.818  1.00  0.00     0.031 C 
ATOM     34  C   UNL A   1      42.885  27.832  32.426  1.00  0.00     0.029 A 
ATOM     35  C   UNL A   1      42.265  28.835  33.154  1.00  0.00     0.049 A 
ATOM     36  H   UNL A   1      40.616  30.041  32.619  1.00  0.00     0.167 HD
ATOM     37  C   UNL A   1      41.955  30.336  35.106  1.00  0.00     0.074 A 
ATOM     38  C   UNL A   1      42.297  30.814  36.429  1.00  0.00     0.031 C 
ATOM     39  C   UNL A   1      42.585  29.315  34.474  1.00  0.00     0.037 A 
BRANCH  26  40
ATOM     40  C   UNL A   1      40.284  27.966  28.903  1.00  0.00     0.064 A 
ATOM     41  C   UNL A   1      41.020  28.302  27.757  1.00  0.00     0.173 A 
ATOM     42  C   UNL A   1      39.616  26.731  28.912  1.00  0.00     0.173 A 
ATOM     43  F   UNL A   1      41.670  29.474  27.692  1.00  0.00    -0.203 F 
ATOM     44  C   UNL A   1      41.065  27.449  26.657  1.00  0.00     0.198 A 
ATOM     45  C   UNL A   1      39.685  25.868  27.821  1.00  0.00     0.198 A 
ATOM     46  F   UNL A   1      38.903  26.356  29.985  1.00  0.00    -0.203 F 
ATOM     47  F   UNL A   1      41.739  27.812  25.557  1.00  0.00    -0.200 F 
ATOM     48  C   UNL A   1      40.403  26.230  26.692  1.00  0.00     0.200 A 
ATOM     49  F   UNL A   1      39.054  24.687  27.862  1.00  0.00    -0.200 F 
ATOM     50  F   UNL A   1      40.451  25.409  25.634  1.00  0.00    -0.200 F 
ENDBRANCH  26  40
BRANCH  27  51
ATOM     51  C   UNL A   1      39.408  33.865  36.908  1.00  0.00     0.064 A 
ATOM     52  C   UNL A   1      38.659  33.426  38.006  1.00  0.00     0.173 A 
ATOM     53  C   UNL A   1      40.032  35.118  36.999  1.00  0.00     0.173 A 
ATOM     54  F   UNL A   1      38.028  32.243  37.958  1.00  0.00    -0.203 F 
ATOM     55  C   UNL A   1      38.537  34.211  39.151  1.00  0.00     0.198 A 
ATOM     56  C   UNL A   1      39.934  35.889  38.154  1.00  0.00     0.198 A 
ATOM     57  F   UNL A   1      40.766  35.579  35.974  1.00  0.00    -0.203 F 
ATOM     58  F   UNL A   1      37.792  33.782  40.178  1.00  0.00    -0.200 F 
ATOM     59  C   UNL A   1      39.183  35.437  39.227  1.00  0.00     0.200 A 
ATOM     60  F   UNL A   1      40.575  37.062  38.230  1.00  0.00    -0.200 F 
ATOM     61  F   UNL A   1      39.080  36.182  40.336  1.00  0.00    -0.200 F 
ENDBRANCH  27  51
BRANCH  39  62
ATOM     62  C   UNL A   1      43.715  28.655  35.206  1.00  0.00     0.064 A 
ATOM     63  C   UNL A   1      45.017  29.177  35.165  1.00  0.00     0.173 A 
ATOM     64  C   UNL A   1      43.490  27.507  35.978  1.00  0.00     0.173 A 
ATOM     65  F   UNL A   1      45.286  30.263  34.425  1.00  0.00    -0.203 F 
ATOM     66  C   UNL A   1      46.056  28.558  35.854  1.00  0.00     0.198 A 
ATOM     67  C   UNL A   1      44.527  26.907  36.687  1.00  0.00     0.198 A 
ATOM     68  F   UNL A   1      42.263  26.972  36.052  1.00  0.00    -0.203 F 
ATOM     69  F   UNL A   1      47.301  29.047  35.765  1.00  0.00    -0.200 F 
ATOM     70  C   UNL A   1      45.810  27.429  36.619  1.00  0.00     0.200 A 
ATOM     71  F   UNL A   1      44.284  25.821  37.435  1.00  0.00    -0.200 F 
ATOM     72  F   UNL A   1      46.811  26.837  37.285  1.00  0.00    -0.200 F 
ENDBRANCH  39  62
ENDBRANCH  13  14
ENDBRANCH   6   8
ENDBRANCH   3   4
ENDBRANCH   2   3
ENDBRANCH   1   2
BRANCH   1  73
ATOM     73  C   UNL A   1      32.872  29.859  26.389  1.00  0.00     0.116 C 
BRANCH  73  74
ATOM     74  N   UNL A   1      33.795  29.439  25.362  1.00  0.00    -0.354 N 
ATOM     75  C   UNL A   1      33.524  28.472  24.412  1.00  0.00     0.243 C 
ATOM     76  H   UNL A   1      34.679  29.870  25.336  1.00  0.00     0.163 HD
ATOM     77  O   UNL A   1      34.158  28.509  23.355  1.00  0.00    -0.273 OA
BRANCH  75  78
ATOM     78  C   UNL A   1      32.518  27.327  24.729  1.00  0.00     0.179 C 
ATOM     79  C   UNL A   1      33.418  26.227  25.386  1.00  0.00     0.071 C 
ATOM     80  N   UNL A   1      31.729  26.806  23.560  1.00  0.00    -0.323 N 
ATOM     81  C   UNL A   1      32.666  24.938  25.572  1.00  0.00    -0.040 A 
ATOM     82  C   UNL A   1      31.843  25.375  23.266  1.00  0.00     0.156 C 
ATOM     83  C   UNL A   1      32.816  24.120  26.693  1.00  0.00     0.004 A 
ATOM     84  C   UNL A   1      31.817  24.549  24.527  1.00  0.00    -0.025 A 
ATOM     85  C   UNL A   1      32.055  22.955  26.805  1.00  0.00     0.000 A 
ATOM     86  C   UNL A   1      31.036  23.397  24.658  1.00  0.00     0.006 A 
ATOM     87  C   UNL A   1      31.147  22.609  25.804  1.00  0.00     0.000 A 
BRANCH  80  88
ATOM     88  C   UNL A   1      30.730  27.474  22.863  1.00  0.00     0.261 C 
ATOM     89  O   UNL A   1      30.680  27.462  21.627  1.00  0.00    -0.271 OA
BRANCH  88  90
ATOM     90  C   UNL A   1      29.676  28.296  23.599  1.00  0.00     0.329 C 
BRANCH  90  91
ATOM     91  O   UNL A   1      28.545  28.756  22.897  1.00  0.00    -0.484 OA
BRANCH  91  92
ATOM     92  C   UNL A   1      28.379  30.069  22.609  1.00  0.00     0.120 A 
ATOM     93  C   UNL A   1      28.131  30.344  21.259  1.00  0.00     0.046 A 
ATOM     94  C   UNL A   1      28.537  31.115  23.508  1.00  0.00     0.046 A 
ATOM     95  C   UNL A   1      28.029  31.658  20.808  1.00  0.00     0.004 A 
ATOM     96  C   UNL A   1      28.455  32.434  23.052  1.00  0.00     0.004 A 
ATOM     97  C   UNL A   1      28.202  32.705  21.706  1.00  0.00     0.000 A 
ENDBRANCH  91  92
ENDBRANCH  90  91
ENDBRANCH  88  90
ENDBRANCH  80  88
ENDBRANCH  75  78
ENDBRANCH  73  74
ENDBRANCH   1  73
TORSDOF 15
ENDMDL
MODEL 2
REMARK VINA RESULT:     -13.4      0.733      7.204
REMARK SMILES O=C(NCCCCNC(=O)[C@@H]1Cc2ccccc2CN1C(=O)COc1ccccc1)c1ccc(-c2c3nc(c(-c4c(F)c(F)c(F)c(F)c4F)c4ccc([nH]4)c(-c4c(F)c(F)c(F)c(F)c4F)c4nc(c(-c5c(F)c(F)c(F)c(F)c5F)c5ccc2[nH]5)C=C4)C=C3)cc1
REMARK SMILES IDX 6 1 5 2 4 3 3 4 1 5 2 6 31 8 32 9 93 10 33 11 92 12 34 13
REMARK SMILES IDX 35 14 36 15 86 16 37 17 91 18 85 19 87 20 38 21 90 22 84 23
REMARK SMILES IDX 83 24 39 26 71 27 51 28 70 29 52 30 55 31 69 32 88 33 53 34
REMARK SMILES IDX 54 35 68 37 89 38 56 39 40 40 41 41 49 42 42 43 43 44 47 45
REMARK SMILES IDX 50 46 44 47 45 48 48 49 46 50 72 51 73 52 81 53 74 54 75 55
REMARK SMILES IDX 79 56 82 57 76 58 77 59 80 60 78 61 57 62 58 63 66 64 59 65
REMARK SMILES IDX 60 66 64 67 67 68 61 69 62 70 65 71 63 72 7 73 8 74 9 75
REMARK SMILES IDX 10 77 11 78 12 79 20 80 13 81 19 82 14 83 18 84 15 85 17 86
REMARK SMILES IDX 16 87 21 88 22 89 23 90 24 91 25 92 26 93 30 94 27 95 29 96
REMARK SMILES IDX 28 97
REMARK H PARENT 3 7 87 25 55 36 8 76
REMARK Flexibility Score: inf
ROOT
ATOM      1  C   UNL A   1      31.762  30.341  26.062  1.00  0.00     0.023 C 
ENDROOT
BRANCH   1   2
ATOM      2  C   UNL A   1      31.499  31.768  26.555  1.00  0.00     0.023 C 
BRANCH   2   3
ATOM      3  C   UNL A   1      32.647  32.512  27.240  1.00  0.00     0.116 C 
BRANCH   3   4
ATOM      4  N   UNL A   1      32.372  33.906  27.566  1.00  0.00    -0.352 N 
ATOM      5  O   UNL A   1      32.552  35.882  28.647  1.00  0.00    -0.269 OA
ATOM      6  C   UNL A   1      32.992  34.762  28.457  1.00  0.00     0.251 C 
ATOM      7  H   UNL A   1      31.620  34.303  27.069  1.00  0.00     0.163 HD
BRANCH   6   8
ATOM      8  C   UNL A   1      34.178  34.298  29.215  1.00  0.00     0.039 A 
ATOM      9  C   UNL A   1      35.463  34.505  28.721  1.00  0.00     0.014 A 
ATOM     10  C   UNL A   1      33.993  33.625  30.426  1.00  0.00     0.014 A 
ATOM     11  C   UNL A   1      36.538  33.850  29.310  1.00  0.00     0.010 A 
ATOM     12  C   UNL A   1      35.092  33.053  31.076  1.00  0.00     0.010 A 
ATOM     13  C   UNL A   1      36.366  33.108  30.490  1.00  0.00    -0.014 A 
BRANCH  13  14
ATOM     14  C   UNL A   1      37.534  32.413  31.088  1.00  0.00     0.031 A 
ATOM     15  C   UNL A   1      38.021  32.758  32.470  1.00  0.00     0.074 A 
ATOM     16  C   UNL A   1      38.135  31.429  30.392  1.00  0.00     0.049 A 
ATOM     17  N   UNL A   1      39.015  32.240  33.149  1.00  0.00    -0.248 NA
ATOM     18  C   UNL A   1      37.307  33.828  33.181  1.00  0.00     0.031 C 
ATOM     19  C   UNL A   1      37.760  31.010  29.039  1.00  0.00     0.029 A 
ATOM     20  N   UNL A   1      39.172  30.595  30.723  1.00  0.00    -0.354 N 
ATOM     21  C   UNL A   1      39.063  32.936  34.351  1.00  0.00     0.074 A 
ATOM     22  C   UNL A   1      38.010  33.929  34.302  1.00  0.00     0.031 C 
ATOM     23  C   UNL A   1      38.529  29.976  28.672  1.00  0.00     0.029 A 
ATOM     24  C   UNL A   1      39.491  29.701  29.733  1.00  0.00     0.049 A 
ATOM     25  H   UNL A   1      39.641  30.635  31.588  1.00  0.00     0.167 HD
ATOM     26  C   UNL A   1      39.902  32.756  35.399  1.00  0.00     0.037 A 
ATOM     27  C   UNL A   1      40.464  28.773  29.672  1.00  0.00     0.037 A 
ATOM     28  C   UNL A   1      40.929  31.747  35.455  1.00  0.00     0.049 A 
ATOM     29  C   UNL A   1      41.385  28.599  30.843  1.00  0.00     0.074 A 
ATOM     30  C   UNL A   1      41.792  31.450  36.496  1.00  0.00     0.029 A 
ATOM     31  N   UNL A   1      41.236  30.874  34.421  1.00  0.00    -0.354 N 
ATOM     32  N   UNL A   1      41.394  29.240  31.987  1.00  0.00    -0.248 NA
ATOM     33  C   UNL A   1      42.433  27.579  30.716  1.00  0.00     0.031 C 
ATOM     34  C   UNL A   1      42.653  30.430  36.075  1.00  0.00     0.029 A 
ATOM     35  C   UNL A   1      42.295  30.057  34.789  1.00  0.00     0.049 A 
ATOM     36  H   UNL A   1      40.771  30.839  33.554  1.00  0.00     0.167 HD
ATOM     37  C   UNL A   1      42.440  28.698  32.718  1.00  0.00     0.074 A 
ATOM     38  C   UNL A   1      43.028  27.659  31.898  1.00  0.00     0.031 C 
ATOM     39  C   UNL A   1      42.876  29.034  33.957  1.00  0.00     0.037 A 
BRANCH  26  40
ATOM     40  C   UNL A   1      39.764  33.686  36.572  1.00  0.00     0.064 A 
ATOM     41  C   UNL A   1      40.421  34.924  36.618  1.00  0.00     0.173 A 
ATOM     42  C   UNL A   1      38.925  33.350  37.646  1.00  0.00     0.173 A 
ATOM     43  F   UNL A   1      41.242  35.290  35.622  1.00  0.00    -0.203 F 
ATOM     44  C   UNL A   1      40.265  35.778  37.707  1.00  0.00     0.198 A 
ATOM     45  C   UNL A   1      38.749  34.218  38.721  1.00  0.00     0.198 A 
ATOM     46  F   UNL A   1      38.266  32.181  37.650  1.00  0.00    -0.203 F 
ATOM     47  F   UNL A   1      40.938  36.937  37.749  1.00  0.00    -0.200 F 
ATOM     48  C   UNL A   1      39.425  35.428  38.754  1.00  0.00     0.200 A 
ATOM     49  F   UNL A   1      37.929  33.883  39.725  1.00  0.00    -0.200 F 
ATOM     50  F   UNL A   1      39.273  36.254  39.798  1.00  0.00    -0.200 F 
ENDBRANCH  26  40
BRANCH  27  51
ATOM     51  C   UNL A   1      40.612  27.959  28.440  1.00  0.00     0.064 A 
ATOM     52  C   UNL A   1      41.391  28.405  27.365  1.00  0.00     0.173 A 
ATOM     53  C   UNL A   1      40.012  26.695  28.334  1.00  0.00     0.173 A 
ATOM     54  F   UNL A   1      41.969  29.615  27.413  1.00  0.00    -0.203 F 
ATOM     55  C   UNL A   1      41.560  27.619  26.227  1.00  0.00     0.198 A 
ATOM     56  C   UNL A   1      40.205  25.899  27.209  1.00  0.00     0.198 A 
ATOM     57  F   UNL A   1      39.262  26.222  29.341  1.00  0.00    -0.203 F 
ATOM     58  F   UNL A   1      42.286  28.079  25.200  1.00  0.00    -0.200 F 
ATOM     59  C   UNL A   1      40.975  26.363  26.154  1.00  0.00     0.200 A 
ATOM     60  F   UNL A   1      39.655  24.678  27.152  1.00  0.00    -0.200 F 
ATOM     61  F   UNL A   1      41.154  25.600  25.067  1.00  0.00    -0.200 F 
ENDBRANCH  27  51
BRANCH  39  62
ATOM     62  C   UNL A   1      44.040  28.264  34.502  1.00  0.00     0.064 A 
ATOM     63  C   UNL A   1      45.358  28.721  34.346  1.00  0.00     0.173 A 
ATOM     64  C   UNL A   1      43.836  27.072  35.212  1.00  0.00     0.173 A 
ATOM     65  F   UNL A   1      45.604  29.846  33.659  1.00  0.00    -0.203 F 
ATOM     66  C   UNL A   1      46.430  27.999  34.863  1.00  0.00     0.198 A 
ATOM     67  C   UNL A   1      44.909  26.367  35.751  1.00  0.00     0.198 A 
ATOM     68  F   UNL A   1      42.596  26.595  35.391  1.00  0.00    -0.203 F 
ATOM     69  F   UNL A   1      47.683  28.431  34.664  1.00  0.00    -0.200 F 
ATOM     70  C   UNL A   1      46.205  26.828  35.570  1.00  0.00     0.200 A 
ATOM     71  F   UNL A   1      44.690  25.241  36.443  1.00  0.00    -0.200 F 
ATOM     72  F   UNL A   1      47.238  26.137  36.071  1.00  0.00    -0.200 F 
ENDBRANCH  39  62
ENDBRANCH  13  14
ENDBRANCH   6   8
ENDBRANCH   3   4
ENDBRANCH   2   3
ENDBRANCH   1   2
BRANCH   1  73
ATOM     73  C   UNL A   1      33.128  29.763  26.388  1.00  0.00     0.116 C 
BRANCH  73  74
ATOM     74  N   UNL A   1      34.005  29.399  25.301  1.00  0.00    -0.354 N 
ATOM     75  C   UNL A   1      33.782  28.347  24.433  1.00  0.00     0.243 C 
ATOM     76  H   UNL A   1      34.818  29.937  25.169  1.00  0.00     0.163 HD
ATOM     77  O   UNL A   1      34.311  28.396  23.320  1.00  0.00    -0.273 OA
BRANCH  75  78
ATOM     78  C   UNL A   1      32.968  27.106  24.903  1.00  0.00     0.179 C 
ATOM     79  C   UNL A   1      34.074  26.035  25.185  1.00  0.00     0.071 C 
ATOM     80  N   UNL A   1      31.916  26.614  23.949  1.00  0.00    -0.323 N 
ATOM     81  C   UNL A   1      33.475  24.680  25.447  1.00  0.00    -0.040 A 
ATOM     82  C   UNL A   1      32.021  25.222  23.502  1.00  0.00     0.156 C 
ATOM     83  C   UNL A   1      33.974  23.794  26.403  1.00  0.00     0.004 A 
ATOM     84  C   UNL A   1      32.392  24.304  24.640  1.00  0.00    -0.025 A 
ATOM     85  C   UNL A   1      33.340  22.569  26.609  1.00  0.00     0.000 A 
ATOM     86  C   UNL A   1      31.742  23.089  24.870  1.00  0.00     0.006 A 
ATOM     87  C   UNL A   1      32.210  22.228  25.864  1.00  0.00     0.000 A 
BRANCH  80  88
ATOM     88  C   UNL A   1      30.727  27.252  23.616  1.00  0.00     0.261 C 
ATOM     89  O   UNL A   1      29.673  27.023  24.222  1.00  0.00    -0.271 OA
BRANCH  88  90
ATOM     90  C   UNL A   1      30.664  28.232  22.449  1.00  0.00     0.329 C 
BRANCH  90  91
ATOM     91  O   UNL A   1      29.416  28.737  22.036  1.00  0.00    -0.484 OA
BRANCH  91  92
ATOM     92  C   UNL A   1      29.114  30.052  22.149  1.00  0.00     0.120 A 
ATOM     93  C   UNL A   1      29.219  30.566  23.447  1.00  0.00     0.046 A 
ATOM     94  C   UNL A   1      28.628  30.856  21.127  1.00  0.00     0.046 A 
ATOM     95  C   UNL A   1      28.852  31.881  23.724  1.00  0.00     0.004 A 
ATOM     96  C   UNL A   1      28.241  32.169  21.408  1.00  0.00     0.004 A 
ATOM     97  C   UNL A   1      28.353  32.681  22.702  1.00  0.00     0.000 A 
ENDBRANCH  91  92
ENDBRANCH  90  91
ENDBRANCH  88  90
ENDBRANCH  80  88
ENDBRANCH  75  78
ENDBRANCH  73  74
ENDBRANCH   1  73
TORSDOF 15
ENDMDL
MODEL 3
REMARK VINA RESULT:     -13.4      1.401      7.614
REMARK SMILES O=C(NCCCCNC(=O)[C@@H]1Cc2ccccc2CN1C(=O)COc1ccccc1)c1ccc(-c2c3nc(c(-c4c(F)c(F)c(F)c(F)c4F)c4ccc([nH]4)c(-c4c(F)c(F)c(F)c(F)c4F)c4nc(c(-c5c(F)c(F)c(F)c(F)c5F)c5ccc2[nH]5)C=C4)C=C3)cc1
REMARK SMILES IDX 6 1 5 2 4 3 3 4 1 5 2 6 31 8 32 9 93 10 33 11 92 12 34 13
REMARK SMILES IDX 35 14 36 15 86 16 37 17 91 18 85 19 87 20 38 21 90 22 84 23
REMARK SMILES IDX 83 24 39 26 71 27 51 28 70 29 52 30 55 31 69 32 88 33 53 34
REMARK SMILES IDX 54 35 68 37 89 38 56 39 40 40 41 41 49 42 42 43 43 44 47 45
REMARK SMILES IDX 50 46 44 47 45 48 48 49 46 50 72 51 73 52 81 53 74 54 75 55
REMARK SMILES IDX 79 56 82 57 76 58 77 59 80 60 78 61 57 62 58 63 66 64 59 65
REMARK SMILES IDX 60 66 64 67 67 68 61 69 62 70 65 71 63 72 7 73 8 74 9 75
REMARK SMILES IDX 10 77 11 78 12 79 20 80 13 81 19 82 14 83 18 84 15 85 17 86
REMARK SMILES IDX 16 87 21 88 22 89 23 90 24 91 25 92 26 93 30 94 27 95 29 96
REMARK SMILES IDX 28 97
REMARK H PARENT 3 7 87 25 55 36 8 76
REMARK Flexibility Score: inf
ROOT
ATOM      1  C   UNL A   1      31.785  30.337  26.827  1.00  0.00     0.023 C 
ENDROOT
BRANCH   1   2
ATOM      2  C   UNL A   1      31.638  31.859  26.746  1.00  0.00     0.023 C 
BRANCH   2   3
ATOM      3  C   UNL A   1      32.810  32.720  27.223  1.00  0.00     0.116 C 
BRANCH   3   4
ATOM      4  N   UNL A   1      32.457  34.075  27.628  1.00  0.00    -0.352 N 
ATOM      5  O   UNL A   1      32.506  35.981  28.840  1.00  0.00    -0.269 OA
ATOM      6  C   UNL A   1      33.006  34.898  28.594  1.00  0.00     0.251 C 
ATOM      7  H   UNL A   1      31.704  34.468  27.131  1.00  0.00     0.163 HD
BRANCH   6   8
ATOM      8  C   UNL A   1      34.186  34.440  29.363  1.00  0.00     0.039 A 
ATOM      9  C   UNL A   1      35.473  34.608  28.857  1.00  0.00     0.014 A 
ATOM     10  C   UNL A   1      33.995  33.813  30.598  1.00  0.00     0.014 A 
ATOM     11  C   UNL A   1      36.539  33.956  29.464  1.00  0.00     0.010 A 
ATOM     12  C   UNL A   1      35.087  33.245  31.263  1.00  0.00     0.010 A 
ATOM     13  C   UNL A   1      36.359  33.257  30.670  1.00  0.00    -0.014 A 
BRANCH  13  14
ATOM     14  C   UNL A   1      37.518  32.563  31.287  1.00  0.00     0.031 A 
ATOM     15  C   UNL A   1      37.992  32.920  32.671  1.00  0.00     0.074 A 
ATOM     16  C   UNL A   1      38.123  31.570  30.607  1.00  0.00     0.049 A 
ATOM     17  N   UNL A   1      38.976  32.405  33.366  1.00  0.00    -0.248 NA
ATOM     18  C   UNL A   1      37.275  34.000  33.364  1.00  0.00     0.031 C 
ATOM     19  C   UNL A   1      37.761  31.140  29.255  1.00  0.00     0.029 A 
ATOM     20  N   UNL A   1      39.152  30.736  30.958  1.00  0.00    -0.354 N 
ATOM     21  C   UNL A   1      39.014  33.113  34.561  1.00  0.00     0.074 A 
ATOM     22  C   UNL A   1      37.967  34.109  34.491  1.00  0.00     0.031 C 
ATOM     23  C   UNL A   1      38.528  30.099  28.906  1.00  0.00     0.029 A 
ATOM     24  C   UNL A   1      39.478  29.830  29.980  1.00  0.00     0.049 A 
ATOM     25  H   UNL A   1      39.613  30.782  31.827  1.00  0.00     0.167 HD
ATOM     26  C   UNL A   1      39.841  32.940  35.620  1.00  0.00     0.037 A 
ATOM     27  C   UNL A   1      40.447  28.898  29.939  1.00  0.00     0.037 A 
ATOM     28  C   UNL A   1      40.864  31.928  35.696  1.00  0.00     0.049 A 
ATOM     29  C   UNL A   1      41.355  28.732  31.122  1.00  0.00     0.074 A 
ATOM     30  C   UNL A   1      41.715  31.637  36.750  1.00  0.00     0.029 A 
ATOM     31  N   UNL A   1      41.178  31.043  34.675  1.00  0.00    -0.354 N 
ATOM     32  N   UNL A   1      41.355  29.384  32.259  1.00  0.00    -0.248 NA
ATOM     33  C   UNL A   1      42.400  27.706  31.016  1.00  0.00     0.031 C 
ATOM     34  C   UNL A   1      42.575  30.609  36.348  1.00  0.00     0.029 A 
ATOM     35  C   UNL A   1      42.229  30.225  35.062  1.00  0.00     0.049 A 
ATOM     36  H   UNL A   1      40.722  31.001  33.803  1.00  0.00     0.167 HD
ATOM     37  C   UNL A   1      42.391  28.845  33.006  1.00  0.00     0.074 A 
ATOM     38  C   UNL A   1      42.983  27.795  32.203  1.00  0.00     0.031 C 
ATOM     39  C   UNL A   1      42.815  29.192  34.246  1.00  0.00     0.037 A 
BRANCH  26  40
ATOM     40  C   UNL A   1      39.695  33.882  36.782  1.00  0.00     0.064 A 
ATOM     41  C   UNL A   1      38.896  33.572  37.892  1.00  0.00     0.173 A 
ATOM     42  C   UNL A   1      40.400  35.095  36.802  1.00  0.00     0.173 A 
ATOM     43  F   UNL A   1      38.193  32.429  37.919  1.00  0.00    -0.203 F 
ATOM     44  C   UNL A   1      38.789  34.451  38.967  1.00  0.00     0.198 A 
ATOM     45  C   UNL A   1      40.313  35.960  37.890  1.00  0.00     0.198 A 
ATOM     46  F   UNL A   1      41.186  35.439  35.770  1.00  0.00    -0.203 F 
ATOM     47  F   UNL A   1      37.984  34.153  39.997  1.00  0.00    -0.200 F 
ATOM     48  C   UNL A   1      39.501  35.641  38.968  1.00  0.00     0.200 A 
ATOM     49  F   UNL A   1      41.011  37.103  37.894  1.00  0.00    -0.200 F 
ATOM     50  F   UNL A   1      39.400  36.483  40.005  1.00  0.00    -0.200 F 
ENDBRANCH  26  40
BRANCH  27  51
ATOM     51  C   UNL A   1      40.606  28.071  28.716  1.00  0.00     0.064 A 
ATOM     52  C   UNL A   1      39.936  26.849  28.576  1.00  0.00     0.173 A 
ATOM     53  C   UNL A   1      41.398  28.511  27.645  1.00  0.00     0.173 A 
ATOM     54  F   UNL A   1      39.183  26.378  29.581  1.00  0.00    -0.203 F 
ATOM     55  C   UNL A   1      40.056  26.095  27.410  1.00  0.00     0.198 A 
ATOM     56  C   UNL A   1      41.494  27.771  26.470  1.00  0.00     0.198 A 
ATOM     57  F   UNL A   1      42.053  29.678  27.731  1.00  0.00    -0.203 F 
ATOM     58  F   UNL A   1      39.429  24.916  27.310  1.00  0.00    -0.200 F 
ATOM     59  C   UNL A   1      40.826  26.562  26.355  1.00  0.00     0.200 A 
ATOM     60  F   UNL A   1      42.223  28.236  25.447  1.00  0.00    -0.200 F 
ATOM     61  F   UNL A   1      40.926  25.845  25.227  1.00  0.00    -0.200 F 
ENDBRANCH  27  51
BRANCH  39  62
ATOM     62  C   UNL A   1      43.970  28.422  34.812  1.00  0.00     0.064 A 
ATOM     63  C   UNL A   1      45.290  28.879  34.678  1.00  0.00     0.173 A 
ATOM     64  C   UNL A   1      43.755  27.231  35.519  1.00  0.00     0.173 A 
ATOM     65  F   UNL A   1      45.548  30.004  33.993  1.00  0.00    -0.203 F 
ATOM     66  C   UNL A   1      46.353  28.158  35.213  1.00  0.00     0.198 A 
ATOM     67  C   UNL A   1      44.819  26.527  36.076  1.00  0.00     0.198 A 
ATOM     68  F   UNL A   1      42.512  26.754  35.678  1.00  0.00    -0.203 F 
ATOM     69  F   UNL A   1      47.610  28.590  35.034  1.00  0.00    -0.200 F 
ATOM     70  C   UNL A   1      46.117  26.988  35.917  1.00  0.00     0.200 A 
ATOM     71  F   UNL A   1      44.588  25.401  36.766  1.00  0.00    -0.200 F 
ATOM     72  F   UNL A   1      47.142  26.297  36.436  1.00  0.00    -0.200 F 
ENDBRANCH  39  62
ENDBRANCH  13  14
ENDBRANCH   6   8
ENDBRANCH   3   4
ENDBRANCH   2   3
ENDBRANCH   1   2
BRANCH   1  73
ATOM     73  C   UNL A   1      31.705  29.588  25.509  1.00  0.00     0.116 C 
BRANCH  73  74
ATOM     74  N   UNL A   1      32.797  29.711  24.573  1.00  0.00    -0.354 N 
ATOM     75  C   UNL A   1      33.112  28.774  23.607  1.00  0.00     0.243 C 
ATOM     76  H   UNL A   1      33.358  30.518  24.627  1.00  0.00     0.163 HD
ATOM     77  O   UNL A   1      33.732  29.157  22.612  1.00  0.00    -0.273 OA
BRANCH  75  78
ATOM     78  C   UNL A   1      32.768  27.272  23.835  1.00  0.00     0.179 C 
ATOM     79  C   UNL A   1      34.071  26.532  23.382  1.00  0.00     0.071 C 
ATOM     80  N   UNL A   1      31.541  26.767  23.129  1.00  0.00    -0.323 N 
ATOM     81  C   UNL A   1      33.866  25.043  23.321  1.00  0.00    -0.040 A 
ATOM     82  C   UNL A   1      31.717  25.635  22.215  1.00  0.00     0.156 C 
ATOM     83  C   UNL A   1      34.836  24.119  23.714  1.00  0.00     0.004 A 
ATOM     84  C   UNL A   1      32.644  24.597  22.796  1.00  0.00    -0.025 A 
ATOM     85  C   UNL A   1      34.554  22.754  23.658  1.00  0.00     0.000 A 
ATOM     86  C   UNL A   1      32.356  23.230  22.770  1.00  0.00     0.006 A 
ATOM     87  C   UNL A   1      33.308  22.311  23.214  1.00  0.00     0.000 A 
BRANCH  80  88
ATOM     88  C   UNL A   1      30.221  27.099  23.409  1.00  0.00     0.261 C 
ATOM     89  O   UNL A   1      29.659  28.054  22.858  1.00  0.00    -0.271 OA
BRANCH  88  90
ATOM     90  C   UNL A   1      29.421  26.323  24.450  1.00  0.00     0.329 C 
BRANCH  90  91
ATOM     91  O   UNL A   1      29.980  26.096  25.723  1.00  0.00    -0.484 OA
BRANCH  91  92
ATOM     92  C   UNL A   1      30.769  25.022  25.967  1.00  0.00     0.120 A 
ATOM     93  C   UNL A   1      30.151  23.784  25.754  1.00  0.00     0.046 A 
ATOM     94  C   UNL A   1      32.054  25.072  26.489  1.00  0.00     0.046 A 
ATOM     95  C   UNL A   1      30.817  22.597  26.052  1.00  0.00     0.004 A 
ATOM     96  C   UNL A   1      32.715  23.882  26.806  1.00  0.00     0.004 A 
ATOM     97  C   UNL A   1      32.099  22.648  26.588  1.00  0.00     0.000 A 
ENDBRANCH  91  92
ENDBRANCH  90  91
ENDBRANCH  88  90
ENDBRANCH  80  88
ENDBRANCH  75  78
ENDBRANCH  73  74
ENDBRANCH   1  73
TORSDOF 15
ENDMDL
