MODEL 1
REMARK VINA RESULT:     -12.9      0.000      0.000
REMARK SMILES Cc1cc(C)c(NC(=O)C2(C)CCCC2)c(C(=O)NCCCCNC(=O)c2ccc(-c3c4nc(c(-c5c(F)c(F)c(F)c(F)c5F)c5ccc([nH]5)c(-c5c(F)c(F)c(F)c(F)c5F)c5nc(c(-c6c(F)c(F)c(F)c(F)c6F)c6ccc3[nH]6)C=C5)C=C4)cc2)c1
REMARK SMILES IDX 21 1 20 2 19 3 17 4 18 5 16 7 1 8 2 9 3 10 90 11 4 12 5 13
REMARK SMILES IDX 6 14 7 15 8 16 9 18 10 19 11 20 12 21 15 22 13 23 14 24
REMARK SMILES IDX 22 25 23 26 24 27 25 28 26 30 27 31 28 32 89 33 29 34 88 35
REMARK SMILES IDX 30 36 31 37 32 38 82 39 33 40 87 41 81 42 83 43 34 44 86 45
REMARK SMILES IDX 80 46 79 47 35 49 67 50 47 51 66 52 48 53 51 54 65 55 84 56
REMARK SMILES IDX 49 57 50 58 64 60 85 61 52 62 36 63 37 64 45 65 38 66 39 67
REMARK SMILES IDX 43 68 46 69 40 70 41 71 44 72 42 73 68 74 69 75 77 76 70 77
REMARK SMILES IDX 71 78 75 79 78 80 72 81 73 82 76 83 74 84 53 85 54 86 62 87
REMARK SMILES IDX 55 88 56 89 60 90 63 91 57 92 58 93 61 94 59 95
REMARK H PARENT 19 6 7 17 24 29 83 48 51 59
REMARK Flexibility Score: inf
ROOT
ATOM      1  C   UNL A   1      31.747  30.433  26.605  1.00  0.00     0.023 C 
ENDROOT
BRANCH   1   2
ATOM      2  C   UNL A   1      33.153  29.917  26.925  1.00  0.00     0.116 C 
BRANCH   2   3
ATOM      3  N   UNL A   1      33.850  29.447  25.743  1.00  0.00    -0.352 N 
ATOM      4  C   UNL A   1      33.511  28.727  24.621  1.00  0.00     0.253 C 
ATOM      5  O   UNL A   1      34.441  28.567  23.824  1.00  0.00    -0.269 OA
ATOM      6  H   UNL A   1      34.799  29.707  25.744  1.00  0.00     0.163 HD
BRANCH   4   7
ATOM      7  C   UNL A   1      32.173  28.085  24.328  1.00  0.00     0.063 A 
ATOM      8  C   UNL A   1      28.860  28.934  22.608  1.00  0.00     0.044 C 
ATOM      9  C   UNL A   1      29.891  28.220  23.433  1.00  0.00    -0.050 A 
ATOM     10  C   UNL A   1      29.562  27.057  24.119  1.00  0.00     0.009 A 
ATOM     11  C   UNL A   1      31.175  28.748  23.595  1.00  0.00     0.019 A 
ATOM     12  C   UNL A   1      30.513  26.404  24.921  1.00  0.00    -0.026 A 
ATOM     13  C   UNL A   1      29.958  25.585  26.062  1.00  0.00     0.046 C 
ATOM     14  C   UNL A   1      31.862  26.805  24.887  1.00  0.00     0.056 A 
BRANCH  14  15
ATOM     15  N   UNL A   1      32.867  26.065  25.548  1.00  0.00    -0.325 N 
ATOM     16  C   UNL A   1      33.461  24.846  25.383  1.00  0.00     0.230 C 
ATOM     17  H   UNL A   1      33.230  26.550  26.325  1.00  0.00     0.169 HD
ATOM     18  O   UNL A   1      33.811  24.283  26.431  1.00  0.00    -0.274 OA
BRANCH  16  19
ATOM     19  C   UNL A   1      33.954  24.287  24.002  1.00  0.00     0.047 C 
ATOM     20  C   UNL A   1      35.432  23.897  24.148  1.00  0.00     0.022 C 
ATOM     21  C   UNL A   1      33.126  23.018  23.653  1.00  0.00     0.016 C 
ATOM     22  C   UNL A   1      33.735  25.090  22.712  1.00  0.00     0.016 C 
ATOM     23  C   UNL A   1      31.850  23.572  23.032  1.00  0.00     0.001 C 
ATOM     24  C   UNL A   1      32.311  24.783  22.232  1.00  0.00     0.001 C 
ENDBRANCH  16  19
ENDBRANCH  14  15
ENDBRANCH   4   7
ENDBRANCH   2   3
ENDBRANCH   1   2
BRANCH   1  25
ATOM     25  C   UNL A   1      31.625  31.962  26.572  1.00  0.00     0.023 C 
BRANCH  25  26
ATOM     26  C   UNL A   1      32.721  32.719  27.319  1.00  0.00     0.116 C 
BRANCH  26  27
ATOM     27  N   UNL A   1      32.376  34.095  27.643  1.00  0.00    -0.352 N 
ATOM     28  C   UNL A   1      32.984  34.923  28.557  1.00  0.00     0.251 C 
ATOM     29  H   UNL A   1      31.617  34.479  27.147  1.00  0.00     0.163 HD
ATOM     30  O   UNL A   1      32.540  36.044  28.787  1.00  0.00    -0.269 OA
BRANCH  28  31
ATOM     31  C   UNL A   1      34.153  34.417  29.304  1.00  0.00     0.039 A 
ATOM     32  C   UNL A   1      33.940  33.717  30.493  1.00  0.00     0.014 A 
ATOM     33  C   UNL A   1      35.442  34.567  28.786  1.00  0.00     0.014 A 
ATOM     34  C   UNL A   1      35.018  33.094  31.124  1.00  0.00     0.010 A 
ATOM     35  C   UNL A   1      36.502  33.889  29.378  1.00  0.00     0.010 A 
ATOM     36  C   UNL A   1      36.298  33.139  30.547  1.00  0.00    -0.014 A 
BRANCH  36  37
ATOM     37  C   UNL A   1      37.433  32.395  31.145  1.00  0.00     0.031 A 
ATOM     38  C   UNL A   1      37.937  32.759  32.512  1.00  0.00     0.074 A 
ATOM     39  C   UNL A   1      38.051  31.436  30.426  1.00  0.00     0.049 A 
ATOM     40  N   UNL A   1      38.947  32.263  33.181  1.00  0.00    -0.248 NA
ATOM     41  C   UNL A   1      37.232  33.847  33.206  1.00  0.00     0.031 C 
ATOM     42  C   UNL A   1      37.692  31.036  29.065  1.00  0.00     0.029 A 
ATOM     43  N   UNL A   1      39.119  30.632  30.737  1.00  0.00    -0.354 N 
ATOM     44  C   UNL A   1      39.003  32.982  34.366  1.00  0.00     0.074 A 
ATOM     45  C   UNL A   1      37.965  33.989  34.301  1.00  0.00     0.031 C 
ATOM     46  C   UNL A   1      38.508  30.045  28.668  1.00  0.00     0.029 A 
ATOM     47  C   UNL A   1      39.466  29.763  29.731  1.00  0.00     0.049 A 
ATOM     48  H   UNL A   1      39.592  30.674  31.600  1.00  0.00     0.167 HD
ATOM     49  C   UNL A   1      39.828  32.802  35.424  1.00  0.00     0.037 A 
ATOM     50  C   UNL A   1      40.449  28.844  29.676  1.00  0.00     0.037 A 
ATOM     51  C   UNL A   1      40.842  31.784  35.494  1.00  0.00     0.049 A 
ATOM     52  C   UNL A   1      41.348  28.660  30.869  1.00  0.00     0.074 A 
ATOM     53  C   UNL A   1      41.688  31.478  36.546  1.00  0.00     0.029 A 
ATOM     54  N   UNL A   1      41.147  30.903  34.466  1.00  0.00    -0.354 N 
ATOM     55  N   UNL A   1      41.339  29.292  32.017  1.00  0.00    -0.248 NA
ATOM     56  C   UNL A   1      42.387  27.627  30.762  1.00  0.00     0.031 C 
ATOM     57  C   UNL A   1      42.533  30.440  36.141  1.00  0.00     0.029 A 
ATOM     58  C   UNL A   1      42.181  30.065  34.853  1.00  0.00     0.049 A 
ATOM     59  H   UNL A   1      40.695  30.876  33.593  1.00  0.00     0.167 HD
ATOM     60  C   UNL A   1      42.347  28.716  32.778  1.00  0.00     0.074 A 
ATOM     61  C   UNL A   1      42.938  27.673  31.967  1.00  0.00     0.031 C 
ATOM     62  C   UNL A   1      42.747  29.024  34.036  1.00  0.00     0.037 A 
BRANCH  49  63
ATOM     63  C   UNL A   1      39.661  33.722  36.597  1.00  0.00     0.064 A 
ATOM     64  C   UNL A   1      40.304  34.969  36.649  1.00  0.00     0.173 A 
ATOM     65  C   UNL A   1      38.824  33.372  37.667  1.00  0.00     0.173 A 
ATOM     66  F   UNL A   1      41.125  35.347  35.658  1.00  0.00    -0.203 F 
ATOM     67  C   UNL A   1      40.137  35.817  37.741  1.00  0.00     0.198 A 
ATOM     68  C   UNL A   1      38.635  34.236  38.743  1.00  0.00     0.198 A 
ATOM     69  F   UNL A   1      38.182  32.194  37.666  1.00  0.00    -0.203 F 
ATOM     70  F   UNL A   1      40.801  36.980  37.790  1.00  0.00    -0.200 F 
ATOM     71  C   UNL A   1      39.298  35.454  38.783  1.00  0.00     0.200 A 
ATOM     72  F   UNL A   1      37.815  33.888  39.743  1.00  0.00    -0.200 F 
ATOM     73  F   UNL A   1      39.133  36.274  39.829  1.00  0.00    -0.200 F 
ENDBRANCH  49  63
BRANCH  50  74
ATOM     74  C   UNL A   1      40.615  28.003  28.462  1.00  0.00     0.064 A 
ATOM     75  C   UNL A   1      41.387  28.448  27.379  1.00  0.00     0.173 A 
ATOM     76  C   UNL A   1      40.001  26.747  28.351  1.00  0.00     0.173 A 
ATOM     77  F   UNL A   1      41.979  29.651  27.429  1.00  0.00    -0.203 F 
ATOM     78  C   UNL A   1      41.518  27.681  26.223  1.00  0.00     0.198 A 
ATOM     79  C   UNL A   1      40.155  25.968  27.206  1.00  0.00     0.198 A 
ATOM     80  F   UNL A   1      39.257  26.272  29.361  1.00  0.00    -0.203 F 
ATOM     81  F   UNL A   1      42.221  28.153  25.185  1.00  0.00    -0.200 F 
ATOM     82  C   UNL A   1      40.905  26.440  26.139  1.00  0.00     0.200 A 
ATOM     83  F   UNL A   1      39.573  24.764  27.134  1.00  0.00    -0.200 F 
ATOM     84  F   UNL A   1      41.032  25.703  25.028  1.00  0.00    -0.200 F 
ENDBRANCH  50  74
BRANCH  62  85
ATOM     85  C   UNL A   1      43.852  28.198  34.627  1.00  0.00     0.064 A 
ATOM     86  C   UNL A   1      45.192  28.606  34.561  1.00  0.00     0.173 A 
ATOM     87  C   UNL A   1      43.559  27.006  35.308  1.00  0.00     0.173 A 
ATOM     88  F   UNL A   1      45.524  29.730  33.908  1.00  0.00    -0.203 F 
ATOM     89  C   UNL A   1      46.202  27.837  35.134  1.00  0.00     0.198 A 
ATOM     90  C   UNL A   1      44.568  26.256  35.905  1.00  0.00     0.198 A 
ATOM     91  F   UNL A   1      42.292  26.577  35.405  1.00  0.00    -0.203 F 
ATOM     92  F   UNL A   1      47.480  28.221  35.019  1.00  0.00    -0.200 F 
ATOM     93  C   UNL A   1      45.888  26.668  35.812  1.00  0.00     0.200 A 
ATOM     94  F   UNL A   1      44.262  25.136  36.571  1.00  0.00    -0.200 F 
ATOM     95  F   UNL A   1      46.861  25.935  36.370  1.00  0.00    -0.200 F 
ENDBRANCH  62  85
ENDBRANCH  36  37
ENDBRANCH  28  31
ENDBRANCH  26  27
ENDBRANCH  25  26
ENDBRANCH   1  25
TORSDOF 13
ENDMDL
MODEL 2
REMARK VINA RESULT:     -12.9      0.120      1.943
REMARK SMILES Cc1cc(C)c(NC(=O)C2(C)CCCC2)c(C(=O)NCCCCNC(=O)c2ccc(-c3c4nc(c(-c5c(F)c(F)c(F)c(F)c5F)c5ccc([nH]5)c(-c5c(F)c(F)c(F)c(F)c5F)c5nc(c(-c6c(F)c(F)c(F)c(F)c6F)c6ccc3[nH]6)C=C5)C=C4)cc2)c1
REMARK SMILES IDX 21 1 20 2 19 3 17 4 18 5 16 7 1 8 2 9 3 10 90 11 4 12 5 13
REMARK SMILES IDX 6 14 7 15 8 16 9 18 10 19 11 20 12 21 15 22 13 23 14 24
REMARK SMILES IDX 22 25 23 26 24 27 25 28 26 30 27 31 28 32 89 33 29 34 88 35
REMARK SMILES IDX 30 36 31 37 32 38 82 39 33 40 87 41 81 42 83 43 34 44 86 45
REMARK SMILES IDX 80 46 79 47 35 49 67 50 47 51 66 52 48 53 51 54 65 55 84 56
REMARK SMILES IDX 49 57 50 58 64 60 85 61 52 62 36 63 37 64 45 65 38 66 39 67
REMARK SMILES IDX 43 68 46 69 40 70 41 71 44 72 42 73 68 74 69 75 77 76 70 77
REMARK SMILES IDX 71 78 75 79 78 80 72 81 73 82 76 83 74 84 53 85 54 86 62 87
REMARK SMILES IDX 55 88 56 89 60 90 63 91 57 92 58 93 61 94 59 95
REMARK H PARENT 19 6 7 17 24 29 83 48 51 59
REMARK Flexibility Score: inf
ROOT
ATOM      1  C   UNL A   1      31.730  30.599  26.379  1.00  0.00     0.023 C 
ENDROOT
BRANCH   1   2
ATOM      2  C   UNL A   1      33.114  30.091  26.794  1.00  0.00     0.116 C 
BRANCH   2   3
ATOM      3  N   UNL A   1      33.846  29.512  25.683  1.00  0.00    -0.352 N 
ATOM      4  C   UNL A   1      33.531  28.722  24.603  1.00  0.00     0.253 C 
ATOM      5  O   UNL A   1      34.489  28.473  23.863  1.00  0.00    -0.269 OA
ATOM      6  H   UNL A   1      34.803  29.741  25.710  1.00  0.00     0.163 HD
BRANCH   4   7
ATOM      7  C   UNL A   1      32.186  28.104  24.295  1.00  0.00     0.063 A 
ATOM      8  C   UNL A   1      28.909  29.005  22.532  1.00  0.00     0.044 C 
ATOM      9  C   UNL A   1      29.917  28.275  23.372  1.00  0.00    -0.050 A 
ATOM     10  C   UNL A   1      29.560  27.122  24.058  1.00  0.00     0.009 A 
ATOM     11  C   UNL A   1      31.208  28.782  23.548  1.00  0.00     0.019 A 
ATOM     12  C   UNL A   1      30.489  26.454  24.874  1.00  0.00    -0.026 A 
ATOM     13  C   UNL A   1      29.905  25.649  26.010  1.00  0.00     0.046 C 
ATOM     14  C   UNL A   1      31.845  26.831  24.855  1.00  0.00     0.056 A 
BRANCH  14  15
ATOM     15  N   UNL A   1      32.828  26.075  25.530  1.00  0.00    -0.325 N 
ATOM     16  C   UNL A   1      33.416  24.852  25.366  1.00  0.00     0.230 C 
ATOM     17  H   UNL A   1      33.179  26.549  26.320  1.00  0.00     0.169 HD
ATOM     18  O   UNL A   1      33.737  24.276  26.415  1.00  0.00    -0.274 OA
BRANCH  16  19
ATOM     19  C   UNL A   1      33.935  24.304  23.990  1.00  0.00     0.047 C 
ATOM     20  C   UNL A   1      35.406  23.900  24.165  1.00  0.00     0.022 C 
ATOM     21  C   UNL A   1      33.104  23.045  23.610  1.00  0.00     0.016 C 
ATOM     22  C   UNL A   1      33.751  25.121  22.704  1.00  0.00     0.016 C 
ATOM     23  C   UNL A   1      31.847  23.616  22.967  1.00  0.00     0.001 C 
ATOM     24  C   UNL A   1      32.335  24.830  22.189  1.00  0.00     0.001 C 
ENDBRANCH  16  19
ENDBRANCH  14  15
ENDBRANCH   4   7
ENDBRANCH   2   3
ENDBRANCH   1   2
BRANCH   1  25
ATOM     25  C   UNL A   1      31.534  32.111  26.543  1.00  0.00     0.023 C 
BRANCH  25  26
ATOM     26  C   UNL A   1      32.611  32.822  27.360  1.00  0.00     0.116 C 
BRANCH  26  27
ATOM     27  N   UNL A   1      32.308  34.215  27.655  1.00  0.00    -0.352 N 
ATOM     28  C   UNL A   1      32.959  35.052  28.531  1.00  0.00     0.251 C 
ATOM     29  H   UNL A   1      31.546  34.605  27.167  1.00  0.00     0.163 HD
ATOM     30  O   UNL A   1      32.549  36.189  28.741  1.00  0.00    -0.269 OA
BRANCH  28  31
ATOM     31  C   UNL A   1      34.134  34.536  29.262  1.00  0.00     0.039 A 
ATOM     32  C   UNL A   1      33.940  33.928  30.504  1.00  0.00     0.014 A 
ATOM     33  C   UNL A   1      35.404  34.584  28.683  1.00  0.00     0.014 A 
ATOM     34  C   UNL A   1      35.012  33.294  31.131  1.00  0.00     0.010 A 
ATOM     35  C   UNL A   1      36.455  33.893  29.276  1.00  0.00     0.010 A 
ATOM     36  C   UNL A   1      36.267  33.234  30.500  1.00  0.00    -0.014 A 
BRANCH  36  37
ATOM     37  C   UNL A   1      37.389  32.473  31.101  1.00  0.00     0.031 A 
ATOM     38  C   UNL A   1      37.897  32.832  32.468  1.00  0.00     0.074 A 
ATOM     39  C   UNL A   1      37.993  31.505  30.385  1.00  0.00     0.049 A 
ATOM     40  N   UNL A   1      38.898  32.321  33.139  1.00  0.00    -0.248 NA
ATOM     41  C   UNL A   1      37.208  33.931  33.161  1.00  0.00     0.031 C 
ATOM     42  C   UNL A   1      37.630  31.108  29.024  1.00  0.00     0.029 A 
ATOM     43  N   UNL A   1      39.049  30.684  30.698  1.00  0.00    -0.354 N 
ATOM     44  C   UNL A   1      38.964  33.041  34.324  1.00  0.00     0.074 A 
ATOM     45  C   UNL A   1      37.942  34.063  34.256  1.00  0.00     0.031 C 
ATOM     46  C   UNL A   1      38.432  30.104  28.629  1.00  0.00     0.029 A 
ATOM     47  C   UNL A   1      39.384  29.809  29.694  1.00  0.00     0.049 A 
ATOM     48  H   UNL A   1      39.521  30.720  31.562  1.00  0.00     0.167 HD
ATOM     49  C   UNL A   1      39.785  32.850  35.383  1.00  0.00     0.037 A 
ATOM     50  C   UNL A   1      40.353  28.875  29.641  1.00  0.00     0.037 A 
ATOM     51  C   UNL A   1      40.783  31.816  35.456  1.00  0.00     0.049 A 
ATOM     52  C   UNL A   1      41.247  28.678  30.836  1.00  0.00     0.074 A 
ATOM     53  C   UNL A   1      41.623  31.500  36.510  1.00  0.00     0.029 A 
ATOM     54  N   UNL A   1      41.075  30.929  34.430  1.00  0.00    -0.354 N 
ATOM     55  N   UNL A   1      41.246  29.312  31.983  1.00  0.00    -0.248 NA
ATOM     56  C   UNL A   1      42.270  27.630  30.732  1.00  0.00     0.031 C 
ATOM     57  C   UNL A   1      42.452  30.448  36.107  1.00  0.00     0.029 A 
ATOM     58  C   UNL A   1      42.096  30.077  34.819  1.00  0.00     0.049 A 
ATOM     59  H   UNL A   1      40.624  30.909  33.556  1.00  0.00     0.167 HD
ATOM     60  C   UNL A   1      42.244  28.722  32.747  1.00  0.00     0.074 A 
ATOM     61  C   UNL A   1      42.820  27.669  31.937  1.00  0.00     0.031 C 
ATOM     62  C   UNL A   1      42.647  29.026  34.005  1.00  0.00     0.037 A 
BRANCH  49  63
ATOM     63  C   UNL A   1      39.630  33.774  36.555  1.00  0.00     0.064 A 
ATOM     64  C   UNL A   1      38.840  33.427  37.662  1.00  0.00     0.173 A 
ATOM     65  C   UNL A   1      40.302  35.005  36.589  1.00  0.00     0.173 A 
ATOM     66  F   UNL A   1      38.166  32.268  37.675  1.00  0.00    -0.203 F 
ATOM     67  C   UNL A   1      38.708  34.291  38.747  1.00  0.00     0.198 A 
ATOM     68  C   UNL A   1      40.191  35.852  37.689  1.00  0.00     0.198 A 
ATOM     69  F   UNL A   1      41.073  35.383  35.559  1.00  0.00    -0.203 F 
ATOM     70  F   UNL A   1      37.908  33.960  39.770  1.00  0.00    -0.200 F 
ATOM     71  C   UNL A   1      39.389  35.498  38.763  1.00  0.00     0.200 A 
ATOM     72  F   UNL A   1      40.860  37.013  37.707  1.00  0.00    -0.200 F 
ATOM     73  F   UNL A   1      39.265  36.325  39.810  1.00  0.00    -0.200 F 
ENDBRANCH  49  63
BRANCH  50  74
ATOM     74  C   UNL A   1      40.508  28.030  28.429  1.00  0.00     0.064 A 
ATOM     75  C   UNL A   1      39.889  26.774  28.344  1.00  0.00     0.173 A 
ATOM     76  C   UNL A   1      41.283  28.449  27.338  1.00  0.00     0.173 A 
ATOM     77  F   UNL A   1      39.153  26.320  29.369  1.00  0.00    -0.203 F 
ATOM     78  C   UNL A   1      40.060  25.960  27.225  1.00  0.00     0.198 A 
ATOM     79  C   UNL A   1      41.430  27.647  26.208  1.00  0.00     0.198 A 
ATOM     80  F   UNL A   1      41.890  29.644  27.366  1.00  0.00    -0.203 F 
ATOM     81  F   UNL A   1      39.497  24.745  27.192  1.00  0.00    -0.200 F 
ATOM     82  C   UNL A   1      40.827  26.399  26.157  1.00  0.00     0.200 A 
ATOM     83  F   UNL A   1      42.160  28.080  25.171  1.00  0.00    -0.200 F 
ATOM     84  F   UNL A   1      40.989  25.617  25.081  1.00  0.00    -0.200 F 
ENDBRANCH  50  74
BRANCH  62  85
ATOM     85  C   UNL A   1      43.739  28.184  34.598  1.00  0.00     0.064 A 
ATOM     86  C   UNL A   1      43.463  26.981  35.263  1.00  0.00     0.173 A 
ATOM     87  C   UNL A   1      45.083  28.565  34.458  1.00  0.00     0.173 A 
ATOM     88  F   UNL A   1      42.193  26.582  35.435  1.00  0.00    -0.203 F 
ATOM     89  C   UNL A   1      44.490  26.202  35.788  1.00  0.00     0.198 A 
ATOM     90  C   UNL A   1      46.109  27.770  34.958  1.00  0.00     0.198 A 
ATOM     91  F   UNL A   1      45.399  29.704  33.823  1.00  0.00    -0.203 F 
ATOM     92  F   UNL A   1      44.201  25.080  36.461  1.00  0.00    -0.200 F 
ATOM     93  C   UNL A   1      45.812  26.593  35.628  1.00  0.00     0.200 A 
ATOM     94  F   UNL A   1      47.384  28.141  34.790  1.00  0.00    -0.200 F 
ATOM     95  F   UNL A   1      46.799  25.837  36.127  1.00  0.00    -0.200 F 
ENDBRANCH  62  85
ENDBRANCH  36  37
ENDBRANCH  28  31
ENDBRANCH  26  27
ENDBRANCH  25  26
ENDBRANCH   1  25
TORSDOF 13
ENDMDL
MODEL 3
REMARK VINA RESULT:     -12.9      0.490      7.371
REMARK SMILES Cc1cc(C)c(NC(=O)C2(C)CCCC2)c(C(=O)NCCCCNC(=O)c2ccc(-c3c4nc(c(-c5c(F)c(F)c(F)c(F)c5F)c5ccc([nH]5)c(-c5c(F)c(F)c(F)c(F)c5F)c5nc(c(-c6c(F)c(F)c(F)c(F)c6F)c6ccc3[nH]6)C=C5)C=C4)cc2)c1
REMARK SMILES IDX 21 1 20 2 19 3 17 4 18 5 16 7 1 8 2 9 3 10 90 11 4 12 5 13
REMARK SMILES IDX 6 14 7 15 8 16 9 18 10 19 11 20 12 21 15 22 13 23 14 24
REMARK SMILES IDX 22 25 23 26 24 27 25 28 26 30 27 31 28 32 89 33 29 34 88 35
REMARK SMILES IDX 30 36 31 37 32 38 82 39 33 40 87 41 81 42 83 43 34 44 86 45
REMARK SMILES IDX 80 46 79 47 35 49 67 50 47 51 66 52 48 53 51 54 65 55 84 56
REMARK SMILES IDX 49 57 50 58 64 60 85 61 52 62 36 63 37 64 45 65 38 66 39 67
REMARK SMILES IDX 43 68 46 69 40 70 41 71 44 72 42 73 68 74 69 75 77 76 70 77
REMARK SMILES IDX 71 78 75 79 78 80 72 81 73 82 76 83 74 84 53 85 54 86 62 87
REMARK SMILES IDX 55 88 56 89 60 90 63 91 57 92 58 93 61 94 59 95
REMARK H PARENT 19 6 7 17 24 29 83 48 51 59
REMARK Flexibility Score: inf
ROOT
ATOM      1  C   UNL A   1      31.858  30.197  26.840  1.00  0.00     0.023 C 
ENDROOT
BRANCH   1   2
ATOM      2  C   UNL A   1      33.283  29.672  27.042  1.00  0.00     0.116 C 
BRANCH   2   3
ATOM      3  N   UNL A   1      33.928  29.329  25.789  1.00  0.00    -0.352 N 
ATOM      4  C   UNL A   1      33.542  28.720  24.618  1.00  0.00     0.253 C 
ATOM      5  O   UNL A   1      34.436  28.650  23.767  1.00  0.00    -0.269 OA
ATOM      6  H   UNL A   1      34.875  29.598  25.774  1.00  0.00     0.163 HD
BRANCH   4   7
ATOM      7  C   UNL A   1      32.197  28.097  24.323  1.00  0.00     0.063 A 
ATOM      8  C   UNL A   1      28.909  28.979  22.569  1.00  0.00     0.044 C 
ATOM      9  C   UNL A   1      29.923  28.258  23.410  1.00  0.00    -0.050 A 
ATOM     10  C   UNL A   1      29.570  27.110  24.108  1.00  0.00     0.009 A 
ATOM     11  C   UNL A   1      31.214  28.768  23.575  1.00  0.00     0.019 A 
ATOM     12  C   UNL A   1      30.505  26.451  24.924  1.00  0.00    -0.026 A 
ATOM     13  C   UNL A   1      29.928  25.654  26.071  1.00  0.00     0.046 C 
ATOM     14  C   UNL A   1      31.860  26.829  24.895  1.00  0.00     0.056 A 
BRANCH  14  15
ATOM     15  N   UNL A   1      32.848  26.080  25.572  1.00  0.00    -0.325 N 
ATOM     16  C   UNL A   1      33.442  24.860  25.410  1.00  0.00     0.230 C 
ATOM     17  H   UNL A   1      33.197  26.558  26.359  1.00  0.00     0.169 HD
ATOM     18  O   UNL A   1      33.767  24.289  26.461  1.00  0.00    -0.274 OA
BRANCH  16  19
ATOM     19  C   UNL A   1      33.963  24.310  24.036  1.00  0.00     0.047 C 
ATOM     20  C   UNL A   1      35.434  23.909  24.212  1.00  0.00     0.022 C 
ATOM     21  C   UNL A   1      33.134  23.049  23.657  1.00  0.00     0.016 C 
ATOM     22  C   UNL A   1      33.778  25.125  22.748  1.00  0.00     0.016 C 
ATOM     23  C   UNL A   1      31.876  23.618  23.013  1.00  0.00     0.001 C 
ATOM     24  C   UNL A   1      32.363  24.831  22.233  1.00  0.00     0.001 C 
ENDBRANCH  16  19
ENDBRANCH  14  15
ENDBRANCH   4   7
ENDBRANCH   2   3
ENDBRANCH   1   2
BRANCH   1  25
ATOM     25  C   UNL A   1      31.765  31.713  26.632  1.00  0.00     0.023 C 
BRANCH  25  26
ATOM     26  C   UNL A   1      32.795  32.541  27.398  1.00  0.00     0.116 C 
BRANCH  26  27
ATOM     27  N   UNL A   1      32.395  33.921  27.627  1.00  0.00    -0.352 N 
ATOM     28  C   UNL A   1      32.953  34.826  28.499  1.00  0.00     0.251 C 
ATOM     29  H   UNL A   1      31.633  34.246  27.093  1.00  0.00     0.163 HD
ATOM     30  O   UNL A   1      32.465  35.942  28.649  1.00  0.00    -0.269 OA
BRANCH  28  31
ATOM     31  C   UNL A   1      34.123  34.411  29.298  1.00  0.00     0.039 A 
ATOM     32  C   UNL A   1      33.910  33.799  30.535  1.00  0.00     0.014 A 
ATOM     33  C   UNL A   1      35.415  34.556  28.789  1.00  0.00     0.014 A 
ATOM     34  C   UNL A   1      34.993  33.256  31.227  1.00  0.00     0.010 A 
ATOM     35  C   UNL A   1      36.483  33.954  29.445  1.00  0.00     0.010 A 
ATOM     36  C   UNL A   1      36.281  33.291  30.665  1.00  0.00    -0.014 A 
BRANCH  36  37
ATOM     37  C   UNL A   1      37.425  32.626  31.335  1.00  0.00     0.031 A 
ATOM     38  C   UNL A   1      38.125  31.477  30.668  1.00  0.00     0.074 A 
ATOM     39  C   UNL A   1      37.787  33.015  32.574  1.00  0.00     0.049 A 
ATOM     40  N   UNL A   1      39.108  30.736  31.113  1.00  0.00    -0.248 NA
ATOM     41  C   UNL A   1      37.636  31.090  29.336  1.00  0.00     0.031 C 
ATOM     42  C   UNL A   1      37.143  34.077  33.349  1.00  0.00     0.029 A 
ATOM     43  N   UNL A   1      38.778  32.553  33.404  1.00  0.00    -0.354 N 
ATOM     44  C   UNL A   1      39.346  29.793  30.123  1.00  0.00     0.074 A 
ATOM     45  C   UNL A   1      38.368  30.016  29.080  1.00  0.00     0.031 C 
ATOM     46  C   UNL A   1      37.772  34.202  34.529  1.00  0.00     0.029 A 
ATOM     47  C   UNL A   1      38.840  33.211  34.608  1.00  0.00     0.049 A 
ATOM     48  H   UNL A   1      39.388  31.820  33.158  1.00  0.00     0.167 HD
ATOM     49  C   UNL A   1      40.310  28.844  30.076  1.00  0.00     0.037 A 
ATOM     50  C   UNL A   1      39.665  33.032  35.657  1.00  0.00     0.037 A 
ATOM     51  C   UNL A   1      41.296  28.642  31.105  1.00  0.00     0.049 A 
ATOM     52  C   UNL A   1      40.733  31.974  35.576  1.00  0.00     0.074 A 
ATOM     53  C   UNL A   1      42.354  27.749  31.124  1.00  0.00     0.029 A 
ATOM     54  N   UNL A   1      41.345  29.346  32.299  1.00  0.00    -0.354 N 
ATOM     55  N   UNL A   1      41.000  31.141  34.599  1.00  0.00    -0.248 NA
ATOM     56  C   UNL A   1      41.620  31.838  36.738  1.00  0.00     0.031 C 
ATOM     57  C   UNL A   1      43.017  27.885  32.347  1.00  0.00     0.029 A 
ATOM     58  C   UNL A   1      42.404  28.895  33.071  1.00  0.00     0.049 A 
ATOM     59  H   UNL A   1      40.720  30.061  32.559  1.00  0.00     0.167 HD
ATOM     60  C   UNL A   1      42.101  30.405  35.015  1.00  0.00     0.074 A 
ATOM     61  C   UNL A   1      42.462  30.900  36.327  1.00  0.00     0.031 C 
ATOM     62  C   UNL A   1      42.755  29.409  34.369  1.00  0.00     0.037 A 
BRANCH  49  63
ATOM     63  C   UNL A   1      40.351  27.957  28.867  1.00  0.00     0.064 A 
ATOM     64  C   UNL A   1      41.089  28.308  27.725  1.00  0.00     0.173 A 
ATOM     65  C   UNL A   1      39.674  26.728  28.857  1.00  0.00     0.173 A 
ATOM     66  F   UNL A   1      41.744  29.477  27.677  1.00  0.00    -0.203 F 
ATOM     67  C   UNL A   1      41.124  27.474  26.610  1.00  0.00     0.198 A 
ATOM     68  C   UNL A   1      39.736  25.884  27.752  1.00  0.00     0.198 A 
ATOM     69  F   UNL A   1      38.958  26.343  29.924  1.00  0.00    -0.203 F 
ATOM     70  F   UNL A   1      41.795  27.854  25.514  1.00  0.00    -0.200 F 
ATOM     71  C   UNL A   1      40.455  26.260  26.627  1.00  0.00     0.200 A 
ATOM     72  F   UNL A   1      39.099  24.706  27.775  1.00  0.00    -0.200 F 
ATOM     73  F   UNL A   1      40.495  25.457  25.556  1.00  0.00    -0.200 F 
ENDBRANCH  49  63
BRANCH  50  74
ATOM     74  C   UNL A   1      39.539  33.893  36.861  1.00  0.00     0.064 A 
ATOM     75  C   UNL A   1      38.782  33.478  37.966  1.00  0.00     0.173 A 
ATOM     76  C   UNL A   1      40.159  35.150  36.930  1.00  0.00     0.173 A 
ATOM     77  F   UNL A   1      38.154  32.294  37.940  1.00  0.00    -0.203 F 
ATOM     78  C   UNL A   1      38.629  34.297  39.084  1.00  0.00     0.198 A 
ATOM     79  C   UNL A   1      40.029  35.955  38.060  1.00  0.00     0.198 A 
ATOM     80  F   UNL A   1      40.899  35.591  35.903  1.00  0.00    -0.203 F 
ATOM     81  F   UNL A   1      37.860  33.895  40.104  1.00  0.00    -0.200 F 
ATOM     82  C   UNL A   1      39.256  35.532  39.131  1.00  0.00     0.200 A 
ATOM     83  F   UNL A   1      40.647  37.143  38.108  1.00  0.00    -0.200 F 
ATOM     84  F   UNL A   1      39.110  36.319  40.206  1.00  0.00    -0.200 F 
ENDBRANCH  50  74
BRANCH  62  85
ATOM     85  C   UNL A   1      43.949  28.812  35.055  1.00  0.00     0.064 A 
ATOM     86  C   UNL A   1      43.834  27.696  35.895  1.00  0.00     0.173 A 
ATOM     87  C   UNL A   1      45.231  29.339  34.830  1.00  0.00     0.173 A 
ATOM     88  F   UNL A   1      42.628  27.167  36.153  1.00  0.00    -0.203 F 
ATOM     89  C   UNL A   1      44.957  27.143  36.506  1.00  0.00     0.198 A 
ATOM     90  C   UNL A   1      46.354  28.765  35.418  1.00  0.00     0.198 A 
ATOM     91  F   UNL A   1      45.394  30.401  34.028  1.00  0.00    -0.203 F 
ATOM     92  F   UNL A   1      44.819  26.105  37.342  1.00  0.00    -0.200 F 
ATOM     93  C   UNL A   1      46.215  27.672  36.260  1.00  0.00     0.200 A 
ATOM     94  F   UNL A   1      47.569  29.268  35.168  1.00  0.00    -0.200 F 
ATOM     95  F   UNL A   1      47.295  27.133  36.842  1.00  0.00    -0.200 F 
ENDBRANCH  62  85
ENDBRANCH  36  37
ENDBRANCH  28  31
ENDBRANCH  26  27
ENDBRANCH  25  26
ENDBRANCH   1  25
TORSDOF 13
ENDMDL
