MODEL 1
REMARK VINA RESULT:     -13.3      0.000      0.000
REMARK SMILES COC(=O)c1ccc(Cl)c(-c2ccc(C(=O)NCCCCNC(=O)c3ccc(-c4c5nc(c(-c6c(F)c(F)c(F)c(F)c6F)c6ccc([nH]6)c(-c6c(F)c(F)c(F)c(F)c6F)c6nc(c(-c7c(F)c(F)c(F)c(F)c7F)c7ccc4[nH]7)C=C6)C=C5)cc3)nc2)c1
REMARK SMILES IDX 19 1 18 2 17 3 15 4 16 5 14 7 11 8 12 9 89 10 13 11 88 12
REMARK SMILES IDX 10 13 5 14 6 15 90 16 7 17 8 18 9 19 3 20 4 21 2 22 1 23
REMARK SMILES IDX 20 24 21 25 22 26 23 27 24 29 25 30 26 31 87 32 27 33 86 34
REMARK SMILES IDX 28 35 29 36 30 37 80 38 31 39 85 40 79 41 81 42 32 43 84 44
REMARK SMILES IDX 78 45 77 46 33 48 65 49 45 50 64 51 46 52 49 53 63 54 82 55
REMARK SMILES IDX 47 56 48 57 62 59 83 60 50 61 34 62 35 63 43 64 36 65 37 66
REMARK SMILES IDX 41 67 44 68 38 69 39 70 42 71 40 72 66 73 67 74 75 75 68 76
REMARK SMILES IDX 69 77 73 78 76 79 70 80 71 81 74 82 72 83 51 84 52 85 60 86
REMARK SMILES IDX 53 87 54 88 58 89 61 90 55 91 56 92 59 93 57 94
REMARK H PARENT 17 6 22 28 81 47 49 58
REMARK Flexibility Score: inf
ROOT
ATOM      1  C   UNL A   1      31.985  30.317  26.844  1.00  0.00     0.023 C 
ENDROOT
BRANCH   1   2
ATOM      2  C   UNL A   1      33.252  29.804  26.156  1.00  0.00     0.116 C 
BRANCH   2   3
ATOM      3  N   UNL A   1      33.053  29.727  24.726  1.00  0.00    -0.351 N 
ATOM      4  C   UNL A   1      33.159  28.700  23.815  1.00  0.00     0.269 C 
ATOM      5  O   UNL A   1      32.916  29.002  22.644  1.00  0.00    -0.268 OA
ATOM      6  H   UNL A   1      32.788  30.585  24.321  1.00  0.00     0.163 HD
BRANCH   4   7
ATOM      7  C   UNL A   1      33.514  27.277  24.169  1.00  0.00     0.128 A 
ATOM      8  C   UNL A   1      34.098  24.590  24.573  1.00  0.00     0.002 A 
ATOM      9  C   UNL A   1      33.928  25.443  25.662  1.00  0.00     0.013 A 
ATOM     10  C   UNL A   1      33.997  25.165  23.312  1.00  0.00     0.120 A 
ATOM     11  C   UNL A   1      33.669  26.799  25.462  1.00  0.00     0.035 A 
ATOM     12  N   UNL A   1      33.697  26.467  23.091  1.00  0.00    -0.250 NA
BRANCH   8  13
ATOM     13  C   UNL A   1      34.428  23.177  24.774  1.00  0.00     0.003 A 
ATOM     14  C   UNL A   1      33.746  20.842  24.562  1.00  0.00     0.060 A 
ATOM     15  C   UNL A   1      35.008  20.420  24.991  1.00  0.00     0.017 A 
ATOM     16  C   UNL A   1      33.463  22.208  24.450  1.00  0.00     0.026 A 
ATOM     17  C   UNL A   1      35.977  21.370  25.322  1.00  0.00     0.022 A 
ATOM     18  C   UNL A   1      35.689  22.737  25.221  1.00  0.00     0.048 A 
ATOM     19  Cl  UNL A   1      36.939  23.849  25.661  1.00  0.00    -0.084 Cl
BRANCH  14  20
ATOM     20  C   UNL A   1      32.680  19.884  24.191  1.00  0.00     0.337 C 
ATOM     21  O   UNL A   1      32.160  19.854  23.091  1.00  0.00    -0.246 OA
BRANCH  20  22
ATOM     22  O   UNL A   1      32.338  19.144  25.274  1.00  0.00    -0.465 OA
ATOM     23  C   UNL A   1      32.388  17.736  25.039  1.00  0.00     0.282 C 
ENDBRANCH  20  22
ENDBRANCH  14  20
ENDBRANCH   8  13
ENDBRANCH   4   7
ENDBRANCH   2   3
ENDBRANCH   1   2
BRANCH   1  24
ATOM     24  C   UNL A   1      31.802  31.835  26.744  1.00  0.00     0.023 C 
BRANCH  24  25
ATOM     25  C   UNL A   1      32.862  32.656  27.470  1.00  0.00     0.116 C 
BRANCH  25  26
ATOM     26  N   UNL A   1      32.464  34.037  27.700  1.00  0.00    -0.352 N 
ATOM     27  C   UNL A   1      32.994  34.938  28.592  1.00  0.00     0.251 C 
ATOM     28  H   UNL A   1      31.722  34.368  27.145  1.00  0.00     0.163 HD
ATOM     29  O   UNL A   1      32.477  36.036  28.757  1.00  0.00    -0.269 OA
BRANCH  27  30
ATOM     30  C   UNL A   1      34.173  34.540  29.382  1.00  0.00     0.039 A 
ATOM     31  C   UNL A   1      33.984  34.072  30.682  1.00  0.00     0.014 A 
ATOM     32  C   UNL A   1      35.446  34.558  28.806  1.00  0.00     0.014 A 
ATOM     33  C   UNL A   1      35.069  33.542  31.381  1.00  0.00     0.010 A 
ATOM     34  C   UNL A   1      36.507  33.957  29.472  1.00  0.00     0.010 A 
ATOM     35  C   UNL A   1      36.326  33.436  30.763  1.00  0.00    -0.014 A 
BRANCH  35  36
ATOM     36  C   UNL A   1      37.455  32.753  31.442  1.00  0.00     0.031 A 
ATOM     37  C   UNL A   1      38.128  31.576  30.795  1.00  0.00     0.074 A 
ATOM     38  C   UNL A   1      37.826  33.155  32.673  1.00  0.00     0.049 A 
ATOM     39  N   UNL A   1      39.094  30.821  31.254  1.00  0.00    -0.248 NA
ATOM     40  C   UNL A   1      37.630  31.175  29.470  1.00  0.00     0.031 C 
ATOM     41  C   UNL A   1      37.208  34.246  33.428  1.00  0.00     0.029 A 
ATOM     42  N   UNL A   1      38.806  32.684  33.512  1.00  0.00    -0.354 N 
ATOM     43  C   UNL A   1      39.311  29.855  30.281  1.00  0.00     0.074 A 
ATOM     44  C   UNL A   1      38.338  30.080  29.235  1.00  0.00     0.031 C 
ATOM     45  C   UNL A   1      37.838  34.379  34.606  1.00  0.00     0.029 A 
ATOM     46  C   UNL A   1      38.872  33.355  34.710  1.00  0.00     0.049 A 
ATOM     47  H   UNL A   1      39.403  31.938  33.279  1.00  0.00     0.167 HD
ATOM     48  C   UNL A   1      40.254  28.883  30.254  1.00  0.00     0.037 A 
ATOM     49  C   UNL A   1      39.670  33.158  35.777  1.00  0.00     0.037 A 
ATOM     50  C   UNL A   1      41.227  28.674  31.294  1.00  0.00     0.049 A 
ATOM     51  C   UNL A   1      40.699  32.060  35.727  1.00  0.00     0.074 A 
ATOM     52  C   UNL A   1      42.268  27.764  31.329  1.00  0.00     0.029 A 
ATOM     53  N   UNL A   1      41.271  29.378  32.489  1.00  0.00    -0.354 N 
ATOM     54  N   UNL A   1      40.956  31.210  34.763  1.00  0.00    -0.248 NA
ATOM     55  C   UNL A   1      41.552  31.900  36.912  1.00  0.00     0.031 C 
ATOM     56  C   UNL A   1      42.900  27.871  32.572  1.00  0.00     0.029 A 
ATOM     57  C   UNL A   1      42.298  28.895  33.285  1.00  0.00     0.049 A 
ATOM     58  H   UNL A   1      40.663  30.112  32.736  1.00  0.00     0.167 HD
ATOM     59  C   UNL A   1      42.012  30.429  35.214  1.00  0.00     0.074 A 
ATOM     60  C   UNL A   1      42.363  30.923  36.529  1.00  0.00     0.031 C 
ATOM     61  C   UNL A   1      42.634  29.396  34.594  1.00  0.00     0.037 A 
BRANCH  48  62
ATOM     62  C   UNL A   1      40.273  27.965  29.065  1.00  0.00     0.064 A 
ATOM     63  C   UNL A   1      39.552  26.760  29.049  1.00  0.00     0.173 A 
ATOM     64  C   UNL A   1      40.993  28.310  27.912  1.00  0.00     0.173 A 
ATOM     65  F   UNL A   1      38.854  26.376  30.129  1.00  0.00    -0.203 F 
ATOM     66  C   UNL A   1      39.578  25.922  27.937  1.00  0.00     0.198 A 
ATOM     67  C   UNL A   1      40.988  27.487  26.788  1.00  0.00     0.198 A 
ATOM     68  F   UNL A   1      41.695  29.453  27.868  1.00  0.00    -0.203 F 
ATOM     69  F   UNL A   1      38.927  24.751  27.967  1.00  0.00    -0.200 F 
ATOM     70  C   UNL A   1      40.289  26.290  26.805  1.00  0.00     0.200 A 
ATOM     71  F   UNL A   1      41.663  27.852  25.690  1.00  0.00    -0.200 F 
ATOM     72  F   UNL A   1      40.306  25.488  25.732  1.00  0.00    -0.200 F 
ENDBRANCH  48  62
BRANCH  49  73
ATOM     73  C   UNL A   1      39.532  34.025  36.977  1.00  0.00     0.064 A 
ATOM     74  C   UNL A   1      38.783  33.609  38.088  1.00  0.00     0.173 A 
ATOM     75  C   UNL A   1      40.141  35.287  37.039  1.00  0.00     0.173 A 
ATOM     76  F   UNL A   1      38.164  32.420  38.071  1.00  0.00    -0.203 F 
ATOM     77  C   UNL A   1      38.632  34.431  39.204  1.00  0.00     0.198 A 
ATOM     78  C   UNL A   1      40.017  36.094  38.168  1.00  0.00     0.198 A 
ATOM     79  F   UNL A   1      40.874  35.729  36.006  1.00  0.00    -0.203 F 
ATOM     80  F   UNL A   1      37.870  34.030  40.229  1.00  0.00    -0.200 F 
ATOM     81  C   UNL A   1      39.255  35.669  39.246  1.00  0.00     0.200 A 
ATOM     82  F   UNL A   1      40.636  37.281  38.211  1.00  0.00    -0.200 F 
ATOM     83  F   UNL A   1      39.114  36.456  40.320  1.00  0.00    -0.200 F 
ENDBRANCH  49  73
BRANCH  61  84
ATOM     84  C   UNL A   1      43.775  28.743  35.322  1.00  0.00     0.064 A 
ATOM     85  C   UNL A   1      43.576  27.653  36.183  1.00  0.00     0.173 A 
ATOM     86  C   UNL A   1      45.091  29.190  35.124  1.00  0.00     0.173 A 
ATOM     87  F   UNL A   1      42.336  27.197  36.418  1.00  0.00    -0.203 F 
ATOM     88  C   UNL A   1      44.647  27.054  36.840  1.00  0.00     0.198 A 
ATOM     89  C   UNL A   1      46.164  28.565  35.755  1.00  0.00     0.198 A 
ATOM     90  F   UNL A   1      45.340  30.222  34.306  1.00  0.00    -0.203 F 
ATOM     91  F   UNL A   1      44.426  26.050  37.699  1.00  0.00    -0.200 F 
ATOM     92  C   UNL A   1      45.940  27.505  36.619  1.00  0.00     0.200 A 
ATOM     93  F   UNL A   1      47.414  28.991  35.525  1.00  0.00    -0.200 F 
ATOM     94  F   UNL A   1      46.971  26.920  37.245  1.00  0.00    -0.200 F 
ENDBRANCH  61  84
ENDBRANCH  35  36
ENDBRANCH  27  30
ENDBRANCH  25  26
ENDBRANCH  24  25
ENDBRANCH   1  24
TORSDOF 14
ENDMDL
MODEL 2
REMARK VINA RESULT:     -13.2      0.244      1.956
REMARK SMILES COC(=O)c1ccc(Cl)c(-c2ccc(C(=O)NCCCCNC(=O)c3ccc(-c4c5nc(c(-c6c(F)c(F)c(F)c(F)c6F)c6ccc([nH]6)c(-c6c(F)c(F)c(F)c(F)c6F)c6nc(c(-c7c(F)c(F)c(F)c(F)c7F)c7ccc4[nH]7)C=C6)C=C5)cc3)nc2)c1
REMARK SMILES IDX 19 1 18 2 17 3 15 4 16 5 14 7 11 8 12 9 89 10 13 11 88 12
REMARK SMILES IDX 10 13 5 14 6 15 90 16 7 17 8 18 9 19 3 20 4 21 2 22 1 23
REMARK SMILES IDX 20 24 21 25 22 26 23 27 24 29 25 30 26 31 87 32 27 33 86 34
REMARK SMILES IDX 28 35 29 36 30 37 80 38 31 39 85 40 79 41 81 42 32 43 84 44
REMARK SMILES IDX 78 45 77 46 33 48 65 49 45 50 64 51 46 52 49 53 63 54 82 55
REMARK SMILES IDX 47 56 48 57 62 59 83 60 50 61 34 62 35 63 43 64 36 65 37 66
REMARK SMILES IDX 41 67 44 68 38 69 39 70 42 71 40 72 66 73 67 74 75 75 68 76
REMARK SMILES IDX 69 77 73 78 76 79 70 80 71 81 74 82 72 83 51 84 52 85 60 86
REMARK SMILES IDX 53 87 54 88 58 89 61 90 55 91 56 92 59 93 57 94
REMARK H PARENT 17 6 22 28 81 47 49 58
REMARK Flexibility Score: inf
ROOT
ATOM      1  C   UNL A   1      32.148  30.156  26.859  1.00  0.00     0.023 C 
ENDROOT
BRANCH   1   2
ATOM      2  C   UNL A   1      31.557  29.374  25.683  1.00  0.00     0.116 C 
BRANCH   2   3
ATOM      3  N   UNL A   1      32.344  29.589  24.490  1.00  0.00    -0.351 N 
ATOM      4  C   UNL A   1      33.224  28.798  23.786  1.00  0.00     0.269 C 
ATOM      5  O   UNL A   1      33.732  29.321  22.792  1.00  0.00    -0.268 OA
ATOM      6  H   UNL A   1      32.227  30.486  24.100  1.00  0.00     0.163 HD
BRANCH   4   7
ATOM      7  C   UNL A   1      33.560  27.370  24.141  1.00  0.00     0.128 A 
ATOM      8  C   UNL A   1      34.097  24.673  24.550  1.00  0.00     0.002 A 
ATOM      9  C   UNL A   1      33.990  25.541  25.636  1.00  0.00     0.013 A 
ATOM     10  C   UNL A   1      33.960  25.239  23.288  1.00  0.00     0.120 A 
ATOM     11  C   UNL A   1      33.755  26.901  25.432  1.00  0.00     0.035 A 
ATOM     12  N   UNL A   1      33.682  26.545  23.066  1.00  0.00    -0.250 NA
BRANCH   8  13
ATOM     13  C   UNL A   1      34.402  23.255  24.753  1.00  0.00     0.003 A 
ATOM     14  C   UNL A   1      33.691  20.931  24.520  1.00  0.00     0.060 A 
ATOM     15  C   UNL A   1      34.937  20.490  24.973  1.00  0.00     0.017 A 
ATOM     16  C   UNL A   1      33.430  22.302  24.406  1.00  0.00     0.026 A 
ATOM     17  C   UNL A   1      35.913  21.425  25.326  1.00  0.00     0.022 A 
ATOM     18  C   UNL A   1      35.647  22.795  25.224  1.00  0.00     0.048 A 
ATOM     19  Cl  UNL A   1      36.905  23.888  25.693  1.00  0.00    -0.084 Cl
BRANCH  14  20
ATOM     20  C   UNL A   1      32.618  19.991  24.123  1.00  0.00     0.337 C 
ATOM     21  O   UNL A   1      32.170  19.923  22.994  1.00  0.00    -0.246 OA
BRANCH  20  22
ATOM     22  O   UNL A   1      32.182  19.316  25.215  1.00  0.00    -0.465 OA
ATOM     23  C   UNL A   1      32.470  17.918  25.172  1.00  0.00     0.282 C 
ENDBRANCH  20  22
ENDBRANCH  14  20
ENDBRANCH   8  13
ENDBRANCH   4   7
ENDBRANCH   2   3
ENDBRANCH   1   2
BRANCH   1  24
ATOM     24  C   UNL A   1      31.825  31.653  26.826  1.00  0.00     0.023 C 
BRANCH  24  25
ATOM     25  C   UNL A   1      32.938  32.558  27.344  1.00  0.00     0.116 C 
BRANCH  25  26
ATOM     26  N   UNL A   1      32.498  33.922  27.603  1.00  0.00    -0.352 N 
ATOM     27  C   UNL A   1      32.985  34.812  28.529  1.00  0.00     0.251 C 
ATOM     28  H   UNL A   1      31.758  34.248  27.042  1.00  0.00     0.163 HD
ATOM     29  O   UNL A   1      32.436  35.891  28.713  1.00  0.00    -0.269 OA
BRANCH  27  30
ATOM     30  C   UNL A   1      34.159  34.424  29.333  1.00  0.00     0.039 A 
ATOM     31  C   UNL A   1      33.954  33.864  30.594  1.00  0.00     0.014 A 
ATOM     32  C   UNL A   1      35.447  34.542  28.803  1.00  0.00     0.014 A 
ATOM     33  C   UNL A   1      35.044  33.346  31.295  1.00  0.00     0.010 A 
ATOM     34  C   UNL A   1      36.516  33.954  29.466  1.00  0.00     0.010 A 
ATOM     35  C   UNL A   1      36.323  33.342  30.715  1.00  0.00    -0.014 A 
BRANCH  35  36
ATOM     36  C   UNL A   1      37.465  32.675  31.387  1.00  0.00     0.031 A 
ATOM     37  C   UNL A   1      38.141  31.498  30.744  1.00  0.00     0.074 A 
ATOM     38  C   UNL A   1      37.846  33.091  32.611  1.00  0.00     0.049 A 
ATOM     39  N   UNL A   1      39.118  30.755  31.200  1.00  0.00    -0.248 NA
ATOM     40  C   UNL A   1      37.632  31.081  29.428  1.00  0.00     0.031 C 
ATOM     41  C   UNL A   1      37.227  34.185  33.362  1.00  0.00     0.029 A 
ATOM     42  N   UNL A   1      38.839  32.637  33.444  1.00  0.00    -0.354 N 
ATOM     43  C   UNL A   1      39.333  29.781  30.233  1.00  0.00     0.074 A 
ATOM     44  C   UNL A   1      38.346  29.989  29.196  1.00  0.00     0.031 C 
ATOM     45  C   UNL A   1      37.868  34.333  34.532  1.00  0.00     0.029 A 
ATOM     46  C   UNL A   1      38.912  33.319  34.634  1.00  0.00     0.049 A 
ATOM     47  H   UNL A   1      39.440  31.893  33.211  1.00  0.00     0.167 HD
ATOM     48  C   UNL A   1      40.283  28.817  30.204  1.00  0.00     0.037 A 
ATOM     49  C   UNL A   1      39.723  33.138  35.695  1.00  0.00     0.037 A 
ATOM     50  C   UNL A   1      41.269  28.626  31.236  1.00  0.00     0.049 A 
ATOM     51  C   UNL A   1      40.760  32.049  35.644  1.00  0.00     0.074 A 
ATOM     52  C   UNL A   1      42.318  27.724  31.268  1.00  0.00     0.029 A 
ATOM     53  N   UNL A   1      41.320  29.341  32.424  1.00  0.00    -0.354 N 
ATOM     54  N   UNL A   1      41.014  31.191  34.684  1.00  0.00    -0.248 NA
ATOM     55  C   UNL A   1      41.628  31.906  36.821  1.00  0.00     0.031 C 
ATOM     56  C   UNL A   1      42.962  27.848  32.503  1.00  0.00     0.029 A 
ATOM     57  C   UNL A   1      42.359  28.874  33.213  1.00  0.00     0.049 A 
ATOM     58  H   UNL A   1      40.709  30.073  32.670  1.00  0.00     0.167 HD
ATOM     59  C   UNL A   1      42.081  30.424  35.131  1.00  0.00     0.074 A 
ATOM     60  C   UNL A   1      42.442  30.933  36.437  1.00  0.00     0.031 C 
ATOM     61  C   UNL A   1      42.705  29.389  34.514  1.00  0.00     0.037 A 
BRANCH  48  62
ATOM     62  C   UNL A   1      40.297  27.889  29.024  1.00  0.00     0.064 A 
ATOM     63  C   UNL A   1      41.044  28.171  27.870  1.00  0.00     0.173 A 
ATOM     64  C   UNL A   1      39.581  26.682  29.061  1.00  0.00     0.173 A 
ATOM     65  F   UNL A   1      41.738  29.314  27.777  1.00  0.00    -0.203 F 
ATOM     66  C   UNL A   1      41.048  27.296  26.785  1.00  0.00     0.198 A 
ATOM     67  C   UNL A   1      39.616  25.794  27.989  1.00  0.00     0.198 A 
ATOM     68  F   UNL A   1      38.854  26.358  30.141  1.00  0.00    -0.203 F 
ATOM     69  F   UNL A   1      41.725  27.613  25.673  1.00  0.00    -0.200 F 
ATOM     70  C   UNL A   1      40.342  26.105  26.849  1.00  0.00     0.200 A 
ATOM     71  F   UNL A   1      38.945  24.636  28.059  1.00  0.00    -0.200 F 
ATOM     72  F   UNL A   1      40.353  25.260  25.809  1.00  0.00    -0.200 F 
ENDBRANCH  48  62
BRANCH  49  73
ATOM     73  C   UNL A   1      39.590  34.015  36.888  1.00  0.00     0.064 A 
ATOM     74  C   UNL A   1      40.245  35.253  36.953  1.00  0.00     0.173 A 
ATOM     75  C   UNL A   1      38.810  33.633  37.990  1.00  0.00     0.173 A 
ATOM     76  F   UNL A   1      41.020  35.654  35.934  1.00  0.00    -0.203 F 
ATOM     77  C   UNL A   1      40.142  36.065  38.081  1.00  0.00     0.198 A 
ATOM     78  C   UNL A   1      38.682  34.460  39.104  1.00  0.00     0.198 A 
ATOM     79  F   UNL A   1      38.158  32.462  37.977  1.00  0.00    -0.203 F 
ATOM     80  F   UNL A   1      40.819  37.219  38.137  1.00  0.00    -0.200 F 
ATOM     81  C   UNL A   1      39.355  35.671  39.153  1.00  0.00     0.200 A 
ATOM     82  F   UNL A   1      37.905  34.084  40.128  1.00  0.00    -0.200 F 
ATOM     83  F   UNL A   1      39.252  36.454  40.235  1.00  0.00    -0.200 F 
ENDBRANCH  49  73
BRANCH  61  84
ATOM     84  C   UNL A   1      43.859  28.752  35.236  1.00  0.00     0.064 A 
ATOM     85  C   UNL A   1      45.182  29.173  35.032  1.00  0.00     0.173 A 
ATOM     86  C   UNL A   1      43.633  27.734  36.176  1.00  0.00     0.173 A 
ATOM     87  F   UNL A   1      45.454  30.133  34.135  1.00  0.00    -0.203 F 
ATOM     88  C   UNL A   1      46.236  28.578  35.719  1.00  0.00     0.198 A 
ATOM     89  C   UNL A   1      44.686  27.166  36.887  1.00  0.00     0.198 A 
ATOM     90  F   UNL A   1      42.387  27.299  36.416  1.00  0.00    -0.203 F 
ATOM     91  F   UNL A   1      47.496  28.959  35.467  1.00  0.00    -0.200 F 
ATOM     92  C   UNL A   1      45.988  27.582  36.651  1.00  0.00     0.200 A 
ATOM     93  F   UNL A   1      44.441  26.217  37.800  1.00  0.00    -0.200 F 
ATOM     94  F   UNL A   1      47.004  27.018  37.319  1.00  0.00    -0.200 F 
ENDBRANCH  61  84
ENDBRANCH  35  36
ENDBRANCH  27  30
ENDBRANCH  25  26
ENDBRANCH  24  25
ENDBRANCH   1  24
TORSDOF 14
ENDMDL
MODEL 3
REMARK VINA RESULT:     -13.1      0.609      7.210
REMARK SMILES COC(=O)c1ccc(Cl)c(-c2ccc(C(=O)NCCCCNC(=O)c3ccc(-c4c5nc(c(-c6c(F)c(F)c(F)c(F)c6F)c6ccc([nH]6)c(-c6c(F)c(F)c(F)c(F)c6F)c6nc(c(-c7c(F)c(F)c(F)c(F)c7F)c7ccc4[nH]7)C=C6)C=C5)cc3)nc2)c1
REMARK SMILES IDX 19 1 18 2 17 3 15 4 16 5 14 7 11 8 12 9 89 10 13 11 88 12
REMARK SMILES IDX 10 13 5 14 6 15 90 16 7 17 8 18 9 19 3 20 4 21 2 22 1 23
REMARK SMILES IDX 20 24 21 25 22 26 23 27 24 29 25 30 26 31 87 32 27 33 86 34
REMARK SMILES IDX 28 35 29 36 30 37 80 38 31 39 85 40 79 41 81 42 32 43 84 44
REMARK SMILES IDX 78 45 77 46 33 48 65 49 45 50 64 51 46 52 49 53 63 54 82 55
REMARK SMILES IDX 47 56 48 57 62 59 83 60 50 61 34 62 35 63 43 64 36 65 37 66
REMARK SMILES IDX 41 67 44 68 38 69 39 70 42 71 40 72 66 73 67 74 75 75 68 76
REMARK SMILES IDX 69 77 73 78 76 79 70 80 71 81 74 82 72 83 51 84 52 85 60 86
REMARK SMILES IDX 53 87 54 88 58 89 61 90 55 91 56 92 59 93 57 94
REMARK H PARENT 17 6 22 28 81 47 49 58
REMARK Flexibility Score: inf
ROOT
ATOM      1  C   UNL A   1      31.807  30.281  26.696  1.00  0.00     0.023 C 
ENDROOT
BRANCH   1   2
ATOM      2  C   UNL A   1      33.114  29.775  26.081  1.00  0.00     0.116 C 
BRANCH   2   3
ATOM      3  N   UNL A   1      33.001  29.711  24.641  1.00  0.00    -0.351 N 
ATOM      4  C   UNL A   1      33.178  28.696  23.728  1.00  0.00     0.269 C 
ATOM      5  O   UNL A   1      32.999  29.006  22.547  1.00  0.00    -0.268 OA
ATOM      6  H   UNL A   1      32.745  30.568  24.230  1.00  0.00     0.163 HD
BRANCH   4   7
ATOM      7  C   UNL A   1      33.535  27.275  24.088  1.00  0.00     0.128 A 
ATOM      8  C   UNL A   1      34.112  24.588  24.507  1.00  0.00     0.002 A 
ATOM      9  C   UNL A   1      34.001  25.460  25.590  1.00  0.00     0.013 A 
ATOM     10  C   UNL A   1      33.958  25.145  23.243  1.00  0.00     0.120 A 
ATOM     11  C   UNL A   1      33.745  26.815  25.380  1.00  0.00     0.035 A 
ATOM     12  N   UNL A   1      33.662  26.446  23.016  1.00  0.00    -0.250 NA
BRANCH   8  13
ATOM     13  C   UNL A   1      34.437  23.175  24.715  1.00  0.00     0.003 A 
ATOM     14  C   UNL A   1      33.740  20.842  24.537  1.00  0.00     0.060 A 
ATOM     15  C   UNL A   1      35.006  20.418  24.948  1.00  0.00     0.017 A 
ATOM     16  C   UNL A   1      33.462  22.209  24.416  1.00  0.00     0.026 A 
ATOM     17  C   UNL A   1      35.986  21.365  25.254  1.00  0.00     0.022 A 
ATOM     18  C   UNL A   1      35.704  22.732  25.145  1.00  0.00     0.048 A 
ATOM     19  Cl  UNL A   1      36.968  23.842  25.553  1.00  0.00    -0.084 Cl
BRANCH  14  20
ATOM     20  C   UNL A   1      32.662  19.888  24.192  1.00  0.00     0.337 C 
ATOM     21  O   UNL A   1      32.175  19.800  23.081  1.00  0.00    -0.246 OA
BRANCH  20  22
ATOM     22  O   UNL A   1      32.270  19.225  25.307  1.00  0.00    -0.465 OA
ATOM     23  C   UNL A   1      32.541  17.823  25.260  1.00  0.00     0.282 C 
ENDBRANCH  20  22
ENDBRANCH  14  20
ENDBRANCH   8  13
ENDBRANCH   4   7
ENDBRANCH   2   3
ENDBRANCH   1   2
BRANCH   1  24
ATOM     24  C   UNL A   1      31.643  31.803  26.627  1.00  0.00     0.023 C 
BRANCH  24  25
ATOM     25  C   UNL A   1      32.785  32.597  27.251  1.00  0.00     0.116 C 
BRANCH  25  26
ATOM     26  N   UNL A   1      32.430  33.976  27.556  1.00  0.00    -0.352 N 
ATOM     27  C   UNL A   1      32.980  34.808  28.501  1.00  0.00     0.251 C 
ATOM     28  H   UNL A   1      31.703  34.361  27.016  1.00  0.00     0.163 HD
ATOM     29  O   UNL A   1      32.497  35.911  28.724  1.00  0.00    -0.269 OA
BRANCH  27  30
ATOM     30  C   UNL A   1      34.139  34.329  29.275  1.00  0.00     0.039 A 
ATOM     31  C   UNL A   1      33.913  33.601  30.443  1.00  0.00     0.014 A 
ATOM     32  C   UNL A   1      35.438  34.533  28.799  1.00  0.00     0.014 A 
ATOM     33  C   UNL A   1      34.993  33.006  31.096  1.00  0.00     0.010 A 
ATOM     34  C   UNL A   1      36.500  33.873  29.405  1.00  0.00     0.010 A 
ATOM     35  C   UNL A   1      36.286  33.096  30.554  1.00  0.00    -0.014 A 
BRANCH  35  36
ATOM     36  C   UNL A   1      37.421  32.357  31.160  1.00  0.00     0.031 A 
ATOM     37  C   UNL A   1      37.930  32.734  32.522  1.00  0.00     0.074 A 
ATOM     38  C   UNL A   1      38.036  31.391  30.449  1.00  0.00     0.049 A 
ATOM     39  N   UNL A   1      38.940  32.241  33.193  1.00  0.00    -0.248 NA
ATOM     40  C   UNL A   1      37.230  33.831  33.210  1.00  0.00     0.031 C 
ATOM     41  C   UNL A   1      37.670  30.978  29.093  1.00  0.00     0.029 A 
ATOM     42  N   UNL A   1      39.105  30.589  30.764  1.00  0.00    -0.354 N 
ATOM     43  C   UNL A   1      39.002  32.971  34.372  1.00  0.00     0.074 A 
ATOM     44  C   UNL A   1      37.968  33.980  34.300  1.00  0.00     0.031 C 
ATOM     45  C   UNL A   1      38.483  29.983  28.702  1.00  0.00     0.029 A 
ATOM     46  C   UNL A   1      39.453  29.720  29.758  1.00  0.00     0.049 A 
ATOM     47  H   UNL A   1      39.576  30.632  31.627  1.00  0.00     0.167 HD
ATOM     48  C   UNL A   1      39.831  32.798  35.428  1.00  0.00     0.037 A 
ATOM     49  C   UNL A   1      40.454  28.819  29.692  1.00  0.00     0.037 A 
ATOM     50  C   UNL A   1      40.850  31.782  35.496  1.00  0.00     0.049 A 
ATOM     51  C   UNL A   1      41.371  28.658  30.874  1.00  0.00     0.074 A 
ATOM     52  C   UNL A   1      41.694  31.479  36.550  1.00  0.00     0.029 A 
ATOM     53  N   UNL A   1      41.169  30.913  34.463  1.00  0.00    -0.354 N 
ATOM     54  N   UNL A   1      41.362  29.293  32.022  1.00  0.00    -0.248 NA
ATOM     55  C   UNL A   1      42.435  27.651  30.754  1.00  0.00     0.031 C 
ATOM     56  C   UNL A   1      42.569  30.472  36.131  1.00  0.00     0.029 A 
ATOM     57  C   UNL A   1      42.225  30.099  34.841  1.00  0.00     0.049 A 
ATOM     58  H   UNL A   1      40.714  30.879  33.591  1.00  0.00     0.167 HD
ATOM     59  C   UNL A   1      42.400  28.749  32.767  1.00  0.00     0.074 A 
ATOM     60  C   UNL A   1      43.002  27.716  31.950  1.00  0.00     0.031 C 
ATOM     61  C   UNL A   1      42.817  29.076  34.015  1.00  0.00     0.037 A 
BRANCH  48  62
ATOM     62  C   UNL A   1      39.678  33.733  36.594  1.00  0.00     0.064 A 
ATOM     63  C   UNL A   1      38.857  33.422  37.690  1.00  0.00     0.173 A 
ATOM     64  C   UNL A   1      40.389  34.942  36.633  1.00  0.00     0.173 A 
ATOM     65  F   UNL A   1      38.147  32.284  37.700  1.00  0.00    -0.203 F 
ATOM     66  C   UNL A   1      38.730  34.300  38.764  1.00  0.00     0.198 A 
ATOM     67  C   UNL A   1      40.287  35.801  37.725  1.00  0.00     0.198 A 
ATOM     68  F   UNL A   1      41.193  35.288  35.616  1.00  0.00    -0.203 F 
ATOM     69  F   UNL A   1      37.898  34.005  39.772  1.00  0.00    -0.200 F 
ATOM     70  C   UNL A   1      39.451  35.483  38.784  1.00  0.00     0.200 A 
ATOM     71  F   UNL A   1      40.996  36.937  37.750  1.00  0.00    -0.200 F 
ATOM     72  F   UNL A   1      39.335  36.323  39.822  1.00  0.00    -0.200 F 
ENDBRANCH  48  62
BRANCH  49  73
ATOM     73  C   UNL A   1      40.631  27.997  28.466  1.00  0.00     0.064 A 
ATOM     74  C   UNL A   1      40.032  26.734  28.348  1.00  0.00     0.173 A 
ATOM     75  C   UNL A   1      41.405  28.452  27.388  1.00  0.00     0.173 A 
ATOM     76  F   UNL A   1      39.299  26.245  29.360  1.00  0.00    -0.203 F 
ATOM     77  C   UNL A   1      40.218  25.951  27.211  1.00  0.00     0.198 A 
ATOM     78  C   UNL A   1      41.564  27.683  26.238  1.00  0.00     0.198 A 
ATOM     79  F   UNL A   1      41.995  29.655  27.447  1.00  0.00    -0.203 F 
ATOM     80  F   UNL A   1      39.676  24.728  27.147  1.00  0.00    -0.200 F 
ATOM     81  C   UNL A   1      40.978  26.429  26.154  1.00  0.00     0.200 A 
ATOM     82  F   UNL A   1      42.283  28.157  25.212  1.00  0.00    -0.200 F 
ATOM     83  F   UNL A   1      41.151  25.678  25.058  1.00  0.00    -0.200 F 
ENDBRANCH  49  73
BRANCH  61  84
ATOM     84  C   UNL A   1      43.967  28.293  34.584  1.00  0.00     0.064 A 
ATOM     85  C   UNL A   1      43.772  27.081  35.263  1.00  0.00     0.173 A 
ATOM     86  C   UNL A   1      45.285  28.744  34.412  1.00  0.00     0.173 A 
ATOM     87  F   UNL A   1      42.531  26.613  35.466  1.00  0.00    -0.203 F 
ATOM     88  C   UNL A   1      44.852  26.365  35.773  1.00  0.00     0.198 A 
ATOM     89  C   UNL A   1      46.365  28.007  34.892  1.00  0.00     0.198 A 
ATOM     90  F   UNL A   1      45.530  29.893  33.764  1.00  0.00    -0.203 F 
ATOM     91  F   UNL A   1      44.637  25.237  36.465  1.00  0.00    -0.200 F 
ATOM     92  C   UNL A   1      46.146  26.823  35.580  1.00  0.00     0.200 A 
ATOM     93  F   UNL A   1      47.615  28.443  34.688  1.00  0.00    -0.200 F 
ATOM     94  F   UNL A   1      47.184  26.126  36.064  1.00  0.00    -0.200 F 
ENDBRANCH  61  84
ENDBRANCH  35  36
ENDBRANCH  27  30
ENDBRANCH  25  26
ENDBRANCH  24  25
ENDBRANCH   1  24
TORSDOF 14
ENDMDL
