MODEL 1
REMARK VINA RESULT:     -14.6      0.000      0.000
REMARK SMILES Cc1ccc(S(=O)(=O)N2c3ccc(C(=O)NCCCCNC(=O)c4ccc(-c5c6nc(c(-c7c(F)c(F)c(F)c(F)c7F)c7ccc([nH]7)c(-c7c(F)c(F)c(F)c(F)c7F)c7nc(c(-c8c(F)c(F)c(F)c(F)c8F)c8ccc5[nH]8)C=C7)C=C6)cc4)cc3C[C@H]2C)cc1
REMARK SMILES IDX 18 1 17 2 16 3 14 4 15 5 13 7 9 8 10 9 90 10 11 11 88 12
REMARK SMILES IDX 89 13 91 14 12 15 87 16 6 17 7 18 8 19 5 20 1 21 2 22 3 23
REMARK SMILES IDX 93 24 4 25 92 26 19 27 20 28 21 29 22 30 23 32 24 33 25 34
REMARK SMILES IDX 86 35 26 36 85 37 27 38 28 39 29 40 79 41 30 42 84 43 78 44
REMARK SMILES IDX 80 45 31 46 83 47 77 48 76 49 32 51 64 52 44 53 63 54 45 55
REMARK SMILES IDX 48 56 62 57 81 58 46 59 47 60 61 62 82 63 49 64 33 65 34 66
REMARK SMILES IDX 42 67 35 68 36 69 40 70 43 71 37 72 38 73 41 74 39 75 65 76
REMARK SMILES IDX 66 77 74 78 67 79 68 80 72 81 75 82 69 83 70 84 73 85 71 86
REMARK SMILES IDX 50 87 51 88 59 89 52 90 53 91 57 92 60 93 54 94 55 95 58 96
REMARK SMILES IDX 56 97
REMARK H PARENT 16 6 21 31 80 50 48 61
REMARK Flexibility Score: inf
ROOT
ATOM      1  C   UNL A   1      31.758  29.532  26.365  1.00  0.00     0.023 C 
ENDROOT
BRANCH   1   2
ATOM      2  C   UNL A   1      31.477  29.426  24.866  1.00  0.00     0.116 C 
BRANCH   2   3
ATOM      3  N   UNL A   1      32.656  29.548  24.017  1.00  0.00    -0.352 N 
ATOM      4  C   UNL A   1      33.455  28.598  23.419  1.00  0.00     0.251 C 
ATOM      5  O   UNL A   1      34.444  28.966  22.788  1.00  0.00    -0.269 OA
ATOM      6  H   UNL A   1      32.931  30.478  23.839  1.00  0.00     0.163 HD
BRANCH   4   7
ATOM      7  C   UNL A   1      33.188  27.144  23.569  1.00  0.00     0.040 A 
ATOM      8  N   UNL A   1      31.964  23.188  24.359  1.00  0.00    -0.263 N 
ATOM      9  C   UNL A   1      32.420  24.498  23.938  1.00  0.00     0.055 A 
ATOM     10  C   UNL A   1      32.100  23.208  25.874  1.00  0.00     0.101 C 
ATOM     11  C   UNL A   1      32.415  25.023  22.660  1.00  0.00     0.028 A 
ATOM     12  C   UNL A   1      32.892  25.251  25.010  1.00  0.00    -0.021 A 
ATOM     13  C   UNL A   1      33.005  24.407  26.233  1.00  0.00     0.063 C 
ATOM     14  C   UNL A   1      30.707  23.407  26.484  1.00  0.00     0.032 C 
ATOM     15  C   UNL A   1      32.876  26.327  22.472  1.00  0.00     0.016 A 
ATOM     16  C   UNL A   1      33.262  26.581  24.851  1.00  0.00     0.019 A 
BRANCH   8  17
ATOM     17  S   UNL A   1      32.767  21.923  23.507  1.00  0.00     0.264 S 
ATOM     18  O   UNL A   1      32.813  22.301  22.109  1.00  0.00    -0.201 OA
ATOM     19  O   UNL A   1      32.162  20.667  23.915  1.00  0.00    -0.201 OA
BRANCH  17  20
ATOM     20  C   UNL A   1      34.463  21.796  24.044  1.00  0.00     0.088 A 
ATOM     21  C   UNL A   1      38.460  22.127  25.613  1.00  0.00     0.044 C 
ATOM     22  C   UNL A   1      37.089  21.973  25.025  1.00  0.00    -0.051 A 
ATOM     23  C   UNL A   1      36.632  22.890  24.074  1.00  0.00     0.005 A 
ATOM     24  C   UNL A   1      36.249  20.926  25.418  1.00  0.00     0.005 A 
ATOM     25  C   UNL A   1      35.328  22.803  23.589  1.00  0.00     0.022 A 
ATOM     26  C   UNL A   1      34.941  20.833  24.926  1.00  0.00     0.022 A 
ENDBRANCH  17  20
ENDBRANCH   8  17
ENDBRANCH   4   7
ENDBRANCH   2   3
ENDBRANCH   1   2
BRANCH   1  27
ATOM     27  C   UNL A   1      32.536  30.761  26.818  1.00  0.00     0.023 C 
BRANCH  27  28
ATOM     28  C   UNL A   1      33.953  30.484  27.294  1.00  0.00     0.116 C 
BRANCH  28  29
ATOM     29  N   UNL A   1      34.489  31.422  28.270  1.00  0.00    -0.352 N 
ATOM     30  C   UNL A   1      35.549  31.279  29.153  1.00  0.00     0.251 C 
ATOM     31  H   UNL A   1      34.027  32.291  28.310  1.00  0.00     0.163 HD
ATOM     32  O   UNL A   1      35.762  32.151  29.981  1.00  0.00    -0.269 OA
BRANCH  30  33
ATOM     33  C   UNL A   1      36.508  30.145  29.016  1.00  0.00     0.039 A 
ATOM     34  C   UNL A   1      36.734  29.322  30.131  1.00  0.00     0.014 A 
ATOM     35  C   UNL A   1      37.300  29.987  27.886  1.00  0.00     0.014 A 
ATOM     36  C   UNL A   1      37.889  28.540  30.193  1.00  0.00     0.010 A 
ATOM     37  C   UNL A   1      38.502  29.326  27.992  1.00  0.00     0.010 A 
ATOM     38  C   UNL A   1      38.822  28.644  29.166  1.00  0.00    -0.014 A 
BRANCH  38  39
ATOM     39  C   UNL A   1      40.197  28.176  29.251  1.00  0.00     0.031 A 
ATOM     40  C   UNL A   1      40.577  26.851  28.719  1.00  0.00     0.074 A 
ATOM     41  C   UNL A   1      41.151  29.049  29.646  1.00  0.00     0.049 A 
ATOM     42  N   UNL A   1      41.638  26.211  29.079  1.00  0.00    -0.248 NA
ATOM     43  C   UNL A   1      39.777  26.129  27.735  1.00  0.00     0.031 C 
ATOM     44  C   UNL A   1      42.596  28.917  29.482  1.00  0.00     0.029 A 
ATOM     45  N   UNL A   1      40.996  30.192  30.450  1.00  0.00    -0.354 N 
ATOM     46  C   UNL A   1      41.812  25.170  28.199  1.00  0.00     0.074 A 
ATOM     47  C   UNL A   1      40.597  25.122  27.418  1.00  0.00     0.031 C 
ATOM     48  C   UNL A   1      43.207  29.710  30.376  1.00  0.00     0.029 A 
ATOM     49  C   UNL A   1      42.172  30.261  31.233  1.00  0.00     0.049 A 
ATOM     50  H   UNL A   1      40.231  30.812  30.464  1.00  0.00     0.167 HD
ATOM     51  C   UNL A   1      43.020  24.545  28.125  1.00  0.00     0.037 A 
ATOM     52  C   UNL A   1      42.127  30.120  32.589  1.00  0.00     0.037 A 
ATOM     53  C   UNL A   1      43.972  25.115  29.069  1.00  0.00     0.049 A 
ATOM     54  C   UNL A   1      42.932  28.951  33.107  1.00  0.00     0.074 A 
ATOM     55  C   UNL A   1      44.967  26.070  28.928  1.00  0.00     0.029 A 
ATOM     56  N   UNL A   1      43.751  24.977  30.435  1.00  0.00    -0.354 N 
ATOM     57  N   UNL A   1      43.302  27.943  32.368  1.00  0.00    -0.248 NA
ATOM     58  C   UNL A   1      43.371  28.816  34.493  1.00  0.00     0.031 C 
ATOM     59  C   UNL A   1      45.312  26.542  30.216  1.00  0.00     0.029 A 
ATOM     60  C   UNL A   1      44.545  25.859  31.143  1.00  0.00     0.049 A 
ATOM     61  H   UNL A   1      43.119  24.340  30.840  1.00  0.00     0.167 HD
ATOM     62  C   UNL A   1      44.007  27.048  33.129  1.00  0.00     0.074 A 
ATOM     63  C   UNL A   1      44.031  27.643  34.451  1.00  0.00     0.031 C 
ATOM     64  C   UNL A   1      44.513  25.896  32.595  1.00  0.00     0.037 A 
BRANCH  51  65
ATOM     65  C   UNL A   1      43.395  23.634  26.985  1.00  0.00     0.064 A 
ATOM     66  C   UNL A   1      42.981  22.286  26.954  1.00  0.00     0.173 A 
ATOM     67  C   UNL A   1      44.209  24.033  25.908  1.00  0.00     0.173 A 
ATOM     68  F   UNL A   1      42.134  21.791  27.865  1.00  0.00    -0.203 F 
ATOM     69  C   UNL A   1      43.436  21.384  25.989  1.00  0.00     0.198 A 
ATOM     70  C   UNL A   1      44.708  23.121  24.973  1.00  0.00     0.198 A 
ATOM     71  F   UNL A   1      44.523  25.324  25.726  1.00  0.00    -0.203 F 
ATOM     72  F   UNL A   1      43.019  20.111  26.018  1.00  0.00    -0.200 F 
ATOM     73  C   UNL A   1      44.330  21.793  25.020  1.00  0.00     0.200 A 
ATOM     74  F   UNL A   1      45.566  23.536  24.030  1.00  0.00    -0.200 F 
ATOM     75  F   UNL A   1      44.810  20.917  24.128  1.00  0.00    -0.200 F 
ENDBRANCH  51  65
BRANCH  52  76
ATOM     76  C   UNL A   1      40.864  30.638  33.178  1.00  0.00     0.064 A 
ATOM     77  C   UNL A   1      40.684  32.037  33.214  1.00  0.00     0.173 A 
ATOM     78  C   UNL A   1      39.723  29.838  33.295  1.00  0.00     0.173 A 
ATOM     79  F   UNL A   1      41.747  32.850  33.102  1.00  0.00    -0.203 F 
ATOM     80  C   UNL A   1      39.412  32.604  33.228  1.00  0.00     0.198 A 
ATOM     81  C   UNL A   1      38.448  30.412  33.327  1.00  0.00     0.198 A 
ATOM     82  F   UNL A   1      39.826  28.501  33.248  1.00  0.00    -0.203 F 
ATOM     83  F   UNL A   1      39.272  33.934  33.132  1.00  0.00    -0.200 F 
ATOM     84  C   UNL A   1      38.294  31.789  33.255  1.00  0.00     0.200 A 
ATOM     85  F   UNL A   1      37.363  29.624  33.327  1.00  0.00    -0.200 F 
ATOM     86  F   UNL A   1      37.069  32.327  33.167  1.00  0.00    -0.200 F 
ENDBRANCH  52  76
BRANCH  64  87
ATOM     87  C   UNL A   1      45.118  24.735  33.348  1.00  0.00     0.064 A 
ATOM     88  C   UNL A   1      44.427  23.552  33.653  1.00  0.00     0.173 A 
ATOM     89  C   UNL A   1      46.503  24.725  33.649  1.00  0.00     0.173 A 
ATOM     90  F   UNL A   1      43.140  23.391  33.323  1.00  0.00    -0.203 F 
ATOM     91  C   UNL A   1      45.062  22.461  34.256  1.00  0.00     0.198 A 
ATOM     92  C   UNL A   1      47.145  23.614  34.195  1.00  0.00     0.198 A 
ATOM     93  F   UNL A   1      47.288  25.783  33.396  1.00  0.00    -0.203 F 
ATOM     94  F   UNL A   1      44.351  21.367  34.560  1.00  0.00    -0.200 F 
ATOM     95  C   UNL A   1      46.421  22.486  34.511  1.00  0.00     0.200 A 
ATOM     96  F   UNL A   1      48.472  23.639  34.387  1.00  0.00    -0.200 F 
ATOM     97  F   UNL A   1      47.033  21.418  35.040  1.00  0.00    -0.200 F 
ENDBRANCH  64  87
ENDBRANCH  38  39
ENDBRANCH  30  33
ENDBRANCH  28  29
ENDBRANCH  27  28
ENDBRANCH   1  27
TORSDOF 13
ENDMDL
MODEL 2
REMARK VINA RESULT:     -14.4      3.485      9.826
REMARK SMILES Cc1ccc(S(=O)(=O)N2c3ccc(C(=O)NCCCCNC(=O)c4ccc(-c5c6nc(c(-c7c(F)c(F)c(F)c(F)c7F)c7ccc([nH]7)c(-c7c(F)c(F)c(F)c(F)c7F)c7nc(c(-c8c(F)c(F)c(F)c(F)c8F)c8ccc5[nH]8)C=C7)C=C6)cc4)cc3C[C@H]2C)cc1
REMARK SMILES IDX 18 1 17 2 16 3 14 4 15 5 13 7 9 8 10 9 90 10 11 11 88 12
REMARK SMILES IDX 89 13 91 14 12 15 87 16 6 17 7 18 8 19 5 20 1 21 2 22 3 23
REMARK SMILES IDX 93 24 4 25 92 26 19 27 20 28 21 29 22 30 23 32 24 33 25 34
REMARK SMILES IDX 86 35 26 36 85 37 27 38 28 39 29 40 79 41 30 42 84 43 78 44
REMARK SMILES IDX 80 45 31 46 83 47 77 48 76 49 32 51 64 52 44 53 63 54 45 55
REMARK SMILES IDX 48 56 62 57 81 58 46 59 47 60 61 62 82 63 49 64 33 65 34 66
REMARK SMILES IDX 42 67 35 68 36 69 40 70 43 71 37 72 38 73 41 74 39 75 65 76
REMARK SMILES IDX 66 77 74 78 67 79 68 80 72 81 75 82 69 83 70 84 73 85 71 86
REMARK SMILES IDX 50 87 51 88 59 89 52 90 53 91 57 92 60 93 54 94 55 95 58 96
REMARK SMILES IDX 56 97
REMARK H PARENT 16 6 21 31 80 50 48 61
REMARK Flexibility Score: inf
ROOT
ATOM      1  C   UNL A   1      36.215  21.518  24.430  1.00  0.00     0.023 C 
ENDROOT
BRANCH   1   2
ATOM      2  C   UNL A   1      35.057  20.752  25.072  1.00  0.00     0.116 C 
BRANCH   2   3
ATOM      3  N   UNL A   1      34.817  21.078  26.473  1.00  0.00    -0.352 N 
ATOM      4  C   UNL A   1      34.072  22.075  27.065  1.00  0.00     0.251 C 
ATOM      5  O   UNL A   1      34.080  22.171  28.291  1.00  0.00    -0.269 OA
ATOM      6  H   UNL A   1      35.269  20.478  27.110  1.00  0.00     0.163 HD
BRANCH   4   7
ATOM      7  C   UNL A   1      33.315  23.069  26.262  1.00  0.00     0.040 A 
ATOM      8  N   UNL A   1      31.427  25.626  23.492  1.00  0.00    -0.263 N 
ATOM      9  C   UNL A   1      31.939  24.753  24.530  1.00  0.00     0.055 A 
ATOM     10  C   UNL A   1      32.671  26.206  22.836  1.00  0.00     0.101 C 
ATOM     11  C   UNL A   1      31.219  23.918  25.362  1.00  0.00     0.028 A 
ATOM     12  C   UNL A   1      33.327  24.819  24.624  1.00  0.00    -0.021 A 
ATOM     13  C   UNL A   1      33.854  25.937  23.791  1.00  0.00     0.063 C 
ATOM     14  C   UNL A   1      32.901  25.481  21.504  1.00  0.00     0.032 C 
ATOM     15  C   UNL A   1      31.914  23.132  26.283  1.00  0.00     0.016 A 
ATOM     16  C   UNL A   1      34.035  23.974  25.469  1.00  0.00     0.019 A 
BRANCH   8  17
ATOM     17  S   UNL A   1      30.261  26.737  24.105  1.00  0.00     0.264 S 
ATOM     18  O   UNL A   1      29.373  25.999  24.981  1.00  0.00    -0.201 OA
ATOM     19  O   UNL A   1      29.732  27.484  22.976  1.00  0.00    -0.201 OA
BRANCH  17  20
ATOM     20  C   UNL A   1      31.055  27.967  25.121  1.00  0.00     0.088 A 
ATOM     21  C   UNL A   1      33.497  30.480  27.626  1.00  0.00     0.044 C 
ATOM     22  C   UNL A   1      32.597  29.634  26.774  1.00  0.00    -0.051 A 
ATOM     23  C   UNL A   1      32.170  28.388  27.239  1.00  0.00     0.005 A 
ATOM     24  C   UNL A   1      32.181  30.069  25.512  1.00  0.00     0.005 A 
ATOM     25  C   UNL A   1      31.405  27.559  26.418  1.00  0.00     0.022 A 
ATOM     26  C   UNL A   1      31.407  29.241  24.688  1.00  0.00     0.022 A 
ENDBRANCH  17  20
ENDBRANCH   8  17
ENDBRANCH   4   7
ENDBRANCH   2   3
ENDBRANCH   1   2
BRANCH   1  27
ATOM     27  C   UNL A   1      37.595  21.273  25.025  1.00  0.00     0.023 C 
BRANCH  27  28
ATOM     28  C   UNL A   1      38.193  22.458  25.768  1.00  0.00     0.116 C 
BRANCH  28  29
ATOM     29  N   UNL A   1      39.603  22.343  26.114  1.00  0.00    -0.352 N 
ATOM     30  C   UNL A   1      40.505  23.322  26.501  1.00  0.00     0.251 C 
ATOM     31  H   UNL A   1      39.971  21.432  26.063  1.00  0.00     0.163 HD
ATOM     32  O   UNL A   1      41.685  23.033  26.631  1.00  0.00    -0.269 OA
BRANCH  30  33
ATOM     33  C   UNL A   1      40.035  24.683  26.892  1.00  0.00     0.039 A 
ATOM     34  C   UNL A   1      40.517  25.788  26.173  1.00  0.00     0.014 A 
ATOM     35  C   UNL A   1      39.280  24.897  28.037  1.00  0.00     0.014 A 
ATOM     36  C   UNL A   1      40.452  27.064  26.736  1.00  0.00     0.010 A 
ATOM     37  C   UNL A   1      39.329  26.124  28.658  1.00  0.00     0.010 A 
ATOM     38  C   UNL A   1      39.962  27.198  28.031  1.00  0.00    -0.014 A 
BRANCH  38  39
ATOM     39  C   UNL A   1      40.150  28.374  28.867  1.00  0.00     0.031 A 
ATOM     40  C   UNL A   1      39.103  29.413  28.953  1.00  0.00     0.074 A 
ATOM     41  C   UNL A   1      41.207  28.404  29.708  1.00  0.00     0.049 A 
ATOM     42  N   UNL A   1      39.324  30.624  29.340  1.00  0.00    -0.248 NA
ATOM     43  C   UNL A   1      37.709  29.170  28.596  1.00  0.00     0.031 C 
ATOM     44  C   UNL A   1      41.405  29.290  30.852  1.00  0.00     0.029 A 
ATOM     45  N   UNL A   1      42.429  27.719  29.584  1.00  0.00    -0.354 N 
ATOM     46  C   UNL A   1      38.103  31.219  29.556  1.00  0.00     0.074 A 
ATOM     47  C   UNL A   1      37.128  30.297  29.022  1.00  0.00     0.031 C 
ATOM     48  C   UNL A   1      42.716  29.340  31.138  1.00  0.00     0.029 A 
ATOM     49  C   UNL A   1      43.408  28.604  30.095  1.00  0.00     0.049 A 
ATOM     50  H   UNL A   1      42.573  26.816  29.219  1.00  0.00     0.167 HD
ATOM     51  C   UNL A   1      38.034  32.364  30.290  1.00  0.00     0.037 A 
ATOM     52  C   UNL A   1      44.381  29.121  29.291  1.00  0.00     0.037 A 
ATOM     53  C   UNL A   1      39.354  32.796  30.729  1.00  0.00     0.049 A 
ATOM     54  C   UNL A   1      44.363  30.629  29.204  1.00  0.00     0.074 A 
ATOM     55  C   UNL A   1      40.049  32.616  31.915  1.00  0.00     0.029 A 
ATOM     56  N   UNL A   1      40.288  33.212  29.786  1.00  0.00    -0.354 N 
ATOM     57  N   UNL A   1      43.326  31.358  29.508  1.00  0.00    -0.248 NA
ATOM     58  C   UNL A   1      45.497  31.432  28.758  1.00  0.00     0.031 C 
ATOM     59  C   UNL A   1      41.417  32.880  31.671  1.00  0.00     0.029 A 
ATOM     60  C   UNL A   1      41.553  33.243  30.343  1.00  0.00     0.049 A 
ATOM     61  H   UNL A   1      40.079  33.451  28.854  1.00  0.00     0.167 HD
ATOM     62  C   UNL A   1      43.622  32.683  29.317  1.00  0.00     0.074 A 
ATOM     63  C   UNL A   1      44.997  32.678  28.854  1.00  0.00     0.031 C 
ATOM     64  C   UNL A   1      42.705  33.665  29.564  1.00  0.00     0.037 A 
BRANCH  51  65
ATOM     65  C   UNL A   1      36.738  32.895  30.846  1.00  0.00     0.064 A 
ATOM     66  C   UNL A   1      35.902  33.739  30.084  1.00  0.00     0.173 A 
ATOM     67  C   UNL A   1      36.291  32.636  32.155  1.00  0.00     0.173 A 
ATOM     68  F   UNL A   1      36.156  34.001  28.797  1.00  0.00    -0.203 F 
ATOM     69  C   UNL A   1      34.775  34.362  30.625  1.00  0.00     0.198 A 
ATOM     70  C   UNL A   1      35.193  33.300  32.713  1.00  0.00     0.198 A 
ATOM     71  F   UNL A   1      36.897  31.714  32.918  1.00  0.00    -0.203 F 
ATOM     72  F   UNL A   1      34.025  35.164  29.857  1.00  0.00    -0.200 F 
ATOM     73  C   UNL A   1      34.442  34.172  31.951  1.00  0.00     0.200 A 
ATOM     74  F   UNL A   1      34.876  33.095  33.999  1.00  0.00    -0.200 F 
ATOM     75  F   UNL A   1      33.393  34.811  32.485  1.00  0.00    -0.200 F 
ENDBRANCH  51  65
BRANCH  52  76
ATOM     76  C   UNL A   1      44.782  28.189  28.204  1.00  0.00     0.064 A 
ATOM     77  C   UNL A   1      45.529  27.048  28.562  1.00  0.00     0.173 A 
ATOM     78  C   UNL A   1      44.117  28.166  26.973  1.00  0.00     0.173 A 
ATOM     79  F   UNL A   1      46.182  27.018  29.734  1.00  0.00    -0.203 F 
ATOM     80  C   UNL A   1      45.501  25.891  27.787  1.00  0.00     0.198 A 
ATOM     81  C   UNL A   1      44.106  27.008  26.190  1.00  0.00     0.198 A 
ATOM     82  F   UNL A   1      43.373  29.213  26.584  1.00  0.00    -0.203 F 
ATOM     83  F   UNL A   1      46.118  24.782  28.219  1.00  0.00    -0.200 F 
ATOM     84  C   UNL A   1      44.764  25.863  26.615  1.00  0.00     0.200 A 
ATOM     85  F   UNL A   1      43.373  26.970  25.067  1.00  0.00    -0.200 F 
ATOM     86  F   UNL A   1      44.652  24.722  25.920  1.00  0.00    -0.200 F 
ENDBRANCH  52  76
BRANCH  64  87
ATOM     87  C   UNL A   1      42.819  35.127  29.202  1.00  0.00     0.064 A 
ATOM     88  C   UNL A   1      42.234  35.702  28.063  1.00  0.00     0.173 A 
ATOM     89  C   UNL A   1      43.409  36.042  30.111  1.00  0.00     0.173 A 
ATOM     90  F   UNL A   1      41.553  34.962  27.180  1.00  0.00    -0.203 F 
ATOM     91  C   UNL A   1      42.276  37.080  27.829  1.00  0.00     0.198 A 
ATOM     92  C   UNL A   1      43.396  37.420  29.903  1.00  0.00     0.198 A 
ATOM     93  F   UNL A   1      43.991  35.631  31.247  1.00  0.00    -0.203 F 
ATOM     94  F   UNL A   1      41.733  37.577  26.709  1.00  0.00    -0.200 F 
ATOM     95  C   UNL A   1      42.841  37.938  28.754  1.00  0.00     0.200 A 
ATOM     96  F   UNL A   1      43.902  38.239  30.836  1.00  0.00    -0.200 F 
ATOM     97  F   UNL A   1      42.831  39.263  28.548  1.00  0.00    -0.200 F 
ENDBRANCH  64  87
ENDBRANCH  38  39
ENDBRANCH  30  33
ENDBRANCH  28  29
ENDBRANCH  27  28
ENDBRANCH   1  27
TORSDOF 13
ENDMDL
MODEL 3
REMARK VINA RESULT:     -14.4      1.206      1.836
REMARK SMILES Cc1ccc(S(=O)(=O)N2c3ccc(C(=O)NCCCCNC(=O)c4ccc(-c5c6nc(c(-c7c(F)c(F)c(F)c(F)c7F)c7ccc([nH]7)c(-c7c(F)c(F)c(F)c(F)c7F)c7nc(c(-c8c(F)c(F)c(F)c(F)c8F)c8ccc5[nH]8)C=C7)C=C6)cc4)cc3C[C@H]2C)cc1
REMARK SMILES IDX 18 1 17 2 16 3 14 4 15 5 13 7 9 8 10 9 90 10 11 11 88 12
REMARK SMILES IDX 89 13 91 14 12 15 87 16 6 17 7 18 8 19 5 20 1 21 2 22 3 23
REMARK SMILES IDX 93 24 4 25 92 26 19 27 20 28 21 29 22 30 23 32 24 33 25 34
REMARK SMILES IDX 86 35 26 36 85 37 27 38 28 39 29 40 79 41 30 42 84 43 78 44
REMARK SMILES IDX 80 45 31 46 83 47 77 48 76 49 32 51 64 52 44 53 63 54 45 55
REMARK SMILES IDX 48 56 62 57 81 58 46 59 47 60 61 62 82 63 49 64 33 65 34 66
REMARK SMILES IDX 42 67 35 68 36 69 40 70 43 71 37 72 38 73 41 74 39 75 65 76
REMARK SMILES IDX 66 77 74 78 67 79 68 80 72 81 75 82 69 83 70 84 73 85 71 86
REMARK SMILES IDX 50 87 51 88 59 89 52 90 53 91 57 92 60 93 54 94 55 95 58 96
REMARK SMILES IDX 56 97
REMARK H PARENT 16 6 21 31 80 50 48 61
REMARK Flexibility Score: inf
ROOT
ATOM      1  C   UNL A   1      31.820  29.665  26.044  1.00  0.00     0.023 C 
ENDROOT
BRANCH   1   2
ATOM      2  C   UNL A   1      32.312  29.543  24.602  1.00  0.00     0.116 C 
BRANCH   2   3
ATOM      3  N   UNL A   1      31.264  29.281  23.623  1.00  0.00    -0.352 N 
ATOM      4  C   UNL A   1      30.775  28.103  23.100  1.00  0.00     0.251 C 
ATOM      5  O   UNL A   1      29.911  28.156  22.227  1.00  0.00    -0.269 OA
ATOM      6  H   UNL A   1      30.827  30.091  23.273  1.00  0.00     0.163 HD
BRANCH   4   7
ATOM      7  C   UNL A   1      31.308  26.781  23.516  1.00  0.00     0.040 A 
ATOM      8  N   UNL A   1      33.375  23.260  24.570  1.00  0.00    -0.263 N 
ATOM      9  C   UNL A   1      32.563  24.437  24.330  1.00  0.00     0.055 A 
ATOM     10  C   UNL A   1      34.065  22.997  23.240  1.00  0.00     0.101 C 
ATOM     11  C   UNL A   1      31.804  25.140  25.245  1.00  0.00     0.028 A 
ATOM     12  C   UNL A   1      32.622  24.843  22.999  1.00  0.00    -0.021 A 
ATOM     13  C   UNL A   1      33.312  23.816  22.169  1.00  0.00     0.063 C 
ATOM     14  C   UNL A   1      35.517  23.482  23.342  1.00  0.00     0.032 C 
ATOM     15  C   UNL A   1      31.113  26.272  24.810  1.00  0.00     0.016 A 
ATOM     16  C   UNL A   1      32.018  26.021  22.576  1.00  0.00     0.019 A 
BRANCH   8  17
ATOM     17  S   UNL A   1      32.454  21.974  25.255  1.00  0.00     0.264 S 
ATOM     18  O   UNL A   1      31.067  22.192  24.897  1.00  0.00    -0.201 OA
ATOM     19  O   UNL A   1      32.848  21.846  26.647  1.00  0.00    -0.201 OA
BRANCH  17  20
ATOM     20  C   UNL A   1      32.920  20.420  24.515  1.00  0.00     0.088 A 
ATOM     21  C   UNL A   1      34.025  16.415  23.382  1.00  0.00     0.044 C 
ATOM     22  C   UNL A   1      33.668  17.830  23.727  1.00  0.00    -0.051 A 
ATOM     23  C   UNL A   1      34.480  18.558  24.601  1.00  0.00     0.005 A 
ATOM     24  C   UNL A   1      32.527  18.437  23.193  1.00  0.00     0.005 A 
ATOM     25  C   UNL A   1      34.107  19.844  24.993  1.00  0.00     0.022 A 
ATOM     26  C   UNL A   1      32.155  19.730  23.580  1.00  0.00     0.022 A 
ENDBRANCH  17  20
ENDBRANCH   8  17
ENDBRANCH   4   7
ENDBRANCH   2   3
ENDBRANCH   1   2
BRANCH   1  27
ATOM     27  C   UNL A   1      32.462  30.760  26.885  1.00  0.00     0.023 C 
BRANCH  27  28
ATOM     28  C   UNL A   1      33.862  30.445  27.390  1.00  0.00     0.116 C 
BRANCH  28  29
ATOM     29  N   UNL A   1      34.434  31.410  28.317  1.00  0.00    -0.352 N 
ATOM     30  C   UNL A   1      35.540  31.299  29.146  1.00  0.00     0.251 C 
ATOM     31  H   UNL A   1      33.963  32.273  28.362  1.00  0.00     0.163 HD
ATOM     32  O   UNL A   1      35.783  32.191  29.944  1.00  0.00    -0.269 OA
BRANCH  30  33
ATOM     33  C   UNL A   1      36.506  30.174  28.983  1.00  0.00     0.039 A 
ATOM     34  C   UNL A   1      36.719  29.313  30.072  1.00  0.00     0.014 A 
ATOM     35  C   UNL A   1      37.315  30.060  27.861  1.00  0.00     0.014 A 
ATOM     36  C   UNL A   1      37.876  28.534  30.124  1.00  0.00     0.010 A 
ATOM     37  C   UNL A   1      38.518  29.399  27.961  1.00  0.00     0.010 A 
ATOM     38  C   UNL A   1      38.824  28.677  29.115  1.00  0.00    -0.014 A 
BRANCH  38  39
ATOM     39  C   UNL A   1      40.200  28.212  29.204  1.00  0.00     0.031 A 
ATOM     40  C   UNL A   1      40.584  26.888  28.672  1.00  0.00     0.074 A 
ATOM     41  C   UNL A   1      41.151  29.087  29.601  1.00  0.00     0.049 A 
ATOM     42  N   UNL A   1      41.645  26.250  29.035  1.00  0.00    -0.248 NA
ATOM     43  C   UNL A   1      39.787  26.164  27.686  1.00  0.00     0.031 C 
ATOM     44  C   UNL A   1      42.597  28.958  29.441  1.00  0.00     0.029 A 
ATOM     45  N   UNL A   1      40.991  30.229  30.404  1.00  0.00    -0.354 N 
ATOM     46  C   UNL A   1      41.823  25.209  28.155  1.00  0.00     0.074 A 
ATOM     47  C   UNL A   1      40.610  25.159  27.371  1.00  0.00     0.031 C 
ATOM     48  C   UNL A   1      43.203  29.752  30.336  1.00  0.00     0.029 A 
ATOM     49  C   UNL A   1      42.165  30.301  31.191  1.00  0.00     0.049 A 
ATOM     50  H   UNL A   1      40.225  30.848  30.417  1.00  0.00     0.167 HD
ATOM     51  C   UNL A   1      43.033  24.586  28.084  1.00  0.00     0.037 A 
ATOM     52  C   UNL A   1      42.117  30.160  32.547  1.00  0.00     0.037 A 
ATOM     53  C   UNL A   1      43.981  25.159  29.031  1.00  0.00     0.049 A 
ATOM     54  C   UNL A   1      42.923  28.993  33.067  1.00  0.00     0.074 A 
ATOM     55  C   UNL A   1      44.975  26.115  28.893  1.00  0.00     0.029 A 
ATOM     56  N   UNL A   1      43.756  25.020  30.397  1.00  0.00    -0.354 N 
ATOM     57  N   UNL A   1      43.296  27.985  32.329  1.00  0.00    -0.248 NA
ATOM     58  C   UNL A   1      43.358  28.858  34.454  1.00  0.00     0.031 C 
ATOM     59  C   UNL A   1      45.315  26.588  30.182  1.00  0.00     0.029 A 
ATOM     60  C   UNL A   1      44.547  25.903  31.106  1.00  0.00     0.049 A 
ATOM     61  H   UNL A   1      43.125  24.382  30.800  1.00  0.00     0.167 HD
ATOM     62  C   UNL A   1      44.002  27.092  33.091  1.00  0.00     0.074 A 
ATOM     63  C   UNL A   1      44.020  27.687  34.414  1.00  0.00     0.031 C 
ATOM     64  C   UNL A   1      44.511  25.941  32.559  1.00  0.00     0.037 A 
BRANCH  51  65
ATOM     65  C   UNL A   1      43.413  23.676  26.945  1.00  0.00     0.064 A 
ATOM     66  C   UNL A   1      42.978  22.335  26.901  1.00  0.00     0.173 A 
ATOM     67  C   UNL A   1      44.250  24.069  25.885  1.00  0.00     0.173 A 
ATOM     68  F   UNL A   1      42.109  21.848  27.794  1.00  0.00    -0.203 F 
ATOM     69  C   UNL A   1      43.436  21.432  25.938  1.00  0.00     0.198 A 
ATOM     70  C   UNL A   1      44.750  23.154  24.952  1.00  0.00     0.198 A 
ATOM     71  F   UNL A   1      44.586  25.356  25.715  1.00  0.00    -0.203 F 
ATOM     72  F   UNL A   1      42.999  20.165  25.953  1.00  0.00    -0.200 F 
ATOM     73  C   UNL A   1      44.351  21.832  24.986  1.00  0.00     0.200 A 
ATOM     74  F   UNL A   1      45.629  23.561  24.026  1.00  0.00    -0.200 F 
ATOM     75  F   UNL A   1      44.832  20.954  24.096  1.00  0.00    -0.200 F 
ENDBRANCH  51  65
BRANCH  52  76
ATOM     76  C   UNL A   1      40.852  30.676  33.132  1.00  0.00     0.064 A 
ATOM     77  C   UNL A   1      40.680  32.075  33.189  1.00  0.00     0.173 A 
ATOM     78  C   UNL A   1      39.705  29.880  33.225  1.00  0.00     0.173 A 
ATOM     79  F   UNL A   1      41.747  32.884  33.101  1.00  0.00    -0.203 F 
ATOM     80  C   UNL A   1      39.411  32.649  33.201  1.00  0.00     0.198 A 
ATOM     81  C   UNL A   1      38.433  30.461  33.254  1.00  0.00     0.198 A 
ATOM     82  F   UNL A   1      39.800  28.544  33.157  1.00  0.00    -0.203 F 
ATOM     83  F   UNL A   1      39.279  33.981  33.125  1.00  0.00    -0.200 F 
ATOM     84  C   UNL A   1      38.287  31.840  33.203  1.00  0.00     0.200 A 
ATOM     85  F   UNL A   1      37.344  29.680  33.232  1.00  0.00    -0.200 F 
ATOM     86  F   UNL A   1      37.066  32.387  33.113  1.00  0.00    -0.200 F 
ENDBRANCH  52  76
BRANCH  64  87
ATOM     87  C   UNL A   1      45.116  24.780  33.313  1.00  0.00     0.064 A 
ATOM     88  C   UNL A   1      44.410  23.620  33.667  1.00  0.00     0.173 A 
ATOM     89  C   UNL A   1      46.511  24.744  33.566  1.00  0.00     0.173 A 
ATOM     90  F   UNL A   1      43.108  23.483  33.386  1.00  0.00    -0.203 F 
ATOM     91  C   UNL A   1      45.042  22.527  34.269  1.00  0.00     0.198 A 
ATOM     92  C   UNL A   1      47.147  23.630  34.111  1.00  0.00     0.198 A 
ATOM     93  F   UNL A   1      47.309  25.779  33.264  1.00  0.00    -0.203 F 
ATOM     94  F   UNL A   1      44.317  21.456  34.620  1.00  0.00    -0.200 F 
ATOM     95  C   UNL A   1      46.409  22.525  34.476  1.00  0.00     0.200 A 
ATOM     96  F   UNL A   1      48.479  23.628  34.255  1.00  0.00    -0.200 F 
ATOM     97  F   UNL A   1      47.015  21.454  35.004  1.00  0.00    -0.200 F 
ENDBRANCH  64  87
ENDBRANCH  38  39
ENDBRANCH  30  33
ENDBRANCH  28  29
ENDBRANCH  27  28
ENDBRANCH   1  27
TORSDOF 13
ENDMDL
