MODEL 1
REMARK VINA RESULT:     -13.6      0.000      0.000
REMARK SMILES CC(C)(C)OC(=O)N1CCN(C(=O)c2ccc3c(c2)OCO3)[C@H](C(=O)NCCCCNC(=O)c2ccc(-c3c4nc(c(-c5c(F)c(F)c(F)c(F)c5F)c5ccc([nH]5)c(-c5c(F)c(F)c(F)c(F)c5F)c5nc(c(-c6c(F)c(F)c(F)c(F)c6F)c6ccc3[nH]6)C=C5)C=C4)cc2)C1
REMARK SMILES IDX 28 1 27 2 26 3 24 4 25 5 23 7 8 8 9 9 97 10 10 11 11 12 6 13
REMARK SMILES IDX 7 14 5 15 2 16 1 17 3 18 4 19 12 20 13 21 14 22 15 23 19 24
REMARK SMILES IDX 16 25 18 26 17 27 20 28 22 29 21 30 29 31 30 32 31 33 32 34
REMARK SMILES IDX 33 36 34 37 35 38 96 39 36 40 95 41 37 42 38 43 39 44 89 45
REMARK SMILES IDX 40 46 94 47 88 48 90 49 41 50 93 51 87 52 86 53 42 55 74 56
REMARK SMILES IDX 54 57 73 58 55 59 58 60 72 61 91 62 56 63 57 64 71 66 92 67
REMARK SMILES IDX 59 68 43 69 44 70 52 71 45 72 46 73 50 74 53 75 47 76 48 77
REMARK SMILES IDX 51 78 49 79 75 80 76 81 84 82 77 83 78 84 82 85 85 86 79 87
REMARK SMILES IDX 80 88 83 89 81 90 60 91 61 92 69 93 62 94 63 95 67 96 70 97
REMARK SMILES IDX 64 98 65 99 68 100 66 101
REMARK H PARENT 26 6 31 35 90 54 58 65
REMARK Flexibility Score: inf
ROOT
ATOM      1  C   UNL A   1      31.677  30.478  26.872  1.00  0.00     0.023 C 
ENDROOT
BRANCH   1   2
ATOM      2  C   UNL A   1      33.065  29.847  26.793  1.00  0.00     0.116 C 
BRANCH   2   3
ATOM      3  N   UNL A   1      33.533  29.707  25.426  1.00  0.00    -0.354 N 
ATOM      4  C   UNL A   1      33.170  28.791  24.480  1.00  0.00     0.244 C 
ATOM      5  O   UNL A   1      33.732  28.841  23.383  1.00  0.00    -0.273 OA
ATOM      6  H   UNL A   1      34.207  30.365  25.140  1.00  0.00     0.163 HD
BRANCH   4   7
ATOM      7  C   UNL A   1      32.109  27.727  24.807  1.00  0.00     0.194 C 
ATOM      8  N   UNL A   1      31.860  25.336  25.489  1.00  0.00    -0.304 N 
ATOM      9  C   UNL A   1      30.652  25.186  24.680  1.00  0.00     0.144 C 
ATOM     10  C   UNL A   1      32.808  26.364  25.036  1.00  0.00     0.158 C 
ATOM     11  C   UNL A   1      29.956  26.545  24.500  1.00  0.00     0.142 C 
ATOM     12  N   UNL A   1      30.888  27.545  23.950  1.00  0.00    -0.323 N 
BRANCH   8  13
ATOM     13  C   UNL A   1      32.070  24.482  26.555  1.00  0.00     0.410 C 
ATOM     14  O   UNL A   1      31.161  24.051  27.248  1.00  0.00    -0.224 OA
BRANCH  13  15
ATOM     15  O   UNL A   1      33.390  24.248  26.778  1.00  0.00    -0.444 OA
BRANCH  15  16
ATOM     16  C   UNL A   1      34.015  23.012  26.327  1.00  0.00     0.106 C 
ATOM     17  C   UNL A   1      34.036  22.097  27.563  1.00  0.00     0.056 C 
ATOM     18  C   UNL A   1      35.453  23.303  25.893  1.00  0.00     0.056 C 
ATOM     19  C   UNL A   1      33.233  22.278  25.226  1.00  0.00     0.056 C 
ENDBRANCH  15  16
ENDBRANCH  13  15
ENDBRANCH   8  13
BRANCH  12  20
ATOM     20  C   UNL A   1      30.509  28.152  22.752  1.00  0.00     0.254 C 
ATOM     21  O   UNL A   1      30.627  27.590  21.663  1.00  0.00    -0.269 OA
BRANCH  20  22
ATOM     22  C   UNL A   1      29.919  29.502  22.706  1.00  0.00     0.044 A 
ATOM     23  C   UNL A   1      29.724  30.254  23.880  1.00  0.00     0.018 A 
ATOM     24  C   UNL A   1      29.587  30.036  21.452  1.00  0.00     0.064 A 
ATOM     25  C   UNL A   1      29.066  31.488  23.820  1.00  0.00     0.051 A 
ATOM     26  C   UNL A   1      28.922  31.241  21.431  1.00  0.00     0.166 A 
ATOM     27  C   UNL A   1      28.650  31.937  22.586  1.00  0.00     0.165 A 
ATOM     28  O   UNL A   1      28.409  31.852  20.330  1.00  0.00    -0.454 OA
ATOM     29  O   UNL A   1      27.926  33.064  22.352  1.00  0.00    -0.454 OA
ATOM     30  C   UNL A   1      27.661  32.922  20.945  1.00  0.00     0.468 C 
ENDBRANCH  20  22
ENDBRANCH  12  20
ENDBRANCH   4   7
ENDBRANCH   2   3
ENDBRANCH   1   2
BRANCH   1  31
ATOM     31  C   UNL A   1      31.624  31.996  26.661  1.00  0.00     0.023 C 
BRANCH  31  32
ATOM     32  C   UNL A   1      32.773  32.793  27.271  1.00  0.00     0.116 C 
BRANCH  32  33
ATOM     33  N   UNL A   1      32.403  34.145  27.653  1.00  0.00    -0.352 N 
ATOM     34  C   UNL A   1      32.959  34.967  28.607  1.00  0.00     0.251 C 
ATOM     35  H   UNL A   1      31.643  34.529  27.158  1.00  0.00     0.163 HD
ATOM     36  O   UNL A   1      32.452  36.055  28.859  1.00  0.00    -0.269 OA
BRANCH  34  37
ATOM     37  C   UNL A   1      34.149  34.522  29.364  1.00  0.00     0.039 A 
ATOM     38  C   UNL A   1      33.978  33.974  30.636  1.00  0.00     0.014 A 
ATOM     39  C   UNL A   1      35.430  34.632  28.820  1.00  0.00     0.014 A 
ATOM     40  C   UNL A   1      35.079  33.453  31.323  1.00  0.00     0.010 A 
ATOM     41  C   UNL A   1      36.516  34.043  29.472  1.00  0.00     0.010 A 
ATOM     42  C   UNL A   1      36.352  33.434  30.726  1.00  0.00    -0.014 A 
BRANCH  42  43
ATOM     43  C   UNL A   1      37.500  32.747  31.384  1.00  0.00     0.031 A 
ATOM     44  C   UNL A   1      38.169  31.563  30.739  1.00  0.00     0.074 A 
ATOM     45  C   UNL A   1      37.905  33.147  32.608  1.00  0.00     0.049 A 
ATOM     46  N   UNL A   1      39.136  30.805  31.196  1.00  0.00    -0.248 NA
ATOM     47  C   UNL A   1      37.667  31.160  29.417  1.00  0.00     0.031 C 
ATOM     48  C   UNL A   1      37.315  34.245  33.375  1.00  0.00     0.029 A 
ATOM     49  N   UNL A   1      38.899  32.668  33.429  1.00  0.00    -0.354 N 
ATOM     50  C   UNL A   1      39.345  29.830  30.229  1.00  0.00     0.074 A 
ATOM     51  C   UNL A   1      38.370  30.061  29.185  1.00  0.00     0.031 C 
ATOM     52  C   UNL A   1      37.967  34.368  34.542  1.00  0.00     0.029 A 
ATOM     53  C   UNL A   1      38.989  33.330  34.630  1.00  0.00     0.049 A 
ATOM     54  H   UNL A   1      39.488  31.920  33.181  1.00  0.00     0.167 HD
ATOM     55  C   UNL A   1      40.276  28.846  30.205  1.00  0.00     0.037 A 
ATOM     56  C   UNL A   1      39.791  33.120  35.694  1.00  0.00     0.037 A 
ATOM     57  C   UNL A   1      41.263  28.631  31.233  1.00  0.00     0.049 A 
ATOM     58  C   UNL A   1      40.810  32.013  35.649  1.00  0.00     0.074 A 
ATOM     59  C   UNL A   1      42.298  27.712  31.253  1.00  0.00     0.029 A 
ATOM     60  N   UNL A   1      41.331  29.334  32.427  1.00  0.00    -0.354 N 
ATOM     61  N   UNL A   1      41.053  31.153  34.691  1.00  0.00    -0.248 NA
ATOM     62  C   UNL A   1      41.669  31.849  36.831  1.00  0.00     0.031 C 
ATOM     63  C   UNL A   1      42.947  27.808  32.488  1.00  0.00     0.029 A 
ATOM     64  C   UNL A   1      42.365  28.839  33.207  1.00  0.00     0.049 A 
ATOM     65  H   UNL A   1      40.734  30.073  32.682  1.00  0.00     0.167 HD
ATOM     66  C   UNL A   1      42.108  30.368  35.139  1.00  0.00     0.074 A 
ATOM     67  C   UNL A   1      42.466  30.859  36.452  1.00  0.00     0.031 C 
ATOM     68  C   UNL A   1      42.723  29.336  34.512  1.00  0.00     0.037 A 
BRANCH  55  69
ATOM     69  C   UNL A   1      40.269  27.907  29.030  1.00  0.00     0.064 A 
ATOM     70  C   UNL A   1      41.011  28.168  27.867  1.00  0.00     0.173 A 
ATOM     71  C   UNL A   1      39.544  26.706  29.085  1.00  0.00     0.173 A 
ATOM     72  F   UNL A   1      41.720  29.302  27.758  1.00  0.00    -0.203 F 
ATOM     73  C   UNL A   1      40.994  27.283  26.791  1.00  0.00     0.198 A 
ATOM     74  C   UNL A   1      39.560  25.807  28.023  1.00  0.00     0.198 A 
ATOM     75  F   UNL A   1      38.827  26.399  30.177  1.00  0.00    -0.203 F 
ATOM     76  F   UNL A   1      41.665  27.582  25.670  1.00  0.00    -0.200 F 
ATOM     77  C   UNL A   1      40.275  26.100  26.873  1.00  0.00     0.200 A 
ATOM     78  F   UNL A   1      38.879  24.655  28.112  1.00  0.00    -0.200 F 
ATOM     79  F   UNL A   1      40.266  25.247  25.840  1.00  0.00    -0.200 F 
ENDBRANCH  55  69
BRANCH  56  80
ATOM     80  C   UNL A   1      39.659  33.985  36.897  1.00  0.00     0.064 A 
ATOM     81  C   UNL A   1      38.864  33.598  37.985  1.00  0.00     0.173 A 
ATOM     82  C   UNL A   1      40.330  35.215  36.986  1.00  0.00     0.173 A 
ATOM     83  F   UNL A   1      38.185  32.443  37.940  1.00  0.00    -0.203 F 
ATOM     84  C   UNL A   1      38.732  34.414  39.108  1.00  0.00     0.198 A 
ATOM     85  C   UNL A   1      40.224  36.014  38.123  1.00  0.00     0.198 A 
ATOM     86  F   UNL A   1      41.108  35.630  35.976  1.00  0.00    -0.203 F 
ATOM     87  F   UNL A   1      37.931  34.040  40.115  1.00  0.00    -0.200 F 
ATOM     88  C   UNL A   1      39.419  35.617  39.179  1.00  0.00     0.200 A 
ATOM     89  F   UNL A   1      40.904  37.166  38.194  1.00  0.00    -0.200 F 
ATOM     90  F   UNL A   1      39.300  36.395  40.263  1.00  0.00    -0.200 F 
ENDBRANCH  56  80
BRANCH  68  91
ATOM     91  C   UNL A   1      43.879  28.680  35.214  1.00  0.00     0.064 A 
ATOM     92  C   UNL A   1      45.192  29.158  35.088  1.00  0.00     0.173 A 
ATOM     93  C   UNL A   1      43.658  27.597  36.081  1.00  0.00     0.173 A 
ATOM     94  F   UNL A   1      45.461  30.180  34.261  1.00  0.00    -0.203 F 
ATOM     95  C   UNL A   1      46.240  28.568  35.790  1.00  0.00     0.198 A 
ATOM     96  C   UNL A   1      44.703  27.031  36.806  1.00  0.00     0.198 A 
ATOM     97  F   UNL A   1      42.421  27.103  36.242  1.00  0.00    -0.203 F 
ATOM     98  F   UNL A   1      47.491  29.017  35.624  1.00  0.00    -0.200 F 
ATOM     99  C   UNL A   1      45.993  27.514  36.657  1.00  0.00     0.200 A 
ATOM    100  F   UNL A   1      44.458  26.023  37.655  1.00  0.00    -0.200 F 
ATOM    101  F   UNL A   1      47.001  26.960  37.346  1.00  0.00    -0.200 F 
ENDBRANCH  68  91
ENDBRANCH  42  43
ENDBRANCH  34  37
ENDBRANCH  32  33
ENDBRANCH  31  32
ENDBRANCH   1  31
TORSDOF 16
ENDMDL
MODEL 2
REMARK VINA RESULT:     -13.2      5.616     11.473
REMARK SMILES CC(C)(C)OC(=O)N1CCN(C(=O)c2ccc3c(c2)OCO3)[C@H](C(=O)NCCCCNC(=O)c2ccc(-c3c4nc(c(-c5c(F)c(F)c(F)c(F)c5F)c5ccc([nH]5)c(-c5c(F)c(F)c(F)c(F)c5F)c5nc(c(-c6c(F)c(F)c(F)c(F)c6F)c6ccc3[nH]6)C=C5)C=C4)cc2)C1
REMARK SMILES IDX 28 1 27 2 26 3 24 4 25 5 23 7 8 8 9 9 97 10 10 11 11 12 6 13
REMARK SMILES IDX 7 14 5 15 2 16 1 17 3 18 4 19 12 20 13 21 14 22 15 23 19 24
REMARK SMILES IDX 16 25 18 26 17 27 20 28 22 29 21 30 29 31 30 32 31 33 32 34
REMARK SMILES IDX 33 36 34 37 35 38 96 39 36 40 95 41 37 42 38 43 39 44 89 45
REMARK SMILES IDX 40 46 94 47 88 48 90 49 41 50 93 51 87 52 86 53 42 55 74 56
REMARK SMILES IDX 54 57 73 58 55 59 58 60 72 61 91 62 56 63 57 64 71 66 92 67
REMARK SMILES IDX 59 68 43 69 44 70 52 71 45 72 46 73 50 74 53 75 47 76 48 77
REMARK SMILES IDX 51 78 49 79 75 80 76 81 84 82 77 83 78 84 82 85 85 86 79 87
REMARK SMILES IDX 80 88 83 89 81 90 60 91 61 92 69 93 62 94 63 95 67 96 70 97
REMARK SMILES IDX 64 98 65 99 68 100 66 101
REMARK H PARENT 26 6 31 35 90 54 58 65
REMARK Flexibility Score: inf
ROOT
ATOM      1  C   UNL A   1      36.765  20.379  25.120  1.00  0.00     0.023 C 
ENDROOT
BRANCH   1   2
ATOM      2  C   UNL A   1      36.475  21.822  25.530  1.00  0.00     0.116 C 
BRANCH   2   3
ATOM      3  N   UNL A   1      35.618  21.902  26.699  1.00  0.00    -0.354 N 
ATOM      4  C   UNL A   1      34.441  22.576  26.861  1.00  0.00     0.244 C 
ATOM      5  O   UNL A   1      33.899  22.531  27.968  1.00  0.00    -0.273 OA
ATOM      6  H   UNL A   1      35.929  21.400  27.487  1.00  0.00     0.163 HD
BRANCH   4   7
ATOM      7  C   UNL A   1      33.847  23.379  25.691  1.00  0.00     0.194 C 
ATOM      8  N   UNL A   1      33.056  25.667  25.071  1.00  0.00    -0.304 N 
ATOM      9  C   UNL A   1      31.997  25.118  24.227  1.00  0.00     0.144 C 
ATOM     10  C   UNL A   1      33.499  24.808  26.179  1.00  0.00     0.158 C 
ATOM     11  C   UNL A   1      32.384  23.717  23.724  1.00  0.00     0.142 C 
ATOM     12  N   UNL A   1      32.730  22.831  24.850  1.00  0.00    -0.323 N 
BRANCH   8  13
ATOM     13  C   UNL A   1      33.514  26.948  24.833  1.00  0.00     0.410 C 
ATOM     14  O   UNL A   1      33.863  27.333  23.728  1.00  0.00    -0.224 OA
BRANCH  13  15
ATOM     15  O   UNL A   1      33.600  27.686  25.971  1.00  0.00    -0.444 OA
BRANCH  15  16
ATOM     16  C   UNL A   1      32.568  28.656  26.312  1.00  0.00     0.106 C 
ATOM     17  C   UNL A   1      33.323  29.964  26.597  1.00  0.00     0.056 C 
ATOM     18  C   UNL A   1      31.849  28.203  27.583  1.00  0.00     0.056 C 
ATOM     19  C   UNL A   1      31.574  28.940  25.174  1.00  0.00     0.056 C 
ENDBRANCH  15  16
ENDBRANCH  13  15
ENDBRANCH   8  13
BRANCH  12  20
ATOM     20  C   UNL A   1      31.988  21.655  24.963  1.00  0.00     0.254 C 
ATOM     21  O   UNL A   1      30.931  21.601  25.593  1.00  0.00    -0.269 OA
BRANCH  20  22
ATOM     22  C   UNL A   1      32.404  20.397  24.316  1.00  0.00     0.044 A 
ATOM     23  C   UNL A   1      32.083  20.127  22.973  1.00  0.00     0.018 A 
ATOM     24  C   UNL A   1      33.161  19.486  25.068  1.00  0.00     0.064 A 
ATOM     25  C   UNL A   1      32.398  18.883  22.414  1.00  0.00     0.051 A 
ATOM     26  C   UNL A   1      33.434  18.264  24.496  1.00  0.00     0.166 A 
ATOM     27  C   UNL A   1      33.044  17.963  23.212  1.00  0.00     0.165 A 
ATOM     28  O   UNL A   1      34.040  17.212  25.109  1.00  0.00    -0.454 OA
ATOM     29  O   UNL A   1      33.349  16.684  22.865  1.00  0.00    -0.454 OA
ATOM     30  C   UNL A   1      33.846  16.182  24.118  1.00  0.00     0.468 C 
ENDBRANCH  20  22
ENDBRANCH  12  20
ENDBRANCH   4   7
ENDBRANCH   2   3
ENDBRANCH   1   2
BRANCH   1  31
ATOM     31  C   UNL A   1      38.215  20.081  24.718  1.00  0.00     0.023 C 
BRANCH  31  32
ATOM     32  C   UNL A   1      39.257  20.245  25.821  1.00  0.00     0.116 C 
BRANCH  32  33
ATOM     33  N   UNL A   1      40.216  19.154  25.879  1.00  0.00    -0.352 N 
ATOM     34  C   UNL A   1      41.569  19.193  26.130  1.00  0.00     0.251 C 
ATOM     35  H   UNL A   1      39.845  18.258  25.712  1.00  0.00     0.163 HD
ATOM     36  O   UNL A   1      42.244  18.173  26.047  1.00  0.00    -0.269 OA
BRANCH  34  37
ATOM     37  C   UNL A   1      42.223  20.478  26.462  1.00  0.00     0.039 A 
ATOM     38  C   UNL A   1      42.780  21.240  25.435  1.00  0.00     0.014 A 
ATOM     39  C   UNL A   1      42.277  20.938  27.779  1.00  0.00     0.014 A 
ATOM     40  C   UNL A   1      43.310  22.504  25.715  1.00  0.00     0.010 A 
ATOM     41  C   UNL A   1      42.735  22.230  28.047  1.00  0.00     0.010 A 
ATOM     42  C   UNL A   1      43.245  23.035  27.015  1.00  0.00    -0.014 A 
BRANCH  42  43
ATOM     43  C   UNL A   1      43.668  24.438  27.296  1.00  0.00     0.031 A 
ATOM     44  C   UNL A   1      42.673  25.470  27.753  1.00  0.00     0.074 A 
ATOM     45  C   UNL A   1      44.947  24.806  27.072  1.00  0.00     0.049 A 
ATOM     46  N   UNL A   1      42.851  26.749  27.980  1.00  0.00    -0.248 NA
ATOM     47  C   UNL A   1      41.291  25.013  27.954  1.00  0.00     0.031 C 
ATOM     48  C   UNL A   1      46.006  23.924  26.580  1.00  0.00     0.029 A 
ATOM     49  N   UNL A   1      45.572  26.023  27.217  1.00  0.00    -0.354 N 
ATOM     50  C   UNL A   1      41.604  27.250  28.334  1.00  0.00     0.074 A 
ATOM     51  C   UNL A   1      40.670  26.148  28.240  1.00  0.00     0.031 C 
ATOM     52  C   UNL A   1      47.149  24.621  26.481  1.00  0.00     0.029 A 
ATOM     53  C   UNL A   1      46.898  26.008  26.856  1.00  0.00     0.049 A 
ATOM     54  H   UNL A   1      45.112  26.828  27.546  1.00  0.00     0.167 HD
ATOM     55  C   UNL A   1      41.273  28.505  28.720  1.00  0.00     0.037 A 
ATOM     56  C   UNL A   1      47.810  27.001  26.814  1.00  0.00     0.037 A 
ATOM     57  C   UNL A   1      42.207  29.596  28.836  1.00  0.00     0.049 A 
ATOM     58  C   UNL A   1      47.416  28.391  27.235  1.00  0.00     0.074 A 
ATOM     59  C   UNL A   1      41.977  30.880  29.300  1.00  0.00     0.029 A 
ATOM     60  N   UNL A   1      43.546  29.536  28.476  1.00  0.00    -0.354 N 
ATOM     61  N   UNL A   1      46.253  28.829  27.650  1.00  0.00    -0.248 NA
ATOM     62  C   UNL A   1      48.461  29.423  27.188  1.00  0.00     0.031 C 
ATOM     63  C   UNL A   1      43.155  31.618  29.152  1.00  0.00     0.029 A 
ATOM     64  C   UNL A   1      44.141  30.774  28.669  1.00  0.00     0.049 A 
ATOM     65  H   UNL A   1      44.003  28.735  28.135  1.00  0.00     0.167 HD
ATOM     66  C   UNL A   1      46.432  30.176  27.940  1.00  0.00     0.074 A 
ATOM     67  C   UNL A   1      47.819  30.482  27.664  1.00  0.00     0.031 C 
ATOM     68  C   UNL A   1      45.525  31.073  28.398  1.00  0.00     0.037 A 
BRANCH  55  69
ATOM     69  C   UNL A   1      39.828  28.781  29.035  1.00  0.00     0.064 A 
ATOM     70  C   UNL A   1      38.937  29.271  28.068  1.00  0.00     0.173 A 
ATOM     71  C   UNL A   1      39.318  28.507  30.314  1.00  0.00     0.173 A 
ATOM     72  F   UNL A   1      39.371  29.553  26.831  1.00  0.00    -0.203 F 
ATOM     73  C   UNL A   1      37.601  29.515  28.381  1.00  0.00     0.198 A 
ATOM     74  C   UNL A   1      37.974  28.717  30.612  1.00  0.00     0.198 A 
ATOM     75  F   UNL A   1      40.121  28.025  31.275  1.00  0.00    -0.203 F 
ATOM     76  F   UNL A   1      36.784  30.038  27.456  1.00  0.00    -0.200 F 
ATOM     77  C   UNL A   1      37.120  29.231  29.650  1.00  0.00     0.200 A 
ATOM     78  F   UNL A   1      37.506  28.424  31.834  1.00  0.00    -0.200 F 
ATOM     79  F   UNL A   1      35.833  29.459  29.947  1.00  0.00    -0.200 F 
ENDBRANCH  55  69
BRANCH  56  80
ATOM     80  C   UNL A   1      49.194  26.709  26.352  1.00  0.00     0.064 A 
ATOM     81  C   UNL A   1      49.568  26.905  25.015  1.00  0.00     0.173 A 
ATOM     82  C   UNL A   1      50.172  26.233  27.238  1.00  0.00     0.173 A 
ATOM     83  F   UNL A   1      48.665  27.336  24.123  1.00  0.00    -0.203 F 
ATOM     84  C   UNL A   1      50.862  26.621  24.580  1.00  0.00     0.198 A 
ATOM     85  C   UNL A   1      51.474  25.981  26.810  1.00  0.00     0.198 A 
ATOM     86  F   UNL A   1      49.868  26.034  28.529  1.00  0.00    -0.203 F 
ATOM     87  F   UNL A   1      51.182  26.775  23.288  1.00  0.00    -0.200 F 
ATOM     88  C   UNL A   1      51.816  26.168  25.480  1.00  0.00     0.200 A 
ATOM     89  F   UNL A   1      52.395  25.562  27.687  1.00  0.00    -0.200 F 
ATOM     90  F   UNL A   1      53.062  25.905  25.063  1.00  0.00    -0.200 F 
ENDBRANCH  56  80
BRANCH  68  91
ATOM     91  C   UNL A   1      46.002  32.472  28.672  1.00  0.00     0.064 A 
ATOM     92  C   UNL A   1      45.928  33.484  27.703  1.00  0.00     0.173 A 
ATOM     93  C   UNL A   1      46.476  32.821  29.947  1.00  0.00     0.173 A 
ATOM     94  F   UNL A   1      45.499  33.202  26.464  1.00  0.00    -0.203 F 
ATOM     95  C   UNL A   1      46.325  34.786  27.996  1.00  0.00     0.198 A 
ATOM     96  C   UNL A   1      46.840  34.130  30.246  1.00  0.00     0.198 A 
ATOM     97  F   UNL A   1      46.562  31.893  30.913  1.00  0.00    -0.203 F 
ATOM     98  F   UNL A   1      46.283  35.727  27.043  1.00  0.00    -0.200 F 
ATOM     99  C   UNL A   1      46.769  35.111  29.269  1.00  0.00     0.200 A 
ATOM    100  F   UNL A   1      47.252  34.444  31.482  1.00  0.00    -0.200 F 
ATOM    101  F   UNL A   1      47.132  36.369  29.554  1.00  0.00    -0.200 F 
ENDBRANCH  68  91
ENDBRANCH  42  43
ENDBRANCH  34  37
ENDBRANCH  32  33
ENDBRANCH  31  32
ENDBRANCH   1  31
TORSDOF 16
ENDMDL
MODEL 3
REMARK VINA RESULT:     -13.1      5.651     11.572
REMARK SMILES CC(C)(C)OC(=O)N1CCN(C(=O)c2ccc3c(c2)OCO3)[C@H](C(=O)NCCCCNC(=O)c2ccc(-c3c4nc(c(-c5c(F)c(F)c(F)c(F)c5F)c5ccc([nH]5)c(-c5c(F)c(F)c(F)c(F)c5F)c5nc(c(-c6c(F)c(F)c(F)c(F)c6F)c6ccc3[nH]6)C=C5)C=C4)cc2)C1
REMARK SMILES IDX 28 1 27 2 26 3 24 4 25 5 23 7 8 8 9 9 97 10 10 11 11 12 6 13
REMARK SMILES IDX 7 14 5 15 2 16 1 17 3 18 4 19 12 20 13 21 14 22 15 23 19 24
REMARK SMILES IDX 16 25 18 26 17 27 20 28 22 29 21 30 29 31 30 32 31 33 32 34
REMARK SMILES IDX 33 36 34 37 35 38 96 39 36 40 95 41 37 42 38 43 39 44 89 45
REMARK SMILES IDX 40 46 94 47 88 48 90 49 41 50 93 51 87 52 86 53 42 55 74 56
REMARK SMILES IDX 54 57 73 58 55 59 58 60 72 61 91 62 56 63 57 64 71 66 92 67
REMARK SMILES IDX 59 68 43 69 44 70 52 71 45 72 46 73 50 74 53 75 47 76 48 77
REMARK SMILES IDX 51 78 49 79 75 80 76 81 84 82 77 83 78 84 82 85 85 86 79 87
REMARK SMILES IDX 80 88 83 89 81 90 60 91 61 92 69 93 62 94 63 95 67 96 70 97
REMARK SMILES IDX 64 98 65 99 68 100 66 101
REMARK H PARENT 26 6 31 35 90 54 58 65
REMARK Flexibility Score: inf
ROOT
ATOM      1  C   UNL A   1      37.259  21.220  24.467  1.00  0.00     0.023 C 
ENDROOT
BRANCH   1   2
ATOM      2  C   UNL A   1      35.753  21.204  24.717  1.00  0.00     0.116 C 
BRANCH   2   3
ATOM      3  N   UNL A   1      35.406  21.689  26.040  1.00  0.00    -0.354 N 
ATOM      4  C   UNL A   1      34.498  22.645  26.398  1.00  0.00     0.244 C 
ATOM      5  O   UNL A   1      34.397  22.924  27.595  1.00  0.00    -0.273 OA
ATOM      6  H   UNL A   1      35.895  21.271  26.785  1.00  0.00     0.163 HD
BRANCH   4   7
ATOM      7  C   UNL A   1      33.661  23.354  25.319  1.00  0.00     0.194 C 
ATOM      8  N   UNL A   1      32.658  25.568  24.740  1.00  0.00    -0.304 N 
ATOM      9  C   UNL A   1      31.491  24.929  24.136  1.00  0.00     0.144 C 
ATOM     10  C   UNL A   1      33.338  24.794  25.789  1.00  0.00     0.158 C 
ATOM     11  C   UNL A   1      31.848  23.517  23.642  1.00  0.00     0.142 C 
ATOM     12  N   UNL A   1      32.437  22.713  24.728  1.00  0.00    -0.323 N 
BRANCH   8  13
ATOM     13  C   UNL A   1      33.001  26.850  24.357  1.00  0.00     0.410 C 
ATOM     14  O   UNL A   1      34.017  27.104  23.729  1.00  0.00    -0.224 OA
BRANCH  13  15
ATOM     15  O   UNL A   1      32.126  27.780  24.822  1.00  0.00    -0.444 OA
BRANCH  15  16
ATOM     16  C   UNL A   1      32.356  28.451  26.094  1.00  0.00     0.106 C 
ATOM     17  C   UNL A   1      31.920  29.908  25.866  1.00  0.00     0.056 C 
ATOM     18  C   UNL A   1      33.851  28.419  26.419  1.00  0.00     0.056 C 
ATOM     19  C   UNL A   1      31.515  27.898  27.256  1.00  0.00     0.056 C 
ENDBRANCH  15  16
ENDBRANCH  13  15
ENDBRANCH   8  13
BRANCH  12  20
ATOM     20  C   UNL A   1      31.788  21.518  25.036  1.00  0.00     0.254 C 
ATOM     21  O   UNL A   1      30.786  21.478  25.750  1.00  0.00    -0.269 OA
BRANCH  20  22
ATOM     22  C   UNL A   1      32.242  20.217  24.510  1.00  0.00     0.044 A 
ATOM     23  C   UNL A   1      32.191  19.930  23.133  1.00  0.00     0.018 A 
ATOM     24  C   UNL A   1      32.761  19.282  25.417  1.00  0.00     0.064 A 
ATOM     25  C   UNL A   1      32.528  18.652  22.671  1.00  0.00     0.051 A 
ATOM     26  C   UNL A   1      33.062  18.029  24.933  1.00  0.00     0.166 A 
ATOM     27  C   UNL A   1      32.928  17.717  23.600  1.00  0.00     0.165 A 
ATOM     28  O   UNL A   1      33.452  16.958  25.675  1.00  0.00    -0.454 OA
ATOM     29  O   UNL A   1      33.210  16.411  23.345  1.00  0.00    -0.454 OA
ATOM     30  C   UNL A   1      33.399  15.914  24.681  1.00  0.00     0.468 C 
ENDBRANCH  20  22
ENDBRANCH  12  20
ENDBRANCH   4   7
ENDBRANCH   2   3
ENDBRANCH   1   2
BRANCH   1  31
ATOM     31  C   UNL A   1      38.028  19.986  24.955  1.00  0.00     0.023 C 
BRANCH  31  32
ATOM     32  C   UNL A   1      39.224  20.264  25.860  1.00  0.00     0.116 C 
BRANCH  32  33
ATOM     33  N   UNL A   1      40.188  19.176  25.898  1.00  0.00    -0.352 N 
ATOM     34  C   UNL A   1      41.546  19.219  26.115  1.00  0.00     0.251 C 
ATOM     35  H   UNL A   1      39.814  18.278  25.746  1.00  0.00     0.163 HD
ATOM     36  O   UNL A   1      42.222  18.200  26.019  1.00  0.00    -0.269 OA
BRANCH  34  37
ATOM     37  C   UNL A   1      42.206  20.507  26.424  1.00  0.00     0.039 A 
ATOM     38  C   UNL A   1      42.701  21.283  25.375  1.00  0.00     0.014 A 
ATOM     39  C   UNL A   1      42.326  20.955  27.740  1.00  0.00     0.014 A 
ATOM     40  C   UNL A   1      43.234  22.549  25.640  1.00  0.00     0.010 A 
ATOM     41  C   UNL A   1      42.786  22.249  27.995  1.00  0.00     0.010 A 
ATOM     42  C   UNL A   1      43.233  23.068  26.946  1.00  0.00    -0.014 A 
BRANCH  42  43
ATOM     43  C   UNL A   1      43.658  24.472  27.217  1.00  0.00     0.031 A 
ATOM     44  C   UNL A   1      42.674  25.497  27.712  1.00  0.00     0.074 A 
ATOM     45  C   UNL A   1      44.926  24.848  26.950  1.00  0.00     0.049 A 
ATOM     46  N   UNL A   1      42.853  26.776  27.938  1.00  0.00    -0.248 NA
ATOM     47  C   UNL A   1      41.302  25.032  27.959  1.00  0.00     0.031 C 
ATOM     48  C   UNL A   1      45.972  23.974  26.418  1.00  0.00     0.029 A 
ATOM     49  N   UNL A   1      45.549  26.068  27.078  1.00  0.00    -0.354 N 
ATOM     50  C   UNL A   1      41.616  27.269  28.336  1.00  0.00     0.074 A 
ATOM     51  C   UNL A   1      40.685  26.162  28.271  1.00  0.00     0.031 C 
ATOM     52  C   UNL A   1      47.108  24.677  26.283  1.00  0.00     0.029 A 
ATOM     53  C   UNL A   1      46.862  26.062  26.672  1.00  0.00     0.049 A 
ATOM     54  H   UNL A   1      45.097  26.870  27.426  1.00  0.00     0.167 HD
ATOM     55  C   UNL A   1      41.292  28.521  28.738  1.00  0.00     0.037 A 
ATOM     56  C   UNL A   1      47.767  27.059  26.601  1.00  0.00     0.037 A 
ATOM     57  C   UNL A   1      42.224  29.617  28.827  1.00  0.00     0.049 A 
ATOM     58  C   UNL A   1      47.380  28.446  27.041  1.00  0.00     0.074 A 
ATOM     59  C   UNL A   1      42.003  30.898  29.302  1.00  0.00     0.029 A 
ATOM     60  N   UNL A   1      43.549  29.566  28.420  1.00  0.00    -0.354 N 
ATOM     61  N   UNL A   1      46.230  28.876  27.497  1.00  0.00    -0.248 NA
ATOM     62  C   UNL A   1      48.418  29.484  26.962  1.00  0.00     0.031 C 
ATOM     63  C   UNL A   1      43.172  31.643  29.117  1.00  0.00     0.029 A 
ATOM     64  C   UNL A   1      44.145  30.806  28.596  1.00  0.00     0.049 A 
ATOM     65  H   UNL A   1      43.999  28.768  28.060  1.00  0.00     0.167 HD
ATOM     66  C   UNL A   1      46.412  30.223  27.786  1.00  0.00     0.074 A 
ATOM     67  C   UNL A   1      47.787  30.538  27.463  1.00  0.00     0.031 C 
ATOM     68  C   UNL A   1      45.517  31.113  28.279  1.00  0.00     0.037 A 
BRANCH  55  69
ATOM     69  C   UNL A   1      39.857  28.787  29.105  1.00  0.00     0.064 A 
ATOM     70  C   UNL A   1      39.382  28.615  30.414  1.00  0.00     0.173 A 
ATOM     71  C   UNL A   1      38.956  29.265  28.140  1.00  0.00     0.173 A 
ATOM     72  F   UNL A   1      40.199  28.158  31.375  1.00  0.00    -0.203 F 
ATOM     73  C   UNL A   1      38.050  28.871  30.733  1.00  0.00     0.198 A 
ATOM     74  C   UNL A   1      37.635  29.555  28.471  1.00  0.00     0.198 A 
ATOM     75  F   UNL A   1      39.359  29.461  26.875  1.00  0.00    -0.203 F 
ATOM     76  F   UNL A   1      37.606  28.644  31.977  1.00  0.00    -0.200 F 
ATOM     77  C   UNL A   1      37.180  29.348  29.764  1.00  0.00     0.200 A 
ATOM     78  F   UNL A   1      36.802  30.034  27.538  1.00  0.00    -0.200 F 
ATOM     79  F   UNL A   1      35.902  29.601  30.075  1.00  0.00    -0.200 F 
ENDBRANCH  55  69
BRANCH  56  80
ATOM     80  C   UNL A   1      49.136  26.777  26.090  1.00  0.00     0.064 A 
ATOM     81  C   UNL A   1      50.135  26.272  26.935  1.00  0.00     0.173 A 
ATOM     82  C   UNL A   1      49.471  27.001  24.747  1.00  0.00     0.173 A 
ATOM     83  F   UNL A   1      49.872  26.063  28.233  1.00  0.00    -0.203 F 
ATOM     84  C   UNL A   1      51.420  26.018  26.458  1.00  0.00     0.198 A 
ATOM     85  C   UNL A   1      50.747  26.714  24.264  1.00  0.00     0.198 A 
ATOM     86  F   UNL A   1      48.551  27.477  23.895  1.00  0.00    -0.203 F 
ATOM     87  F   UNL A   1      52.368  25.577  27.297  1.00  0.00    -0.200 F 
ATOM     88  C   UNL A   1      51.723  26.231  25.122  1.00  0.00     0.200 A 
ATOM     89  F   UNL A   1      51.028  26.905  22.968  1.00  0.00    -0.200 F 
ATOM     90  F   UNL A   1      52.955  25.976  24.663  1.00  0.00    -0.200 F 
ENDBRANCH  56  80
BRANCH  68  91
ATOM     91  C   UNL A   1      45.995  32.514  28.541  1.00  0.00     0.064 A 
ATOM     92  C   UNL A   1      46.600  32.877  29.753  1.00  0.00     0.173 A 
ATOM     93  C   UNL A   1      45.906  33.491  27.535  1.00  0.00     0.173 A 
ATOM     94  F   UNL A   1      46.696  31.988  30.753  1.00  0.00    -0.203 F 
ATOM     95  C   UNL A   1      47.085  34.168  29.953  1.00  0.00     0.198 A 
ATOM     96  C   UNL A   1      46.421  34.770  27.727  1.00  0.00     0.198 A 
ATOM     97  F   UNL A   1      45.341  33.196  26.355  1.00  0.00    -0.203 F 
ATOM     98  F   UNL A   1      47.624  34.503  31.133  1.00  0.00    -0.200 F 
ATOM     99  C   UNL A   1      47.006  35.109  28.937  1.00  0.00     0.200 A 
ATOM    100  F   UNL A   1      46.359  35.671  26.737  1.00  0.00    -0.200 F 
ATOM    101  F   UNL A   1      47.490  36.344  29.126  1.00  0.00    -0.200 F 
ENDBRANCH  68  91
ENDBRANCH  42  43
ENDBRANCH  34  37
ENDBRANCH  32  33
ENDBRANCH  31  32
ENDBRANCH   1  31
TORSDOF 16
ENDMDL
