MODEL 1
REMARK VINA RESULT:     -13.0      0.000      0.000
REMARK SMILES O=C(NCCCCNC(=O)c1ccccc1Sc1ccc(S(=O)(=O)N2CCCC2)cc1[N+](=O)[O-])c1ccc(-c2c3nc(c(-c4c(F)c(F)c(F)c(F)c4F)c4ccc([nH]4)c(-c4c(F)c(F)c(F)c(F)c4F)c4nc(c(-c5c(F)c(F)c(F)c(F)c5F)c5ccc2[nH]5)C=C4)C=C3)cc1
REMARK SMILES IDX 6 1 5 2 4 3 3 4 1 5 2 6 35 8 36 9 97 10 37 11 96 12 38 13
REMARK SMILES IDX 39 14 40 15 90 16 41 17 95 18 89 19 91 20 42 21 94 22 88 23
REMARK SMILES IDX 87 24 43 26 75 27 55 28 74 29 56 30 59 31 73 32 92 33 57 34
REMARK SMILES IDX 58 35 72 37 93 38 60 39 44 40 45 41 53 42 46 43 47 44 51 45
REMARK SMILES IDX 54 46 48 47 49 48 52 49 50 50 76 51 77 52 85 53 78 54 79 55
REMARK SMILES IDX 83 56 86 57 80 58 81 59 84 60 82 61 61 62 62 63 70 64 63 65
REMARK SMILES IDX 64 66 68 67 71 68 65 69 66 70 69 71 67 72 7 73 8 74 9 75
REMARK SMILES IDX 10 77 11 78 12 79 16 80 13 81 15 82 14 83 17 84 18 85 19 86
REMARK SMILES IDX 31 87 20 88 30 89 21 90 32 91 33 92 34 93 22 94 23 95 24 96
REMARK SMILES IDX 25 97 26 98 29 99 27 100 28 101
REMARK H PARENT 3 7 91 25 59 36 8 76
REMARK Flexibility Score: inf
ROOT
ATOM      1  C   UNL A   1      31.740  30.561  26.889  1.00  0.00     0.023 C 
ENDROOT
BRANCH   1   2
ATOM      2  C   UNL A   1      31.537  32.076  26.838  1.00  0.00     0.023 C 
BRANCH   2   3
ATOM      3  C   UNL A   1      32.744  32.912  27.229  1.00  0.00     0.116 C 
BRANCH   3   4
ATOM      4  N   UNL A   1      32.411  34.259  27.668  1.00  0.00    -0.352 N 
ATOM      5  O   UNL A   1      32.545  36.114  28.956  1.00  0.00    -0.269 OA
ATOM      6  C   UNL A   1      33.001  35.016  28.656  1.00  0.00     0.251 C 
ATOM      7  H   UNL A   1      31.663  34.688  27.194  1.00  0.00     0.163 HD
BRANCH   6   8
ATOM      8  C   UNL A   1      34.169  34.475  29.382  1.00  0.00     0.039 A 
ATOM      9  C   UNL A   1      35.456  34.650  28.874  1.00  0.00     0.014 A 
ATOM     10  C   UNL A   1      33.968  33.740  30.552  1.00  0.00     0.014 A 
ATOM     11  C   UNL A   1      36.516  33.946  29.429  1.00  0.00     0.010 A 
ATOM     12  C   UNL A   1      35.055  33.113  31.171  1.00  0.00     0.010 A 
ATOM     13  C   UNL A   1      36.332  33.176  30.591  1.00  0.00    -0.014 A 
BRANCH  13  14
ATOM     14  C   UNL A   1      37.504  32.498  31.203  1.00  0.00     0.031 A 
ATOM     15  C   UNL A   1      37.999  32.866  32.576  1.00  0.00     0.074 A 
ATOM     16  C   UNL A   1      38.105  31.507  30.515  1.00  0.00     0.049 A 
ATOM     17  N   UNL A   1      39.005  32.366  33.253  1.00  0.00    -0.248 NA
ATOM     18  C   UNL A   1      37.286  33.943  33.277  1.00  0.00     0.031 C 
ATOM     19  C   UNL A   1      37.725  31.069  29.169  1.00  0.00     0.029 A 
ATOM     20  N   UNL A   1      39.146  30.680  30.850  1.00  0.00    -0.354 N 
ATOM     21  C   UNL A   1      39.045  33.064  34.453  1.00  0.00     0.074 A 
ATOM     22  C   UNL A   1      37.992  34.056  34.394  1.00  0.00     0.031 C 
ATOM     23  C   UNL A   1      38.489  30.029  28.812  1.00  0.00     0.029 A 
ATOM     24  C   UNL A   1      39.458  29.770  29.871  1.00  0.00     0.049 A 
ATOM     25  H   UNL A   1      39.623  30.733  31.711  1.00  0.00     0.167 HD
ATOM     26  C   UNL A   1      39.872  32.881  35.511  1.00  0.00     0.037 A 
ATOM     27  C   UNL A   1      40.431  28.844  29.816  1.00  0.00     0.037 A 
ATOM     28  C   UNL A   1      40.917  31.886  35.565  1.00  0.00     0.049 A 
ATOM     29  C   UNL A   1      41.354  28.687  30.990  1.00  0.00     0.074 A 
ATOM     30  C   UNL A   1      41.804  31.618  36.594  1.00  0.00     0.029 A 
ATOM     31  N   UNL A   1      41.215  30.995  34.543  1.00  0.00    -0.354 N 
ATOM     32  N   UNL A   1      41.366  29.339  32.127  1.00  0.00    -0.248 NA
ATOM     33  C   UNL A   1      42.399  27.662  30.874  1.00  0.00     0.031 C 
ATOM     34  C   UNL A   1      42.668  30.599  36.178  1.00  0.00     0.029 A 
ATOM     35  C   UNL A   1      42.283  30.190  34.912  1.00  0.00     0.049 A 
ATOM     36  H   UNL A   1      40.739  30.942  33.683  1.00  0.00     0.167 HD
ATOM     37  C   UNL A   1      42.402  28.792  32.869  1.00  0.00     0.074 A 
ATOM     38  C   UNL A   1      42.976  27.733  32.065  1.00  0.00     0.031 C 
ATOM     39  C   UNL A   1      42.845  29.139  34.102  1.00  0.00     0.037 A 
BRANCH  26  40
ATOM     40  C   UNL A   1      39.691  33.774  36.708  1.00  0.00     0.064 A 
ATOM     41  C   UNL A   1      40.269  35.051  36.765  1.00  0.00     0.173 A 
ATOM     42  C   UNL A   1      38.878  33.376  37.780  1.00  0.00     0.173 A 
ATOM     43  F   UNL A   1      41.060  35.481  35.770  1.00  0.00    -0.203 F 
ATOM     44  C   UNL A   1      40.056  35.888  37.858  1.00  0.00     0.198 A 
ATOM     45  C   UNL A   1      38.643  34.227  38.858  1.00  0.00     0.198 A 
ATOM     46  F   UNL A   1      38.292  32.170  37.775  1.00  0.00    -0.203 F 
ATOM     47  F   UNL A   1      40.650  37.088  37.908  1.00  0.00    -0.200 F 
ATOM     48  C   UNL A   1      39.237  35.479  38.899  1.00  0.00     0.200 A 
ATOM     49  F   UNL A   1      37.835  33.837  39.855  1.00  0.00    -0.200 F 
ATOM     50  F   UNL A   1      39.020  36.291  39.943  1.00  0.00    -0.200 F 
ENDBRANCH  26  40
BRANCH  27  51
ATOM     51  C   UNL A   1      40.592  28.011  28.595  1.00  0.00     0.064 A 
ATOM     52  C   UNL A   1      41.369  28.445  27.514  1.00  0.00     0.173 A 
ATOM     53  C   UNL A   1      39.958  26.763  28.484  1.00  0.00     0.173 A 
ATOM     54  F   UNL A   1      41.980  29.637  27.563  1.00  0.00    -0.203 F 
ATOM     55  C   UNL A   1      41.481  27.677  26.356  1.00  0.00     0.198 A 
ATOM     56  C   UNL A   1      40.104  25.980  27.343  1.00  0.00     0.198 A 
ATOM     57  F   UNL A   1      39.209  26.297  29.494  1.00  0.00    -0.203 F 
ATOM     58  F   UNL A   1      42.181  28.143  25.312  1.00  0.00    -0.200 F 
ATOM     59  C   UNL A   1      40.855  26.443  26.274  1.00  0.00     0.200 A 
ATOM     60  F   UNL A   1      39.513  24.778  27.278  1.00  0.00    -0.200 F 
ATOM     61  F   UNL A   1      40.966  25.705  25.162  1.00  0.00    -0.200 F 
ENDBRANCH  27  51
BRANCH  39  62
ATOM     62  C   UNL A   1      43.987  28.341  34.664  1.00  0.00     0.064 A 
ATOM     63  C   UNL A   1      43.775  27.169  35.406  1.00  0.00     0.173 A 
ATOM     64  C   UNL A   1      45.312  28.756  34.458  1.00  0.00     0.173 A 
ATOM     65  F   UNL A   1      42.526  26.740  35.647  1.00  0.00    -0.203 F 
ATOM     66  C   UNL A   1      44.842  26.465  35.956  1.00  0.00     0.198 A 
ATOM     67  C   UNL A   1      46.380  28.029  34.978  1.00  0.00     0.198 A 
ATOM     68  F   UNL A   1      45.573  29.865  33.750  1.00  0.00    -0.203 F 
ATOM     69  F   UNL A   1      44.611  25.389  36.719  1.00  0.00    -0.200 F 
ATOM     70  C   UNL A   1      46.144  26.893  35.738  1.00  0.00     0.200 A 
ATOM     71  F   UNL A   1      47.637  28.436  34.755  1.00  0.00    -0.200 F 
ATOM     72  F   UNL A   1      47.171  26.216  36.269  1.00  0.00    -0.200 F 
ENDBRANCH  39  62
ENDBRANCH  13  14
ENDBRANCH   6   8
ENDBRANCH   3   4
ENDBRANCH   2   3
ENDBRANCH   1   2
BRANCH   1  73
ATOM     73  C   UNL A   1      32.032  29.885  25.552  1.00  0.00     0.116 C 
BRANCH  73  74
ATOM     74  N   UNL A   1      30.877  29.858  24.678  1.00  0.00    -0.352 N 
ATOM     75  C   UNL A   1      30.706  29.152  23.522  1.00  0.00     0.252 C 
ATOM     76  H   UNL A   1      30.119  30.423  24.952  1.00  0.00     0.163 HD
ATOM     77  O   UNL A   1      29.674  29.295  22.872  1.00  0.00    -0.269 OA
BRANCH  75  78
ATOM     78  C   UNL A   1      31.760  28.252  23.019  1.00  0.00     0.053 A 
ATOM     79  C   UNL A   1      32.913  28.941  22.588  1.00  0.00     0.015 A 
ATOM     80  C   UNL A   1      31.682  26.850  22.912  1.00  0.00     0.025 A 
ATOM     81  C   UNL A   1      34.028  28.251  22.129  1.00  0.00     0.001 A 
ATOM     82  C   UNL A   1      32.843  26.179  22.475  1.00  0.00     0.016 A 
ATOM     83  C   UNL A   1      34.002  26.864  22.097  1.00  0.00     0.001 A 
BRANCH  80  84
ATOM     84  S   UNL A   1      30.320  25.716  23.227  1.00  0.00    -0.082 SA
BRANCH  84  85
ATOM     85  C   UNL A   1      30.875  24.430  24.322  1.00  0.00     0.090 A 
ATOM     86  C   UNL A   1      31.309  23.255  23.671  1.00  0.00     0.024 A 
ATOM     87  C   UNL A   1      31.032  24.487  25.708  1.00  0.00     0.284 A 
ATOM     88  C   UNL A   1      32.037  22.271  24.346  1.00  0.00     0.023 A 
ATOM     89  C   UNL A   1      31.909  23.592  26.341  1.00  0.00     0.108 A 
ATOM     90  C   UNL A   1      32.427  22.496  25.661  1.00  0.00     0.089 A 
BRANCH  87  91
ATOM     91  N   UNL A   1      30.297  25.434  26.565  1.00  0.00     0.063 N 
ATOM     92  O   UNL A   1      29.131  25.142  26.874  1.00  0.00    -0.258 OA
ATOM     93  O   UNL A   1      30.830  26.514  26.841  1.00  0.00    -0.258 OA
ENDBRANCH  87  91
BRANCH  90  94
ATOM     94  S   UNL A   1      33.622  21.399  26.399  1.00  0.00     0.243 S 
ATOM     95  O   UNL A   1      33.562  21.653  27.825  1.00  0.00    -0.207 OA
ATOM     96  O   UNL A   1      33.318  20.090  25.864  1.00  0.00    -0.207 OA
BRANCH  94  97
ATOM     97  N   UNL A   1      35.135  21.881  25.859  1.00  0.00    -0.198 NA
ATOM     98  C   UNL A   1      35.670  23.205  26.205  1.00  0.00     0.102 C 
ATOM     99  C   UNL A   1      35.633  21.486  24.527  1.00  0.00     0.102 C 
ATOM    100  C   UNL A   1      35.851  23.896  24.865  1.00  0.00     0.018 C 
ATOM    101  C   UNL A   1      36.174  22.770  23.892  1.00  0.00     0.018 C 
ENDBRANCH  94  97
ENDBRANCH  90  94
ENDBRANCH  84  85
ENDBRANCH  80  84
ENDBRANCH  75  78
ENDBRANCH  73  74
ENDBRANCH   1  73
TORSDOF 16
ENDMDL
MODEL 2
REMARK VINA RESULT:     -12.8      1.494      2.606
REMARK SMILES O=C(NCCCCNC(=O)c1ccccc1Sc1ccc(S(=O)(=O)N2CCCC2)cc1[N+](=O)[O-])c1ccc(-c2c3nc(c(-c4c(F)c(F)c(F)c(F)c4F)c4ccc([nH]4)c(-c4c(F)c(F)c(F)c(F)c4F)c4nc(c(-c5c(F)c(F)c(F)c(F)c5F)c5ccc2[nH]5)C=C4)C=C3)cc1
REMARK SMILES IDX 6 1 5 2 4 3 3 4 1 5 2 6 35 8 36 9 97 10 37 11 96 12 38 13
REMARK SMILES IDX 39 14 40 15 90 16 41 17 95 18 89 19 91 20 42 21 94 22 88 23
REMARK SMILES IDX 87 24 43 26 75 27 55 28 74 29 56 30 59 31 73 32 92 33 57 34
REMARK SMILES IDX 58 35 72 37 93 38 60 39 44 40 45 41 53 42 46 43 47 44 51 45
REMARK SMILES IDX 54 46 48 47 49 48 52 49 50 50 76 51 77 52 85 53 78 54 79 55
REMARK SMILES IDX 83 56 86 57 80 58 81 59 84 60 82 61 61 62 62 63 70 64 63 65
REMARK SMILES IDX 64 66 68 67 71 68 65 69 66 70 69 71 67 72 7 73 8 74 9 75
REMARK SMILES IDX 10 77 11 78 12 79 16 80 13 81 15 82 14 83 17 84 18 85 19 86
REMARK SMILES IDX 31 87 20 88 30 89 21 90 32 91 33 92 34 93 22 94 23 95 24 96
REMARK SMILES IDX 25 97 26 98 29 99 27 100 28 101
REMARK H PARENT 3 7 91 25 59 36 8 76
REMARK Flexibility Score: inf
ROOT
ATOM      1  C   UNL A   1      30.477  32.327  25.033  1.00  0.00     0.023 C 
ENDROOT
BRANCH   1   2
ATOM      2  C   UNL A   1      31.008  31.888  26.398  1.00  0.00     0.023 C 
BRANCH   2   3
ATOM      3  C   UNL A   1      32.325  32.515  26.822  1.00  0.00     0.116 C 
BRANCH   3   4
ATOM      4  N   UNL A   1      32.189  33.850  27.385  1.00  0.00    -0.352 N 
ATOM      5  O   UNL A   1      32.683  35.589  28.745  1.00  0.00    -0.269 OA
ATOM      6  C   UNL A   1      32.985  34.481  28.315  1.00  0.00     0.251 C 
ATOM      7  H   UNL A   1      31.423  34.374  27.056  1.00  0.00     0.163 HD
BRANCH   6   8
ATOM      8  C   UNL A   1      34.190  33.792  28.822  1.00  0.00     0.039 A 
ATOM      9  C   UNL A   1      34.068  32.643  29.603  1.00  0.00     0.014 A 
ATOM     10  C   UNL A   1      35.450  34.334  28.558  1.00  0.00     0.014 A 
ATOM     11  C   UNL A   1      35.180  32.140  30.265  1.00  0.00     0.010 A 
ATOM     12  C   UNL A   1      36.585  33.763  29.145  1.00  0.00     0.010 A 
ATOM     13  C   UNL A   1      36.455  32.686  30.037  1.00  0.00    -0.014 A 
BRANCH  13  14
ATOM     14  C   UNL A   1      37.635  32.075  30.702  1.00  0.00     0.031 A 
ATOM     15  C   UNL A   1      38.052  32.477  32.092  1.00  0.00     0.074 A 
ATOM     16  C   UNL A   1      38.316  31.114  30.047  1.00  0.00     0.049 A 
ATOM     17  N   UNL A   1      39.054  32.035  32.813  1.00  0.00    -0.248 NA
ATOM     18  C   UNL A   1      37.253  33.517  32.754  1.00  0.00     0.031 C 
ATOM     19  C   UNL A   1      38.017  30.649  28.690  1.00  0.00     0.029 A 
ATOM     20  N   UNL A   1      39.385  30.346  30.432  1.00  0.00    -0.354 N 
ATOM     21  C   UNL A   1      39.006  32.741  34.009  1.00  0.00     0.074 A 
ATOM     22  C   UNL A   1      37.905  33.675  33.899  1.00  0.00     0.031 C 
ATOM     23  C   UNL A   1      38.850  29.650  28.373  1.00  0.00     0.029 A 
ATOM     24  C   UNL A   1      39.786  29.449  29.473  1.00  0.00     0.049 A 
ATOM     25  H   UNL A   1      39.822  30.429  31.310  1.00  0.00     0.167 HD
ATOM     26  C   UNL A   1      39.797  32.608  35.101  1.00  0.00     0.037 A 
ATOM     27  C   UNL A   1      40.809  28.576  29.465  1.00  0.00     0.037 A 
ATOM     28  C   UNL A   1      40.890  31.672  35.206  1.00  0.00     0.049 A 
ATOM     29  C   UNL A   1      41.689  28.476  30.678  1.00  0.00     0.074 A 
ATOM     30  C   UNL A   1      41.747  31.457  36.273  1.00  0.00     0.029 A 
ATOM     31  N   UNL A   1      41.278  30.793  34.205  1.00  0.00    -0.354 N 
ATOM     32  N   UNL A   1      41.618  29.134  31.809  1.00  0.00    -0.248 NA
ATOM     33  C   UNL A   1      42.791  27.508  30.613  1.00  0.00     0.031 C 
ATOM     34  C   UNL A   1      42.681  30.485  35.901  1.00  0.00     0.029 A 
ATOM     35  C   UNL A   1      42.372  30.048  34.624  1.00  0.00     0.049 A 
ATOM     36  H   UNL A   1      40.843  30.709  33.326  1.00  0.00     0.167 HD
ATOM     37  C   UNL A   1      42.651  28.647  32.597  1.00  0.00     0.074 A 
ATOM     38  C   UNL A   1      43.313  27.616  31.826  1.00  0.00     0.031 C 
ATOM     39  C   UNL A   1      43.023  29.025  33.845  1.00  0.00     0.037 A 
BRANCH  26  40
ATOM     40  C   UNL A   1      39.519  33.497  36.282  1.00  0.00     0.064 A 
ATOM     41  C   UNL A   1      38.714  33.071  37.349  1.00  0.00     0.173 A 
ATOM     42  C   UNL A   1      40.117  34.763  36.381  1.00  0.00     0.173 A 
ATOM     43  F   UNL A   1      38.113  31.872  37.305  1.00  0.00    -0.203 F 
ATOM     44  C   UNL A   1      38.502  33.885  38.460  1.00  0.00     0.198 A 
ATOM     45  C   UNL A   1      39.927  35.562  37.507  1.00  0.00     0.198 A 
ATOM     46  F   UNL A   1      40.905  35.219  35.396  1.00  0.00    -0.203 F 
ATOM     47  F   UNL A   1      37.697  33.471  39.449  1.00  0.00    -0.200 F 
ATOM     48  C   UNL A   1      39.115  35.125  38.542  1.00  0.00     0.200 A 
ATOM     49  F   UNL A   1      40.536  36.754  37.591  1.00  0.00    -0.200 F 
ATOM     50  F   UNL A   1      38.922  35.901  39.617  1.00  0.00    -0.200 F 
ENDBRANCH  26  40
BRANCH  27  51
ATOM     51  C   UNL A   1      41.065  27.746  28.259  1.00  0.00     0.064 A 
ATOM     52  C   UNL A   1      40.507  26.469  28.122  1.00  0.00     0.173 A 
ATOM     53  C   UNL A   1      41.885  28.216  27.220  1.00  0.00     0.173 A 
ATOM     54  F   UNL A   1      39.731  25.968  29.094  1.00  0.00    -0.203 F 
ATOM     55  C   UNL A   1      40.785  25.680  27.007  1.00  0.00     0.198 A 
ATOM     56  C   UNL A   1      42.129  27.442  26.089  1.00  0.00     0.198 A 
ATOM     57  F   UNL A   1      42.438  29.435  27.298  1.00  0.00    -0.203 F 
ATOM     58  F   UNL A   1      40.288  24.438  26.928  1.00  0.00    -0.200 F 
ATOM     59  C   UNL A   1      41.589  26.169  25.989  1.00  0.00     0.200 A 
ATOM     60  F   UNL A   1      42.890  27.928  25.099  1.00  0.00    -0.200 F 
ATOM     61  F   UNL A   1      41.853  25.411  24.916  1.00  0.00    -0.200 F 
ENDBRANCH  27  51
BRANCH  39  62
ATOM     62  C   UNL A   1      44.182  28.292  34.460  1.00  0.00     0.064 A 
ATOM     63  C   UNL A   1      44.006  27.094  35.168  1.00  0.00     0.173 A 
ATOM     64  C   UNL A   1      45.485  28.798  34.340  1.00  0.00     0.173 A 
ATOM     65  F   UNL A   1      42.777  26.577  35.327  1.00  0.00    -0.203 F 
ATOM     66  C   UNL A   1      45.085  26.451  35.768  1.00  0.00     0.198 A 
ATOM     67  C   UNL A   1      46.567  28.133  34.911  1.00  0.00     0.198 A 
ATOM     68  F   UNL A   1      45.711  29.937  33.669  1.00  0.00    -0.203 F 
ATOM     69  F   UNL A   1      44.883  25.345  36.497  1.00  0.00    -0.200 F 
ATOM     70  C   UNL A   1      46.364  26.968  35.635  1.00  0.00     0.200 A 
ATOM     71  F   UNL A   1      47.805  28.627  34.769  1.00  0.00    -0.200 F 
ATOM     72  F   UNL A   1      47.403  26.349  36.214  1.00  0.00    -0.200 F 
ENDBRANCH  39  62
ENDBRANCH  13  14
ENDBRANCH   6   8
ENDBRANCH   3   4
ENDBRANCH   2   3
ENDBRANCH   1   2
BRANCH   1  73
ATOM     73  C   UNL A   1      29.333  31.491  24.466  1.00  0.00     0.116 C 
BRANCH  73  74
ATOM     74  N   UNL A   1      29.404  31.355  23.025  1.00  0.00    -0.352 N 
ATOM     75  C   UNL A   1      29.346  30.213  22.278  1.00  0.00     0.252 C 
ATOM     76  H   UNL A   1      29.508  32.194  22.520  1.00  0.00     0.163 HD
ATOM     77  O   UNL A   1      29.481  30.280  21.060  1.00  0.00    -0.269 OA
BRANCH  75  78
ATOM     78  C   UNL A   1      29.167  28.896  22.917  1.00  0.00     0.053 A 
ATOM     79  C   UNL A   1      27.811  28.551  23.094  1.00  0.00     0.015 A 
ATOM     80  C   UNL A   1      30.190  28.037  23.363  1.00  0.00     0.025 A 
ATOM     81  C   UNL A   1      27.452  27.322  23.635  1.00  0.00     0.001 A 
ATOM     82  C   UNL A   1      29.791  26.785  23.875  1.00  0.00     0.016 A 
ATOM     83  C   UNL A   1      28.446  26.427  24.003  1.00  0.00     0.001 A 
BRANCH  80  84
ATOM     84  S   UNL A   1      31.975  28.257  23.418  1.00  0.00    -0.082 SA
BRANCH  84  85
ATOM     85  C   UNL A   1      32.736  26.721  23.891  1.00  0.00     0.090 A 
ATOM     86  C   UNL A   1      32.986  25.838  22.818  1.00  0.00     0.024 A 
ATOM     87  C   UNL A   1      33.205  26.344  25.150  1.00  0.00     0.284 A 
ATOM     88  C   UNL A   1      33.826  24.731  22.962  1.00  0.00     0.023 A 
ATOM     89  C   UNL A   1      34.183  25.343  25.251  1.00  0.00     0.108 A 
ATOM     90  C   UNL A   1      34.509  24.548  24.159  1.00  0.00     0.089 A 
BRANCH  87  91
ATOM     91  N   UNL A   1      32.703  26.929  26.406  1.00  0.00     0.063 N 
ATOM     92  O   UNL A   1      33.421  27.766  26.975  1.00  0.00    -0.258 OA
ATOM     93  O   UNL A   1      31.655  26.483  26.886  1.00  0.00    -0.258 OA
ENDBRANCH  87  91
BRANCH  90  94
ATOM     94  S   UNL A   1      35.817  23.338  24.221  1.00  0.00     0.243 S 
ATOM     95  O   UNL A   1      36.132  23.027  22.840  1.00  0.00    -0.207 OA
ATOM     96  O   UNL A   1      36.816  23.903  25.101  1.00  0.00    -0.207 OA
BRANCH  94  97
ATOM     97  N   UNL A   1      35.179  21.955  24.922  1.00  0.00    -0.198 NA
ATOM     98  C   UNL A   1      33.965  21.330  24.381  1.00  0.00     0.102 C 
ATOM     99  C   UNL A   1      35.227  21.746  26.382  1.00  0.00     0.102 C 
ATOM    100  C   UNL A   1      32.966  21.407  25.521  1.00  0.00     0.018 C 
ATOM    101  C   UNL A   1      33.814  21.314  26.783  1.00  0.00     0.018 C 
ENDBRANCH  94  97
ENDBRANCH  90  94
ENDBRANCH  84  85
ENDBRANCH  80  84
ENDBRANCH  75  78
ENDBRANCH  73  74
ENDBRANCH   1  73
TORSDOF 16
ENDMDL
MODEL 3
REMARK VINA RESULT:     -12.7      1.067      2.007
REMARK SMILES O=C(NCCCCNC(=O)c1ccccc1Sc1ccc(S(=O)(=O)N2CCCC2)cc1[N+](=O)[O-])c1ccc(-c2c3nc(c(-c4c(F)c(F)c(F)c(F)c4F)c4ccc([nH]4)c(-c4c(F)c(F)c(F)c(F)c4F)c4nc(c(-c5c(F)c(F)c(F)c(F)c5F)c5ccc2[nH]5)C=C4)C=C3)cc1
REMARK SMILES IDX 6 1 5 2 4 3 3 4 1 5 2 6 35 8 36 9 97 10 37 11 96 12 38 13
REMARK SMILES IDX 39 14 40 15 90 16 41 17 95 18 89 19 91 20 42 21 94 22 88 23
REMARK SMILES IDX 87 24 43 26 75 27 55 28 74 29 56 30 59 31 73 32 92 33 57 34
REMARK SMILES IDX 58 35 72 37 93 38 60 39 44 40 45 41 53 42 46 43 47 44 51 45
REMARK SMILES IDX 54 46 48 47 49 48 52 49 50 50 76 51 77 52 85 53 78 54 79 55
REMARK SMILES IDX 83 56 86 57 80 58 81 59 84 60 82 61 61 62 62 63 70 64 63 65
REMARK SMILES IDX 64 66 68 67 71 68 65 69 66 70 69 71 67 72 7 73 8 74 9 75
REMARK SMILES IDX 10 77 11 78 12 79 16 80 13 81 15 82 14 83 17 84 18 85 19 86
REMARK SMILES IDX 31 87 20 88 30 89 21 90 32 91 33 92 34 93 22 94 23 95 24 96
REMARK SMILES IDX 25 97 26 98 29 99 27 100 28 101
REMARK H PARENT 3 7 91 25 59 36 8 76
REMARK Flexibility Score: inf
ROOT
ATOM      1  C   UNL A   1      32.364  30.094  27.139  1.00  0.00     0.023 C 
ENDROOT
BRANCH   1   2
ATOM      2  C   UNL A   1      31.646  31.425  26.913  1.00  0.00     0.023 C 
BRANCH   2   3
ATOM      3  C   UNL A   1      32.538  32.594  26.527  1.00  0.00     0.116 C 
BRANCH   3   4
ATOM      4  N   UNL A   1      32.263  33.816  27.268  1.00  0.00    -0.352 N 
ATOM      5  O   UNL A   1      32.541  35.364  28.894  1.00  0.00    -0.269 OA
ATOM      6  C   UNL A   1      32.955  34.357  28.328  1.00  0.00     0.251 C 
ATOM      7  H   UNL A   1      31.475  34.325  26.970  1.00  0.00     0.163 HD
BRANCH   6   8
ATOM      8  C   UNL A   1      34.185  33.691  28.806  1.00  0.00     0.039 A 
ATOM      9  C   UNL A   1      34.105  32.507  29.538  1.00  0.00     0.014 A 
ATOM     10  C   UNL A   1      35.424  34.287  28.564  1.00  0.00     0.014 A 
ATOM     11  C   UNL A   1      35.235  32.017  30.178  1.00  0.00     0.010 A 
ATOM     12  C   UNL A   1      36.579  33.733  29.127  1.00  0.00     0.010 A 
ATOM     13  C   UNL A   1      36.489  32.617  29.973  1.00  0.00    -0.014 A 
BRANCH  13  14
ATOM     14  C   UNL A   1      37.691  32.020  30.612  1.00  0.00     0.031 A 
ATOM     15  C   UNL A   1      38.144  32.442  31.984  1.00  0.00     0.074 A 
ATOM     16  C   UNL A   1      38.360  31.056  29.949  1.00  0.00     0.049 A 
ATOM     17  N   UNL A   1      39.169  32.015  32.683  1.00  0.00    -0.248 NA
ATOM     18  C   UNL A   1      37.357  33.486  32.657  1.00  0.00     0.031 C 
ATOM     19  C   UNL A   1      38.025  30.573  28.607  1.00  0.00     0.029 A 
ATOM     20  N   UNL A   1      39.444  30.299  30.313  1.00  0.00    -0.354 N 
ATOM     21  C   UNL A   1      39.150  32.734  33.871  1.00  0.00     0.074 A 
ATOM     22  C   UNL A   1      38.040  33.661  33.780  1.00  0.00     0.031 C 
ATOM     23  C   UNL A   1      38.855  29.575  28.279  1.00  0.00     0.029 A 
ATOM     24  C   UNL A   1      39.824  29.393  29.354  1.00  0.00     0.049 A 
ATOM     25  H   UNL A   1      39.905  30.396  31.178  1.00  0.00     0.167 HD
ATOM     26  C   UNL A   1      39.972  32.620  34.942  1.00  0.00     0.037 A 
ATOM     27  C   UNL A   1      40.851  28.526  29.328  1.00  0.00     0.037 A 
ATOM     28  C   UNL A   1      41.074  31.691  35.027  1.00  0.00     0.049 A 
ATOM     29  C   UNL A   1      41.766  28.446  30.517  1.00  0.00     0.074 A 
ATOM     30  C   UNL A   1      41.961  31.495  36.072  1.00  0.00     0.029 A 
ATOM     31  N   UNL A   1      41.439  30.803  34.026  1.00  0.00    -0.354 N 
ATOM     32  N   UNL A   1      41.722  29.117  31.642  1.00  0.00    -0.248 NA
ATOM     33  C   UNL A   1      42.871  27.483  30.432  1.00  0.00     0.031 C 
ATOM     34  C   UNL A   1      42.891  30.523  35.686  1.00  0.00     0.029 A 
ATOM     35  C   UNL A   1      42.549  30.069  34.423  1.00  0.00     0.049 A 
ATOM     36  H   UNL A   1      40.979  30.705  33.161  1.00  0.00     0.167 HD
ATOM     37  C   UNL A   1      42.779  28.646  32.406  1.00  0.00     0.074 A 
ATOM     38  C   UNL A   1      43.426  27.610  31.629  1.00  0.00     0.031 C 
ATOM     39  C   UNL A   1      43.184  29.041  33.638  1.00  0.00     0.037 A 
BRANCH  26  40
ATOM     40  C   UNL A   1      39.722  33.521  36.120  1.00  0.00     0.064 A 
ATOM     41  C   UNL A   1      40.271  34.810  36.189  1.00  0.00     0.173 A 
ATOM     42  C   UNL A   1      38.870  33.118  37.160  1.00  0.00     0.173 A 
ATOM     43  F   UNL A   1      41.097  35.245  35.225  1.00  0.00    -0.203 F 
ATOM     44  C   UNL A   1      39.994  35.653  37.263  1.00  0.00     0.198 A 
ATOM     45  C   UNL A   1      38.571  33.975  38.218  1.00  0.00     0.198 A 
ATOM     46  F   UNL A   1      38.308  31.900  37.142  1.00  0.00    -0.203 F 
ATOM     47  F   UNL A   1      40.562  36.866  37.325  1.00  0.00    -0.200 F 
ATOM     48  C   UNL A   1      39.138  35.239  38.271  1.00  0.00     0.200 A 
ATOM     49  F   UNL A   1      37.728  33.578  39.182  1.00  0.00    -0.200 F 
ATOM     50  F   UNL A   1      38.860  36.057  39.296  1.00  0.00    -0.200 F 
ENDBRANCH  26  40
BRANCH  27  51
ATOM     51  C   UNL A   1      41.078  27.683  28.125  1.00  0.00     0.064 A 
ATOM     52  C   UNL A   1      40.546  26.391  28.030  1.00  0.00     0.173 A 
ATOM     53  C   UNL A   1      41.844  28.155  27.047  1.00  0.00     0.173 A 
ATOM     54  F   UNL A   1      39.823  25.887  29.040  1.00  0.00    -0.203 F 
ATOM     55  C   UNL A   1      40.798  25.591  26.917  1.00  0.00     0.198 A 
ATOM     56  C   UNL A   1      42.061  27.370  25.919  1.00  0.00     0.198 A 
ATOM     57  F   UNL A   1      42.370  29.389  27.084  1.00  0.00    -0.203 F 
ATOM     58  F   UNL A   1      40.329  24.336  26.877  1.00  0.00    -0.200 F 
ATOM     59  C   UNL A   1      41.548  26.083  25.860  1.00  0.00     0.200 A 
ATOM     60  F   UNL A   1      42.770  27.858  24.892  1.00  0.00    -0.200 F 
ATOM     61  F   UNL A   1      41.787  25.314  24.789  1.00  0.00    -0.200 F 
ENDBRANCH  27  51
BRANCH  39  62
ATOM     62  C   UNL A   1      44.364  28.323  34.230  1.00  0.00     0.064 A 
ATOM     63  C   UNL A   1      45.676  28.786  34.050  1.00  0.00     0.173 A 
ATOM     64  C   UNL A   1      44.179  27.155  34.985  1.00  0.00     0.173 A 
ATOM     65  F   UNL A   1      45.909  29.889  33.320  1.00  0.00    -0.203 F 
ATOM     66  C   UNL A   1      46.762  28.086  34.568  1.00  0.00     0.198 A 
ATOM     67  C   UNL A   1      45.264  26.477  35.534  1.00  0.00     0.198 A 
ATOM     68  F   UNL A   1      42.945  26.671  35.194  1.00  0.00    -0.203 F 
ATOM     69  F   UNL A   1      48.008  28.510  34.325  1.00  0.00    -0.200 F 
ATOM     70  C   UNL A   1      46.554  26.935  35.313  1.00  0.00     0.200 A 
ATOM     71  F   UNL A   1      45.061  25.372  36.266  1.00  0.00    -0.200 F 
ATOM     72  F   UNL A   1      47.600  26.260  35.811  1.00  0.00    -0.200 F 
ENDBRANCH  39  62
ENDBRANCH  13  14
ENDBRANCH   6   8
ENDBRANCH   3   4
ENDBRANCH   2   3
ENDBRANCH   1   2
BRANCH   1  73
ATOM     73  C   UNL A   1      31.666  28.860  26.574  1.00  0.00     0.116 C 
BRANCH  73  74
ATOM     74  N   UNL A   1      32.430  27.646  26.778  1.00  0.00    -0.352 N 
ATOM     75  C   UNL A   1      33.070  26.882  25.845  1.00  0.00     0.252 C 
ATOM     76  H   UNL A   1      32.495  27.332  27.709  1.00  0.00     0.163 HD
ATOM     77  O   UNL A   1      33.627  25.843  26.193  1.00  0.00    -0.269 OA
BRANCH  75  78
ATOM     78  C   UNL A   1      33.068  27.261  24.420  1.00  0.00     0.053 A 
ATOM     79  C   UNL A   1      34.060  28.211  24.102  1.00  0.00     0.015 A 
ATOM     80  C   UNL A   1      32.177  26.796  23.433  1.00  0.00     0.025 A 
ATOM     81  C   UNL A   1      34.237  28.648  22.794  1.00  0.00     0.001 A 
ATOM     82  C   UNL A   1      32.407  27.233  22.112  1.00  0.00     0.016 A 
ATOM     83  C   UNL A   1      33.425  28.137  21.793  1.00  0.00     0.001 A 
BRANCH  80  84
ATOM     84  S   UNL A   1      30.738  25.722  23.553  1.00  0.00    -0.082 SA
BRANCH  84  85
ATOM     85  C   UNL A   1      31.235  24.157  24.234  1.00  0.00     0.090 A 
ATOM     86  C   UNL A   1      31.910  23.313  23.326  1.00  0.00     0.024 A 
ATOM     87  C   UNL A   1      31.136  23.723  25.557  1.00  0.00     0.284 A 
ATOM     88  C   UNL A   1      32.616  22.188  23.760  1.00  0.00     0.023 A 
ATOM     89  C   UNL A   1      31.985  22.702  26.013  1.00  0.00     0.108 A 
ATOM     90  C   UNL A   1      32.738  21.946  25.123  1.00  0.00     0.089 A 
BRANCH  87  91
ATOM     91  N   UNL A   1      30.157  24.266  26.514  1.00  0.00     0.063 N 
ATOM     92  O   UNL A   1      30.063  25.500  26.600  1.00  0.00    -0.258 OA
ATOM     93  O   UNL A   1      29.560  23.478  27.257  1.00  0.00    -0.258 OA
ENDBRANCH  87  91
BRANCH  90  94
ATOM     94  S   UNL A   1      33.903  20.714  25.672  1.00  0.00     0.243 S 
ATOM     95  O   UNL A   1      33.540  20.412  27.044  1.00  0.00    -0.207 OA
ATOM     96  O   UNL A   1      33.880  19.687  24.654  1.00  0.00    -0.207 OA
BRANCH  94  97
ATOM     97  N   UNL A   1      35.415  21.438  25.694  1.00  0.00    -0.198 NA
ATOM     98  C   UNL A   1      35.578  22.826  26.148  1.00  0.00     0.102 C 
ATOM     99  C   UNL A   1      36.419  21.144  24.653  1.00  0.00     0.102 C 
ATOM    100  C   UNL A   1      36.126  23.553  24.933  1.00  0.00     0.018 C 
ATOM    101  C   UNL A   1      36.951  22.505  24.197  1.00  0.00     0.018 C 
ENDBRANCH  94  97
ENDBRANCH  90  94
ENDBRANCH  84  85
ENDBRANCH  80  84
ENDBRANCH  75  78
ENDBRANCH  73  74
ENDBRANCH   1  73
TORSDOF 16
ENDMDL
