MODEL 1
REMARK VINA RESULT:     -11.8      0.000      0.000
REMARK SMILES O=C(CC1(CSC[C@@H]2COc3ccccc32)CC1)NCCCCNC(=O)c1ccc(-c2c3nc(c(-c4c(F)c(F)c(F)c(F)c4F)c4ccc([nH]4)c(-c4c(F)c(F)c(F)c(F)c4F)c4nc(c(-c5c(F)c(F)c(F)c(F)c5F)c5ccc2[nH]5)C=C4)C=C3)cc1
REMARK SMILES IDX 20 1 19 2 1 3 2 4 3 6 4 7 17 8 18 9 5 10 6 11 7 12 8 13 9 14
REMARK SMILES IDX 16 15 10 16 11 17 15 18 12 19 14 20 13 21 21 22 22 23 23 24
REMARK SMILES IDX 24 25 25 26 26 28 27 29 28 30 89 31 29 32 88 33 30 34 31 35
REMARK SMILES IDX 32 36 82 37 33 38 87 39 81 40 83 41 34 42 86 43 80 44 79 45
REMARK SMILES IDX 35 47 67 48 47 49 66 50 48 51 51 52 65 53 84 54 49 55 50 56
REMARK SMILES IDX 64 58 85 59 52 60 36 61 37 62 45 63 38 64 39 65 43 66 46 67
REMARK SMILES IDX 40 68 41 69 44 70 42 71 68 72 69 73 77 74 70 75 71 76 75 77
REMARK SMILES IDX 78 78 72 79 73 80 76 81 74 82 53 83 54 84 62 85 55 86 56 87
REMARK SMILES IDX 60 88 63 89 57 90 58 91 61 92 59 93
REMARK H PARENT 19 5 24 27 83 46 51 57
REMARK Flexibility Score: inf
ROOT
ATOM      1  C   UNL A   1      32.427  29.932  26.817  1.00  0.00     0.116 C 
ENDROOT
BRANCH   1   2
ATOM      2  N   UNL A   1      32.156  28.524  26.625  1.00  0.00    -0.356 N 
ATOM      3  O   UNL A   1      34.352  27.850  26.526  1.00  0.00    -0.275 OA
ATOM      4  C   UNL A   1      33.155  27.587  26.476  1.00  0.00     0.220 C 
ATOM      5  H   UNL A   1      31.219  28.223  26.600  1.00  0.00     0.163 HD
BRANCH   4   6
ATOM      6  C   UNL A   1      32.632  26.185  26.232  1.00  0.00     0.107 C 
BRANCH   6   7
ATOM      7  C   UNL A   1      33.484  25.287  25.333  1.00  0.00    -0.012 C 
ATOM      8  C   UNL A   1      34.555  24.387  25.948  1.00  0.00     0.009 C 
ATOM      9  C   UNL A   1      33.287  23.778  25.443  1.00  0.00     0.009 C 
BRANCH   7  10
ATOM     10  C   UNL A   1      33.814  25.879  23.977  1.00  0.00     0.077 C 
BRANCH  10  11
ATOM     11  S   UNL A   1      32.653  25.406  22.661  1.00  0.00    -0.161 SA
BRANCH  11  12
ATOM     12  C   UNL A   1      31.809  26.989  22.323  1.00  0.00     0.081 C 
BRANCH  12  13
ATOM     13  C   UNL A   1      30.732  27.334  23.347  1.00  0.00     0.071 C 
ATOM     14  C   UNL A   1      29.739  26.188  23.603  1.00  0.00     0.238 C 
ATOM     15  C   UNL A   1      29.760  28.376  22.914  1.00  0.00     0.001 A 
ATOM     16  O   UNL A   1      28.440  26.755  23.899  1.00  0.00    -0.493 OA
ATOM     17  C   UNL A   1      28.484  27.983  23.294  1.00  0.00     0.122 A 
ATOM     18  C   UNL A   1      29.970  29.609  22.318  1.00  0.00     0.008 A 
ATOM     19  C   UNL A   1      27.379  28.783  23.093  1.00  0.00     0.047 A 
ATOM     20  C   UNL A   1      28.861  30.432  22.093  1.00  0.00     0.001 A 
ATOM     21  C   UNL A   1      27.573  30.022  22.478  1.00  0.00     0.004 A 
ENDBRANCH  12  13
ENDBRANCH  11  12
ENDBRANCH  10  11
ENDBRANCH   7  10
ENDBRANCH   6   7
ENDBRANCH   4   6
ENDBRANCH   1   2
BRANCH   1  22
ATOM     22  C   UNL A   1      31.489  30.799  25.981  1.00  0.00     0.023 C 
BRANCH  22  23
ATOM     23  C   UNL A   1      31.294  32.228  26.499  1.00  0.00     0.023 C 
BRANCH  23  24
ATOM     24  C   UNL A   1      32.478  32.813  27.260  1.00  0.00     0.116 C 
BRANCH  24  25
ATOM     25  N   UNL A   1      32.288  34.213  27.599  1.00  0.00    -0.352 N 
ATOM     26  C   UNL A   1      32.932  34.985  28.533  1.00  0.00     0.251 C 
ATOM     27  H   UNL A   1      31.591  34.678  27.081  1.00  0.00     0.163 HD
ATOM     28  O   UNL A   1      32.514  36.112  28.794  1.00  0.00    -0.269 OA
BRANCH  26  29
ATOM     29  C   UNL A   1      34.115  34.462  29.251  1.00  0.00     0.039 A 
ATOM     30  C   UNL A   1      33.938  33.892  30.515  1.00  0.00     0.014 A 
ATOM     31  C   UNL A   1      35.396  34.545  28.697  1.00  0.00     0.014 A 
ATOM     32  C   UNL A   1      35.031  33.344  31.191  1.00  0.00     0.010 A 
ATOM     33  C   UNL A   1      36.471  33.933  29.338  1.00  0.00     0.010 A 
ATOM     34  C   UNL A   1      36.301  33.325  30.592  1.00  0.00    -0.014 A 
BRANCH  34  35
ATOM     35  C   UNL A   1      37.456  32.667  31.257  1.00  0.00     0.031 A 
ATOM     36  C   UNL A   1      38.173  31.528  30.586  1.00  0.00     0.074 A 
ATOM     37  C   UNL A   1      37.819  33.052  32.496  1.00  0.00     0.049 A 
ATOM     38  N   UNL A   1      39.154  30.786  31.036  1.00  0.00    -0.248 NA
ATOM     39  C   UNL A   1      37.712  31.157  29.240  1.00  0.00     0.031 C 
ATOM     40  C   UNL A   1      37.179  34.115  33.272  1.00  0.00     0.029 A 
ATOM     41  N   UNL A   1      38.809  32.587  33.326  1.00  0.00    -0.354 N 
ATOM     42  C   UNL A   1      39.415  29.856  30.039  1.00  0.00     0.074 A 
ATOM     43  C   UNL A   1      38.456  30.092  28.981  1.00  0.00     0.031 C 
ATOM     44  C   UNL A   1      37.806  34.237  34.453  1.00  0.00     0.029 A 
ATOM     45  C   UNL A   1      38.864  33.236  34.536  1.00  0.00     0.049 A 
ATOM     46  H   UNL A   1      39.423  31.859  33.077  1.00  0.00     0.167 HD
ATOM     47  C   UNL A   1      40.380  28.906  29.998  1.00  0.00     0.037 A 
ATOM     48  C   UNL A   1      39.671  33.040  35.597  1.00  0.00     0.037 A 
ATOM     49  C   UNL A   1      41.349  28.689  31.041  1.00  0.00     0.049 A 
ATOM     50  C   UNL A   1      40.723  31.965  35.532  1.00  0.00     0.074 A 
ATOM     51  C   UNL A   1      42.405  27.794  31.066  1.00  0.00     0.029 A 
ATOM     52  N   UNL A   1      41.378  29.371  32.249  1.00  0.00    -0.354 N 
ATOM     53  N   UNL A   1      41.004  31.139  34.555  1.00  0.00    -0.248 NA
ATOM     54  C   UNL A   1      41.575  31.801  36.719  1.00  0.00     0.031 C 
ATOM     55  C   UNL A   1      43.037  27.895  32.309  1.00  0.00     0.029 A 
ATOM     56  C   UNL A   1      42.414  28.896  33.037  1.00  0.00     0.049 A 
ATOM     57  H   UNL A   1      40.753  30.086  32.509  1.00  0.00     0.167 HD
ATOM     58  C   UNL A   1      42.083  30.381  34.994  1.00  0.00     0.074 A 
ATOM     59  C   UNL A   1      42.413  30.856  36.321  1.00  0.00     0.031 C 
ATOM     60  C   UNL A   1      42.739  29.383  34.353  1.00  0.00     0.037 A 
BRANCH  47  61
ATOM     61  C   UNL A   1      40.438  28.022  28.784  1.00  0.00     0.064 A 
ATOM     62  C   UNL A   1      41.191  28.370  27.653  1.00  0.00     0.173 A 
ATOM     63  C   UNL A   1      39.764  26.791  28.767  1.00  0.00     0.173 A 
ATOM     64  F   UNL A   1      41.847  29.540  27.613  1.00  0.00    -0.203 F 
ATOM     65  C   UNL A   1      41.243  27.534  26.540  1.00  0.00     0.198 A 
ATOM     66  C   UNL A   1      39.845  25.942  27.667  1.00  0.00     0.198 A 
ATOM     67  F   UNL A   1      39.035  26.405  29.826  1.00  0.00    -0.203 F 
ATOM     68  F   UNL A   1      41.928  27.912  25.452  1.00  0.00    -0.200 F 
ATOM     69  C   UNL A   1      40.577  26.318  26.551  1.00  0.00     0.200 A 
ATOM     70  F   UNL A   1      39.213  24.761  27.685  1.00  0.00    -0.200 F 
ATOM     71  F   UNL A   1      40.635  25.511  25.483  1.00  0.00    -0.200 F 
ENDBRANCH  47  61
BRANCH  48  72
ATOM     72  C   UNL A   1      39.529  33.892  36.807  1.00  0.00     0.064 A 
ATOM     73  C   UNL A   1      40.177  35.132  36.892  1.00  0.00     0.173 A 
ATOM     74  C   UNL A   1      38.757  33.483  37.904  1.00  0.00     0.173 A 
ATOM     75  F   UNL A   1      40.945  35.557  35.877  1.00  0.00    -0.203 F 
ATOM     76  C   UNL A   1      40.078  35.920  38.037  1.00  0.00     0.198 A 
ATOM     77  C   UNL A   1      38.634  34.286  39.036  1.00  0.00     0.198 A 
ATOM     78  F   UNL A   1      38.113  32.307  37.872  1.00  0.00    -0.203 F 
ATOM     79  F   UNL A   1      40.749  37.078  38.111  1.00  0.00    -0.200 F 
ATOM     80  C   UNL A   1      39.301  35.499  39.106  1.00  0.00     0.200 A 
ATOM     81  F   UNL A   1      37.869  33.881  40.060  1.00  0.00    -0.200 F 
ATOM     82  F   UNL A   1      39.203  36.257  40.206  1.00  0.00    -0.200 F 
ENDBRANCH  48  72
BRANCH  60  83
ATOM     83  C   UNL A   1      43.909  28.761  35.061  1.00  0.00     0.064 A 
ATOM     84  C   UNL A   1      43.763  27.632  35.880  1.00  0.00     0.173 A 
ATOM     85  C   UNL A   1      45.201  29.281  34.886  1.00  0.00     0.173 A 
ATOM     86  F   UNL A   1      42.547  27.105  36.094  1.00  0.00    -0.203 F 
ATOM     87  C   UNL A   1      44.862  27.063  36.520  1.00  0.00     0.198 A 
ATOM     88  C   UNL A   1      46.302  28.689  35.499  1.00  0.00     0.198 A 
ATOM     89  F   UNL A   1      45.398  30.355  34.106  1.00  0.00    -0.203 F 
ATOM     90  F   UNL A   1      44.691  26.017  37.338  1.00  0.00    -0.200 F 
ATOM     91  C   UNL A   1      46.130  27.587  36.321  1.00  0.00     0.200 A 
ATOM     92  F   UNL A   1      47.530  29.188  35.294  1.00  0.00    -0.200 F 
ATOM     93  F   UNL A   1      47.188  27.032  36.931  1.00  0.00    -0.200 F 
ENDBRANCH  60  83
ENDBRANCH  34  35
ENDBRANCH  26  29
ENDBRANCH  24  25
ENDBRANCH  23  24
ENDBRANCH  22  23
ENDBRANCH   1  22
TORSDOF 16
ENDMDL
MODEL 2
REMARK VINA RESULT:     -11.7      5.891     11.281
REMARK SMILES O=C(CC1(CSC[C@@H]2COc3ccccc32)CC1)NCCCCNC(=O)c1ccc(-c2c3nc(c(-c4c(F)c(F)c(F)c(F)c4F)c4ccc([nH]4)c(-c4c(F)c(F)c(F)c(F)c4F)c4nc(c(-c5c(F)c(F)c(F)c(F)c5F)c5ccc2[nH]5)C=C4)C=C3)cc1
REMARK SMILES IDX 20 1 19 2 1 3 2 4 3 6 4 7 17 8 18 9 5 10 6 11 7 12 8 13 9 14
REMARK SMILES IDX 16 15 10 16 11 17 15 18 12 19 14 20 13 21 21 22 22 23 23 24
REMARK SMILES IDX 24 25 25 26 26 28 27 29 28 30 89 31 29 32 88 33 30 34 31 35
REMARK SMILES IDX 32 36 82 37 33 38 87 39 81 40 83 41 34 42 86 43 80 44 79 45
REMARK SMILES IDX 35 47 67 48 47 49 66 50 48 51 51 52 65 53 84 54 49 55 50 56
REMARK SMILES IDX 64 58 85 59 52 60 36 61 37 62 45 63 38 64 39 65 43 66 46 67
REMARK SMILES IDX 40 68 41 69 44 70 42 71 68 72 69 73 77 74 70 75 71 76 75 77
REMARK SMILES IDX 78 78 72 79 73 80 76 81 74 82 53 83 54 84 62 85 55 86 56 87
REMARK SMILES IDX 60 88 63 89 57 90 58 91 61 92 59 93
REMARK H PARENT 19 5 24 27 83 46 51 57
REMARK Flexibility Score: inf
ROOT
ATOM      1  C   UNL A   1      36.592  21.922  24.219  1.00  0.00     0.116 C 
ENDROOT
BRANCH   1   2
ATOM      2  N   UNL A   1      36.018  23.028  24.952  1.00  0.00    -0.356 N 
ATOM      3  O   UNL A   1      34.923  23.979  23.169  1.00  0.00    -0.275 OA
ATOM      4  C   UNL A   1      35.233  23.990  24.355  1.00  0.00     0.220 C 
ATOM      5  H   UNL A   1      36.195  23.097  25.918  1.00  0.00     0.163 HD
BRANCH   4   6
ATOM      6  C   UNL A   1      34.790  25.081  25.309  1.00  0.00     0.107 C 
BRANCH   6   7
ATOM      7  C   UNL A   1      33.463  25.770  24.988  1.00  0.00    -0.012 C 
ATOM      8  C   UNL A   1      33.256  27.239  25.353  1.00  0.00     0.009 C 
ATOM      9  C   UNL A   1      33.466  26.863  23.923  1.00  0.00     0.009 C 
BRANCH   7  10
ATOM     10  C   UNL A   1      32.242  24.879  25.109  1.00  0.00     0.077 C 
BRANCH  10  11
ATOM     11  S   UNL A   1      32.336  23.674  26.466  1.00  0.00    -0.161 SA
BRANCH  11  12
ATOM     12  C   UNL A   1      31.601  22.190  25.700  1.00  0.00     0.081 C 
BRANCH  12  13
ATOM     13  C   UNL A   1      32.430  21.626  24.551  1.00  0.00     0.071 C 
ATOM     14  C   UNL A   1      31.768  21.800  23.173  1.00  0.00     0.238 C 
ATOM     15  C   UNL A   1      32.571  20.143  24.543  1.00  0.00     0.001 A 
ATOM     16  O   UNL A   1      32.132  20.676  22.337  1.00  0.00    -0.493 OA
ATOM     17  C   UNL A   1      32.418  19.686  23.241  1.00  0.00     0.122 A 
ATOM     18  C   UNL A   1      32.894  19.265  25.564  1.00  0.00     0.008 A 
ATOM     19  C   UNL A   1      32.569  18.357  22.907  1.00  0.00     0.047 A 
ATOM     20  C   UNL A   1      33.039  17.910  25.250  1.00  0.00     0.001 A 
ATOM     21  C   UNL A   1      32.878  17.458  23.929  1.00  0.00     0.004 A 
ENDBRANCH  12  13
ENDBRANCH  11  12
ENDBRANCH  10  11
ENDBRANCH   7  10
ENDBRANCH   6   7
ENDBRANCH   4   6
ENDBRANCH   1   2
BRANCH   1  22
ATOM     22  C   UNL A   1      36.523  20.624  25.022  1.00  0.00     0.023 C 
BRANCH  22  23
ATOM     23  C   UNL A   1      37.766  19.733  24.923  1.00  0.00     0.023 C 
BRANCH  23  24
ATOM     24  C   UNL A   1      38.986  20.229  25.692  1.00  0.00     0.116 C 
BRANCH  24  25
ATOM     25  N   UNL A   1      39.987  19.193  25.877  1.00  0.00    -0.352 N 
ATOM     26  C   UNL A   1      41.333  19.308  26.122  1.00  0.00     0.251 C 
ATOM     27  H   UNL A   1      39.650  18.270  25.819  1.00  0.00     0.163 HD
ATOM     28  O   UNL A   1      42.052  18.310  26.081  1.00  0.00    -0.269 OA
BRANCH  26  29
ATOM     29  C   UNL A   1      41.933  20.628  26.411  1.00  0.00     0.039 A 
ATOM     30  C   UNL A   1      42.261  21.467  25.341  1.00  0.00     0.014 A 
ATOM     31  C   UNL A   1      42.191  21.037  27.723  1.00  0.00     0.014 A 
ATOM     32  C   UNL A   1      42.780  22.740  25.589  1.00  0.00     0.010 A 
ATOM     33  C   UNL A   1      42.639  22.334  27.970  1.00  0.00     0.010 A 
ATOM     34  C   UNL A   1      42.937  23.200  26.907  1.00  0.00    -0.014 A 
BRANCH  34  35
ATOM     35  C   UNL A   1      43.403  24.583  27.188  1.00  0.00     0.031 A 
ATOM     36  C   UNL A   1      42.452  25.611  27.737  1.00  0.00     0.074 A 
ATOM     37  C   UNL A   1      44.670  24.933  26.890  1.00  0.00     0.049 A 
ATOM     38  N   UNL A   1      42.654  26.881  27.981  1.00  0.00    -0.248 NA
ATOM     39  C   UNL A   1      41.083  25.156  28.026  1.00  0.00     0.031 C 
ATOM     40  C   UNL A   1      45.680  24.042  26.316  1.00  0.00     0.029 A 
ATOM     41  N   UNL A   1      45.323  26.134  27.018  1.00  0.00    -0.354 N 
ATOM     42  C   UNL A   1      41.441  27.378  28.435  1.00  0.00     0.074 A 
ATOM     43  C   UNL A   1      40.492  26.287  28.385  1.00  0.00     0.031 C 
ATOM     44  C   UNL A   1      46.829  24.719  26.164  1.00  0.00     0.029 A 
ATOM     45  C   UNL A   1      46.628  26.100  26.589  1.00  0.00     0.049 A 
ATOM     46  H   UNL A   1      44.896  26.943  27.384  1.00  0.00     0.167 HD
ATOM     47  C   UNL A   1      41.148  28.625  28.876  1.00  0.00     0.037 A 
ATOM     48  C   UNL A   1      47.556  27.076  26.535  1.00  0.00     0.037 A 
ATOM     49  C   UNL A   1      42.099  29.704  28.949  1.00  0.00     0.049 A 
ATOM     50  C   UNL A   1      47.199  28.458  27.015  1.00  0.00     0.074 A 
ATOM     51  C   UNL A   1      41.916  30.985  29.440  1.00  0.00     0.029 A 
ATOM     52  N   UNL A   1      43.414  29.630  28.512  1.00  0.00    -0.354 N 
ATOM     53  N   UNL A   1      46.067  28.896  27.508  1.00  0.00    -0.248 NA
ATOM     54  C   UNL A   1      48.253  29.479  26.935  1.00  0.00     0.031 C 
ATOM     55  C   UNL A   1      43.101  31.703  29.250  1.00  0.00     0.029 A 
ATOM     56  C   UNL A   1      44.043  30.851  28.695  1.00  0.00     0.049 A 
ATOM     57  H   UNL A   1      43.837  28.828  28.128  1.00  0.00     0.167 HD
ATOM     58  C   UNL A   1      46.282  30.232  27.827  1.00  0.00     0.074 A 
ATOM     59  C   UNL A   1      47.656  30.526  27.484  1.00  0.00     0.031 C 
ATOM     60  C   UNL A   1      45.416  31.130  28.358  1.00  0.00     0.037 A 
BRANCH  47  61
ATOM     61  C   UNL A   1      39.737  28.897  29.316  1.00  0.00     0.064 A 
ATOM     62  C   UNL A   1      38.769  29.390  28.428  1.00  0.00     0.173 A 
ATOM     63  C   UNL A   1      39.336  28.620  30.632  1.00  0.00     0.173 A 
ATOM     64  F   UNL A   1      39.102  29.681  27.161  1.00  0.00    -0.203 F 
ATOM     65  C   UNL A   1      37.462  29.626  28.849  1.00  0.00     0.198 A 
ATOM     66  C   UNL A   1      38.021  28.825  31.041  1.00  0.00     0.198 A 
ATOM     67  F   UNL A   1      40.218  28.139  31.521  1.00  0.00    -0.203 F 
ATOM     68  F   UNL A   1      36.570  30.147  27.996  1.00  0.00    -0.200 F 
ATOM     69  C   UNL A   1      37.088  29.336  30.152  1.00  0.00     0.200 A 
ATOM     70  F   UNL A   1      37.657  28.530  32.296  1.00  0.00    -0.200 F 
ATOM     71  F   UNL A   1      35.828  29.555  30.553  1.00  0.00    -0.200 F 
ENDBRANCH  47  61
BRANCH  48  72
ATOM     72  C   UNL A   1      48.920  26.779  26.024  1.00  0.00     0.064 A 
ATOM     73  C   UNL A   1      49.254  27.021  24.685  1.00  0.00     0.173 A 
ATOM     74  C   UNL A   1      49.911  26.237  26.856  1.00  0.00     0.173 A 
ATOM     75  F   UNL A   1      48.334  27.518  23.845  1.00  0.00    -0.203 F 
ATOM     76  C   UNL A   1      50.520  26.712  24.191  1.00  0.00     0.198 A 
ATOM     77  C   UNL A   1      51.185  25.957  26.368  1.00  0.00     0.198 A 
ATOM     78  F   UNL A   1      49.643  25.990  28.147  1.00  0.00    -0.203 F 
ATOM     79  F   UNL A   1      50.796  26.907  22.894  1.00  0.00    -0.200 F 
ATOM     80  C   UNL A   1      51.487  26.186  25.035  1.00  0.00     0.200 A 
ATOM     81  F   UNL A   1      52.121  25.463  27.192  1.00  0.00    -0.200 F 
ATOM     82  F   UNL A   1      52.704  25.891  24.561  1.00  0.00    -0.200 F 
ENDBRANCH  48  72
BRANCH  60  83
ATOM     83  C   UNL A   1      45.941  32.510  28.639  1.00  0.00     0.064 A 
ATOM     84  C   UNL A   1      46.562  32.831  29.854  1.00  0.00     0.173 A 
ATOM     85  C   UNL A   1      45.855  33.513  27.660  1.00  0.00     0.173 A 
ATOM     86  F   UNL A   1      46.656  31.913  30.829  1.00  0.00    -0.203 F 
ATOM     87  C   UNL A   1      47.052  34.113  30.091  1.00  0.00     0.198 A 
ATOM     88  C   UNL A   1      46.376  34.784  27.888  1.00  0.00     0.198 A 
ATOM     89  F   UNL A   1      45.277  33.256  26.477  1.00  0.00    -0.203 F 
ATOM     90  F   UNL A   1      47.596  34.412  31.279  1.00  0.00    -0.200 F 
ATOM     91  C   UNL A   1      46.967  35.085  29.105  1.00  0.00     0.200 A 
ATOM     92  F   UNL A   1      46.306  35.716  26.927  1.00  0.00    -0.200 F 
ATOM     93  F   UNL A   1      47.448  36.316  29.332  1.00  0.00    -0.200 F 
ENDBRANCH  60  83
ENDBRANCH  34  35
ENDBRANCH  26  29
ENDBRANCH  24  25
ENDBRANCH  23  24
ENDBRANCH  22  23
ENDBRANCH   1  22
TORSDOF 16
ENDMDL
MODEL 3
REMARK VINA RESULT:     -11.6      1.588      3.015
REMARK SMILES O=C(CC1(CSC[C@@H]2COc3ccccc32)CC1)NCCCCNC(=O)c1ccc(-c2c3nc(c(-c4c(F)c(F)c(F)c(F)c4F)c4ccc([nH]4)c(-c4c(F)c(F)c(F)c(F)c4F)c4nc(c(-c5c(F)c(F)c(F)c(F)c5F)c5ccc2[nH]5)C=C4)C=C3)cc1
REMARK SMILES IDX 20 1 19 2 1 3 2 4 3 6 4 7 17 8 18 9 5 10 6 11 7 12 8 13 9 14
REMARK SMILES IDX 16 15 10 16 11 17 15 18 12 19 14 20 13 21 21 22 22 23 23 24
REMARK SMILES IDX 24 25 25 26 26 28 27 29 28 30 89 31 29 32 88 33 30 34 31 35
REMARK SMILES IDX 32 36 82 37 33 38 87 39 81 40 83 41 34 42 86 43 80 44 79 45
REMARK SMILES IDX 35 47 67 48 47 49 66 50 48 51 51 52 65 53 84 54 49 55 50 56
REMARK SMILES IDX 64 58 85 59 52 60 36 61 37 62 45 63 38 64 39 65 43 66 46 67
REMARK SMILES IDX 40 68 41 69 44 70 42 71 68 72 69 73 77 74 70 75 71 76 75 77
REMARK SMILES IDX 78 78 72 79 73 80 76 81 74 82 53 83 54 84 62 85 55 86 56 87
REMARK SMILES IDX 60 88 63 89 57 90 58 91 61 92 59 93
REMARK H PARENT 19 5 24 27 83 46 51 57
REMARK Flexibility Score: inf
ROOT
ATOM      1  C   UNL A   1      32.568  30.250  27.154  1.00  0.00     0.116 C 
ENDROOT
BRANCH   1   2
ATOM      2  N   UNL A   1      32.326  28.828  27.256  1.00  0.00    -0.356 N 
ATOM      3  O   UNL A   1      32.681  28.347  25.036  1.00  0.00    -0.275 OA
ATOM      4  C   UNL A   1      32.386  27.983  26.169  1.00  0.00     0.220 C 
ATOM      5  H   UNL A   1      32.110  28.448  28.138  1.00  0.00     0.163 HD
BRANCH   4   6
ATOM      6  C   UNL A   1      32.042  26.546  26.506  1.00  0.00     0.107 C 
BRANCH   6   7
ATOM      7  C   UNL A   1      32.723  25.466  25.664  1.00  0.00    -0.012 C 
ATOM      8  C   UNL A   1      34.248  25.397  25.597  1.00  0.00     0.009 C 
ATOM      9  C   UNL A   1      33.503  24.378  26.395  1.00  0.00     0.009 C 
BRANCH   7  10
ATOM     10  C   UNL A   1      31.986  25.099  24.390  1.00  0.00     0.077 C 
BRANCH  10  11
ATOM     11  S   UNL A   1      31.123  23.502  24.469  1.00  0.00    -0.161 SA
BRANCH  11  12
ATOM     12  C   UNL A   1      31.903  22.588  23.095  1.00  0.00     0.081 C 
BRANCH  12  13
ATOM     13  C   UNL A   1      32.884  21.517  23.558  1.00  0.00     0.071 C 
ATOM     14  C   UNL A   1      32.555  20.941  24.945  1.00  0.00     0.238 C 
ATOM     15  C   UNL A   1      34.264  22.003  23.842  1.00  0.00     0.001 A 
ATOM     16  O   UNL A   1      33.792  20.591  25.610  1.00  0.00    -0.493 OA
ATOM     17  C   UNL A   1      34.717  21.404  25.009  1.00  0.00     0.122 A 
ATOM     18  C   UNL A   1      35.096  22.829  23.104  1.00  0.00     0.008 A 
ATOM     19  C   UNL A   1      35.994  21.605  25.489  1.00  0.00     0.047 A 
ATOM     20  C   UNL A   1      36.391  23.056  23.578  1.00  0.00     0.001 A 
ATOM     21  C   UNL A   1      36.839  22.448  24.764  1.00  0.00     0.004 A 
ENDBRANCH  12  13
ENDBRANCH  11  12
ENDBRANCH  10  11
ENDBRANCH   7  10
ENDBRANCH   6   7
ENDBRANCH   4   6
ENDBRANCH   1   2
BRANCH   1  22
ATOM     22  C   UNL A   1      31.394  30.969  26.492  1.00  0.00     0.023 C 
BRANCH  22  23
ATOM     23  C   UNL A   1      31.434  32.498  26.586  1.00  0.00     0.023 C 
BRANCH  23  24
ATOM     24  C   UNL A   1      32.625  33.073  27.345  1.00  0.00     0.116 C 
BRANCH  24  25
ATOM     25  N   UNL A   1      32.413  34.452  27.753  1.00  0.00    -0.352 N 
ATOM     26  C   UNL A   1      33.030  35.178  28.741  1.00  0.00     0.251 C 
ATOM     27  H   UNL A   1      31.724  34.938  27.245  1.00  0.00     0.163 HD
ATOM     28  O   UNL A   1      32.594  36.286  29.052  1.00  0.00    -0.269 OA
BRANCH  26  29
ATOM     29  C   UNL A   1      34.201  34.629  29.457  1.00  0.00     0.039 A 
ATOM     30  C   UNL A   1      34.009  34.035  30.708  1.00  0.00     0.014 A 
ATOM     31  C   UNL A   1      35.487  34.709  28.914  1.00  0.00     0.014 A 
ATOM     32  C   UNL A   1      35.091  33.461  31.380  1.00  0.00     0.010 A 
ATOM     33  C   UNL A   1      36.551  34.072  29.550  1.00  0.00     0.010 A 
ATOM     34  C   UNL A   1      36.365  33.440  30.790  1.00  0.00    -0.014 A 
BRANCH  34  35
ATOM     35  C   UNL A   1      37.508  32.756  31.449  1.00  0.00     0.031 A 
ATOM     36  C   UNL A   1      38.166  31.572  30.796  1.00  0.00     0.074 A 
ATOM     37  C   UNL A   1      37.913  33.161  32.669  1.00  0.00     0.049 A 
ATOM     38  N   UNL A   1      39.127  30.805  31.248  1.00  0.00    -0.248 NA
ATOM     39  C   UNL A   1      37.661  31.182  29.471  1.00  0.00     0.031 C 
ATOM     40  C   UNL A   1      37.331  34.270  33.427  1.00  0.00     0.029 A 
ATOM     41  N   UNL A   1      38.902  32.682  33.491  1.00  0.00    -0.354 N 
ATOM     42  C   UNL A   1      39.330  29.838  30.272  1.00  0.00     0.074 A 
ATOM     43  C   UNL A   1      38.358  30.081  29.228  1.00  0.00     0.031 C 
ATOM     44  C   UNL A   1      37.987  34.401  34.591  1.00  0.00     0.029 A 
ATOM     45  C   UNL A   1      39.008  33.362  34.681  1.00  0.00     0.049 A 
ATOM     46  H   UNL A   1      39.482  31.923  33.251  1.00  0.00     0.167 HD
ATOM     47  C   UNL A   1      40.256  28.850  30.239  1.00  0.00     0.037 A 
ATOM     48  C   UNL A   1      39.830  33.164  35.730  1.00  0.00     0.037 A 
ATOM     49  C   UNL A   1      41.239  28.624  31.268  1.00  0.00     0.049 A 
ATOM     50  C   UNL A   1      40.838  32.047  35.675  1.00  0.00     0.074 A 
ATOM     51  C   UNL A   1      42.259  27.690  31.297  1.00  0.00     0.029 A 
ATOM     52  N   UNL A   1      41.320  29.338  32.454  1.00  0.00    -0.354 N 
ATOM     53  N   UNL A   1      41.066  31.184  34.716  1.00  0.00    -0.248 NA
ATOM     54  C   UNL A   1      41.708  31.883  36.848  1.00  0.00     0.031 C 
ATOM     55  C   UNL A   1      42.923  27.801  32.523  1.00  0.00     0.029 A 
ATOM     56  C   UNL A   1      42.354  28.845  33.234  1.00  0.00     0.049 A 
ATOM     57  H   UNL A   1      40.729  30.085  32.706  1.00  0.00     0.167 HD
ATOM     58  C   UNL A   1      42.123  30.397  35.154  1.00  0.00     0.074 A 
ATOM     59  C   UNL A   1      42.501  30.895  36.460  1.00  0.00     0.031 C 
ATOM     60  C   UNL A   1      42.727  29.356  34.529  1.00  0.00     0.037 A 
BRANCH  47  61
ATOM     61  C   UNL A   1      40.254  27.931  29.050  1.00  0.00     0.064 A 
ATOM     62  C   UNL A   1      40.987  28.222  27.890  1.00  0.00     0.173 A 
ATOM     63  C   UNL A   1      39.541  26.722  29.087  1.00  0.00     0.173 A 
ATOM     64  F   UNL A   1      41.678  29.369  27.799  1.00  0.00    -0.203 F 
ATOM     65  C   UNL A   1      40.983  27.354  26.801  1.00  0.00     0.198 A 
ATOM     66  C   UNL A   1      39.565  25.841  28.010  1.00  0.00     0.198 A 
ATOM     67  F   UNL A   1      38.829  26.390  30.174  1.00  0.00    -0.203 F 
ATOM     68  F   UNL A   1      41.649  27.679  25.685  1.00  0.00    -0.200 F 
ATOM     69  C   UNL A   1      40.279  26.161  26.865  1.00  0.00     0.200 A 
ATOM     70  F   UNL A   1      38.897  24.682  28.078  1.00  0.00    -0.200 F 
ATOM     71  F   UNL A   1      40.282  25.323  25.819  1.00  0.00    -0.200 F 
ENDBRANCH  47  61
BRANCH  48  72
ATOM     72  C   UNL A   1      39.747  34.054  36.918  1.00  0.00     0.064 A 
ATOM     73  C   UNL A   1      40.498  35.236  36.983  1.00  0.00     0.173 A 
ATOM     74  C   UNL A   1      38.931  33.740  38.014  1.00  0.00     0.173 A 
ATOM     75  F   UNL A   1      41.311  35.570  35.969  1.00  0.00    -0.203 F 
ATOM     76  C   UNL A   1      40.453  36.058  38.107  1.00  0.00     0.198 A 
ATOM     77  C   UNL A   1      38.863  34.578  39.124  1.00  0.00     0.198 A 
ATOM     78  F   UNL A   1      38.189  32.622  38.000  1.00  0.00    -0.203 F 
ATOM     79  F   UNL A   1      41.220  37.155  38.163  1.00  0.00    -0.200 F 
ATOM     80  C   UNL A   1      39.631  35.731  39.175  1.00  0.00     0.200 A 
ATOM     81  F   UNL A   1      38.055  34.265  40.148  1.00  0.00    -0.200 F 
ATOM     82  F   UNL A   1      39.585  36.522  40.255  1.00  0.00    -0.200 F 
ENDBRANCH  48  72
BRANCH  60  83
ATOM     83  C   UNL A   1      43.887  28.709  35.231  1.00  0.00     0.064 A 
ATOM     84  C   UNL A   1      43.713  27.622  36.100  1.00  0.00     0.173 A 
ATOM     85  C   UNL A   1      45.196  29.159  34.998  1.00  0.00     0.173 A 
ATOM     86  F   UNL A   1      42.480  27.163  36.369  1.00  0.00    -0.203 F 
ATOM     87  C   UNL A   1      44.803  27.029  36.732  1.00  0.00     0.198 A 
ATOM     88  C   UNL A   1      46.286  28.542  35.605  1.00  0.00     0.198 A 
ATOM     89  F   UNL A   1      45.419  30.190  34.169  1.00  0.00    -0.203 F 
ATOM     90  F   UNL A   1      44.607  26.025  37.598  1.00  0.00    -0.200 F 
ATOM     91  C   UNL A   1      46.088  27.483  36.478  1.00  0.00     0.200 A 
ATOM     92  F   UNL A   1      47.529  28.972  35.346  1.00  0.00    -0.200 F 
ATOM     93  F   UNL A   1      47.136  26.904  37.080  1.00  0.00    -0.200 F 
ENDBRANCH  60  83
ENDBRANCH  34  35
ENDBRANCH  26  29
ENDBRANCH  24  25
ENDBRANCH  23  24
ENDBRANCH  22  23
ENDBRANCH   1  22
TORSDOF 16
ENDMDL
