MODEL 1
REMARK VINA RESULT:     -12.2      0.000      0.000
REMARK SMILES [NH3+][C@]1(C(=O)NCCCCNC(=O)c2ccc(-c3c4nc(c(-c5c(F)c(F)c(F)c(F)c5F)c5ccc([nH]5)c(-c5c(F)c(F)c(F)c(F)c5F)c5nc(c(-c6c(F)c(F)c(F)c(F)c6F)c6ccc3[nH]6)C=C5)C=C4)cc2)CCC[C@H]1CC[NH+]1CCCCC1
REMARK SMILES IDX 7 1 6 2 5 3 3 4 4 5 2 7 76 8 79 9 77 10 78 11 1 12 80 16
REMARK SMILES IDX 81 17 82 18 83 19 87 20 84 22 86 23 85 24 8 25 9 26 10 27
REMARK SMILES IDX 11 28 12 30 13 31 14 32 75 33 15 34 74 35 16 36 17 37 18 38
REMARK SMILES IDX 68 39 19 40 73 41 67 42 69 43 20 44 72 45 66 46 65 47 21 49
REMARK SMILES IDX 53 50 33 51 52 52 34 53 37 54 51 55 70 56 35 57 36 58 50 60
REMARK SMILES IDX 71 61 38 62 22 63 23 64 31 65 24 66 25 67 29 68 32 69 26 70
REMARK SMILES IDX 27 71 30 72 28 73 54 74 55 75 63 76 56 77 57 78 61 79 64 80
REMARK SMILES IDX 58 81 59 82 62 83 60 84 39 85 40 86 48 87 41 88 42 89 46 90
REMARK SMILES IDX 49 91 43 92 44 93 47 94 45 95
REMARK H PARENT 5 6 1 13 1 14 1 15 82 21 10 29 69 48 37 59
REMARK Flexibility Score: inf
ROOT
ATOM      1  C   UNL A   1      31.918  30.594  26.215  1.00  0.00     0.023 C 
ENDROOT
BRANCH   1   2
ATOM      2  C   UNL A   1      32.344  29.579  27.276  1.00  0.00     0.116 C 
BRANCH   2   3
ATOM      3  N   UNL A   1      31.519  28.389  27.249  1.00  0.00    -0.351 N 
ATOM      4  C   UNL A   1      31.610  27.235  26.530  1.00  0.00     0.281 C 
ATOM      5  O   UNL A   1      30.841  26.336  26.902  1.00  0.00    -0.268 OA
ATOM      6  H   UNL A   1      30.751  28.419  27.864  1.00  0.00     0.163 HD
BRANCH   4   7
ATOM      7  C   UNL A   1      32.643  26.974  25.389  1.00  0.00     0.177 C 
ATOM      8  C   UNL A   1      32.542  25.475  25.040  1.00  0.00     0.079 C 
ATOM      9  C   UNL A   1      32.391  27.666  24.015  1.00  0.00     0.066 C 
ATOM     10  C   UNL A   1      33.188  25.333  23.676  1.00  0.00     0.008 C 
ATOM     11  C   UNL A   1      32.874  26.638  22.953  1.00  0.00     0.011 C 
BRANCH   7  12
ATOM     12  N   UNL A   1      34.048  27.286  25.765  1.00  0.00    -0.345 N 
ATOM     13  H   UNL A   1      34.614  26.439  25.696  1.00  0.00     0.345 HD
ATOM     14  H   UNL A   1      34.074  27.635  26.723  1.00  0.00     0.345 HD
ATOM     15  H   UNL A   1      34.419  27.996  25.133  1.00  0.00     0.345 HD
ENDBRANCH   7  12
BRANCH   9  16
ATOM     16  C   UNL A   1      30.973  28.153  23.650  1.00  0.00     0.072 C 
BRANCH  16  17
ATOM     17  C   UNL A   1      30.813  28.883  22.301  1.00  0.00     0.262 C 
BRANCH  17  18
ATOM     18  N   UNL A   1      30.129  30.189  22.364  1.00  0.00    -0.335 N 
ATOM     19  C   UNL A   1      29.065  30.297  21.352  1.00  0.00     0.262 C 
ATOM     20  C   UNL A   1      29.575  30.383  23.717  1.00  0.00     0.262 C 
ATOM     21  H   UNL A   1      30.812  30.920  22.161  1.00  0.00     0.348 HD
ATOM     22  C   UNL A   1      28.389  31.669  21.414  1.00  0.00     0.062 C 
ATOM     23  C   UNL A   1      28.902  31.746  23.861  1.00  0.00     0.062 C 
ATOM     24  C   UNL A   1      27.824  31.945  22.802  1.00  0.00     0.012 C 
ENDBRANCH  17  18
ENDBRANCH  16  17
ENDBRANCH   9  16
ENDBRANCH   4   7
ENDBRANCH   2   3
ENDBRANCH   1   2
BRANCH   1  25
ATOM     25  C   UNL A   1      31.552  31.977  26.769  1.00  0.00     0.023 C 
BRANCH  25  26
ATOM     26  C   UNL A   1      32.720  32.799  27.308  1.00  0.00     0.116 C 
BRANCH  26  27
ATOM     27  N   UNL A   1      32.364  34.167  27.652  1.00  0.00    -0.352 N 
ATOM     28  C   UNL A   1      32.951  34.999  28.576  1.00  0.00     0.251 C 
ATOM     29  H   UNL A   1      31.603  34.547  27.158  1.00  0.00     0.163 HD
ATOM     30  O   UNL A   1      32.477  36.103  28.813  1.00  0.00    -0.269 OA
BRANCH  28  31
ATOM     31  C   UNL A   1      34.139  34.529  29.320  1.00  0.00     0.039 A 
ATOM     32  C   UNL A   1      33.968  34.051  30.622  1.00  0.00     0.014 A 
ATOM     33  C   UNL A   1      35.404  34.533  28.728  1.00  0.00     0.014 A 
ATOM     34  C   UNL A   1      35.057  33.508  31.306  1.00  0.00     0.010 A 
ATOM     35  C   UNL A   1      36.474  33.935  29.386  1.00  0.00     0.010 A 
ATOM     36  C   UNL A   1      36.309  33.412  30.677  1.00  0.00    -0.014 A 
BRANCH  36  37
ATOM     37  C   UNL A   1      37.456  32.754  31.350  1.00  0.00     0.031 A 
ATOM     38  C   UNL A   1      38.166  31.610  30.686  1.00  0.00     0.074 A 
ATOM     39  C   UNL A   1      37.806  33.140  32.592  1.00  0.00     0.049 A 
ATOM     40  N   UNL A   1      39.135  30.859  31.144  1.00  0.00    -0.248 NA
ATOM     41  C   UNL A   1      37.709  31.246  29.336  1.00  0.00     0.031 C 
ATOM     42  C   UNL A   1      37.158  34.203  33.362  1.00  0.00     0.029 A 
ATOM     43  N   UNL A   1      38.785  32.671  33.433  1.00  0.00    -0.354 N 
ATOM     44  C   UNL A   1      39.390  29.925  30.149  1.00  0.00     0.074 A 
ATOM     45  C   UNL A   1      38.443  30.173  29.083  1.00  0.00     0.031 C 
ATOM     46  C   UNL A   1      37.768  34.318  34.553  1.00  0.00     0.029 A 
ATOM     47  C   UNL A   1      38.825  33.315  34.645  1.00  0.00     0.049 A 
ATOM     48  H   UNL A   1      39.400  31.941  33.190  1.00  0.00     0.167 HD
ATOM     49  C   UNL A   1      40.342  28.962  30.119  1.00  0.00     0.037 A 
ATOM     50  C   UNL A   1      39.621  33.115  35.711  1.00  0.00     0.037 A 
ATOM     51  C   UNL A   1      41.301  28.738  31.170  1.00  0.00     0.049 A 
ATOM     52  C   UNL A   1      40.676  32.043  35.650  1.00  0.00     0.074 A 
ATOM     53  C   UNL A   1      42.344  27.831  31.206  1.00  0.00     0.029 A 
ATOM     54  N   UNL A   1      41.328  29.430  32.372  1.00  0.00    -0.354 N 
ATOM     55  N   UNL A   1      40.954  31.212  34.675  1.00  0.00    -0.248 NA
ATOM     56  C   UNL A   1      41.531  31.887  36.834  1.00  0.00     0.031 C 
ATOM     57  C   UNL A   1      42.980  27.947  32.447  1.00  0.00     0.029 A 
ATOM     58  C   UNL A   1      42.361  28.956  33.166  1.00  0.00     0.049 A 
ATOM     59  H   UNL A   1      40.706  30.150  32.624  1.00  0.00     0.167 HD
ATOM     60  C   UNL A   1      42.030  30.455  35.116  1.00  0.00     0.074 A 
ATOM     61  C   UNL A   1      42.365  30.934  36.440  1.00  0.00     0.031 C 
ATOM     62  C   UNL A   1      42.684  29.452  34.479  1.00  0.00     0.037 A 
BRANCH  49  63
ATOM     63  C   UNL A   1      40.398  28.081  28.905  1.00  0.00     0.064 A 
ATOM     64  C   UNL A   1      39.692  26.871  28.843  1.00  0.00     0.173 A 
ATOM     65  C   UNL A   1      41.141  28.465  27.780  1.00  0.00     0.173 A 
ATOM     66  F   UNL A   1      38.974  26.452  29.898  1.00  0.00    -0.203 F 
ATOM     67  C   UNL A   1      39.750  26.063  27.711  1.00  0.00     0.198 A 
ATOM     68  C   UNL A   1      41.174  27.670  26.637  1.00  0.00     0.198 A 
ATOM     69  F   UNL A   1      41.831  29.616  27.784  1.00  0.00    -0.203 F 
ATOM     70  F   UNL A   1      39.107  24.888  27.693  1.00  0.00    -0.200 F 
ATOM     71  C   UNL A   1      40.486  26.467  26.606  1.00  0.00     0.200 A 
ATOM     72  F   UNL A   1      41.876  28.066  25.566  1.00  0.00    -0.200 F 
ATOM     73  F   UNL A   1      40.538  25.691  25.514  1.00  0.00    -0.200 F 
ENDBRANCH  49  63
BRANCH  50  74
ATOM     74  C   UNL A   1      39.473  33.967  36.919  1.00  0.00     0.064 A 
ATOM     75  C   UNL A   1      38.720  33.529  38.017  1.00  0.00     0.173 A 
ATOM     76  C   UNL A   1      40.076  35.230  37.002  1.00  0.00     0.173 A 
ATOM     77  F   UNL A   1      38.107  32.336  37.976  1.00  0.00    -0.203 F 
ATOM     78  C   UNL A   1      38.559  34.330  39.145  1.00  0.00     0.198 A 
ATOM     79  C   UNL A   1      39.937  36.020  38.141  1.00  0.00     0.198 A 
ATOM     80  F   UNL A   1      40.812  35.691  35.980  1.00  0.00    -0.203 F 
ATOM     81  F   UNL A   1      37.799  33.906  40.164  1.00  0.00    -0.200 F 
ATOM     82  C   UNL A   1      39.172  35.573  39.209  1.00  0.00     0.200 A 
ATOM     83  F   UNL A   1      40.542  37.213  38.205  1.00  0.00    -0.200 F 
ATOM     84  F   UNL A   1      39.021  36.342  40.295  1.00  0.00    -0.200 F 
ENDBRANCH  50  74
BRANCH  62  85
ATOM     85  C   UNL A   1      43.848  28.829  35.192  1.00  0.00     0.064 A 
ATOM     86  C   UNL A   1      43.680  27.750  36.070  1.00  0.00     0.173 A 
ATOM     87  C   UNL A   1      45.153  29.293  34.960  1.00  0.00     0.173 A 
ATOM     88  F   UNL A   1      42.452  27.281  36.337  1.00  0.00    -0.203 F 
ATOM     89  C   UNL A   1      44.774  27.170  36.709  1.00  0.00     0.198 A 
ATOM     90  C   UNL A   1      46.245  28.693  35.577  1.00  0.00     0.198 A 
ATOM     91  F   UNL A   1      45.366  30.320  34.124  1.00  0.00    -0.203 F 
ATOM     92  F   UNL A   1      44.586  26.168  37.577  1.00  0.00    -0.200 F 
ATOM     93  C   UNL A   1      46.055  27.637  36.455  1.00  0.00     0.200 A 
ATOM     94  F   UNL A   1      47.484  29.139  35.323  1.00  0.00    -0.200 F 
ATOM     95  F   UNL A   1      47.108  27.073  37.064  1.00  0.00    -0.200 F 
ENDBRANCH  62  85
ENDBRANCH  36  37
ENDBRANCH  28  31
ENDBRANCH  26  27
ENDBRANCH  25  26
ENDBRANCH   1  25
TORSDOF 15
ENDMDL
MODEL 2
REMARK VINA RESULT:     -12.2      0.591      7.586
REMARK SMILES [NH3+][C@]1(C(=O)NCCCCNC(=O)c2ccc(-c3c4nc(c(-c5c(F)c(F)c(F)c(F)c5F)c5ccc([nH]5)c(-c5c(F)c(F)c(F)c(F)c5F)c5nc(c(-c6c(F)c(F)c(F)c(F)c6F)c6ccc3[nH]6)C=C5)C=C4)cc2)CCC[C@H]1CC[NH+]1CCCCC1
REMARK SMILES IDX 7 1 6 2 5 3 3 4 4 5 2 7 76 8 79 9 77 10 78 11 1 12 80 16
REMARK SMILES IDX 81 17 82 18 83 19 87 20 84 22 86 23 85 24 8 25 9 26 10 27
REMARK SMILES IDX 11 28 12 30 13 31 14 32 75 33 15 34 74 35 16 36 17 37 18 38
REMARK SMILES IDX 68 39 19 40 73 41 67 42 69 43 20 44 72 45 66 46 65 47 21 49
REMARK SMILES IDX 53 50 33 51 52 52 34 53 37 54 51 55 70 56 35 57 36 58 50 60
REMARK SMILES IDX 71 61 38 62 22 63 23 64 31 65 24 66 25 67 29 68 32 69 26 70
REMARK SMILES IDX 27 71 30 72 28 73 54 74 55 75 63 76 56 77 57 78 61 79 64 80
REMARK SMILES IDX 58 81 59 82 62 83 60 84 39 85 40 86 48 87 41 88 42 89 46 90
REMARK SMILES IDX 49 91 43 92 44 93 47 94 45 95
REMARK H PARENT 5 6 1 13 1 14 1 15 82 21 10 29 69 48 37 59
REMARK Flexibility Score: inf
ROOT
ATOM      1  C   UNL A   1      31.703  30.669  26.193  1.00  0.00     0.023 C 
ENDROOT
BRANCH   1   2
ATOM      2  C   UNL A   1      32.155  29.664  27.251  1.00  0.00     0.116 C 
BRANCH   2   3
ATOM      3  N   UNL A   1      31.403  28.428  27.182  1.00  0.00    -0.351 N 
ATOM      4  C   UNL A   1      31.582  27.294  26.450  1.00  0.00     0.281 C 
ATOM      5  O   UNL A   1      30.856  26.346  26.784  1.00  0.00    -0.268 OA
ATOM      6  H   UNL A   1      30.616  28.404  27.773  1.00  0.00     0.163 HD
BRANCH   4   7
ATOM      7  C   UNL A   1      32.662  27.111  25.337  1.00  0.00     0.177 C 
ATOM      8  C   UNL A   1      32.689  25.609  24.993  1.00  0.00     0.079 C 
ATOM      9  C   UNL A   1      32.393  27.778  23.953  1.00  0.00     0.066 C 
ATOM     10  C   UNL A   1      33.379  25.514  23.647  1.00  0.00     0.008 C 
ATOM     11  C   UNL A   1      32.983  26.788  22.909  1.00  0.00     0.011 C 
BRANCH   7  12
ATOM     12  N   UNL A   1      34.028  27.534  25.748  1.00  0.00    -0.345 N 
ATOM     13  H   UNL A   1      34.225  28.461  25.369  1.00  0.00     0.345 HD
ATOM     14  H   UNL A   1      34.712  26.869  25.390  1.00  0.00     0.345 HD
ATOM     15  H   UNL A   1      34.082  27.564  26.766  1.00  0.00     0.345 HD
ENDBRANCH   7  12
BRANCH   9  16
ATOM     16  C   UNL A   1      30.951  28.151  23.549  1.00  0.00     0.072 C 
BRANCH  16  17
ATOM     17  C   UNL A   1      30.777  28.929  22.229  1.00  0.00     0.262 C 
BRANCH  17  18
ATOM     18  N   UNL A   1      30.088  30.229  22.346  1.00  0.00    -0.335 N 
ATOM     19  C   UNL A   1      29.085  30.411  21.283  1.00  0.00     0.262 C 
ATOM     20  C   UNL A   1      29.455  30.326  23.674  1.00  0.00     0.262 C 
ATOM     21  H   UNL A   1      30.780  30.971  22.236  1.00  0.00     0.348 HD
ATOM     22  C   UNL A   1      28.403  31.777  21.404  1.00  0.00     0.062 C 
ATOM     23  C   UNL A   1      28.771  31.677  23.876  1.00  0.00     0.062 C 
ATOM     24  C   UNL A   1      27.757  31.953  22.773  1.00  0.00     0.012 C 
ENDBRANCH  17  18
ENDBRANCH  16  17
ENDBRANCH   9  16
ENDBRANCH   4   7
ENDBRANCH   2   3
ENDBRANCH   1   2
BRANCH   1  25
ATOM     25  C   UNL A   1      31.453  32.085  26.726  1.00  0.00     0.023 C 
BRANCH  25  26
ATOM     26  C   UNL A   1      32.695  32.838  27.199  1.00  0.00     0.116 C 
BRANCH  26  27
ATOM     27  N   UNL A   1      32.425  34.202  27.626  1.00  0.00    -0.352 N 
ATOM     28  C   UNL A   1      33.057  34.936  28.603  1.00  0.00     0.251 C 
ATOM     29  H   UNL A   1      31.695  34.662  27.153  1.00  0.00     0.163 HD
ATOM     30  O   UNL A   1      32.653  36.051  28.906  1.00  0.00    -0.269 OA
BRANCH  28  31
ATOM     31  C   UNL A   1      34.205  34.344  29.322  1.00  0.00     0.039 A 
ATOM     32  C   UNL A   1      33.956  33.571  30.458  1.00  0.00     0.014 A 
ATOM     33  C   UNL A   1      35.511  34.528  28.862  1.00  0.00     0.014 A 
ATOM     34  C   UNL A   1      35.014  32.919  31.093  1.00  0.00     0.010 A 
ATOM     35  C   UNL A   1      36.555  33.827  29.458  1.00  0.00     0.010 A 
ATOM     36  C   UNL A   1      36.316  33.012  30.574  1.00  0.00    -0.014 A 
BRANCH  36  37
ATOM     37  C   UNL A   1      37.439  32.254  31.178  1.00  0.00     0.031 A 
ATOM     38  C   UNL A   1      37.935  32.606  32.550  1.00  0.00     0.074 A 
ATOM     39  C   UNL A   1      38.059  31.300  30.457  1.00  0.00     0.049 A 
ATOM     40  N   UNL A   1      38.951  32.115  33.215  1.00  0.00    -0.248 NA
ATOM     41  C   UNL A   1      37.209  33.670  33.260  1.00  0.00     0.031 C 
ATOM     42  C   UNL A   1      37.703  30.905  29.093  1.00  0.00     0.029 A 
ATOM     43  N   UNL A   1      39.131  30.500  30.765  1.00  0.00    -0.354 N 
ATOM     44  C   UNL A   1      38.995  32.821  34.410  1.00  0.00     0.074 A 
ATOM     45  C   UNL A   1      37.936  33.805  34.360  1.00  0.00     0.031 C 
ATOM     46  C   UNL A   1      38.528  29.925  28.690  1.00  0.00     0.029 A 
ATOM     47  C   UNL A   1      39.492  29.648  29.751  1.00  0.00     0.049 A 
ATOM     48  H   UNL A   1      39.597  30.533  31.632  1.00  0.00     0.167 HD
ATOM     49  C   UNL A   1      39.830  32.647  35.462  1.00  0.00     0.037 A 
ATOM     50  C   UNL A   1      40.492  28.749  29.682  1.00  0.00     0.037 A 
ATOM     51  C   UNL A   1      40.864  31.647  35.519  1.00  0.00     0.049 A 
ATOM     52  C   UNL A   1      41.401  28.570  30.868  1.00  0.00     0.074 A 
ATOM     53  C   UNL A   1      41.719  31.349  36.564  1.00  0.00     0.029 A 
ATOM     54  N   UNL A   1      41.182  30.783  34.481  1.00  0.00    -0.354 N 
ATOM     55  N   UNL A   1      41.389  29.195  32.020  1.00  0.00    -0.248 NA
ATOM     56  C   UNL A   1      42.458  27.558  30.744  1.00  0.00     0.031 C 
ATOM     57  C   UNL A   1      42.582  30.330  36.146  1.00  0.00     0.029 A 
ATOM     58  C   UNL A   1      42.234  29.962  34.856  1.00  0.00     0.049 A 
ATOM     59  H   UNL A   1      40.727  30.756  33.609  1.00  0.00     0.167 HD
ATOM     60  C   UNL A   1      42.415  28.634  32.768  1.00  0.00     0.074 A 
ATOM     61  C   UNL A   1      43.021  27.609  31.944  1.00  0.00     0.031 C 
ATOM     62  C   UNL A   1      42.819  28.940  34.025  1.00  0.00     0.037 A 
BRANCH  49  63
ATOM     63  C   UNL A   1      39.654  33.557  36.643  1.00  0.00     0.064 A 
ATOM     64  C   UNL A   1      40.302  34.799  36.715  1.00  0.00     0.173 A 
ATOM     65  C   UNL A   1      38.806  33.197  37.700  1.00  0.00     0.173 A 
ATOM     66  F   UNL A   1      41.134  35.186  35.735  1.00  0.00    -0.203 F 
ATOM     67  C   UNL A   1      40.130  35.635  37.815  1.00  0.00     0.198 A 
ATOM     68  C   UNL A   1      38.612  34.048  38.784  1.00  0.00     0.198 A 
ATOM     69  F   UNL A   1      38.157  32.023  37.677  1.00  0.00    -0.203 F 
ATOM     70  F   UNL A   1      40.798  36.795  37.885  1.00  0.00    -0.200 F 
ATOM     71  C   UNL A   1      39.279  35.262  38.845  1.00  0.00     0.200 A 
ATOM     72  F   UNL A   1      37.781  33.692  39.774  1.00  0.00    -0.200 F 
ATOM     73  F   UNL A   1      39.110  36.069  39.902  1.00  0.00    -0.200 F 
ENDBRANCH  49  63
BRANCH  50  74
ATOM     74  C   UNL A   1      40.668  27.926  28.458  1.00  0.00     0.064 A 
ATOM     75  C   UNL A   1      41.451  28.387  27.391  1.00  0.00     0.173 A 
ATOM     76  C   UNL A   1      40.061  26.668  28.329  1.00  0.00     0.173 A 
ATOM     77  F   UNL A   1      42.034  29.593  27.461  1.00  0.00    -0.203 F 
ATOM     78  C   UNL A   1      41.605  27.630  26.232  1.00  0.00     0.198 A 
ATOM     79  C   UNL A   1      40.237  25.901  27.180  1.00  0.00     0.198 A 
ATOM     80  F   UNL A   1      39.307  26.180  29.325  1.00  0.00    -0.203 F 
ATOM     81  F   UNL A   1      42.323  28.113  25.209  1.00  0.00    -0.200 F 
ATOM     82  C   UNL A   1      41.002  26.385  26.129  1.00  0.00     0.200 A 
ATOM     83  F   UNL A   1      39.666  24.692  27.089  1.00  0.00    -0.200 F 
ATOM     84  F   UNL A   1      41.153  25.655  25.015  1.00  0.00    -0.200 F 
ENDBRANCH  50  74
BRANCH  62  85
ATOM     85  C   UNL A   1      43.946  28.136  34.600  1.00  0.00     0.064 A 
ATOM     86  C   UNL A   1      45.278  28.563  34.505  1.00  0.00     0.173 A 
ATOM     87  C   UNL A   1      43.686  26.942  35.291  1.00  0.00     0.173 A 
ATOM     88  F   UNL A   1      45.580  29.689  33.841  1.00  0.00    -0.203 F 
ATOM     89  C   UNL A   1      46.312  27.814  35.062  1.00  0.00     0.198 A 
ATOM     90  C   UNL A   1      44.718  26.211  35.871  1.00  0.00     0.198 A 
ATOM     91  F   UNL A   1      42.428  26.493  35.414  1.00  0.00    -0.203 F 
ATOM     92  F   UNL A   1      47.581  28.219  34.922  1.00  0.00    -0.200 F 
ATOM     93  C   UNL A   1      46.029  26.643  35.751  1.00  0.00     0.200 A 
ATOM     94  F   UNL A   1      44.442  25.085  36.545  1.00  0.00    -0.200 F 
ATOM     95  F   UNL A   1      47.024  25.927  36.293  1.00  0.00    -0.200 F 
ENDBRANCH  62  85
ENDBRANCH  36  37
ENDBRANCH  28  31
ENDBRANCH  26  27
ENDBRANCH  25  26
ENDBRANCH   1  25
TORSDOF 15
ENDMDL
MODEL 3
REMARK VINA RESULT:     -12.1      0.431      2.086
REMARK SMILES [NH3+][C@]1(C(=O)NCCCCNC(=O)c2ccc(-c3c4nc(c(-c5c(F)c(F)c(F)c(F)c5F)c5ccc([nH]5)c(-c5c(F)c(F)c(F)c(F)c5F)c5nc(c(-c6c(F)c(F)c(F)c(F)c6F)c6ccc3[nH]6)C=C5)C=C4)cc2)CCC[C@H]1CC[NH+]1CCCCC1
REMARK SMILES IDX 7 1 6 2 5 3 3 4 4 5 2 7 76 8 79 9 77 10 78 11 1 12 80 16
REMARK SMILES IDX 81 17 82 18 83 19 87 20 84 22 86 23 85 24 8 25 9 26 10 27
REMARK SMILES IDX 11 28 12 30 13 31 14 32 75 33 15 34 74 35 16 36 17 37 18 38
REMARK SMILES IDX 68 39 19 40 73 41 67 42 69 43 20 44 72 45 66 46 65 47 21 49
REMARK SMILES IDX 53 50 33 51 52 52 34 53 37 54 51 55 70 56 35 57 36 58 50 60
REMARK SMILES IDX 71 61 38 62 22 63 23 64 31 65 24 66 25 67 29 68 32 69 26 70
REMARK SMILES IDX 27 71 30 72 28 73 54 74 55 75 63 76 56 77 57 78 61 79 64 80
REMARK SMILES IDX 58 81 59 82 62 83 60 84 39 85 40 86 48 87 41 88 42 89 46 90
REMARK SMILES IDX 49 91 43 92 44 93 47 94 45 95
REMARK H PARENT 5 6 1 13 1 14 1 15 82 21 10 29 69 48 37 59
REMARK Flexibility Score: inf
ROOT
ATOM      1  C   UNL A   1      31.775  30.673  26.104  1.00  0.00     0.023 C 
ENDROOT
BRANCH   1   2
ATOM      2  C   UNL A   1      32.600  29.654  26.888  1.00  0.00     0.116 C 
BRANCH   2   3
ATOM      3  N   UNL A   1      31.883  28.410  27.081  1.00  0.00    -0.351 N 
ATOM      4  C   UNL A   1      31.781  27.290  26.313  1.00  0.00     0.281 C 
ATOM      5  O   UNL A   1      31.238  26.328  26.876  1.00  0.00    -0.268 OA
ATOM      6  H   UNL A   1      31.375  28.367  27.923  1.00  0.00     0.163 HD
BRANCH   4   7
ATOM      7  C   UNL A   1      32.366  27.139  24.873  1.00  0.00     0.177 C 
ATOM      8  C   UNL A   1      32.210  25.654  24.489  1.00  0.00     0.079 C 
ATOM      9  C   UNL A   1      31.628  27.875  23.713  1.00  0.00     0.066 C 
ATOM     10  C   UNL A   1      32.350  25.610  22.980  1.00  0.00     0.008 C 
ATOM     11  C   UNL A   1      31.755  26.925  22.489  1.00  0.00     0.011 C 
BRANCH   7  12
ATOM     12  N   UNL A   1      33.801  27.516  24.763  1.00  0.00    -0.345 N 
ATOM     13  H   UNL A   1      33.922  28.172  23.990  1.00  0.00     0.345 HD
ATOM     14  H   UNL A   1      34.359  26.680  24.590  1.00  0.00     0.345 HD
ATOM     15  H   UNL A   1      34.104  27.954  25.633  1.00  0.00     0.345 HD
ENDBRANCH   7  12
BRANCH   9  16
ATOM     16  C   UNL A   1      30.153  28.295  23.886  1.00  0.00     0.072 C 
BRANCH  16  17
ATOM     17  C   UNL A   1      29.339  28.527  22.597  1.00  0.00     0.262 C 
BRANCH  17  18
ATOM     18  N   UNL A   1      28.615  29.810  22.527  1.00  0.00    -0.335 N 
ATOM     19  C   UNL A   1      29.061  30.747  23.572  1.00  0.00     0.262 C 
ATOM     20  C   UNL A   1      28.803  30.402  21.190  1.00  0.00     0.262 C 
ATOM     21  H   UNL A   1      27.623  29.629  22.689  1.00  0.00     0.348 HD
ATOM     22  C   UNL A   1      28.276  32.059  23.501  1.00  0.00     0.062 C 
ATOM     23  C   UNL A   1      28.028  31.710  21.037  1.00  0.00     0.062 C 
ATOM     24  C   UNL A   1      28.403  32.706  22.127  1.00  0.00     0.012 C 
ENDBRANCH  17  18
ENDBRANCH  16  17
ENDBRANCH   9  16
ENDBRANCH   4   7
ENDBRANCH   2   3
ENDBRANCH   1   2
BRANCH   1  25
ATOM     25  C   UNL A   1      31.457  31.962  26.873  1.00  0.00     0.023 C 
BRANCH  25  26
ATOM     26  C   UNL A   1      32.669  32.781  27.312  1.00  0.00     0.116 C 
BRANCH  26  27
ATOM     27  N   UNL A   1      32.356  34.166  27.628  1.00  0.00    -0.352 N 
ATOM     28  C   UNL A   1      32.967  34.998  28.537  1.00  0.00     0.251 C 
ATOM     29  H   UNL A   1      31.608  34.560  27.125  1.00  0.00     0.163 HD
ATOM     30  O   UNL A   1      32.528  36.120  28.751  1.00  0.00    -0.269 OA
BRANCH  28  31
ATOM     31  C   UNL A   1      34.138  34.505  29.292  1.00  0.00     0.039 A 
ATOM     32  C   UNL A   1      33.931  33.936  30.551  1.00  0.00     0.014 A 
ATOM     33  C   UNL A   1      35.424  34.579  28.751  1.00  0.00     0.014 A 
ATOM     34  C   UNL A   1      35.008  33.372  31.238  1.00  0.00     0.010 A 
ATOM     35  C   UNL A   1      36.484  33.961  29.407  1.00  0.00     0.010 A 
ATOM     36  C   UNL A   1      36.285  33.347  30.653  1.00  0.00    -0.014 A 
BRANCH  36  37
ATOM     37  C   UNL A   1      37.423  32.672  31.324  1.00  0.00     0.031 A 
ATOM     38  C   UNL A   1      38.122  31.525  30.653  1.00  0.00     0.074 A 
ATOM     39  C   UNL A   1      37.774  33.044  32.570  1.00  0.00     0.049 A 
ATOM     40  N   UNL A   1      39.080  30.759  31.108  1.00  0.00    -0.248 NA
ATOM     41  C   UNL A   1      37.663  31.176  29.299  1.00  0.00     0.031 C 
ATOM     42  C   UNL A   1      37.136  34.109  33.346  1.00  0.00     0.029 A 
ATOM     43  N   UNL A   1      38.745  32.557  33.409  1.00  0.00    -0.354 N 
ATOM     44  C   UNL A   1      39.327  29.830  30.106  1.00  0.00     0.074 A 
ATOM     45  C   UNL A   1      38.386  30.097  29.040  1.00  0.00     0.031 C 
ATOM     46  C   UNL A   1      37.744  34.207  34.539  1.00  0.00     0.029 A 
ATOM     47  C   UNL A   1      38.790  33.192  34.626  1.00  0.00     0.049 A 
ATOM     48  H   UNL A   1      39.352  31.823  33.162  1.00  0.00     0.167 HD
ATOM     49  C   UNL A   1      40.269  28.856  30.071  1.00  0.00     0.037 A 
ATOM     50  C   UNL A   1      39.581  32.974  35.693  1.00  0.00     0.037 A 
ATOM     51  C   UNL A   1      41.221  28.614  31.122  1.00  0.00     0.049 A 
ATOM     52  C   UNL A   1      40.623  31.892  35.626  1.00  0.00     0.074 A 
ATOM     53  C   UNL A   1      42.255  27.695  31.154  1.00  0.00     0.029 A 
ATOM     54  N   UNL A   1      41.253  29.296  32.330  1.00  0.00    -0.354 N 
ATOM     55  N   UNL A   1      40.895  31.065  34.645  1.00  0.00    -0.248 NA
ATOM     56  C   UNL A   1      41.474  31.717  36.811  1.00  0.00     0.031 C 
ATOM     57  C   UNL A   1      42.889  27.793  32.398  1.00  0.00     0.029 A 
ATOM     58  C   UNL A   1      42.279  28.804  33.122  1.00  0.00     0.049 A 
ATOM     59  H   UNL A   1      40.639  30.021  32.586  1.00  0.00     0.167 HD
ATOM     60  C   UNL A   1      41.961  30.292  35.083  1.00  0.00     0.074 A 
ATOM     61  C   UNL A   1      42.297  30.757  36.412  1.00  0.00     0.031 C 
ATOM     62  C   UNL A   1      42.605  29.287  34.441  1.00  0.00     0.037 A 
BRANCH  49  63
ATOM     63  C   UNL A   1      40.318  27.984  28.850  1.00  0.00     0.064 A 
ATOM     64  C   UNL A   1      41.068  28.343  27.721  1.00  0.00     0.173 A 
ATOM     65  C   UNL A   1      39.631  26.762  28.820  1.00  0.00     0.173 A 
ATOM     66  F   UNL A   1      41.734  29.509  27.694  1.00  0.00    -0.203 F 
ATOM     67  C   UNL A   1      41.107  27.525  26.595  1.00  0.00     0.198 A 
ATOM     68  C   UNL A   1      39.696  25.931  27.705  1.00  0.00     0.198 A 
ATOM     69  F   UNL A   1      38.903  26.368  29.876  1.00  0.00    -0.203 F 
ATOM     70  F   UNL A   1      41.791  27.912  25.510  1.00  0.00    -0.200 F 
ATOM     71  C   UNL A   1      40.427  26.317  26.591  1.00  0.00     0.200 A 
ATOM     72  F   UNL A   1      39.048  24.758  27.705  1.00  0.00    -0.200 F 
ATOM     73  F   UNL A   1      40.469  25.526  25.509  1.00  0.00    -0.200 F 
ENDBRANCH  49  63
BRANCH  50  74
ATOM     74  C   UNL A   1      39.439  33.819  36.907  1.00  0.00     0.064 A 
ATOM     75  C   UNL A   1      40.076  35.064  36.993  1.00  0.00     0.173 A 
ATOM     76  C   UNL A   1      38.668  33.402  38.002  1.00  0.00     0.173 A 
ATOM     77  F   UNL A   1      40.840  35.496  35.978  1.00  0.00    -0.203 F 
ATOM     78  C   UNL A   1      39.964  35.853  38.135  1.00  0.00     0.198 A 
ATOM     79  C   UNL A   1      38.535  34.203  39.134  1.00  0.00     0.198 A 
ATOM     80  F   UNL A   1      38.034  32.221  37.966  1.00  0.00    -0.203 F 
ATOM     81  F   UNL A   1      40.618  37.020  38.209  1.00  0.00    -0.200 F 
ATOM     82  C   UNL A   1      39.189  35.424  39.203  1.00  0.00     0.200 A 
ATOM     83  F   UNL A   1      37.774  33.792  40.158  1.00  0.00    -0.200 F 
ATOM     84  F   UNL A   1      39.078  36.184  40.301  1.00  0.00    -0.200 F 
ENDBRANCH  50  74
BRANCH  62  85
ATOM     85  C   UNL A   1      43.760  28.645  35.151  1.00  0.00     0.064 A 
ATOM     86  C   UNL A   1      45.065  29.141  35.029  1.00  0.00     0.173 A 
ATOM     87  C   UNL A   1      43.549  27.545  35.998  1.00  0.00     0.173 A 
ATOM     88  F   UNL A   1      45.320  30.180  34.219  1.00  0.00    -0.203 F 
ATOM     89  C   UNL A   1      46.123  28.546  35.711  1.00  0.00     0.198 A 
ATOM     90  C   UNL A   1      44.604  26.971  36.700  1.00  0.00     0.198 A 
ATOM     91  F   UNL A   1      42.318  27.038  36.152  1.00  0.00    -0.203 F 
ATOM     92  F   UNL A   1      47.369  29.009  35.546  1.00  0.00    -0.200 F 
ATOM     93  C   UNL A   1      45.890  27.467  36.552  1.00  0.00     0.200 A 
ATOM     94  F   UNL A   1      44.376  25.935  37.520  1.00  0.00    -0.200 F 
ATOM     95  F   UNL A   1      46.908  26.900  37.214  1.00  0.00    -0.200 F 
ENDBRANCH  62  85
ENDBRANCH  36  37
ENDBRANCH  28  31
ENDBRANCH  26  27
ENDBRANCH  25  26
ENDBRANCH   1  25
TORSDOF 15
ENDMDL
