MODEL 1
REMARK VINA RESULT:     -12.6      0.000      0.000
REMARK SMILES Cn1cc(S(=O)(=O)N2CCC(C(=O)NCCCCNC(=O)c3ccc(-c4c5nc(c(-c6c(F)c(F)c(F)c(F)c6F)c6ccc([nH]6)c(-c6c(F)c(F)c(F)c(F)c6F)c6nc(c(-c7c(F)c(F)c(F)c(F)c7F)c7ccc4[nH]7)C=C6)C=C5)cc3)CC2)cc1C(=O)N1CCCCC1
REMARK SMILES IDX 16 1 15 2 14 3 12 4 13 5 11 7 8 8 9 9 86 10 10 11 85 12 5 13
REMARK SMILES IDX 6 14 7 15 4 16 1 17 2 18 3 19 88 20 87 21 89 22 90 23 91 24
REMARK SMILES IDX 92 25 96 26 93 27 95 28 94 29 17 30 18 31 19 32 20 33 21 35
REMARK SMILES IDX 22 36 23 37 84 38 24 39 83 40 25 41 26 42 27 43 77 44 28 45
REMARK SMILES IDX 82 46 76 47 78 48 29 49 81 50 75 51 74 52 30 54 62 55 42 56
REMARK SMILES IDX 61 57 43 58 46 59 60 60 79 61 44 62 45 63 59 65 80 66 47 67
REMARK SMILES IDX 31 68 32 69 40 70 33 71 34 72 38 73 41 74 35 75 36 76 39 77
REMARK SMILES IDX 37 78 63 79 64 80 72 81 65 82 66 83 70 84 73 85 67 86 68 87
REMARK SMILES IDX 71 88 69 89 48 90 49 91 57 92 50 93 51 94 55 95 58 96 52 97
REMARK SMILES IDX 53 98 56 99 54 100
REMARK H PARENT 14 6 19 34 78 53 46 64
REMARK Flexibility Score: inf
ROOT
ATOM      1  C   UNL A   1      34.938  32.589  27.998  1.00  0.00     0.023 C 
ENDROOT
BRANCH   1   2
ATOM      2  C   UNL A   1      34.701  31.156  27.527  1.00  0.00     0.116 C 
BRANCH   2   3
ATOM      3  N   UNL A   1      33.343  30.718  27.795  1.00  0.00    -0.356 N 
ATOM      4  C   UNL A   1      32.542  29.839  27.136  1.00  0.00     0.223 C 
ATOM      5  O   UNL A   1      31.404  29.659  27.577  1.00  0.00    -0.275 OA
ATOM      6  H   UNL A   1      32.930  31.128  28.590  1.00  0.00     0.163 HD
BRANCH   4   7
ATOM      7  C   UNL A   1      33.020  29.072  25.913  1.00  0.00     0.081 C 
ATOM      8  N   UNL A   1      32.678  27.000  23.954  1.00  0.00    -0.198 NA
ATOM      9  C   UNL A   1      33.733  26.833  24.985  1.00  0.00     0.103 C 
ATOM     10  C   UNL A   1      32.451  28.401  23.539  1.00  0.00     0.103 C 
ATOM     11  C   UNL A   1      33.369  27.618  26.233  1.00  0.00     0.030 C 
ATOM     12  C   UNL A   1      32.051  29.243  24.739  1.00  0.00     0.030 C 
BRANCH   8  13
ATOM     13  S   UNL A   1      32.711  25.856  22.684  1.00  0.00     0.244 S 
ATOM     14  O   UNL A   1      34.027  25.861  22.083  1.00  0.00    -0.207 OA
ATOM     15  O   UNL A   1      31.512  26.029  21.892  1.00  0.00    -0.207 OA
BRANCH  13  16
ATOM     16  C   UNL A   1      32.548  24.253  23.320  1.00  0.00     0.101 A 
ATOM     17  C   UNL A   1      31.227  21.921  25.735  1.00  0.00     0.150 C 
ATOM     18  N   UNL A   1      31.908  22.569  24.635  1.00  0.00    -0.345 N 
ATOM     19  C   UNL A   1      31.584  23.839  24.215  1.00  0.00     0.107 A 
ATOM     20  C   UNL A   1      33.047  22.133  23.985  1.00  0.00     0.108 A 
ATOM     21  C   UNL A   1      33.409  23.155  23.116  1.00  0.00     0.055 A 
BRANCH  20  22
ATOM     22  C   UNL A   1      33.880  20.978  24.277  1.00  0.00     0.270 C 
ATOM     23  O   UNL A   1      35.049  21.141  24.628  1.00  0.00    -0.267 OA
ATOM     24  N   UNL A   1      33.335  19.705  24.198  1.00  0.00    -0.337 N 
ATOM     25  C   UNL A   1      33.936  18.645  25.001  1.00  0.00     0.120 C 
ATOM     26  C   UNL A   1      32.271  19.304  23.280  1.00  0.00     0.120 C 
ATOM     27  C   UNL A   1      34.404  17.478  24.142  1.00  0.00     0.022 C 
ATOM     28  C   UNL A   1      32.708  18.124  22.410  1.00  0.00     0.022 C 
ATOM     29  C   UNL A   1      33.266  16.980  23.255  1.00  0.00     0.004 C 
ENDBRANCH  20  22
ENDBRANCH  13  16
ENDBRANCH   8  13
ENDBRANCH   4   7
ENDBRANCH   2   3
ENDBRANCH   1   2
BRANCH   1  30
ATOM     30  C   UNL A   1      33.686  33.466  28.025  1.00  0.00     0.023 C 
BRANCH  30  31
ATOM     31  C   UNL A   1      33.929  34.932  28.357  1.00  0.00     0.116 C 
BRANCH  31  32
ATOM     32  N   UNL A   1      33.016  35.456  29.361  1.00  0.00    -0.352 N 
ATOM     33  C   UNL A   1      33.073  35.316  30.726  1.00  0.00     0.251 C 
ATOM     34  H   UNL A   1      32.258  35.981  29.016  1.00  0.00     0.163 HD
ATOM     35  O   UNL A   1      32.174  35.749  31.438  1.00  0.00    -0.269 OA
BRANCH  33  36
ATOM     36  C   UNL A   1      34.212  34.596  31.329  1.00  0.00     0.039 A 
ATOM     37  C   UNL A   1      34.028  33.272  31.735  1.00  0.00     0.014 A 
ATOM     38  C   UNL A   1      35.461  35.210  31.449  1.00  0.00     0.014 A 
ATOM     39  C   UNL A   1      35.119  32.537  32.196  1.00  0.00     0.010 A 
ATOM     40  C   UNL A   1      36.559  34.459  31.852  1.00  0.00     0.010 A 
ATOM     41  C   UNL A   1      36.398  33.115  32.223  1.00  0.00    -0.014 A 
BRANCH  41  42
ATOM     42  C   UNL A   1      37.586  32.329  32.630  1.00  0.00     0.031 A 
ATOM     43  C   UNL A   1      38.261  32.613  33.939  1.00  0.00     0.074 A 
ATOM     44  C   UNL A   1      38.100  31.416  31.784  1.00  0.00     0.049 A 
ATOM     45  N   UNL A   1      39.358  32.099  34.433  1.00  0.00    -0.248 NA
ATOM     46  C   UNL A   1      37.635  33.634  34.793  1.00  0.00     0.031 C 
ATOM     47  C   UNL A   1      37.562  31.089  30.462  1.00  0.00     0.029 A 
ATOM     48  N   UNL A   1      39.199  30.605  31.906  1.00  0.00    -0.354 N 
ATOM     49  C   UNL A   1      39.567  32.749  35.641  1.00  0.00     0.074 A 
ATOM     50  C   UNL A   1      38.504  33.722  35.789  1.00  0.00     0.031 C 
ATOM     51  C   UNL A   1      38.322  30.134  29.904  1.00  0.00     0.029 A 
ATOM     52  C   UNL A   1      39.414  29.802  30.814  1.00  0.00     0.049 A 
ATOM     53  H   UNL A   1      39.779  30.599  32.703  1.00  0.00     0.167 HD
ATOM     54  C   UNL A   1      40.546  32.540  36.553  1.00  0.00     0.037 A 
ATOM     55  C   UNL A   1      40.386  28.902  30.576  1.00  0.00     0.037 A 
ATOM     56  C   UNL A   1      41.575  31.545  36.422  1.00  0.00     0.049 A 
ATOM     57  C   UNL A   1      41.443  28.666  31.617  1.00  0.00     0.074 A 
ATOM     58  C   UNL A   1      42.567  31.205  37.325  1.00  0.00     0.029 A 
ATOM     59  N   UNL A   1      41.741  30.725  35.316  1.00  0.00    -0.354 N 
ATOM     60  N   UNL A   1      41.596  29.243  32.783  1.00  0.00    -0.248 NA
ATOM     61  C   UNL A   1      42.460  27.650  31.311  1.00  0.00     0.031 C 
ATOM     62  C   UNL A   1      43.351  30.195  36.753  1.00  0.00     0.029 A 
ATOM     63  C   UNL A   1      42.826  29.888  35.507  1.00  0.00     0.049 A 
ATOM     64  H   UNL A   1      41.170  30.737  34.514  1.00  0.00     0.167 HD
ATOM     65  C   UNL A   1      42.710  28.650  33.359  1.00  0.00     0.074 A 
ATOM     66  C   UNL A   1      43.189  27.659  32.418  1.00  0.00     0.031 C 
ATOM     67  C   UNL A   1      43.283  28.903  34.560  1.00  0.00     0.037 A 
BRANCH  54  68
ATOM     68  C   UNL A   1      40.541  33.407  37.775  1.00  0.00     0.064 A 
ATOM     69  C   UNL A   1      39.665  33.164  38.844  1.00  0.00     0.173 A 
ATOM     70  C   UNL A   1      41.432  34.485  37.885  1.00  0.00     0.173 A 
ATOM     71  F   UNL A   1      38.785  32.154  38.777  1.00  0.00    -0.203 F 
ATOM     72  C   UNL A   1      39.663  33.986  39.967  1.00  0.00     0.198 A 
ATOM     73  C   UNL A   1      41.444  35.289  39.022  1.00  0.00     0.198 A 
ATOM     74  F   UNL A   1      42.290  34.758  36.891  1.00  0.00    -0.203 F 
ATOM     75  F   UNL A   1      38.785  33.763  40.955  1.00  0.00    -0.200 F 
ATOM     76  C   UNL A   1      40.554  35.044  40.057  1.00  0.00     0.200 A 
ATOM     77  F   UNL A   1      42.310  36.308  39.111  1.00  0.00    -0.200 F 
ATOM     78  F   UNL A   1      40.550  35.835  41.140  1.00  0.00    -0.200 F 
ENDBRANCH  54  68
BRANCH  55  79
ATOM     79  C   UNL A   1      40.379  28.130  29.309  1.00  0.00     0.064 A 
ATOM     80  C   UNL A   1      41.134  28.557  28.209  1.00  0.00     0.173 A 
ATOM     81  C   UNL A   1      39.635  26.949  29.175  1.00  0.00     0.173 A 
ATOM     82  F   UNL A   1      41.845  29.693  28.286  1.00  0.00    -0.203 F 
ATOM     83  C   UNL A   1      41.136  27.838  27.016  1.00  0.00     0.198 A 
ATOM     84  C   UNL A   1      39.654  26.220  27.989  1.00  0.00     0.198 A 
ATOM     85  F   UNL A   1      38.901  26.498  30.204  1.00  0.00    -0.203 F 
ATOM     86  F   UNL A   1      41.842  28.285  25.969  1.00  0.00    -0.200 F 
ATOM     87  C   UNL A   1      40.400  26.668  26.908  1.00  0.00     0.200 A 
ATOM     88  F   UNL A   1      38.950  25.084  27.890  1.00  0.00    -0.200 F 
ATOM     89  F   UNL A   1      40.407  25.973  25.762  1.00  0.00    -0.200 F 
ENDBRANCH  55  79
BRANCH  67  90
ATOM     90  C   UNL A   1      44.477  28.079  34.934  1.00  0.00     0.064 A 
ATOM     91  C   UNL A   1      44.337  26.846  35.584  1.00  0.00     0.173 A 
ATOM     92  C   UNL A   1      45.770  28.510  34.604  1.00  0.00     0.173 A 
ATOM     93  F   UNL A   1      43.120  26.401  35.935  1.00  0.00    -0.203 F 
ATOM     94  C   UNL A   1      45.453  26.078  35.905  1.00  0.00     0.198 A 
ATOM     95  C   UNL A   1      46.882  27.730  34.907  1.00  0.00     0.198 A 
ATOM     96  F   UNL A   1      45.952  29.682  33.978  1.00  0.00    -0.203 F 
ATOM     97  F   UNL A   1      45.301  24.917  36.558  1.00  0.00    -0.200 F 
ATOM     98  C   UNL A   1      46.722  26.518  35.561  1.00  0.00     0.200 A 
ATOM     99  F   UNL A   1      48.108  28.153  34.568  1.00  0.00    -0.200 F 
ATOM    100  F   UNL A   1      47.795  25.775  35.867  1.00  0.00    -0.200 F 
ENDBRANCH  67  90
ENDBRANCH  41  42
ENDBRANCH  33  36
ENDBRANCH  31  32
ENDBRANCH  30  31
ENDBRANCH   1  30
TORSDOF 14
ENDMDL
MODEL 2
REMARK VINA RESULT:     -12.5      5.752     10.775
REMARK SMILES Cn1cc(S(=O)(=O)N2CCC(C(=O)NCCCCNC(=O)c3ccc(-c4c5nc(c(-c6c(F)c(F)c(F)c(F)c6F)c6ccc([nH]6)c(-c6c(F)c(F)c(F)c(F)c6F)c6nc(c(-c7c(F)c(F)c(F)c(F)c7F)c7ccc4[nH]7)C=C6)C=C5)cc3)CC2)cc1C(=O)N1CCCCC1
REMARK SMILES IDX 16 1 15 2 14 3 12 4 13 5 11 7 8 8 9 9 86 10 10 11 85 12 5 13
REMARK SMILES IDX 6 14 7 15 4 16 1 17 2 18 3 19 88 20 87 21 89 22 90 23 91 24
REMARK SMILES IDX 92 25 96 26 93 27 95 28 94 29 17 30 18 31 19 32 20 33 21 35
REMARK SMILES IDX 22 36 23 37 84 38 24 39 83 40 25 41 26 42 27 43 77 44 28 45
REMARK SMILES IDX 82 46 76 47 78 48 29 49 81 50 75 51 74 52 30 54 62 55 42 56
REMARK SMILES IDX 61 57 43 58 46 59 60 60 79 61 44 62 45 63 59 65 80 66 47 67
REMARK SMILES IDX 31 68 32 69 40 70 33 71 34 72 38 73 41 74 35 75 36 76 39 77
REMARK SMILES IDX 37 78 63 79 64 80 72 81 65 82 66 83 70 84 73 85 67 86 68 87
REMARK SMILES IDX 71 88 69 89 48 90 49 91 57 92 50 93 51 94 55 95 58 96 52 97
REMARK SMILES IDX 53 98 56 99 54 100
REMARK H PARENT 14 6 19 34 78 53 46 64
REMARK Flexibility Score: inf
ROOT
ATOM      1  C   UNL A   1      37.370  21.165  24.641  1.00  0.00     0.023 C 
ENDROOT
BRANCH   1   2
ATOM      2  C   UNL A   1      35.956  21.213  25.212  1.00  0.00     0.116 C 
BRANCH   2   3
ATOM      3  N   UNL A   1      35.250  19.960  25.012  1.00  0.00    -0.356 N 
ATOM      4  C   UNL A   1      33.956  19.616  25.246  1.00  0.00     0.223 C 
ATOM      5  O   UNL A   1      33.617  18.456  24.996  1.00  0.00    -0.275 OA
ATOM      6  H   UNL A   1      35.805  19.233  24.645  1.00  0.00     0.163 HD
BRANCH   4   7
ATOM      7  C   UNL A   1      32.937  20.616  25.768  1.00  0.00     0.081 C 
ATOM      8  N   UNL A   1      31.914  23.293  25.963  1.00  0.00    -0.198 NA
ATOM      9  C   UNL A   1      32.553  22.690  27.160  1.00  0.00     0.103 C 
ATOM     10  C   UNL A   1      31.191  22.326  25.109  1.00  0.00     0.103 C 
ATOM     11  C   UNL A   1      33.553  21.628  26.736  1.00  0.00     0.030 C 
ATOM     12  C   UNL A   1      32.141  21.246  24.622  1.00  0.00     0.030 C 
BRANCH   8  13
ATOM     13  S   UNL A   1      31.110  24.776  26.234  1.00  0.00     0.244 S 
ATOM     14  O   UNL A   1      31.954  25.626  27.046  1.00  0.00    -0.207 OA
ATOM     15  O   UNL A   1      29.742  24.485  26.606  1.00  0.00    -0.207 OA
BRANCH  13  16
ATOM     16  C   UNL A   1      30.948  25.649  24.746  1.00  0.00     0.101 A 
ATOM     17  C   UNL A   1      31.734  26.139  21.259  1.00  0.00     0.150 C 
ATOM     18  N   UNL A   1      31.222  26.228  22.610  1.00  0.00    -0.345 N 
ATOM     19  C   UNL A   1      31.307  25.182  23.500  1.00  0.00     0.107 A 
ATOM     20  C   UNL A   1      30.764  27.361  23.257  1.00  0.00     0.108 A 
ATOM     21  C   UNL A   1      30.529  26.984  24.572  1.00  0.00     0.055 A 
BRANCH  20  22
ATOM     22  C   UNL A   1      30.745  28.737  22.787  1.00  0.00     0.270 C 
ATOM     23  O   UNL A   1      31.797  29.373  22.719  1.00  0.00    -0.267 OA
ATOM     24  N   UNL A   1      29.546  29.303  22.378  1.00  0.00    -0.337 N 
ATOM     25  C   UNL A   1      29.593  30.400  21.416  1.00  0.00     0.120 C 
ATOM     26  C   UNL A   1      28.233  28.970  22.924  1.00  0.00     0.120 C 
ATOM     27  C   UNL A   1      28.920  31.655  21.954  1.00  0.00     0.022 C 
ATOM     28  C   UNL A   1      27.525  30.215  23.463  1.00  0.00     0.022 C 
ATOM     29  C   UNL A   1      27.504  31.340  22.428  1.00  0.00     0.004 C 
ENDBRANCH  20  22
ENDBRANCH  13  16
ENDBRANCH   8  13
ENDBRANCH   4   7
ENDBRANCH   2   3
ENDBRANCH   1   2
BRANCH   1  30
ATOM     30  C   UNL A   1      38.180  19.935  25.049  1.00  0.00     0.023 C 
BRANCH  30  31
ATOM     31  C   UNL A   1      39.413  20.222  25.896  1.00  0.00     0.116 C 
BRANCH  31  32
ATOM     32  N   UNL A   1      40.371  19.128  25.913  1.00  0.00    -0.352 N 
ATOM     33  C   UNL A   1      41.726  19.179  26.130  1.00  0.00     0.251 C 
ATOM     34  H   UNL A   1      39.999  18.231  25.745  1.00  0.00     0.163 HD
ATOM     35  O   UNL A   1      42.417  18.172  26.025  1.00  0.00    -0.269 OA
BRANCH  33  36
ATOM     36  C   UNL A   1      42.354  20.476  26.448  1.00  0.00     0.039 A 
ATOM     37  C   UNL A   1      42.915  21.222  25.408  1.00  0.00     0.014 A 
ATOM     38  C   UNL A   1      42.350  20.969  27.756  1.00  0.00     0.014 A 
ATOM     39  C   UNL A   1      43.407  22.501  25.668  1.00  0.00     0.010 A 
ATOM     40  C   UNL A   1      42.785  22.266  28.001  1.00  0.00     0.010 A 
ATOM     41  C   UNL A   1      43.311  23.044  26.958  1.00  0.00    -0.014 A 
BRANCH  41  42
ATOM     42  C   UNL A   1      43.751  24.431  27.240  1.00  0.00     0.031 A 
ATOM     43  C   UNL A   1      42.765  25.442  27.746  1.00  0.00     0.074 A 
ATOM     44  C   UNL A   1      45.017  24.795  26.963  1.00  0.00     0.049 A 
ATOM     45  N   UNL A   1      42.932  26.721  27.969  1.00  0.00    -0.248 NA
ATOM     46  C   UNL A   1      41.402  24.956  28.011  1.00  0.00     0.031 C 
ATOM     47  C   UNL A   1      46.052  23.915  26.419  1.00  0.00     0.029 A 
ATOM     48  N   UNL A   1      45.645  26.008  27.091  1.00  0.00    -0.354 N 
ATOM     49  C   UNL A   1      41.692  27.196  28.373  1.00  0.00     0.074 A 
ATOM     50  C   UNL A   1      40.773  26.078  28.331  1.00  0.00     0.031 C 
ATOM     51  C   UNL A   1      47.190  24.612  26.276  1.00  0.00     0.029 A 
ATOM     52  C   UNL A   1      46.958  25.992  26.692  1.00  0.00     0.049 A 
ATOM     53  H   UNL A   1      45.197  26.814  27.437  1.00  0.00     0.167 HD
ATOM     54  C   UNL A   1      41.356  28.448  28.763  1.00  0.00     0.037 A 
ATOM     55  C   UNL A   1      47.870  26.982  26.664  1.00  0.00     0.037 A 
ATOM     56  C   UNL A   1      42.280  29.547  28.844  1.00  0.00     0.049 A 
ATOM     57  C   UNL A   1      47.480  28.355  27.130  1.00  0.00     0.074 A 
ATOM     58  C   UNL A   1      42.053  30.834  29.298  1.00  0.00     0.029 A 
ATOM     59  N   UNL A   1      43.612  29.484  28.464  1.00  0.00    -0.354 N 
ATOM     60  N   UNL A   1      46.320  28.780  27.570  1.00  0.00    -0.248 NA
ATOM     61  C   UNL A   1      48.527  29.386  27.103  1.00  0.00     0.031 C 
ATOM     62  C   UNL A   1      43.244  31.559  29.167  1.00  0.00     0.029 A 
ATOM     63  C   UNL A   1      44.218  30.713  28.661  1.00  0.00     0.049 A 
ATOM     64  H   UNL A   1      44.060  28.683  28.107  1.00  0.00     0.167 HD
ATOM     65  C   UNL A   1      46.500  30.118  27.890  1.00  0.00     0.074 A 
ATOM     66  C   UNL A   1      47.885  30.433  27.604  1.00  0.00     0.031 C 
ATOM     67  C   UNL A   1      45.600  31.004  28.376  1.00  0.00     0.037 A 
BRANCH  54  68
ATOM     68  C   UNL A   1      39.925  28.689  29.135  1.00  0.00     0.064 A 
ATOM     69  C   UNL A   1      39.468  28.509  30.449  1.00  0.00     0.173 A 
ATOM     70  C   UNL A   1      39.002  29.119  28.170  1.00  0.00     0.173 A 
ATOM     71  F   UNL A   1      40.311  28.084  31.403  1.00  0.00    -0.203 F 
ATOM     72  C   UNL A   1      38.132  28.724  30.778  1.00  0.00     0.198 A 
ATOM     73  C   UNL A   1      37.673  29.357  28.509  1.00  0.00     0.198 A 
ATOM     74  F   UNL A   1      39.389  29.307  26.900  1.00  0.00    -0.203 F 
ATOM     75  F   UNL A   1      37.709  28.500  32.030  1.00  0.00    -0.200 F 
ATOM     76  C   UNL A   1      37.238  29.152  29.810  1.00  0.00     0.200 A 
ATOM     77  F   UNL A   1      36.809  29.777  27.574  1.00  0.00    -0.200 F 
ATOM     78  F   UNL A   1      35.952  29.358  30.128  1.00  0.00    -0.200 F 
ENDBRANCH  54  68
BRANCH  55  79
ATOM     79  C   UNL A   1      49.252  26.696  26.209  1.00  0.00     0.064 A 
ATOM     80  C   UNL A   1      50.207  26.191  27.102  1.00  0.00     0.173 A 
ATOM     81  C   UNL A   1      49.644  26.903  24.878  1.00  0.00     0.173 A 
ATOM     82  F   UNL A   1      49.882  25.996  28.388  1.00  0.00    -0.203 F 
ATOM     83  C   UNL A   1      51.507  25.916  26.684  1.00  0.00     0.198 A 
ATOM     84  C   UNL A   1      50.938  26.609  24.457  1.00  0.00     0.198 A 
ATOM     85  F   UNL A   1      48.762  27.379  23.986  1.00  0.00    -0.203 F 
ATOM     86  F   UNL A   1      52.410  25.463  27.565  1.00  0.00    -0.200 F 
ATOM     87  C   UNL A   1      51.870  26.120  25.361  1.00  0.00     0.200 A 
ATOM     88  F   UNL A   1      51.284  26.798  23.176  1.00  0.00    -0.200 F 
ATOM     89  F   UNL A   1      53.120  25.851  24.958  1.00  0.00    -0.200 F 
ENDBRANCH  55  79
BRANCH  67  90
ATOM     90  C   UNL A   1      46.089  32.393  28.654  1.00  0.00     0.064 A 
ATOM     91  C   UNL A   1      46.046  33.393  27.674  1.00  0.00     0.173 A 
ATOM     92  C   UNL A   1      46.570  32.734  29.927  1.00  0.00     0.173 A 
ATOM     93  F   UNL A   1      45.610  33.107  26.437  1.00  0.00    -0.203 F 
ATOM     94  C   UNL A   1      46.482  34.684  27.952  1.00  0.00     0.198 A 
ATOM     95  C   UNL A   1      46.984  34.033  30.209  1.00  0.00     0.198 A 
ATOM     96  F   UNL A   1      46.627  31.811  30.898  1.00  0.00    -0.203 F 
ATOM     97  F   UNL A   1      46.465  35.618  26.991  1.00  0.00    -0.200 F 
ATOM     98  C   UNL A   1      46.944  35.005  29.220  1.00  0.00     0.200 A 
ATOM     99  F   UNL A   1      47.425  34.342  31.436  1.00  0.00    -0.200 F 
ATOM    100  F   UNL A   1      47.359  36.250  29.489  1.00  0.00    -0.200 F 
ENDBRANCH  67  90
ENDBRANCH  41  42
ENDBRANCH  33  36
ENDBRANCH  31  32
ENDBRANCH  30  31
ENDBRANCH   1  30
TORSDOF 14
ENDMDL
MODEL 3
REMARK VINA RESULT:     -12.5      6.155     11.846
REMARK SMILES Cn1cc(S(=O)(=O)N2CCC(C(=O)NCCCCNC(=O)c3ccc(-c4c5nc(c(-c6c(F)c(F)c(F)c(F)c6F)c6ccc([nH]6)c(-c6c(F)c(F)c(F)c(F)c6F)c6nc(c(-c7c(F)c(F)c(F)c(F)c7F)c7ccc4[nH]7)C=C6)C=C5)cc3)CC2)cc1C(=O)N1CCCCC1
REMARK SMILES IDX 16 1 15 2 14 3 12 4 13 5 11 7 8 8 9 9 86 10 10 11 85 12 5 13
REMARK SMILES IDX 6 14 7 15 4 16 1 17 2 18 3 19 88 20 87 21 89 22 90 23 91 24
REMARK SMILES IDX 92 25 96 26 93 27 95 28 94 29 17 30 18 31 19 32 20 33 21 35
REMARK SMILES IDX 22 36 23 37 84 38 24 39 83 40 25 41 26 42 27 43 77 44 28 45
REMARK SMILES IDX 82 46 76 47 78 48 29 49 81 50 75 51 74 52 30 54 62 55 42 56
REMARK SMILES IDX 61 57 43 58 46 59 60 60 79 61 44 62 45 63 59 65 80 66 47 67
REMARK SMILES IDX 31 68 32 69 40 70 33 71 34 72 38 73 41 74 35 75 36 76 39 77
REMARK SMILES IDX 37 78 63 79 64 80 72 81 65 82 66 83 70 84 73 85 67 86 68 87
REMARK SMILES IDX 71 88 69 89 48 90 49 91 57 92 50 93 51 94 55 95 58 96 52 97
REMARK SMILES IDX 53 98 56 99 54 100
REMARK H PARENT 14 6 19 34 78 53 46 64
REMARK Flexibility Score: inf
ROOT
ATOM      1  C   UNL A   1      41.143  21.102  26.152  1.00  0.00     0.023 C 
ENDROOT
BRANCH   1   2
ATOM      2  C   UNL A   1      39.659  21.457  26.113  1.00  0.00     0.116 C 
BRANCH   2   3
ATOM      3  N   UNL A   1      39.429  22.852  26.444  1.00  0.00    -0.356 N 
ATOM      4  C   UNL A   1      38.347  23.650  26.241  1.00  0.00     0.223 C 
ATOM      5  O   UNL A   1      38.424  24.824  26.613  1.00  0.00    -0.275 OA
ATOM      6  H   UNL A   1      40.185  23.296  26.890  1.00  0.00     0.163 HD
BRANCH   4   7
ATOM      7  C   UNL A   1      37.067  23.130  25.608  1.00  0.00     0.081 C 
ATOM      8  N   UNL A   1      34.630  23.558  24.149  1.00  0.00    -0.198 NA
ATOM      9  C   UNL A   1      34.542  23.225  25.594  1.00  0.00     0.103 C 
ATOM     10  C   UNL A   1      35.764  22.919  23.448  1.00  0.00     0.103 C 
ATOM     11  C   UNL A   1      35.812  23.659  26.305  1.00  0.00     0.030 C 
ATOM     12  C   UNL A   1      37.077  23.334  24.090  1.00  0.00     0.030 C 
BRANCH   8  13
ATOM     13  S   UNL A   1      33.144  23.543  23.305  1.00  0.00     0.244 S 
ATOM     14  O   UNL A   1      32.427  22.331  23.639  1.00  0.00    -0.207 OA
ATOM     15  O   UNL A   1      33.403  23.919  21.932  1.00  0.00    -0.207 OA
BRANCH  13  16
ATOM     16  C   UNL A   1      32.114  24.810  23.884  1.00  0.00     0.101 A 
ATOM     17  C   UNL A   1      28.997  26.626  23.847  1.00  0.00     0.150 C 
ATOM     18  N   UNL A   1      30.331  26.130  24.110  1.00  0.00    -0.345 N 
ATOM     19  C   UNL A   1      30.753  24.891  23.685  1.00  0.00     0.107 A 
ATOM     20  C   UNL A   1      31.398  26.838  24.630  1.00  0.00     0.108 A 
ATOM     21  C   UNL A   1      32.497  25.992  24.552  1.00  0.00     0.055 A 
BRANCH  20  22
ATOM     22  C   UNL A   1      31.479  28.249  24.971  1.00  0.00     0.270 C 
ATOM     23  O   UNL A   1      30.939  29.084  24.244  1.00  0.00    -0.267 OA
ATOM     24  N   UNL A   1      32.126  28.636  26.136  1.00  0.00    -0.337 N 
ATOM     25  C   UNL A   1      31.735  29.896  26.757  1.00  0.00     0.120 C 
ATOM     26  C   UNL A   1      33.261  27.937  26.735  1.00  0.00     0.120 C 
ATOM     27  C   UNL A   1      32.915  30.848  26.901  1.00  0.00     0.022 C 
ATOM     28  C   UNL A   1      34.460  28.872  26.903  1.00  0.00     0.022 C 
ATOM     29  C   UNL A   1      34.069  30.161  27.625  1.00  0.00     0.004 C 
ENDBRANCH  20  22
ENDBRANCH  13  16
ENDBRANCH   8  13
ENDBRANCH   4   7
ENDBRANCH   2   3
ENDBRANCH   1   2
BRANCH   1  30
ATOM     30  C   UNL A   1      41.442  19.604  26.121  1.00  0.00     0.023 C 
BRANCH  30  31
ATOM     31  C   UNL A   1      42.896  19.227  26.370  1.00  0.00     0.116 C 
BRANCH  31  32
ATOM     32  N   UNL A   1      43.587  18.766  25.176  1.00  0.00    -0.352 N 
ATOM     33  C   UNL A   1      44.435  19.466  24.353  1.00  0.00     0.251 C 
ATOM     34  H   UNL A   1      43.426  17.827  24.926  1.00  0.00     0.163 HD
ATOM     35  O   UNL A   1      44.875  18.957  23.328  1.00  0.00    -0.269 OA
BRANCH  33  36
ATOM     36  C   UNL A   1      44.778  20.860  24.692  1.00  0.00     0.039 A 
ATOM     37  C   UNL A   1      44.307  21.885  23.867  1.00  0.00     0.014 A 
ATOM     38  C   UNL A   1      45.520  21.154  25.839  1.00  0.00     0.014 A 
ATOM     39  C   UNL A   1      44.519  23.214  24.233  1.00  0.00     0.010 A 
ATOM     40  C   UNL A   1      45.678  22.478  26.233  1.00  0.00     0.010 A 
ATOM     41  C   UNL A   1      45.173  23.517  25.437  1.00  0.00    -0.014 A 
BRANCH  41  42
ATOM     42  C   UNL A   1      45.337  24.919  25.888  1.00  0.00     0.031 A 
ATOM     43  C   UNL A   1      46.684  25.575  25.826  1.00  0.00     0.074 A 
ATOM     44  C   UNL A   1      44.288  25.570  26.427  1.00  0.00     0.049 A 
ATOM     45  N   UNL A   1      47.050  26.757  26.251  1.00  0.00    -0.248 NA
ATOM     46  C   UNL A   1      47.773  24.785  25.231  1.00  0.00     0.031 C 
ATOM     47  C   UNL A   1      42.942  25.018  26.589  1.00  0.00     0.029 A 
ATOM     48  N   UNL A   1      44.195  26.835  26.949  1.00  0.00    -0.354 N 
ATOM     49  C   UNL A   1      48.412  26.842  26.000  1.00  0.00     0.074 A 
ATOM     50  C   UNL A   1      48.817  25.580  25.418  1.00  0.00     0.031 C 
ATOM     51  C   UNL A   1      42.153  25.946  27.155  1.00  0.00     0.029 A 
ATOM     52  C   UNL A   1      42.944  27.144  27.420  1.00  0.00     0.049 A 
ATOM     53  H   UNL A   1      44.955  27.461  26.983  1.00  0.00     0.167 HD
ATOM     54  C   UNL A   1      49.246  27.887  26.217  1.00  0.00     0.037 A 
ATOM     55  C   UNL A   1      42.489  28.269  28.002  1.00  0.00     0.037 A 
ATOM     56  C   UNL A   1      48.832  29.155  26.756  1.00  0.00     0.049 A 
ATOM     57  C   UNL A   1      43.426  29.426  28.204  1.00  0.00     0.074 A 
ATOM     58  C   UNL A   1      49.586  30.300  26.944  1.00  0.00     0.029 A 
ATOM     59  N   UNL A   1      47.547  29.444  27.189  1.00  0.00    -0.354 N 
ATOM     60  N   UNL A   1      44.699  29.518  27.906  1.00  0.00    -0.248 NA
ATOM     61  C   UNL A   1      42.863  30.636  28.818  1.00  0.00     0.031 C 
ATOM     62  C   UNL A   1      48.761  31.275  27.517  1.00  0.00     0.029 A 
ATOM     63  C   UNL A   1      47.488  30.746  27.657  1.00  0.00     0.049 A 
ATOM     64  H   UNL A   1      46.789  28.816  27.168  1.00  0.00     0.167 HD
ATOM     65  C   UNL A   1      45.085  30.798  28.275  1.00  0.00     0.074 A 
ATOM     66  C   UNL A   1      43.909  31.452  28.810  1.00  0.00     0.031 C 
ATOM     67  C   UNL A   1      46.305  31.379  28.180  1.00  0.00     0.037 A 
BRANCH  54  68
ATOM     68  C   UNL A   1      50.689  27.697  25.864  1.00  0.00     0.064 A 
ATOM     69  C   UNL A   1      51.639  27.330  26.829  1.00  0.00     0.173 A 
ATOM     70  C   UNL A   1      51.126  27.868  24.542  1.00  0.00     0.173 A 
ATOM     71  F   UNL A   1      51.271  27.170  28.109  1.00  0.00    -0.203 F 
ATOM     72  C   UNL A   1      52.979  27.170  26.489  1.00  0.00     0.198 A 
ATOM     73  C   UNL A   1      52.463  27.682  24.201  1.00  0.00     0.198 A 
ATOM     74  F   UNL A   1      50.257  28.217  23.582  1.00  0.00    -0.203 F 
ATOM     75  F   UNL A   1      53.877  26.866  27.437  1.00  0.00    -0.200 F 
ATOM     76  C   UNL A   1      53.389  27.341  25.176  1.00  0.00     0.200 A 
ATOM     77  F   UNL A   1      52.857  27.841  22.930  1.00  0.00    -0.200 F 
ATOM     78  F   UNL A   1      54.680  27.186  24.851  1.00  0.00    -0.200 F 
ENDBRANCH  54  68
BRANCH  55  79
ATOM     79  C   UNL A   1      41.063  28.366  28.401  1.00  0.00     0.064 A 
ATOM     80  C   UNL A   1      40.644  27.928  29.665  1.00  0.00     0.173 A 
ATOM     81  C   UNL A   1      40.097  28.907  27.541  1.00  0.00     0.173 A 
ATOM     82  F   UNL A   1      41.532  27.386  30.512  1.00  0.00    -0.203 F 
ATOM     83  C   UNL A   1      39.309  28.018  30.050  1.00  0.00     0.198 A 
ATOM     84  C   UNL A   1      38.766  29.014  27.935  1.00  0.00     0.198 A 
ATOM     85  F   UNL A   1      40.452  29.344  26.323  1.00  0.00    -0.203 F 
ATOM     86  F   UNL A   1      38.930  27.564  31.252  1.00  0.00    -0.200 F 
ATOM     87  C   UNL A   1      38.371  28.565  29.187  1.00  0.00     0.200 A 
ATOM     88  F   UNL A   1      37.863  29.552  27.103  1.00  0.00    -0.200 F 
ATOM     89  F   UNL A   1      37.087  28.655  29.560  1.00  0.00    -0.200 F 
ENDBRANCH  55  79
BRANCH  67  90
ATOM     90  C   UNL A   1      46.422  32.800  28.639  1.00  0.00     0.064 A 
ATOM     91  C   UNL A   1      46.775  33.114  29.959  1.00  0.00     0.173 A 
ATOM     92  C   UNL A   1      46.218  33.857  27.740  1.00  0.00     0.173 A 
ATOM     93  F   UNL A   1      46.963  32.135  30.858  1.00  0.00    -0.203 F 
ATOM     94  C   UNL A   1      46.905  34.438  30.367  1.00  0.00     0.198 A 
ATOM     95  C   UNL A   1      46.370  35.179  28.146  1.00  0.00     0.198 A 
ATOM     96  F   UNL A   1      45.882  33.605  26.466  1.00  0.00    -0.203 F 
ATOM     97  F   UNL A   1      47.209  34.718  31.642  1.00  0.00    -0.200 F 
ATOM     98  C   UNL A   1      46.708  35.468  29.459  1.00  0.00     0.200 A 
ATOM     99  F   UNL A   1      46.186  36.174  27.266  1.00  0.00    -0.200 F 
ATOM    100  F   UNL A   1      46.838  36.743  29.853  1.00  0.00    -0.200 F 
ENDBRANCH  67  90
ENDBRANCH  41  42
ENDBRANCH  33  36
ENDBRANCH  31  32
ENDBRANCH  30  31
ENDBRANCH   1  30
TORSDOF 14
ENDMDL
