MODEL 1
REMARK VINA RESULT:     -11.8      0.000      0.000
REMARK SMILES O=C(NCCCCNC(=O)[C@@]1([NH2+]C2CC2)CC[C@H](SC2CCCC2)C1)c1ccc(-c2c3nc(c(-c4c(F)c(F)c(F)c(F)c4F)c4ccc([nH]4)c(-c4c(F)c(F)c(F)c(F)c4F)c4nc(c(-c5c(F)c(F)c(F)c(F)c5F)c5ccc2[nH]5)C=C4)C=C3)cc1
REMARK SMILES IDX 5 1 4 2 3 3 1 4 2 5 26 7 27 8 88 9 28 10 87 11 29 12 30 13
REMARK SMILES IDX 31 14 81 15 32 16 86 17 80 18 82 19 33 20 85 21 79 22 78 23
REMARK SMILES IDX 34 25 66 26 46 27 65 28 47 29 50 30 64 31 83 32 48 33 49 34
REMARK SMILES IDX 63 36 84 37 51 38 35 39 36 40 44 41 37 42 38 43 42 44 45 45
REMARK SMILES IDX 39 46 40 47 43 48 41 49 67 50 68 51 76 52 69 53 70 54 74 55
REMARK SMILES IDX 77 56 71 57 72 58 75 59 73 60 52 61 53 62 61 63 54 64 55 65
REMARK SMILES IDX 59 66 62 67 56 68 57 69 60 70 58 71 6 72 7 73 8 74 9 75
REMARK SMILES IDX 10 77 11 78 16 79 25 80 17 81 18 82 12 83 13 86 14 87 15 88
REMARK SMILES IDX 19 89 20 90 21 91 24 92 22 93 23 94
REMARK H PARENT 3 6 82 24 50 35 8 76 12 84 12 85
REMARK Flexibility Score: inf
ROOT
ATOM      1  C   UNL A   1      31.320  32.325  26.531  1.00  0.00     0.023 C 
ENDROOT
BRANCH   1   2
ATOM      2  C   UNL A   1      32.522  32.960  27.207  1.00  0.00     0.116 C 
BRANCH   2   3
ATOM      3  N   UNL A   1      32.272  34.323  27.647  1.00  0.00    -0.352 N 
ATOM      4  O   UNL A   1      32.547  36.123  28.990  1.00  0.00    -0.269 OA
ATOM      5  C   UNL A   1      32.926  35.013  28.635  1.00  0.00     0.251 C 
ATOM      6  H   UNL A   1      31.550  34.806  27.182  1.00  0.00     0.163 HD
BRANCH   5   7
ATOM      7  C   UNL A   1      34.080  34.372  29.288  1.00  0.00     0.039 A 
ATOM      8  C   UNL A   1      33.896  33.608  30.444  1.00  0.00     0.014 A 
ATOM      9  C   UNL A   1      35.354  34.564  28.751  1.00  0.00     0.014 A 
ATOM     10  C   UNL A   1      35.001  33.109  31.117  1.00  0.00     0.010 A 
ATOM     11  C   UNL A   1      36.458  34.000  29.389  1.00  0.00     0.010 A 
ATOM     12  C   UNL A   1      36.286  33.275  30.579  1.00  0.00    -0.014 A 
BRANCH  12  13
ATOM     13  C   UNL A   1      37.424  32.565  31.202  1.00  0.00     0.031 A 
ATOM     14  C   UNL A   1      38.108  31.426  30.511  1.00  0.00     0.074 A 
ATOM     15  C   UNL A   1      37.819  32.974  32.423  1.00  0.00     0.049 A 
ATOM     16  N   UNL A   1      39.094  30.682  30.939  1.00  0.00    -0.248 NA
ATOM     17  C   UNL A   1      37.620  31.065  29.171  1.00  0.00     0.031 C 
ATOM     18  C   UNL A   1      37.200  34.062  33.185  1.00  0.00     0.029 A 
ATOM     19  N   UNL A   1      38.827  32.531  33.237  1.00  0.00    -0.354 N 
ATOM     20  C   UNL A   1      39.335  29.753  29.937  1.00  0.00     0.074 A 
ATOM     21  C   UNL A   1      38.383  30.019  28.878  1.00  0.00     0.031 C 
ATOM     22  C   UNL A   1      37.853  34.217  34.345  1.00  0.00     0.029 A 
ATOM     23  C   UNL A   1      38.895  33.202  34.433  1.00  0.00     0.049 A 
ATOM     24  H   UNL A   1      39.442  31.803  32.990  1.00  0.00     0.167 HD
ATOM     25  C   UNL A   1      40.269  28.774  29.913  1.00  0.00     0.037 A 
ATOM     26  C   UNL A   1      39.687  32.999  35.500  1.00  0.00     0.037 A 
ATOM     27  C   UNL A   1      41.225  28.544  30.966  1.00  0.00     0.049 A 
ATOM     28  C   UNL A   1      40.699  31.893  35.445  1.00  0.00     0.074 A 
ATOM     29  C   UNL A   1      42.265  27.632  31.001  1.00  0.00     0.029 A 
ATOM     30  N   UNL A   1      41.250  29.226  32.173  1.00  0.00    -0.354 N 
ATOM     31  N   UNL A   1      40.955  31.059  34.467  1.00  0.00    -0.248 NA
ATOM     32  C   UNL A   1      41.523  31.691  36.643  1.00  0.00     0.031 C 
ATOM     33  C   UNL A   1      42.889  27.728  32.249  1.00  0.00     0.029 A 
ATOM     34  C   UNL A   1      42.265  28.728  32.976  1.00  0.00     0.049 A 
ATOM     35  H   UNL A   1      40.639  29.956  32.424  1.00  0.00     0.167 HD
ATOM     36  C   UNL A   1      41.970  30.234  34.927  1.00  0.00     0.074 A 
ATOM     37  C   UNL A   1      42.304  30.689  36.263  1.00  0.00     0.031 C 
ATOM     38  C   UNL A   1      42.565  29.188  34.308  1.00  0.00     0.037 A 
BRANCH  25  39
ATOM     39  C   UNL A   1      40.310  27.861  28.726  1.00  0.00     0.064 A 
ATOM     40  C   UNL A   1      41.078  28.160  27.592  1.00  0.00     0.173 A 
ATOM     41  C   UNL A   1      39.650  26.622  28.766  1.00  0.00     0.173 A 
ATOM     42  F   UNL A   1      41.721  29.333  27.502  1.00  0.00    -0.203 F 
ATOM     43  C   UNL A   1      41.182  27.252  26.539  1.00  0.00     0.198 A 
ATOM     44  C   UNL A   1      39.772  25.711  27.721  1.00  0.00     0.198 A 
ATOM     45  F   UNL A   1      38.907  26.288  29.831  1.00  0.00    -0.203 F 
ATOM     46  F   UNL A   1      41.911  27.563  25.458  1.00  0.00    -0.200 F 
ATOM     47  C   UNL A   1      40.538  26.026  26.609  1.00  0.00     0.200 A 
ATOM     48  F   UNL A   1      39.157  24.521  27.796  1.00  0.00    -0.200 F 
ATOM     49  F   UNL A   1      40.656  25.146  25.604  1.00  0.00    -0.200 F 
ENDBRANCH  25  39
BRANCH  26  50
ATOM     50  C   UNL A   1      39.523  33.839  36.712  1.00  0.00     0.064 A 
ATOM     51  C   UNL A   1      40.138  35.093  36.813  1.00  0.00     0.173 A 
ATOM     52  C   UNL A   1      38.738  33.407  37.792  1.00  0.00     0.173 A 
ATOM     53  F   UNL A   1      40.912  35.542  35.813  1.00  0.00    -0.203 F 
ATOM     54  C   UNL A   1      39.988  35.877  37.955  1.00  0.00     0.198 A 
ATOM     55  C   UNL A   1      38.564  34.204  38.920  1.00  0.00     0.198 A 
ATOM     56  F   UNL A   1      38.123  32.216  37.741  1.00  0.00    -0.203 F 
ATOM     57  F   UNL A   1      40.621  37.055  38.044  1.00  0.00    -0.200 F 
ATOM     58  C   UNL A   1      39.195  35.434  39.004  1.00  0.00     0.200 A 
ATOM     59  F   UNL A   1      37.784  33.780  39.924  1.00  0.00    -0.200 F 
ATOM     60  F   UNL A   1      39.047  36.192  40.100  1.00  0.00    -0.200 F 
ENDBRANCH  26  50
BRANCH  38  61
ATOM     61  C   UNL A   1      43.629  28.467  35.077  1.00  0.00     0.064 A 
ATOM     62  C   UNL A   1      44.970  28.871  35.015  1.00  0.00     0.173 A 
ATOM     63  C   UNL A   1      43.303  27.376  35.897  1.00  0.00     0.173 A 
ATOM     64  F   UNL A   1      45.329  29.896  34.229  1.00  0.00    -0.203 F 
ATOM     65  C   UNL A   1      45.952  28.194  35.730  1.00  0.00     0.198 A 
ATOM     66  C   UNL A   1      44.285  26.719  36.631  1.00  0.00     0.198 A 
ATOM     67  F   UNL A   1      42.032  26.955  35.989  1.00  0.00    -0.203 F 
ATOM     68  F   UNL A   1      47.234  28.567  35.620  1.00  0.00    -0.200 F 
ATOM     69  C   UNL A   1      45.608  27.123  36.541  1.00  0.00     0.200 A 
ATOM     70  F   UNL A   1      43.951  25.689  37.421  1.00  0.00    -0.200 F 
ATOM     71  F   UNL A   1      46.556  26.472  37.231  1.00  0.00    -0.200 F 
ENDBRANCH  38  61
ENDBRANCH  12  13
ENDBRANCH   5   7
ENDBRANCH   2   3
ENDBRANCH   1   2
BRANCH   1  72
ATOM     72  C   UNL A   1      31.618  30.996  25.833  1.00  0.00     0.023 C 
BRANCH  72  73
ATOM     73  C   UNL A   1      32.801  30.219  26.425  1.00  0.00     0.116 C 
BRANCH  73  74
ATOM     74  N   UNL A   1      32.329  29.218  27.356  1.00  0.00    -0.351 N 
ATOM     75  C   UNL A   1      31.873  27.954  27.136  1.00  0.00     0.281 C 
ATOM     76  H   UNL A   1      32.339  29.496  28.300  1.00  0.00     0.163 HD
ATOM     77  O   UNL A   1      31.048  27.556  27.971  1.00  0.00    -0.268 OA
BRANCH  75  78
ATOM     78  C   UNL A   1      32.379  27.021  25.989  1.00  0.00     0.176 C 
ATOM     79  C   UNL A   1      33.898  26.794  26.124  1.00  0.00     0.080 C 
ATOM     80  C   UNL A   1      31.922  25.547  26.028  1.00  0.00     0.093 C 
ATOM     81  C   UNL A   1      34.216  25.608  25.222  1.00  0.00     0.022 C 
ATOM     82  C   UNL A   1      32.984  24.710  25.292  1.00  0.00     0.054 C 
BRANCH  78  83
ATOM     83  N   UNL A   1      31.959  27.552  24.675  1.00  0.00    -0.331 N 
ATOM     84  H   UNL A   1      32.466  27.009  23.977  1.00  0.00     0.347 HD
ATOM     85  H   UNL A   1      32.152  28.547  24.785  1.00  0.00     0.347 HD
BRANCH  83  86
ATOM     86  C   UNL A   1      30.565  27.572  24.234  1.00  0.00     0.183 C 
ATOM     87  C   UNL A   1      29.833  28.658  23.507  1.00  0.00     0.071 C 
ATOM     88  C   UNL A   1      30.305  27.458  22.750  1.00  0.00     0.071 C 
ENDBRANCH  83  86
ENDBRANCH  78  83
BRANCH  82  89
ATOM     89  S   UNL A   1      32.333  24.207  23.655  1.00  0.00    -0.155 SA
BRANCH  89  90
ATOM     90  C   UNL A   1      32.109  22.407  23.808  1.00  0.00     0.047 C 
ATOM     91  C   UNL A   1      32.156  21.638  22.497  1.00  0.00     0.014 C 
ATOM     92  C   UNL A   1      33.080  21.646  24.707  1.00  0.00     0.014 C 
ATOM     93  C   UNL A   1      32.152  20.189  22.964  1.00  0.00     0.001 C 
ATOM     94  C   UNL A   1      32.930  20.182  24.281  1.00  0.00     0.001 C 
ENDBRANCH  89  90
ENDBRANCH  82  89
ENDBRANCH  75  78
ENDBRANCH  73  74
ENDBRANCH  72  73
ENDBRANCH   1  72
TORSDOF 15
ENDMDL
MODEL 2
REMARK VINA RESULT:     -11.8      1.061      2.009
REMARK SMILES O=C(NCCCCNC(=O)[C@@]1([NH2+]C2CC2)CC[C@H](SC2CCCC2)C1)c1ccc(-c2c3nc(c(-c4c(F)c(F)c(F)c(F)c4F)c4ccc([nH]4)c(-c4c(F)c(F)c(F)c(F)c4F)c4nc(c(-c5c(F)c(F)c(F)c(F)c5F)c5ccc2[nH]5)C=C4)C=C3)cc1
REMARK SMILES IDX 5 1 4 2 3 3 1 4 2 5 26 7 27 8 88 9 28 10 87 11 29 12 30 13
REMARK SMILES IDX 31 14 81 15 32 16 86 17 80 18 82 19 33 20 85 21 79 22 78 23
REMARK SMILES IDX 34 25 66 26 46 27 65 28 47 29 50 30 64 31 83 32 48 33 49 34
REMARK SMILES IDX 63 36 84 37 51 38 35 39 36 40 44 41 37 42 38 43 42 44 45 45
REMARK SMILES IDX 39 46 40 47 43 48 41 49 67 50 68 51 76 52 69 53 70 54 74 55
REMARK SMILES IDX 77 56 71 57 72 58 75 59 73 60 52 61 53 62 61 63 54 64 55 65
REMARK SMILES IDX 59 66 62 67 56 68 57 69 60 70 58 71 6 72 7 73 8 74 9 75
REMARK SMILES IDX 10 77 11 78 16 79 25 80 17 81 18 82 12 83 13 86 14 87 15 88
REMARK SMILES IDX 19 89 20 90 21 91 24 92 22 93 23 94
REMARK H PARENT 3 6 82 24 50 35 8 76 12 84 12 85
REMARK Flexibility Score: inf
ROOT
ATOM      1  C   UNL A   1      31.559  31.647  26.566  1.00  0.00     0.023 C 
ENDROOT
BRANCH   1   2
ATOM      2  C   UNL A   1      32.767  32.477  26.962  1.00  0.00     0.116 C 
BRANCH   2   3
ATOM      3  N   UNL A   1      32.415  33.812  27.417  1.00  0.00    -0.352 N 
ATOM      4  O   UNL A   1      32.536  35.604  28.793  1.00  0.00    -0.269 OA
ATOM      5  C   UNL A   1      32.997  34.528  28.430  1.00  0.00     0.251 C 
ATOM      6  H   UNL A   1      31.673  34.253  26.941  1.00  0.00     0.163 HD
BRANCH   5   7
ATOM      7  C   UNL A   1      34.178  33.955  29.101  1.00  0.00     0.039 A 
ATOM      8  C   UNL A   1      34.015  33.010  30.118  1.00  0.00     0.014 A 
ATOM      9  C   UNL A   1      35.448  34.392  28.724  1.00  0.00     0.014 A 
ATOM     10  C   UNL A   1      35.124  32.568  30.824  1.00  0.00     0.010 A 
ATOM     11  C   UNL A   1      36.568  33.891  29.386  1.00  0.00     0.010 A 
ATOM     12  C   UNL A   1      36.410  32.981  30.444  1.00  0.00    -0.014 A 
BRANCH  12  13
ATOM     13  C   UNL A   1      37.586  32.343  31.074  1.00  0.00     0.031 A 
ATOM     14  C   UNL A   1      38.339  31.244  30.391  1.00  0.00     0.074 A 
ATOM     15  C   UNL A   1      37.952  32.781  32.294  1.00  0.00     0.049 A 
ATOM     16  N   UNL A   1      39.366  30.562  30.826  1.00  0.00    -0.248 NA
ATOM     17  C   UNL A   1      37.878  30.847  29.051  1.00  0.00     0.031 C 
ATOM     18  C   UNL A   1      37.266  33.834  33.048  1.00  0.00     0.029 A 
ATOM     19  N   UNL A   1      38.981  32.403  33.113  1.00  0.00    -0.354 N 
ATOM     20  C   UNL A   1      39.666  29.644  29.829  1.00  0.00     0.074 A 
ATOM     21  C   UNL A   1      38.703  29.847  28.766  1.00  0.00     0.031 C 
ATOM     22  C   UNL A   1      37.905  34.033  34.209  1.00  0.00     0.029 A 
ATOM     23  C   UNL A   1      39.005  33.083  34.306  1.00  0.00     0.049 A 
ATOM     24  H   UNL A   1      39.639  31.712  32.872  1.00  0.00     0.167 HD
ATOM     25  C   UNL A   1      40.657  28.722  29.814  1.00  0.00     0.037 A 
ATOM     26  C   UNL A   1      39.804  32.933  35.377  1.00  0.00     0.037 A 
ATOM     27  C   UNL A   1      41.621  28.555  30.871  1.00  0.00     0.049 A 
ATOM     28  C   UNL A   1      40.880  31.889  35.331  1.00  0.00     0.074 A 
ATOM     29  C   UNL A   1      42.713  27.707  30.914  1.00  0.00     0.029 A 
ATOM     30  N   UNL A   1      41.601  29.243  32.075  1.00  0.00    -0.354 N 
ATOM     31  N   UNL A   1      41.189  31.067  34.358  1.00  0.00    -0.248 NA
ATOM     32  C   UNL A   1      41.711  31.743  36.532  1.00  0.00     0.031 C 
ATOM     33  C   UNL A   1      43.326  27.846  32.164  1.00  0.00     0.029 A 
ATOM     34  C   UNL A   1      42.641  28.811  32.884  1.00  0.00     0.049 A 
ATOM     35  H   UNL A   1      40.946  29.936  32.320  1.00  0.00     0.167 HD
ATOM     36  C   UNL A   1      42.249  30.307  34.826  1.00  0.00     0.074 A 
ATOM     37  C   UNL A   1      42.551  30.788  36.160  1.00  0.00     0.031 C 
ATOM     38  C   UNL A   1      42.908  29.294  34.213  1.00  0.00     0.037 A 
BRANCH  25  39
ATOM     39  C   UNL A   1      40.756  27.806  28.632  1.00  0.00     0.064 A 
ATOM     40  C   UNL A   1      40.039  26.602  28.570  1.00  0.00     0.173 A 
ATOM     41  C   UNL A   1      41.500  28.187  27.504  1.00  0.00     0.173 A 
ATOM     42  F   UNL A   1      39.320  26.190  29.624  1.00  0.00    -0.203 F 
ATOM     43  C   UNL A   1      40.066  25.813  27.423  1.00  0.00     0.198 A 
ATOM     44  C   UNL A   1      41.508  27.405  26.353  1.00  0.00     0.198 A 
ATOM     45  F   UNL A   1      42.198  29.333  27.512  1.00  0.00    -0.203 F 
ATOM     46  F   UNL A   1      39.385  24.658  27.389  1.00  0.00    -0.200 F 
ATOM     47  C   UNL A   1      40.792  26.219  26.313  1.00  0.00     0.200 A 
ATOM     48  F   UNL A   1      42.201  27.806  25.277  1.00  0.00    -0.200 F 
ATOM     49  F   UNL A   1      40.799  25.468  25.203  1.00  0.00    -0.200 F 
ENDBRANCH  25  39
BRANCH  26  50
ATOM     50  C   UNL A   1      39.586  33.768  36.584  1.00  0.00     0.064 A 
ATOM     51  C   UNL A   1      40.155  35.043  36.695  1.00  0.00     0.173 A 
ATOM     52  C   UNL A   1      38.794  33.310  37.647  1.00  0.00     0.173 A 
ATOM     53  F   UNL A   1      40.934  35.517  35.711  1.00  0.00    -0.203 F 
ATOM     54  C   UNL A   1      39.955  35.822  37.832  1.00  0.00     0.198 A 
ATOM     55  C   UNL A   1      38.569  34.102  38.771  1.00  0.00     0.198 A 
ATOM     56  F   UNL A   1      38.221  32.099  37.586  1.00  0.00    -0.203 F 
ATOM     57  F   UNL A   1      40.545  37.021  37.933  1.00  0.00    -0.200 F 
ATOM     58  C   UNL A   1      39.156  35.353  38.866  1.00  0.00     0.200 A 
ATOM     59  F   UNL A   1      37.783  33.652  39.759  1.00  0.00    -0.200 F 
ATOM     60  F   UNL A   1      38.959  36.106  39.957  1.00  0.00    -0.200 F 
ENDBRANCH  26  50
BRANCH  38  61
ATOM     61  C   UNL A   1      44.010  28.642  34.990  1.00  0.00     0.064 A 
ATOM     62  C   UNL A   1      43.769  27.507  35.779  1.00  0.00     0.173 A 
ATOM     63  C   UNL A   1      45.320  29.141  34.931  1.00  0.00     0.173 A 
ATOM     64  F   UNL A   1      42.529  27.008  35.880  1.00  0.00    -0.203 F 
ATOM     65  C   UNL A   1      44.797  26.910  36.500  1.00  0.00     0.198 A 
ATOM     66  C   UNL A   1      46.350  28.524  35.633  1.00  0.00     0.198 A 
ATOM     67  F   UNL A   1      45.598  30.223  34.188  1.00  0.00    -0.203 F 
ATOM     68  F   UNL A   1      44.536  25.855  37.285  1.00  0.00    -0.200 F 
ATOM     69  C   UNL A   1      46.087  27.414  36.421  1.00  0.00     0.200 A 
ATOM     70  F   UNL A   1      47.597  29.007  35.550  1.00  0.00    -0.200 F 
ATOM     71  F   UNL A   1      47.077  26.836  37.116  1.00  0.00    -0.200 F 
ENDBRANCH  38  61
ENDBRANCH  12  13
ENDBRANCH   5   7
ENDBRANCH   2   3
ENDBRANCH   1   2
BRANCH   1  72
ATOM     72  C   UNL A   1      31.800  30.135  26.582  1.00  0.00     0.023 C 
BRANCH  72  73
ATOM     73  C   UNL A   1      33.200  29.711  26.120  1.00  0.00     0.116 C 
BRANCH  73  74
ATOM     74  N   UNL A   1      33.265  29.677  24.676  1.00  0.00    -0.351 N 
ATOM     75  C   UNL A   1      33.509  28.640  23.828  1.00  0.00     0.281 C 
ATOM     76  H   UNL A   1      33.107  30.543  24.236  1.00  0.00     0.163 HD
ATOM     77  O   UNL A   1      34.047  28.969  22.761  1.00  0.00    -0.268 OA
BRANCH  75  78
ATOM     78  C   UNL A   1      33.091  27.159  24.102  1.00  0.00     0.176 C 
ATOM     79  C   UNL A   1      33.466  26.273  22.897  1.00  0.00     0.080 C 
ATOM     80  C   UNL A   1      33.869  26.400  25.197  1.00  0.00     0.093 C 
ATOM     81  C   UNL A   1      33.372  24.838  23.401  1.00  0.00     0.022 C 
ATOM     82  C   UNL A   1      33.796  24.899  24.865  1.00  0.00     0.054 C 
BRANCH  78  83
ATOM     83  N   UNL A   1      31.664  27.093  24.483  1.00  0.00    -0.331 N 
ATOM     84  H   UNL A   1      31.470  27.955  24.992  1.00  0.00     0.347 HD
ATOM     85  H   UNL A   1      31.623  26.196  24.965  1.00  0.00     0.347 HD
BRANCH  83  86
ATOM     86  C   UNL A   1      30.587  26.951  23.506  1.00  0.00     0.183 C 
ATOM     87  C   UNL A   1      29.115  26.821  23.754  1.00  0.00     0.071 C 
ATOM     88  C   UNL A   1      29.669  28.135  23.306  1.00  0.00     0.071 C 
ENDBRANCH  83  86
ENDBRANCH  78  83
BRANCH  82  89
ATOM     89  S   UNL A   1      32.629  24.079  26.015  1.00  0.00    -0.155 SA
BRANCH  89  90
ATOM     90  C   UNL A   1      32.994  22.306  25.817  1.00  0.00     0.047 C 
ATOM     91  C   UNL A   1      32.091  21.567  24.842  1.00  0.00     0.014 C 
ATOM     92  C   UNL A   1      34.401  21.917  25.370  1.00  0.00     0.014 C 
ATOM     93  C   UNL A   1      32.761  20.205  24.739  1.00  0.00     0.001 C 
ATOM     94  C   UNL A   1      34.261  20.476  24.873  1.00  0.00     0.001 C 
ENDBRANCH  89  90
ENDBRANCH  82  89
ENDBRANCH  75  78
ENDBRANCH  73  74
ENDBRANCH  72  73
ENDBRANCH   1  72
TORSDOF 15
ENDMDL
MODEL 3
REMARK VINA RESULT:     -11.7      0.368      1.691
REMARK SMILES O=C(NCCCCNC(=O)[C@@]1([NH2+]C2CC2)CC[C@H](SC2CCCC2)C1)c1ccc(-c2c3nc(c(-c4c(F)c(F)c(F)c(F)c4F)c4ccc([nH]4)c(-c4c(F)c(F)c(F)c(F)c4F)c4nc(c(-c5c(F)c(F)c(F)c(F)c5F)c5ccc2[nH]5)C=C4)C=C3)cc1
REMARK SMILES IDX 5 1 4 2 3 3 1 4 2 5 26 7 27 8 88 9 28 10 87 11 29 12 30 13
REMARK SMILES IDX 31 14 81 15 32 16 86 17 80 18 82 19 33 20 85 21 79 22 78 23
REMARK SMILES IDX 34 25 66 26 46 27 65 28 47 29 50 30 64 31 83 32 48 33 49 34
REMARK SMILES IDX 63 36 84 37 51 38 35 39 36 40 44 41 37 42 38 43 42 44 45 45
REMARK SMILES IDX 39 46 40 47 43 48 41 49 67 50 68 51 76 52 69 53 70 54 74 55
REMARK SMILES IDX 77 56 71 57 72 58 75 59 73 60 52 61 53 62 61 63 54 64 55 65
REMARK SMILES IDX 59 66 62 67 56 68 57 69 60 70 58 71 6 72 7 73 8 74 9 75
REMARK SMILES IDX 10 77 11 78 16 79 25 80 17 81 18 82 12 83 13 86 14 87 15 88
REMARK SMILES IDX 19 89 20 90 21 91 24 92 22 93 23 94
REMARK H PARENT 3 6 82 24 50 35 8 76 12 84 12 85
REMARK Flexibility Score: inf
ROOT
ATOM      1  C   UNL A   1      31.433  32.282  26.514  1.00  0.00     0.023 C 
ENDROOT
BRANCH   1   2
ATOM      2  C   UNL A   1      32.592  32.896  27.279  1.00  0.00     0.116 C 
BRANCH   2   3
ATOM      3  N   UNL A   1      32.351  34.278  27.664  1.00  0.00    -0.352 N 
ATOM      4  O   UNL A   1      32.640  36.129  28.931  1.00  0.00    -0.269 OA
ATOM      5  C   UNL A   1      33.011  35.003  28.622  1.00  0.00     0.251 C 
ATOM      6  H   UNL A   1      31.631  34.745  27.180  1.00  0.00     0.163 HD
BRANCH   5   7
ATOM      7  C   UNL A   1      34.164  34.382  29.298  1.00  0.00     0.039 A 
ATOM      8  C   UNL A   1      33.976  33.659  30.479  1.00  0.00     0.014 A 
ATOM      9  C   UNL A   1      35.438  34.553  28.755  1.00  0.00     0.014 A 
ATOM     10  C   UNL A   1      35.079  33.182  31.171  1.00  0.00     0.010 A 
ATOM     11  C   UNL A   1      36.540  34.009  29.414  1.00  0.00     0.010 A 
ATOM     12  C   UNL A   1      36.365  33.326  30.629  1.00  0.00    -0.014 A 
BRANCH  12  13
ATOM     13  C   UNL A   1      37.501  32.636  31.277  1.00  0.00     0.031 A 
ATOM     14  C   UNL A   1      38.210  31.499  30.608  1.00  0.00     0.074 A 
ATOM     15  C   UNL A   1      37.871  33.060  32.501  1.00  0.00     0.049 A 
ATOM     16  N   UNL A   1      39.198  30.771  31.060  1.00  0.00    -0.248 NA
ATOM     17  C   UNL A   1      37.749  31.120  29.264  1.00  0.00     0.031 C 
ATOM     18  C   UNL A   1      37.225  34.148  33.242  1.00  0.00     0.029 A 
ATOM     19  N   UNL A   1      38.870  32.637  33.336  1.00  0.00    -0.354 N 
ATOM     20  C   UNL A   1      39.467  29.836  30.070  1.00  0.00     0.074 A 
ATOM     21  C   UNL A   1      38.530  30.080  28.993  1.00  0.00     0.031 C 
ATOM     22  C   UNL A   1      37.857  34.321  34.411  1.00  0.00     0.029 A 
ATOM     23  C   UNL A   1      38.909  33.319  34.527  1.00  0.00     0.049 A 
ATOM     24  H   UNL A   1      39.497  31.915  33.105  1.00  0.00     0.167 HD
ATOM     25  C   UNL A   1      40.413  28.868  30.071  1.00  0.00     0.037 A 
ATOM     26  C   UNL A   1      39.686  33.136  35.608  1.00  0.00     0.037 A 
ATOM     27  C   UNL A   1      41.354  28.659  31.142  1.00  0.00     0.049 A 
ATOM     28  C   UNL A   1      40.712  32.042  35.580  1.00  0.00     0.074 A 
ATOM     29  C   UNL A   1      42.404  27.760  31.202  1.00  0.00     0.029 A 
ATOM     30  N   UNL A   1      41.350  29.352  32.343  1.00  0.00    -0.354 N 
ATOM     31  N   UNL A   1      40.995  31.202  34.615  1.00  0.00    -0.248 NA
ATOM     32  C   UNL A   1      41.518  31.861  36.793  1.00  0.00     0.031 C 
ATOM     33  C   UNL A   1      43.005  27.875  32.460  1.00  0.00     0.029 A 
ATOM     34  C   UNL A   1      42.357  28.874  33.168  1.00  0.00     0.049 A 
ATOM     35  H   UNL A   1      40.726  30.077  32.577  1.00  0.00     0.167 HD
ATOM     36  C   UNL A   1      42.011  30.394  35.100  1.00  0.00     0.074 A 
ATOM     37  C   UNL A   1      42.317  30.865  36.436  1.00  0.00     0.031 C 
ATOM     38  C   UNL A   1      42.629  29.349  34.499  1.00  0.00     0.037 A 
BRANCH  25  39
ATOM     39  C   UNL A   1      40.484  27.944  28.893  1.00  0.00     0.064 A 
ATOM     40  C   UNL A   1      39.737  26.758  28.841  1.00  0.00     0.173 A 
ATOM     41  C   UNL A   1      41.234  28.301  27.761  1.00  0.00     0.173 A 
ATOM     42  F   UNL A   1      39.012  26.370  29.899  1.00  0.00    -0.203 F 
ATOM     43  C   UNL A   1      39.740  25.962  27.697  1.00  0.00     0.198 A 
ATOM     44  C   UNL A   1      41.218  27.513  26.613  1.00  0.00     0.198 A 
ATOM     45  F   UNL A   1      41.960  29.428  27.761  1.00  0.00    -0.203 F 
ATOM     46  F   UNL A   1      39.030  24.826  27.672  1.00  0.00    -0.200 F 
ATOM     47  C   UNL A   1      40.472  26.345  26.582  1.00  0.00     0.200 A 
ATOM     48  F   UNL A   1      41.916  27.891  25.533  1.00  0.00    -0.200 F 
ATOM     49  F   UNL A   1      40.456  25.588  25.476  1.00  0.00    -0.200 F 
ENDBRANCH  25  39
BRANCH  26  50
ATOM     50  C   UNL A   1      39.491  33.985  36.810  1.00  0.00     0.064 A 
ATOM     51  C   UNL A   1      38.726  33.539  37.895  1.00  0.00     0.173 A 
ATOM     52  C   UNL A   1      40.076  35.257  36.900  1.00  0.00     0.173 A 
ATOM     53  F   UNL A   1      38.134  32.337  37.848  1.00  0.00    -0.203 F 
ATOM     54  C   UNL A   1      38.540  34.341  39.019  1.00  0.00     0.198 A 
ATOM     55  C   UNL A   1      39.914  36.045  38.036  1.00  0.00     0.198 A 
ATOM     56  F   UNL A   1      40.823  35.726  35.889  1.00  0.00    -0.203 F 
ATOM     57  F   UNL A   1      37.769  33.909  40.027  1.00  0.00    -0.200 F 
ATOM     58  C   UNL A   1      39.140  35.590  39.091  1.00  0.00     0.200 A 
ATOM     59  F   UNL A   1      40.509  37.244  38.108  1.00  0.00    -0.200 F 
ATOM     60  F   UNL A   1      38.964  36.358  40.175  1.00  0.00    -0.200 F 
ENDBRANCH  26  50
BRANCH  38  61
ATOM     61  C   UNL A   1      43.688  28.648  35.293  1.00  0.00     0.064 A 
ATOM     62  C   UNL A   1      45.039  29.006  35.177  1.00  0.00     0.173 A 
ATOM     63  C   UNL A   1      43.349  27.625  36.191  1.00  0.00     0.173 A 
ATOM     64  F   UNL A   1      45.410  29.965  34.317  1.00  0.00    -0.203 F 
ATOM     65  C   UNL A   1      46.016  28.347  35.915  1.00  0.00     0.198 A 
ATOM     66  C   UNL A   1      44.327  26.987  36.946  1.00  0.00     0.198 A 
ATOM     67  F   UNL A   1      42.069  27.250  36.336  1.00  0.00    -0.203 F 
ATOM     68  F   UNL A   1      47.306  28.672  35.754  1.00  0.00    -0.200 F 
ATOM     69  C   UNL A   1      45.660  27.343  36.803  1.00  0.00     0.200 A 
ATOM     70  F   UNL A   1      43.981  26.022  37.810  1.00  0.00    -0.200 F 
ATOM     71  F   UNL A   1      46.603  26.710  37.515  1.00  0.00    -0.200 F 
ENDBRANCH  38  61
ENDBRANCH  12  13
ENDBRANCH   5   7
ENDBRANCH   2   3
ENDBRANCH   1   2
BRANCH   1  72
ATOM     72  C   UNL A   1      31.721  30.891  25.944  1.00  0.00     0.023 C 
BRANCH  72  73
ATOM     73  C   UNL A   1      32.839  30.128  26.665  1.00  0.00     0.116 C 
BRANCH  73  74
ATOM     74  N   UNL A   1      32.279  29.102  27.517  1.00  0.00    -0.351 N 
ATOM     75  C   UNL A   1      31.837  27.849  27.215  1.00  0.00     0.281 C 
ATOM     76  H   UNL A   1      32.206  29.349  28.466  1.00  0.00     0.163 HD
ATOM     77  O   UNL A   1      30.938  27.432  27.960  1.00  0.00    -0.268 OA
BRANCH  75  78
ATOM     78  C   UNL A   1      32.438  26.949  26.088  1.00  0.00     0.176 C 
ATOM     79  C   UNL A   1      33.973  26.893  26.219  1.00  0.00     0.080 C 
ATOM     80  C   UNL A   1      32.145  25.436  26.166  1.00  0.00     0.093 C 
ATOM     81  C   UNL A   1      34.416  25.727  25.345  1.00  0.00     0.022 C 
ATOM     82  C   UNL A   1      33.289  24.702  25.444  1.00  0.00     0.054 C 
BRANCH  78  83
ATOM     83  N   UNL A   1      31.958  27.399  24.764  1.00  0.00    -0.331 N 
ATOM     84  H   UNL A   1      32.250  26.682  24.101  1.00  0.00     0.347 HD
ATOM     85  H   UNL A   1      32.357  28.336  24.709  1.00  0.00     0.347 HD
BRANCH  83  86
ATOM     86  C   UNL A   1      30.550  27.664  24.477  1.00  0.00     0.183 C 
ATOM     87  C   UNL A   1      29.964  28.528  23.402  1.00  0.00     0.071 C 
ATOM     88  C   UNL A   1      29.967  27.043  23.228  1.00  0.00     0.071 C 
ENDBRANCH  83  86
ENDBRANCH  78  83
BRANCH  82  89
ATOM     89  S   UNL A   1      32.692  24.091  23.823  1.00  0.00    -0.155 SA
BRANCH  89  90
ATOM     90  C   UNL A   1      33.249  22.358  23.777  1.00  0.00     0.047 C 
ATOM     91  C   UNL A   1      34.242  21.972  24.863  1.00  0.00     0.014 C 
ATOM     92  C   UNL A   1      32.184  21.268  23.859  1.00  0.00     0.014 C 
ATOM     93  C   UNL A   1      34.347  20.463  24.692  1.00  0.00     0.001 C 
ATOM     94  C   UNL A   1      32.957  20.005  24.247  1.00  0.00     0.001 C 
ENDBRANCH  89  90
ENDBRANCH  82  89
ENDBRANCH  75  78
ENDBRANCH  73  74
ENDBRANCH  72  73
ENDBRANCH   1  72
TORSDOF 15
ENDMDL
