MODEL 1
REMARK VINA RESULT:     -12.3      0.000      0.000
REMARK SMILES CO[C@@H]1C[C@@H](C(=O)NCCCCNC(=O)c2ccc(-c3c4nc(c(-c5c(F)c(F)c(F)c(F)c5F)c5ccc([nH]5)c(-c5c(F)c(F)c(F)c(F)c5F)c5nc(c(-c6c(F)c(F)c(F)c(F)c6F)c6ccc3[nH]6)C=C5)C=C4)cc2)N(S(=O)(=O)c2ccc(Cl)cc2F)C1
REMARK SMILES IDX 10 1 9 2 8 3 6 4 7 5 5 7 3 8 4 9 91 10 79 11 2 12 1 13 80 14
REMARK SMILES IDX 81 15 82 16 83 17 84 18 89 19 85 20 88 21 90 22 86 23 87 24
REMARK SMILES IDX 11 25 12 26 13 27 14 28 15 30 16 31 17 32 78 33 18 34 77 35
REMARK SMILES IDX 19 36 20 37 21 38 71 39 22 40 76 41 70 42 72 43 23 44 75 45
REMARK SMILES IDX 69 46 68 47 24 49 56 50 36 51 55 52 37 53 40 54 54 55 73 56
REMARK SMILES IDX 38 57 39 58 53 60 74 61 41 62 25 63 26 64 34 65 27 66 28 67
REMARK SMILES IDX 32 68 35 69 29 70 30 71 33 72 31 73 57 74 58 75 66 76 59 77
REMARK SMILES IDX 60 78 64 79 67 80 61 81 62 82 65 83 63 84 42 85 43 86 51 87
REMARK SMILES IDX 44 88 45 89 49 90 52 91 46 92 47 93 50 94 48 95
REMARK H PARENT 8 6 13 29 72 48 40 59
REMARK Flexibility Score: inf
ROOT
ATOM      1  C   UNL A   1      36.452  20.538  24.977  1.00  0.00     0.023 C 
ENDROOT
BRANCH   1   2
ATOM      2  C   UNL A   1      36.487  21.866  25.733  1.00  0.00     0.116 C 
BRANCH   2   3
ATOM      3  N   UNL A   1      35.490  21.907  26.789  1.00  0.00    -0.355 N 
ATOM      4  C   UNL A   1      34.380  22.705  26.891  1.00  0.00     0.238 C 
ATOM      5  O   UNL A   1      33.745  22.674  27.943  1.00  0.00    -0.273 OA
ATOM      6  H   UNL A   1      35.630  21.277  27.531  1.00  0.00     0.163 HD
BRANCH   4   7
ATOM      7  C   UNL A   1      34.041  23.624  25.746  1.00  0.00     0.165 C 
ATOM      8  C   UNL A   1      33.092  25.573  24.820  1.00  0.00     0.135 C 
ATOM      9  C   UNL A   1      33.284  24.878  26.161  1.00  0.00     0.064 C 
ATOM     10  C   UNL A   1      32.978  24.418  23.797  1.00  0.00     0.135 C 
ATOM     11  N   UNL A   1      33.302  23.127  24.540  1.00  0.00    -0.183 NA
BRANCH   8  12
ATOM     12  O   UNL A   1      34.246  26.360  24.494  1.00  0.00    -0.380 OA
ATOM     13  C   UNL A   1      33.950  27.743  24.322  1.00  0.00     0.195 C 
ENDBRANCH   8  12
BRANCH  11  14
ATOM     14  S   UNL A   1      31.881  22.173  24.717  1.00  0.00     0.246 S 
ATOM     15  O   UNL A   1      31.394  22.333  26.070  1.00  0.00    -0.207 OA
ATOM     16  O   UNL A   1      31.020  22.546  23.612  1.00  0.00    -0.207 OA
BRANCH  14  17
ATOM     17  C   UNL A   1      32.315  20.488  24.433  1.00  0.00     0.118 A 
ATOM     18  C   UNL A   1      32.868  19.734  25.478  1.00  0.00     0.026 A 
ATOM     19  C   UNL A   1      32.274  19.953  23.152  1.00  0.00     0.144 A 
ATOM     20  C   UNL A   1      33.299  18.425  25.240  1.00  0.00     0.022 A 
ATOM     21  C   UNL A   1      32.665  18.636  22.916  1.00  0.00     0.061 A 
ATOM     22  F   UNL A   1      31.847  20.670  22.107  1.00  0.00    -0.205 F 
ATOM     23  C   UNL A   1      33.172  17.875  23.964  1.00  0.00     0.044 A 
ATOM     24  Cl  UNL A   1      33.648  16.245  23.687  1.00  0.00    -0.084 Cl
ENDBRANCH  14  17
ENDBRANCH  11  14
ENDBRANCH   4   7
ENDBRANCH   2   3
ENDBRANCH   1   2
BRANCH   1  25
ATOM     25  C   UNL A   1      37.823  19.898  24.736  1.00  0.00     0.023 C 
BRANCH  25  26
ATOM     26  C   UNL A   1      38.899  20.282  25.746  1.00  0.00     0.116 C 
BRANCH  26  27
ATOM     27  N   UNL A   1      39.914  19.252  25.892  1.00  0.00    -0.352 N 
ATOM     28  C   UNL A   1      41.265  19.382  26.108  1.00  0.00     0.251 C 
ATOM     29  H   UNL A   1      39.586  18.326  25.825  1.00  0.00     0.163 HD
ATOM     30  O   UNL A   1      41.997  18.401  26.021  1.00  0.00    -0.269 OA
BRANCH  28  31
ATOM     31  C   UNL A   1      41.846  20.705  26.425  1.00  0.00     0.039 A 
ATOM     32  C   UNL A   1      42.166  21.569  25.373  1.00  0.00     0.014 A 
ATOM     33  C   UNL A   1      42.095  21.087  27.746  1.00  0.00     0.014 A 
ATOM     34  C   UNL A   1      42.677  22.839  25.649  1.00  0.00     0.010 A 
ATOM     35  C   UNL A   1      42.543  22.377  28.023  1.00  0.00     0.010 A 
ATOM     36  C   UNL A   1      42.841  23.265  26.978  1.00  0.00    -0.014 A 
BRANCH  36  37
ATOM     37  C   UNL A   1      43.322  24.633  27.291  1.00  0.00     0.031 A 
ATOM     38  C   UNL A   1      42.379  25.655  27.864  1.00  0.00     0.074 A 
ATOM     39  C   UNL A   1      44.593  24.975  27.009  1.00  0.00     0.049 A 
ATOM     40  N   UNL A   1      42.593  26.918  28.139  1.00  0.00    -0.248 NA
ATOM     41  C   UNL A   1      41.009  25.202  28.145  1.00  0.00     0.031 C 
ATOM     42  C   UNL A   1      45.596  24.087  26.418  1.00  0.00     0.029 A 
ATOM     43  N   UNL A   1      45.258  26.166  27.171  1.00  0.00    -0.354 N 
ATOM     44  C   UNL A   1      41.384  27.411  28.609  1.00  0.00     0.074 A 
ATOM     45  C   UNL A   1      40.428  26.326  28.541  1.00  0.00     0.031 C 
ATOM     46  C   UNL A   1      46.753  24.757  26.287  1.00  0.00     0.029 A 
ATOM     47  C   UNL A   1      46.564  26.128  26.750  1.00  0.00     0.049 A 
ATOM     48  H   UNL A   1      44.838  26.970  27.553  1.00  0.00     0.167 HD
ATOM     49  C   UNL A   1      41.100  28.650  29.077  1.00  0.00     0.037 A 
ATOM     50  C   UNL A   1      47.503  27.094  26.734  1.00  0.00     0.037 A 
ATOM     51  C   UNL A   1      42.056  29.723  29.166  1.00  0.00     0.049 A 
ATOM     52  C   UNL A   1      47.160  28.464  27.251  1.00  0.00     0.074 A 
ATOM     53  C   UNL A   1      41.876  31.000  29.670  1.00  0.00     0.029 A 
ATOM     54  N   UNL A   1      43.374  29.642  28.742  1.00  0.00    -0.354 N 
ATOM     55  N   UNL A   1      46.028  28.904  27.743  1.00  0.00    -0.248 NA
ATOM     56  C   UNL A   1      48.230  29.472  27.213  1.00  0.00     0.031 C 
ATOM     57  C   UNL A   1      43.076  31.704  29.516  1.00  0.00     0.029 A 
ATOM     58  C   UNL A   1      44.015  30.852  28.958  1.00  0.00     0.049 A 
ATOM     59  H   UNL A   1      43.792  28.844  28.346  1.00  0.00     0.167 HD
ATOM     60  C   UNL A   1      46.255  30.226  28.098  1.00  0.00     0.074 A 
ATOM     61  C   UNL A   1      47.638  30.515  27.777  1.00  0.00     0.031 C 
ATOM     62  C   UNL A   1      45.394  31.120  28.642  1.00  0.00     0.037 A 
BRANCH  49  63
ATOM     63  C   UNL A   1      39.696  28.912  29.537  1.00  0.00     0.064 A 
ATOM     64  C   UNL A   1      38.721  29.413  28.663  1.00  0.00     0.173 A 
ATOM     65  C   UNL A   1      39.312  28.627  30.855  1.00  0.00     0.173 A 
ATOM     66  F   UNL A   1      39.041  29.713  27.395  1.00  0.00    -0.203 F 
ATOM     67  C   UNL A   1      37.418  29.644  29.098  1.00  0.00     0.198 A 
ATOM     68  C   UNL A   1      38.002  28.833  31.280  1.00  0.00     0.198 A 
ATOM     69  F   UNL A   1      40.205  28.142  31.730  1.00  0.00    -0.203 F 
ATOM     70  F   UNL A   1      36.515  30.165  28.256  1.00  0.00    -0.200 F 
ATOM     71  C   UNL A   1      37.058  29.347  30.404  1.00  0.00     0.200 A 
ATOM     72  F   UNL A   1      37.652  28.535  32.539  1.00  0.00    -0.200 F 
ATOM     73  F   UNL A   1      35.803  29.564  30.820  1.00  0.00    -0.200 F 
ENDBRANCH  49  63
BRANCH  50  74
ATOM     74  C   UNL A   1      48.870  26.790  26.237  1.00  0.00     0.064 A 
ATOM     75  C   UNL A   1      49.233  27.089  24.917  1.00  0.00     0.173 A 
ATOM     76  C   UNL A   1      49.835  26.199  27.063  1.00  0.00     0.173 A 
ATOM     77  F   UNL A   1      48.336  27.635  24.082  1.00  0.00    -0.203 F 
ATOM     78  C   UNL A   1      50.507  26.792  24.436  1.00  0.00     0.198 A 
ATOM     79  C   UNL A   1      51.116  25.925  26.590  1.00  0.00     0.198 A 
ATOM     80  F   UNL A   1      49.537  25.898  28.335  1.00  0.00    -0.203 F 
ATOM     81  F   UNL A   1      50.815  27.050  23.159  1.00  0.00    -0.200 F 
ATOM     82  C   UNL A   1      51.449  26.215  25.274  1.00  0.00     0.200 A 
ATOM     83  F   UNL A   1      52.028  25.380  27.405  1.00  0.00    -0.200 F 
ATOM     84  F   UNL A   1      52.674  25.933  24.813  1.00  0.00    -0.200 F 
ENDBRANCH  50  74
BRANCH  62  85
ATOM     85  C   UNL A   1      45.931  32.485  28.958  1.00  0.00     0.064 A 
ATOM     86  C   UNL A   1      45.853  33.539  28.037  1.00  0.00     0.173 A 
ATOM     87  C   UNL A   1      46.498  32.750  30.215  1.00  0.00     0.173 A 
ATOM     88  F   UNL A   1      45.334  33.330  26.818  1.00  0.00    -0.203 F 
ATOM     89  C   UNL A   1      46.342  34.803  28.353  1.00  0.00     0.198 A 
ATOM     90  C   UNL A   1      46.962  34.022  30.538  1.00  0.00     0.198 A 
ATOM     91  F   UNL A   1      46.592  31.777  31.133  1.00  0.00    -0.203 F 
ATOM     92  F   UNL A   1      46.297  35.784  27.441  1.00  0.00    -0.200 F 
ATOM     93  C   UNL A   1      46.890  35.045  29.604  1.00  0.00     0.200 A 
ATOM     94  F   UNL A   1      47.481  34.257  31.750  1.00  0.00    -0.200 F 
ATOM     95  F   UNL A   1      47.356  36.264  29.908  1.00  0.00    -0.200 F 
ENDBRANCH  62  85
ENDBRANCH  36  37
ENDBRANCH  28  31
ENDBRANCH  26  27
ENDBRANCH  25  26
ENDBRANCH   1  25
TORSDOF 14
ENDMDL
MODEL 2
REMARK VINA RESULT:     -12.2      0.526      2.061
REMARK SMILES CO[C@@H]1C[C@@H](C(=O)NCCCCNC(=O)c2ccc(-c3c4nc(c(-c5c(F)c(F)c(F)c(F)c5F)c5ccc([nH]5)c(-c5c(F)c(F)c(F)c(F)c5F)c5nc(c(-c6c(F)c(F)c(F)c(F)c6F)c6ccc3[nH]6)C=C5)C=C4)cc2)N(S(=O)(=O)c2ccc(Cl)cc2F)C1
REMARK SMILES IDX 10 1 9 2 8 3 6 4 7 5 5 7 3 8 4 9 91 10 79 11 2 12 1 13 80 14
REMARK SMILES IDX 81 15 82 16 83 17 84 18 89 19 85 20 88 21 90 22 86 23 87 24
REMARK SMILES IDX 11 25 12 26 13 27 14 28 15 30 16 31 17 32 78 33 18 34 77 35
REMARK SMILES IDX 19 36 20 37 21 38 71 39 22 40 76 41 70 42 72 43 23 44 75 45
REMARK SMILES IDX 69 46 68 47 24 49 56 50 36 51 55 52 37 53 40 54 54 55 73 56
REMARK SMILES IDX 38 57 39 58 53 60 74 61 41 62 25 63 26 64 34 65 27 66 28 67
REMARK SMILES IDX 32 68 35 69 29 70 30 71 33 72 31 73 57 74 58 75 66 76 59 77
REMARK SMILES IDX 60 78 64 79 67 80 61 81 62 82 65 83 63 84 42 85 43 86 51 87
REMARK SMILES IDX 44 88 45 89 49 90 52 91 46 92 47 93 50 94 48 95
REMARK H PARENT 8 6 13 29 72 48 40 59
REMARK Flexibility Score: inf
ROOT
ATOM      1  C   UNL A   1      36.546  20.351  25.008  1.00  0.00     0.023 C 
ENDROOT
BRANCH   1   2
ATOM      2  C   UNL A   1      36.399  21.826  25.380  1.00  0.00     0.116 C 
BRANCH   2   3
ATOM      3  N   UNL A   1      35.580  21.999  26.568  1.00  0.00    -0.355 N 
ATOM      4  C   UNL A   1      34.564  22.891  26.787  1.00  0.00     0.238 C 
ATOM      5  O   UNL A   1      34.095  22.962  27.922  1.00  0.00    -0.273 OA
ATOM      6  H   UNL A   1      35.783  21.393  27.317  1.00  0.00     0.163 HD
BRANCH   4   7
ATOM      7  C   UNL A   1      34.125  23.782  25.654  1.00  0.00     0.165 C 
ATOM      8  C   UNL A   1      33.035  25.673  24.763  1.00  0.00     0.135 C 
ATOM      9  C   UNL A   1      33.324  25.000  26.097  1.00  0.00     0.064 C 
ATOM     10  C   UNL A   1      32.934  24.505  23.752  1.00  0.00     0.135 C 
ATOM     11  N   UNL A   1      33.359  23.239  24.487  1.00  0.00    -0.183 NA
BRANCH   8  12
ATOM     12  O   UNL A   1      34.131  26.516  24.380  1.00  0.00    -0.380 OA
ATOM     13  C   UNL A   1      33.830  27.905  24.479  1.00  0.00     0.195 C 
ENDBRANCH   8  12
BRANCH  11  14
ATOM     14  S   UNL A   1      31.998  22.215  24.734  1.00  0.00     0.246 S 
ATOM     15  O   UNL A   1      31.587  22.334  26.116  1.00  0.00    -0.207 OA
ATOM     16  O   UNL A   1      31.056  22.558  23.688  1.00  0.00    -0.207 OA
BRANCH  14  17
ATOM     17  C   UNL A   1      32.495  20.557  24.399  1.00  0.00     0.118 A 
ATOM     18  C   UNL A   1      32.245  20.004  23.134  1.00  0.00     0.026 A 
ATOM     19  C   UNL A   1      32.971  19.741  25.418  1.00  0.00     0.144 A 
ATOM     20  C   UNL A   1      32.554  18.663  22.886  1.00  0.00     0.022 A 
ATOM     21  C   UNL A   1      33.317  18.414  25.166  1.00  0.00     0.061 A 
ATOM     22  F   UNL A   1      33.131  20.199  26.663  1.00  0.00    -0.205 F 
ATOM     23  C   UNL A   1      33.110  17.882  23.898  1.00  0.00     0.044 A 
ATOM     24  Cl  UNL A   1      33.543  16.249  23.574  1.00  0.00    -0.084 Cl
ENDBRANCH  14  17
ENDBRANCH  11  14
ENDBRANCH   4   7
ENDBRANCH   2   3
ENDBRANCH   1   2
BRANCH   1  25
ATOM     25  C   UNL A   1      37.978  19.905  24.696  1.00  0.00     0.023 C 
BRANCH  25  26
ATOM     26  C   UNL A   1      39.002  20.226  25.780  1.00  0.00     0.116 C 
BRANCH  26  27
ATOM     27  N   UNL A   1      40.028  19.202  25.892  1.00  0.00    -0.352 N 
ATOM     28  C   UNL A   1      41.381  19.340  26.092  1.00  0.00     0.251 C 
ATOM     29  H   UNL A   1      39.708  18.275  25.813  1.00  0.00     0.163 HD
ATOM     30  O   UNL A   1      42.120  18.368  25.976  1.00  0.00    -0.269 OA
BRANCH  28  31
ATOM     31  C   UNL A   1      41.955  20.662  26.426  1.00  0.00     0.039 A 
ATOM     32  C   UNL A   1      42.267  21.543  25.386  1.00  0.00     0.014 A 
ATOM     33  C   UNL A   1      42.204  21.028  27.751  1.00  0.00     0.014 A 
ATOM     34  C   UNL A   1      42.771  22.812  25.677  1.00  0.00     0.010 A 
ATOM     35  C   UNL A   1      42.645  22.317  28.045  1.00  0.00     0.010 A 
ATOM     36  C   UNL A   1      42.935  23.221  27.011  1.00  0.00    -0.014 A 
BRANCH  36  37
ATOM     37  C   UNL A   1      43.409  24.588  27.343  1.00  0.00     0.031 A 
ATOM     38  C   UNL A   1      42.456  25.602  27.911  1.00  0.00     0.074 A 
ATOM     39  C   UNL A   1      44.683  24.935  27.080  1.00  0.00     0.049 A 
ATOM     40  N   UNL A   1      42.663  26.863  28.199  1.00  0.00    -0.248 NA
ATOM     41  C   UNL A   1      41.083  25.145  28.170  1.00  0.00     0.031 C 
ATOM     42  C   UNL A   1      45.696  24.054  26.497  1.00  0.00     0.029 A 
ATOM     43  N   UNL A   1      45.343  26.125  27.261  1.00  0.00    -0.354 N 
ATOM     44  C   UNL A   1      41.446  27.350  28.657  1.00  0.00     0.074 A 
ATOM     45  C   UNL A   1      40.494  26.264  28.566  1.00  0.00     0.031 C 
ATOM     46  C   UNL A   1      46.853  24.727  26.387  1.00  0.00     0.029 A 
ATOM     47  C   UNL A   1      46.655  26.094  26.858  1.00  0.00     0.049 A 
ATOM     48  H   UNL A   1      44.916  26.925  27.645  1.00  0.00     0.167 HD
ATOM     49  C   UNL A   1      41.153  28.585  29.130  1.00  0.00     0.037 A 
ATOM     50  C   UNL A   1      47.592  27.062  26.863  1.00  0.00     0.037 A 
ATOM     51  C   UNL A   1      42.105  29.659  29.242  1.00  0.00     0.049 A 
ATOM     52  C   UNL A   1      47.238  28.427  27.386  1.00  0.00     0.074 A 
ATOM     53  C   UNL A   1      41.916  30.932  29.753  1.00  0.00     0.029 A 
ATOM     54  N   UNL A   1      43.429  29.585  28.835  1.00  0.00    -0.354 N 
ATOM     55  N   UNL A   1      46.099  28.860  27.866  1.00  0.00    -0.248 NA
ATOM     56  C   UNL A   1      48.307  29.438  27.371  1.00  0.00     0.031 C 
ATOM     57  C   UNL A   1      43.116  31.639  29.622  1.00  0.00     0.029 A 
ATOM     58  C   UNL A   1      44.064  30.794  29.069  1.00  0.00     0.049 A 
ATOM     59  H   UNL A   1      43.855  28.791  28.438  1.00  0.00     0.167 HD
ATOM     60  C   UNL A   1      46.317  30.180  28.236  1.00  0.00     0.074 A 
ATOM     61  C   UNL A   1      47.704  30.474  27.936  1.00  0.00     0.031 C 
ATOM     62  C   UNL A   1      45.448  31.068  28.775  1.00  0.00     0.037 A 
BRANCH  49  63
ATOM     63  C   UNL A   1      39.742  28.840  29.573  1.00  0.00     0.064 A 
ATOM     64  C   UNL A   1      39.332  28.592  30.891  1.00  0.00     0.173 A 
ATOM     65  C   UNL A   1      38.800  29.372  28.681  1.00  0.00     0.173 A 
ATOM     66  F   UNL A   1      40.193  28.073  31.779  1.00  0.00    -0.203 F 
ATOM     67  C   UNL A   1      38.023  28.842  31.293  1.00  0.00     0.198 A 
ATOM     68  C   UNL A   1      37.499  29.646  29.093  1.00  0.00     0.198 A 
ATOM     69  F   UNL A   1      39.142  29.631  27.410  1.00  0.00    -0.203 F 
ATOM     70  F   UNL A   1      37.642  28.556  32.546  1.00  0.00    -0.200 F 
ATOM     71  C   UNL A   1      37.109  29.375  30.396  1.00  0.00     0.200 A 
ATOM     72  F   UNL A   1      36.620  30.172  28.229  1.00  0.00    -0.200 F 
ATOM     73  F   UNL A   1      35.851  29.621  30.786  1.00  0.00    -0.200 F 
ENDBRANCH  49  63
BRANCH  50  74
ATOM     74  C   UNL A   1      48.966  26.765  26.382  1.00  0.00     0.064 A 
ATOM     75  C   UNL A   1      49.936  26.257  27.256  1.00  0.00     0.173 A 
ATOM     76  C   UNL A   1      49.336  26.983  25.047  1.00  0.00     0.173 A 
ATOM     77  F   UNL A   1      49.633  26.054  28.547  1.00  0.00    -0.203 F 
ATOM     78  C   UNL A   1      51.232  25.994  26.818  1.00  0.00     0.198 A 
ATOM     79  C   UNL A   1      50.625  26.696  24.604  1.00  0.00     0.198 A 
ATOM     80  F   UNL A   1      48.442  27.464  24.172  1.00  0.00    -0.203 F 
ATOM     81  F   UNL A   1      52.151  25.548  27.683  1.00  0.00    -0.200 F 
ATOM     82  C   UNL A   1      51.574  26.208  25.491  1.00  0.00     0.200 A 
ATOM     83  F   UNL A   1      50.949  26.891  23.319  1.00  0.00    -0.200 F 
ATOM     84  F   UNL A   1      52.819  25.951  25.069  1.00  0.00    -0.200 F 
ENDBRANCH  50  74
BRANCH  62  85
ATOM     85  C   UNL A   1      45.977  32.431  29.110  1.00  0.00     0.064 A 
ATOM     86  C   UNL A   1      46.572  32.706  30.349  1.00  0.00     0.173 A 
ATOM     87  C   UNL A   1      45.922  33.466  28.162  1.00  0.00     0.173 A 
ATOM     88  F   UNL A   1      46.634  31.754  31.292  1.00  0.00    -0.203 F 
ATOM     89  C   UNL A   1      47.072  33.972  30.638  1.00  0.00     0.198 A 
ATOM     90  C   UNL A   1      46.447  34.724  28.444  1.00  0.00     0.198 A 
ATOM     91  F   UNL A   1      45.367  33.252  26.960  1.00  0.00    -0.203 F 
ATOM     92  F   UNL A   1      47.596  34.225  31.844  1.00  0.00    -0.200 F 
ATOM     93  C   UNL A   1      47.015  34.977  29.683  1.00  0.00     0.200 A 
ATOM     94  F   UNL A   1      46.401  35.690  27.517  1.00  0.00    -0.200 F 
ATOM     95  F   UNL A   1      47.502  36.194  29.961  1.00  0.00    -0.200 F 
ENDBRANCH  62  85
ENDBRANCH  36  37
ENDBRANCH  28  31
ENDBRANCH  26  27
ENDBRANCH  25  26
ENDBRANCH   1  25
TORSDOF 14
ENDMDL
MODEL 3
REMARK VINA RESULT:     -12.2      4.573      9.748
REMARK SMILES CO[C@@H]1C[C@@H](C(=O)NCCCCNC(=O)c2ccc(-c3c4nc(c(-c5c(F)c(F)c(F)c(F)c5F)c5ccc([nH]5)c(-c5c(F)c(F)c(F)c(F)c5F)c5nc(c(-c6c(F)c(F)c(F)c(F)c6F)c6ccc3[nH]6)C=C5)C=C4)cc2)N(S(=O)(=O)c2ccc(Cl)cc2F)C1
REMARK SMILES IDX 10 1 9 2 8 3 6 4 7 5 5 7 3 8 4 9 91 10 79 11 2 12 1 13 80 14
REMARK SMILES IDX 81 15 82 16 83 17 84 18 89 19 85 20 88 21 90 22 86 23 87 24
REMARK SMILES IDX 11 25 12 26 13 27 14 28 15 30 16 31 17 32 78 33 18 34 77 35
REMARK SMILES IDX 19 36 20 37 21 38 71 39 22 40 76 41 70 42 72 43 23 44 75 45
REMARK SMILES IDX 69 46 68 47 24 49 56 50 36 51 55 52 37 53 40 54 54 55 73 56
REMARK SMILES IDX 38 57 39 58 53 60 74 61 41 62 25 63 26 64 34 65 27 66 28 67
REMARK SMILES IDX 32 68 35 69 29 70 30 71 33 72 31 73 57 74 58 75 66 76 59 77
REMARK SMILES IDX 60 78 64 79 67 80 61 81 62 82 65 83 63 84 42 85 43 86 51 87
REMARK SMILES IDX 44 88 45 89 49 90 52 91 46 92 47 93 50 94 48 95
REMARK H PARENT 8 6 13 29 72 48 40 59
REMARK Flexibility Score: inf
ROOT
ATOM      1  C   UNL A   1      33.000  27.112  26.283  1.00  0.00     0.023 C 
ENDROOT
BRANCH   1   2
ATOM      2  C   UNL A   1      34.041  26.056  25.912  1.00  0.00     0.116 C 
BRANCH   2   3
ATOM      3  N   UNL A   1      33.994  25.734  24.496  1.00  0.00    -0.355 N 
ATOM      4  C   UNL A   1      34.379  24.580  23.866  1.00  0.00     0.238 C 
ATOM      5  O   UNL A   1      34.387  24.571  22.636  1.00  0.00    -0.273 OA
ATOM      6  H   UNL A   1      33.639  26.440  23.910  1.00  0.00     0.163 HD
BRANCH   4   7
ATOM      7  C   UNL A   1      34.838  23.415  24.704  1.00  0.00     0.165 C 
ATOM      8  C   UNL A   1      35.972  21.374  25.032  1.00  0.00     0.135 C 
ATOM      9  C   UNL A   1      35.679  22.398  23.944  1.00  0.00     0.064 C 
ATOM     10  C   UNL A   1      34.727  21.417  25.951  1.00  0.00     0.135 C 
ATOM     11  N   UNL A   1      33.864  22.584  25.482  1.00  0.00    -0.183 NA
BRANCH   8  12
ATOM     12  O   UNL A   1      37.119  21.772  25.798  1.00  0.00    -0.380 OA
ATOM     13  C   UNL A   1      38.310  21.091  25.415  1.00  0.00     0.195 C 
ENDBRANCH   8  12
BRANCH  11  14
ATOM     14  S   UNL A   1      32.427  21.995  24.741  1.00  0.00     0.246 S 
ATOM     15  O   UNL A   1      32.778  21.442  23.450  1.00  0.00    -0.207 OA
ATOM     16  O   UNL A   1      31.802  21.137  25.726  1.00  0.00    -0.207 OA
BRANCH  14  17
ATOM     17  C   UNL A   1      31.326  23.355  24.529  1.00  0.00     0.118 A 
ATOM     18  C   UNL A   1      30.980  23.767  23.233  1.00  0.00     0.026 A 
ATOM     19  C   UNL A   1      30.935  24.126  25.616  1.00  0.00     0.144 A 
ATOM     20  C   UNL A   1      30.180  24.899  23.052  1.00  0.00     0.022 A 
ATOM     21  C   UNL A   1      30.105  25.232  25.445  1.00  0.00     0.061 A 
ATOM     22  F   UNL A   1      31.323  23.828  26.860  1.00  0.00    -0.205 F 
ATOM     23  C   UNL A   1      29.727  25.612  24.161  1.00  0.00     0.044 A 
ATOM     24  Cl  UNL A   1      28.694  26.970  23.939  1.00  0.00    -0.084 Cl
ENDBRANCH  14  17
ENDBRANCH  11  14
ENDBRANCH   4   7
ENDBRANCH   2   3
ENDBRANCH   1   2
BRANCH   1  25
ATOM     25  C   UNL A   1      32.620  28.069  25.149  1.00  0.00     0.023 C 
BRANCH  25  26
ATOM     26  C   UNL A   1      33.493  29.315  25.037  1.00  0.00     0.116 C 
BRANCH  26  27
ATOM     27  N   UNL A   1      32.876  30.479  25.650  1.00  0.00    -0.352 N 
ATOM     28  C   UNL A   1      33.214  31.139  26.807  1.00  0.00     0.251 C 
ATOM     29  H   UNL A   1      32.102  30.849  25.167  1.00  0.00     0.163 HD
ATOM     30  O   UNL A   1      32.464  31.994  27.267  1.00  0.00    -0.269 OA
BRANCH  28  31
ATOM     31  C   UNL A   1      34.471  30.808  27.515  1.00  0.00     0.039 A 
ATOM     32  C   UNL A   1      35.450  31.797  27.644  1.00  0.00     0.014 A 
ATOM     33  C   UNL A   1      34.694  29.529  28.031  1.00  0.00     0.014 A 
ATOM     34  C   UNL A   1      36.627  31.521  28.344  1.00  0.00     0.010 A 
ATOM     35  C   UNL A   1      35.839  29.274  28.785  1.00  0.00     0.010 A 
ATOM     36  C   UNL A   1      36.817  30.266  28.946  1.00  0.00    -0.014 A 
BRANCH  36  37
ATOM     37  C   UNL A   1      38.032  29.975  29.747  1.00  0.00     0.031 A 
ATOM     38  C   UNL A   1      39.085  29.044  29.215  1.00  0.00     0.074 A 
ATOM     39  C   UNL A   1      38.163  30.505  30.979  1.00  0.00     0.049 A 
ATOM     40  N   UNL A   1      40.179  28.613  29.792  1.00  0.00    -0.248 NA
ATOM     41  C   UNL A   1      38.869  28.509  27.863  1.00  0.00     0.031 C 
ATOM     42  C   UNL A   1      37.195  31.394  31.624  1.00  0.00     0.029 A 
ATOM     43  N   UNL A   1      39.159  30.364  31.913  1.00  0.00    -0.354 N 
ATOM     44  C   UNL A   1      40.771  27.748  28.881  1.00  0.00     0.074 A 
ATOM     45  C   UNL A   1      39.894  27.679  27.732  1.00  0.00     0.031 C 
ATOM     46  C   UNL A   1      37.654  31.736  32.839  1.00  0.00     0.029 A 
ATOM     47  C   UNL A   1      38.929  31.063  33.072  1.00  0.00     0.049 A 
ATOM     48  H   UNL A   1      39.963  29.815  31.765  1.00  0.00     0.167 HD
ATOM     49  C   UNL A   1      41.949  27.088  28.984  1.00  0.00     0.037 A 
ATOM     50  C   UNL A   1      39.661  31.148  34.199  1.00  0.00     0.037 A 
ATOM     51  C   UNL A   1      42.832  27.175  30.118  1.00  0.00     0.049 A 
ATOM     52  C   UNL A   1      40.961  30.397  34.292  1.00  0.00     0.074 A 
ATOM     53  C   UNL A   1      44.071  26.581  30.295  1.00  0.00     0.029 A 
ATOM     54  N   UNL A   1      42.571  27.904  31.268  1.00  0.00    -0.354 N 
ATOM     55  N   UNL A   1      41.537  29.625  33.403  1.00  0.00    -0.248 NA
ATOM     56  C   UNL A   1      41.718  30.536  35.545  1.00  0.00     0.031 C 
ATOM     57  C   UNL A   1      44.541  26.921  31.569  1.00  0.00     0.029 A 
ATOM     58  C   UNL A   1      43.616  27.762  32.166  1.00  0.00     0.049 A 
ATOM     59  H   UNL A   1      41.761  28.442  31.424  1.00  0.00     0.167 HD
ATOM     60  C   UNL A   1      42.730  29.209  33.975  1.00  0.00     0.074 A 
ATOM     61  C   UNL A   1      42.805  29.825  35.284  1.00  0.00     0.031 C 
ATOM     62  C   UNL A   1      43.680  28.390  33.461  1.00  0.00     0.037 A 
BRANCH  49  63
ATOM     63  C   UNL A   1      42.357  26.216  27.833  1.00  0.00     0.064 A 
ATOM     64  C   UNL A   1      41.845  24.920  27.679  1.00  0.00     0.173 A 
ATOM     65  C   UNL A   1      43.242  26.694  26.855  1.00  0.00     0.173 A 
ATOM     66  F   UNL A   1      41.005  24.413  28.593  1.00  0.00    -0.203 F 
ATOM     67  C   UNL A   1      42.224  24.123  26.601  1.00  0.00     0.198 A 
ATOM     68  C   UNL A   1      43.597  25.905  25.764  1.00  0.00     0.198 A 
ATOM     69  F   UNL A   1      43.757  27.929  26.953  1.00  0.00    -0.203 F 
ATOM     70  F   UNL A   1      41.756  22.872  26.499  1.00  0.00    -0.200 F 
ATOM     71  C   UNL A   1      43.094  24.619  25.641  1.00  0.00     0.200 A 
ATOM     72  F   UNL A   1      44.429  26.389  24.831  1.00  0.00    -0.200 F 
ATOM     73  F   UNL A   1      43.452  23.853  24.602  1.00  0.00    -0.200 F 
ENDBRANCH  49  63
BRANCH  50  74
ATOM     74  C   UNL A   1      39.194  31.999  35.324  1.00  0.00     0.064 A 
ATOM     75  C   UNL A   1      39.507  33.364  35.365  1.00  0.00     0.173 A 
ATOM     76  C   UNL A   1      38.432  31.470  36.375  1.00  0.00     0.173 A 
ATOM     77  F   UNL A   1      40.253  33.909  34.393  1.00  0.00    -0.203 F 
ATOM     78  C   UNL A   1      39.090  34.166  36.426  1.00  0.00     0.198 A 
ATOM     79  C   UNL A   1      37.993  32.278  37.422  1.00  0.00     0.198 A 
ATOM     80  F   UNL A   1      38.103  30.170  36.379  1.00  0.00    -0.203 F 
ATOM     81  F   UNL A   1      39.437  35.459  36.461  1.00  0.00    -0.200 F 
ATOM     82  C   UNL A   1      38.328  33.624  37.450  1.00  0.00     0.200 A 
ATOM     83  F   UNL A   1      37.247  31.754  38.403  1.00  0.00    -0.200 F 
ATOM     84  F   UNL A   1      37.923  34.396  38.467  1.00  0.00    -0.200 F 
ENDBRANCH  50  74
BRANCH  62  85
ATOM     85  C   UNL A   1      44.898  28.140  34.300  1.00  0.00     0.064 A 
ATOM     86  C   UNL A   1      46.017  28.982  34.242  1.00  0.00     0.173 A 
ATOM     87  C   UNL A   1      44.930  27.064  35.202  1.00  0.00     0.173 A 
ATOM     88  F   UNL A   1      46.040  30.014  33.385  1.00  0.00    -0.203 F 
ATOM     89  C   UNL A   1      47.134  28.745  35.039  1.00  0.00     0.198 A 
ATOM     90  C   UNL A   1      46.037  26.845  36.017  1.00  0.00     0.198 A 
ATOM     91  F   UNL A   1      43.882  26.233  35.299  1.00  0.00    -0.203 F 
ATOM     92  F   UNL A   1      48.209  29.536  34.935  1.00  0.00    -0.200 F 
ATOM     93  C   UNL A   1      47.139  27.681  35.930  1.00  0.00     0.200 A 
ATOM     94  F   UNL A   1      46.037  25.825  36.884  1.00  0.00    -0.200 F 
ATOM     95  F   UNL A   1      48.213  27.457  36.700  1.00  0.00    -0.200 F 
ENDBRANCH  62  85
ENDBRANCH  36  37
ENDBRANCH  28  31
ENDBRANCH  26  27
ENDBRANCH  25  26
ENDBRANCH   1  25
TORSDOF 14
ENDMDL
