MODEL 1
REMARK VINA RESULT:     -12.6      0.000      0.000
REMARK SMILES CO[C@@H]1C[C@H](C(=O)NCCCCNC(=O)c2ccc(-c3c4nc(c(-c5c(F)c(F)c(F)c(F)c5F)c5ccc([nH]5)c(-c5c(F)c(F)c(F)c(F)c5F)c5nc(c(-c6c(F)c(F)c(F)c(F)c6F)c6ccc3[nH]6)C=C5)C=C4)cc2)N(C(=O)c2ccn(C)c(=O)c2)C1
REMARK SMILES IDX 10 1 9 2 8 3 6 4 7 5 5 7 3 8 4 9 90 10 79 11 2 12 1 13 80 14
REMARK SMILES IDX 81 15 82 16 83 17 89 18 84 19 87 20 85 21 88 22 86 23 11 24
REMARK SMILES IDX 12 25 13 26 14 27 15 29 16 30 17 31 78 32 18 33 77 34 19 35
REMARK SMILES IDX 20 36 21 37 71 38 22 39 76 40 70 41 72 42 23 43 75 44 69 45
REMARK SMILES IDX 68 46 24 48 56 49 36 50 55 51 37 52 40 53 54 54 73 55 38 56
REMARK SMILES IDX 39 57 53 59 74 60 41 61 25 62 26 63 34 64 27 65 28 66 32 67
REMARK SMILES IDX 35 68 29 69 30 70 33 71 31 72 57 73 58 74 66 75 59 76 60 77
REMARK SMILES IDX 64 78 67 79 61 80 62 81 65 82 63 83 42 84 43 85 51 86 44 87
REMARK SMILES IDX 45 88 49 89 52 90 46 91 47 92 50 93 48 94
REMARK H PARENT 8 6 13 28 72 47 40 58
REMARK Flexibility Score: inf
ROOT
ATOM      1  C   UNL A   1      31.933  30.323  26.874  1.00  0.00     0.023 C 
ENDROOT
BRANCH   1   2
ATOM      2  C   UNL A   1      33.243  29.694  26.390  1.00  0.00     0.116 C 
BRANCH   2   3
ATOM      3  N   UNL A   1      33.383  29.792  24.951  1.00  0.00    -0.354 N 
ATOM      4  C   UNL A   1      33.109  28.954  23.924  1.00  0.00     0.242 C 
ATOM      5  O   UNL A   1      33.525  29.334  22.817  1.00  0.00    -0.273 OA
ATOM      6  H   UNL A   1      33.759  30.653  24.657  1.00  0.00     0.163 HD
BRANCH   4   7
ATOM      7  C   UNL A   1      32.441  27.556  24.012  1.00  0.00     0.177 C 
ATOM      8  C   UNL A   1      30.345  27.431  22.832  1.00  0.00     0.139 C 
ATOM      9  C   UNL A   1      30.933  27.629  24.229  1.00  0.00     0.069 C 
ATOM     10  C   UNL A   1      31.358  26.499  22.138  1.00  0.00     0.152 C 
ATOM     11  N   UNL A   1      32.571  26.558  22.954  1.00  0.00    -0.324 N 
BRANCH   8  12
ATOM     12  O   UNL A   1      30.225  28.641  22.095  1.00  0.00    -0.380 OA
ATOM     13  C   UNL A   1      29.572  29.698  22.792  1.00  0.00     0.195 C 
ENDBRANCH   8  12
BRANCH  11  14
ATOM     14  C   UNL A   1      33.417  25.460  22.961  1.00  0.00     0.254 C 
ATOM     15  O   UNL A   1      33.928  24.991  21.949  1.00  0.00    -0.269 OA
BRANCH  14  16
ATOM     16  C   UNL A   1      33.510  24.729  24.256  1.00  0.00     0.046 A 
ATOM     17  C   UNL A   1      32.366  24.165  24.924  1.00  0.00     0.032 A 
ATOM     18  C   UNL A   1      34.748  24.575  24.751  1.00  0.00     0.085 A 
ATOM     19  C   UNL A   1      32.555  23.392  26.001  1.00  0.00     0.089 A 
ATOM     20  C   UNL A   1      34.969  23.707  25.931  1.00  0.00     0.251 A 
ATOM     21  N   UNL A   1      33.828  23.135  26.488  1.00  0.00    -0.319 N 
ATOM     22  O   UNL A   1      36.119  23.519  26.315  1.00  0.00    -0.269 OA
ATOM     23  C   UNL A   1      33.978  22.243  27.629  1.00  0.00     0.153 C 
ENDBRANCH  14  16
ENDBRANCH  11  14
ENDBRANCH   4   7
ENDBRANCH   2   3
ENDBRANCH   1   2
BRANCH   1  24
ATOM     24  C   UNL A   1      31.810  31.832  26.693  1.00  0.00     0.023 C 
BRANCH  24  25
ATOM     25  C   UNL A   1      32.879  32.640  27.403  1.00  0.00     0.116 C 
BRANCH  25  26
ATOM     26  N   UNL A   1      32.487  34.022  27.647  1.00  0.00    -0.352 N 
ATOM     27  C   UNL A   1      33.013  34.912  28.556  1.00  0.00     0.251 C 
ATOM     28  H   UNL A   1      31.752  34.363  27.089  1.00  0.00     0.163 HD
ATOM     29  O   UNL A   1      32.514  36.014  28.725  1.00  0.00    -0.269 OA
BRANCH  27  30
ATOM     30  C   UNL A   1      34.178  34.488  29.359  1.00  0.00     0.039 A 
ATOM     31  C   UNL A   1      33.964  33.869  30.593  1.00  0.00     0.014 A 
ATOM     32  C   UNL A   1      35.468  34.634  28.847  1.00  0.00     0.014 A 
ATOM     33  C   UNL A   1      35.048  33.325  31.282  1.00  0.00     0.010 A 
ATOM     34  C   UNL A   1      36.529  34.011  29.485  1.00  0.00     0.010 A 
ATOM     35  C   UNL A   1      36.331  33.358  30.712  1.00  0.00    -0.014 A 
BRANCH  35  36
ATOM     36  C   UNL A   1      37.505  32.755  31.387  1.00  0.00     0.031 A 
ATOM     37  C   UNL A   1      38.223  31.617  30.719  1.00  0.00     0.074 A 
ATOM     38  C   UNL A   1      37.847  33.150  32.629  1.00  0.00     0.049 A 
ATOM     39  N   UNL A   1      39.156  30.831  31.192  1.00  0.00    -0.248 NA
ATOM     40  C   UNL A   1      37.796  31.284  29.349  1.00  0.00     0.031 C 
ATOM     41  C   UNL A   1      37.180  34.200  33.400  1.00  0.00     0.029 A 
ATOM     42  N   UNL A   1      38.830  32.693  33.469  1.00  0.00    -0.354 N 
ATOM     43  C   UNL A   1      39.387  29.886  30.200  1.00  0.00     0.074 A 
ATOM     44  C   UNL A   1      38.469  30.167  29.119  1.00  0.00     0.031 C 
ATOM     45  C   UNL A   1      37.783  34.318  34.594  1.00  0.00     0.029 A 
ATOM     46  C   UNL A   1      38.854  33.330  34.686  1.00  0.00     0.049 A 
ATOM     47  H   UNL A   1      39.458  31.976  33.225  1.00  0.00     0.167 HD
ATOM     48  C   UNL A   1      40.301  28.890  30.186  1.00  0.00     0.037 A 
ATOM     49  C   UNL A   1      39.648  33.129  35.754  1.00  0.00     0.037 A 
ATOM     50  C   UNL A   1      41.261  28.671  31.232  1.00  0.00     0.049 A 
ATOM     51  C   UNL A   1      40.706  32.060  35.683  1.00  0.00     0.074 A 
ATOM     52  C   UNL A   1      42.301  27.760  31.274  1.00  0.00     0.029 A 
ATOM     53  N   UNL A   1      41.305  29.389  32.419  1.00  0.00    -0.354 N 
ATOM     54  N   UNL A   1      40.967  31.219  34.712  1.00  0.00    -0.248 NA
ATOM     55  C   UNL A   1      41.585  31.916  36.852  1.00  0.00     0.031 C 
ATOM     56  C   UNL A   1      42.959  27.909  32.499  1.00  0.00     0.029 A 
ATOM     57  C   UNL A   1      42.350  28.935  33.204  1.00  0.00     0.049 A 
ATOM     58  H   UNL A   1      40.686  30.113  32.664  1.00  0.00     0.167 HD
ATOM     59  C   UNL A   1      42.052  30.468  35.137  1.00  0.00     0.074 A 
ATOM     60  C   UNL A   1      42.410  30.958  36.453  1.00  0.00     0.031 C 
ATOM     61  C   UNL A   1      42.695  29.459  34.500  1.00  0.00     0.037 A 
BRANCH  48  62
ATOM     62  C   UNL A   1      40.314  27.975  28.998  1.00  0.00     0.064 A 
ATOM     63  C   UNL A   1      41.068  28.264  27.852  1.00  0.00     0.173 A 
ATOM     64  C   UNL A   1      39.578  26.780  29.015  1.00  0.00     0.173 A 
ATOM     65  F   UNL A   1      41.777  29.401  27.780  1.00  0.00    -0.203 F 
ATOM     66  C   UNL A   1      41.062  27.407  26.754  1.00  0.00     0.198 A 
ATOM     67  C   UNL A   1      39.597  25.911  27.927  1.00  0.00     0.198 A 
ATOM     68  F   UNL A   1      38.841  26.454  30.087  1.00  0.00    -0.203 F 
ATOM     69  F   UNL A   1      41.749  27.732  25.650  1.00  0.00    -0.200 F 
ATOM     70  C   UNL A   1      40.332  26.229  26.795  1.00  0.00     0.200 A 
ATOM     71  F   UNL A   1      38.900  24.768  27.971  1.00  0.00    -0.200 F 
ATOM     72  F   UNL A   1      40.330  25.404  25.739  1.00  0.00    -0.200 F 
ENDBRANCH  48  62
BRANCH  49  73
ATOM     73  C   UNL A   1      39.501  33.978  36.965  1.00  0.00     0.064 A 
ATOM     74  C   UNL A   1      40.126  35.230  37.043  1.00  0.00     0.173 A 
ATOM     75  C   UNL A   1      38.741  33.559  38.066  1.00  0.00     0.173 A 
ATOM     76  F   UNL A   1      40.879  35.665  36.022  1.00  0.00    -0.203 F 
ATOM     77  C   UNL A   1      40.015  36.022  38.184  1.00  0.00     0.198 A 
ATOM     78  C   UNL A   1      38.610  34.363  39.197  1.00  0.00     0.198 A 
ATOM     79  F   UNL A   1      38.118  32.372  38.040  1.00  0.00    -0.203 F 
ATOM     80  F   UNL A   1      40.658  37.196  38.247  1.00  0.00    -0.200 F 
ATOM     81  C   UNL A   1      39.254  35.590  39.259  1.00  0.00     0.200 A 
ATOM     82  F   UNL A   1      37.863  33.948  40.230  1.00  0.00    -0.200 F 
ATOM     83  F   UNL A   1      39.145  36.353  40.354  1.00  0.00    -0.200 F 
ENDBRANCH  49  73
BRANCH  61  84
ATOM     84  C   UNL A   1      43.873  28.849  35.194  1.00  0.00     0.064 A 
ATOM     85  C   UNL A   1      43.722  27.778  36.086  1.00  0.00     0.173 A 
ATOM     86  C   UNL A   1      45.171  29.298  34.912  1.00  0.00     0.173 A 
ATOM     87  F   UNL A   1      42.498  27.325  36.395  1.00  0.00    -0.203 F 
ATOM     88  C   UNL A   1      44.831  27.185  36.682  1.00  0.00     0.198 A 
ATOM     89  C   UNL A   1      46.279  28.687  35.491  1.00  0.00     0.198 A 
ATOM     90  F   UNL A   1      45.364  30.316  34.060  1.00  0.00    -0.203 F 
ATOM     91  F   UNL A   1      44.665  26.183  37.555  1.00  0.00    -0.200 F 
ATOM     92  C   UNL A   1      46.109  27.634  36.378  1.00  0.00     0.200 A 
ATOM     93  F   UNL A   1      47.513  29.114  35.188  1.00  0.00    -0.200 F 
ATOM     94  F   UNL A   1      47.175  27.054  36.943  1.00  0.00    -0.200 F 
ENDBRANCH  61  84
ENDBRANCH  35  36
ENDBRANCH  27  30
ENDBRANCH  25  26
ENDBRANCH  24  25
ENDBRANCH   1  24
TORSDOF 14
ENDMDL
MODEL 2
REMARK VINA RESULT:     -12.6      5.625     11.197
REMARK SMILES CO[C@@H]1C[C@H](C(=O)NCCCCNC(=O)c2ccc(-c3c4nc(c(-c5c(F)c(F)c(F)c(F)c5F)c5ccc([nH]5)c(-c5c(F)c(F)c(F)c(F)c5F)c5nc(c(-c6c(F)c(F)c(F)c(F)c6F)c6ccc3[nH]6)C=C5)C=C4)cc2)N(C(=O)c2ccn(C)c(=O)c2)C1
REMARK SMILES IDX 10 1 9 2 8 3 6 4 7 5 5 7 3 8 4 9 90 10 79 11 2 12 1 13 80 14
REMARK SMILES IDX 81 15 82 16 83 17 89 18 84 19 87 20 85 21 88 22 86 23 11 24
REMARK SMILES IDX 12 25 13 26 14 27 15 29 16 30 17 31 78 32 18 33 77 34 19 35
REMARK SMILES IDX 20 36 21 37 71 38 22 39 76 40 70 41 72 42 23 43 75 44 69 45
REMARK SMILES IDX 68 46 24 48 56 49 36 50 55 51 37 52 40 53 54 54 73 55 38 56
REMARK SMILES IDX 39 57 53 59 74 60 41 61 25 62 26 63 34 64 27 65 28 66 32 67
REMARK SMILES IDX 35 68 29 69 30 70 33 71 31 72 57 73 58 74 66 75 59 76 60 77
REMARK SMILES IDX 64 78 67 79 61 80 62 81 65 82 63 83 42 84 43 85 51 86 44 87
REMARK SMILES IDX 45 88 49 89 52 90 46 91 47 92 50 93 48 94
REMARK H PARENT 8 6 13 28 72 47 40 58
REMARK Flexibility Score: inf
ROOT
ATOM      1  C   UNL A   1      37.454  21.522  24.473  1.00  0.00     0.023 C 
ENDROOT
BRANCH   1   2
ATOM      2  C   UNL A   1      36.974  22.546  25.505  1.00  0.00     0.116 C 
BRANCH   2   3
ATOM      3  N   UNL A   1      36.042  21.959  26.448  1.00  0.00    -0.354 N 
ATOM      4  C   UNL A   1      34.694  21.976  26.566  1.00  0.00     0.242 C 
ATOM      5  O   UNL A   1      34.259  21.481  27.618  1.00  0.00    -0.273 OA
ATOM      6  H   UNL A   1      36.486  21.437  27.155  1.00  0.00     0.163 HD
BRANCH   4   7
ATOM      7  C   UNL A   1      33.679  22.628  25.590  1.00  0.00     0.177 C 
ATOM      8  C   UNL A   1      32.134  21.049  24.632  1.00  0.00     0.139 C 
ATOM      9  C   UNL A   1      33.435  21.794  24.336  1.00  0.00     0.069 C 
ATOM     10  C   UNL A   1      31.347  22.027  25.527  1.00  0.00     0.152 C 
ATOM     11  N   UNL A   1      32.328  23.003  26.001  1.00  0.00    -0.324 N 
BRANCH   8  12
ATOM     12  O   UNL A   1      32.333  19.822  25.322  1.00  0.00    -0.380 OA
ATOM     13  C   UNL A   1      33.152  18.881  24.636  1.00  0.00     0.195 C 
ENDBRANCH   8  12
BRANCH  11  14
ATOM     14  C   UNL A   1      31.891  24.280  26.317  1.00  0.00     0.254 C 
ATOM     15  O   UNL A   1      31.077  24.518  27.203  1.00  0.00    -0.269 OA
BRANCH  14  16
ATOM     16  C   UNL A   1      32.302  25.352  25.368  1.00  0.00     0.046 A 
ATOM     17  C   UNL A   1      33.362  26.286  25.649  1.00  0.00     0.032 A 
ATOM     18  C   UNL A   1      31.656  25.370  24.192  1.00  0.00     0.085 A 
ATOM     19  C   UNL A   1      33.772  27.118  24.682  1.00  0.00     0.089 A 
ATOM     20  C   UNL A   1      32.114  26.273  23.111  1.00  0.00     0.251 A 
ATOM     21  N   UNL A   1      33.189  27.102  23.423  1.00  0.00    -0.319 N 
ATOM     22  O   UNL A   1      31.557  26.214  22.019  1.00  0.00    -0.269 OA
ATOM     23  C   UNL A   1      33.712  27.990  22.396  1.00  0.00     0.153 C 
ENDBRANCH  14  16
ENDBRANCH  11  14
ENDBRANCH   4   7
ENDBRANCH   2   3
ENDBRANCH   1   2
BRANCH   1  24
ATOM     24  C   UNL A   1      38.049  20.236  25.035  1.00  0.00     0.023 C 
BRANCH  24  25
ATOM     25  C   UNL A   1      39.278  20.436  25.900  1.00  0.00     0.116 C 
BRANCH  25  26
ATOM     26  N   UNL A   1      40.171  19.285  25.905  1.00  0.00    -0.352 N 
ATOM     27  C   UNL A   1      41.537  19.263  26.079  1.00  0.00     0.251 C 
ATOM     28  H   UNL A   1      39.742  18.411  25.767  1.00  0.00     0.163 HD
ATOM     29  O   UNL A   1      42.174  18.228  25.955  1.00  0.00    -0.269 OA
BRANCH  27  30
ATOM     30  C   UNL A   1      42.226  20.534  26.379  1.00  0.00     0.039 A 
ATOM     31  C   UNL A   1      42.663  21.337  25.324  1.00  0.00     0.014 A 
ATOM     32  C   UNL A   1      42.361  20.957  27.703  1.00  0.00     0.014 A 
ATOM     33  C   UNL A   1      43.171  22.608  25.596  1.00  0.00     0.010 A 
ATOM     34  C   UNL A   1      42.775  22.254  27.964  1.00  0.00     0.010 A 
ATOM     35  C   UNL A   1      43.192  23.088  26.914  1.00  0.00    -0.014 A 
BRANCH  35  36
ATOM     36  C   UNL A   1      43.682  24.447  27.247  1.00  0.00     0.031 A 
ATOM     37  C   UNL A   1      42.709  25.462  27.776  1.00  0.00     0.074 A 
ATOM     38  C   UNL A   1      44.954  24.793  26.969  1.00  0.00     0.049 A 
ATOM     39  N   UNL A   1      42.870  26.746  27.970  1.00  0.00    -0.248 NA
ATOM     40  C   UNL A   1      41.352  24.976  28.077  1.00  0.00     0.031 C 
ATOM     41  C   UNL A   1      45.969  23.909  26.394  1.00  0.00     0.029 A 
ATOM     42  N   UNL A   1      45.602  25.994  27.114  1.00  0.00    -0.354 N 
ATOM     43  C   UNL A   1      41.628  27.223  28.365  1.00  0.00     0.074 A 
ATOM     44  C   UNL A   1      40.711  26.105  28.341  1.00  0.00     0.031 C 
ATOM     45  C   UNL A   1      47.116  24.593  26.249  1.00  0.00     0.029 A 
ATOM     46  C   UNL A   1      46.908  25.970  26.688  1.00  0.00     0.049 A 
ATOM     47  H   UNL A   1      45.172  26.797  27.487  1.00  0.00     0.167 HD
ATOM     48  C   UNL A   1      41.290  28.479  28.738  1.00  0.00     0.037 A 
ATOM     49  C   UNL A   1      47.826  26.953  26.651  1.00  0.00     0.037 A 
ATOM     50  C   UNL A   1      42.227  29.563  28.834  1.00  0.00     0.049 A 
ATOM     51  C   UNL A   1      47.443  28.324  27.141  1.00  0.00     0.074 A 
ATOM     52  C   UNL A   1      42.017  30.848  29.302  1.00  0.00     0.029 A 
ATOM     53  N   UNL A   1      43.563  29.480  28.467  1.00  0.00    -0.354 N 
ATOM     54  N   UNL A   1      46.284  28.750  27.583  1.00  0.00    -0.248 NA
ATOM     55  C   UNL A   1      48.495  29.350  27.133  1.00  0.00     0.031 C 
ATOM     56  C   UNL A   1      43.221  31.551  29.194  1.00  0.00     0.029 A 
ATOM     57  C   UNL A   1      44.188  30.694  28.690  1.00  0.00     0.049 A 
ATOM     58  H   UNL A   1      44.000  28.677  28.103  1.00  0.00     0.167 HD
ATOM     59  C   UNL A   1      46.473  30.079  27.932  1.00  0.00     0.074 A 
ATOM     60  C   UNL A   1      47.861  30.389  27.659  1.00  0.00     0.031 C 
ATOM     61  C   UNL A   1      45.578  30.966  28.430  1.00  0.00     0.037 A 
BRANCH  48  62
ATOM     62  C   UNL A   1      39.854  28.740  29.082  1.00  0.00     0.064 A 
ATOM     63  C   UNL A   1      39.356  28.530  30.376  1.00  0.00     0.173 A 
ATOM     64  C   UNL A   1      38.968  29.226  28.109  1.00  0.00     0.173 A 
ATOM     65  F   UNL A   1      40.158  28.052  31.340  1.00  0.00    -0.203 F 
ATOM     66  C   UNL A   1      38.017  28.769  30.677  1.00  0.00     0.198 A 
ATOM     67  C   UNL A   1      37.637  29.491  28.420  1.00  0.00     0.198 A 
ATOM     68  F   UNL A   1      39.393  29.445  26.856  1.00  0.00    -0.203 F 
ATOM     69  F   UNL A   1      37.553  28.512  31.908  1.00  0.00    -0.200 F 
ATOM     70  C   UNL A   1      37.161  29.255  29.701  1.00  0.00     0.200 A 
ATOM     71  F   UNL A   1      36.813  29.971  27.479  1.00  0.00    -0.200 F 
ATOM     72  F   UNL A   1      35.874  29.489  29.993  1.00  0.00    -0.200 F 
ENDBRANCH  48  62
BRANCH  49  73
ATOM     73  C   UNL A   1      49.203  26.672  26.168  1.00  0.00     0.064 A 
ATOM     74  C   UNL A   1      49.574  26.967  24.849  1.00  0.00     0.173 A 
ATOM     75  C   UNL A   1      50.172  26.103  27.006  1.00  0.00     0.173 A 
ATOM     76  F   UNL A   1      48.675  27.494  24.005  1.00  0.00    -0.203 F 
ATOM     77  C   UNL A   1      50.855  26.684  24.379  1.00  0.00     0.198 A 
ATOM     78  C   UNL A   1      51.461  25.843  26.543  1.00  0.00     0.198 A 
ATOM     79  F   UNL A   1      49.871  25.808  28.279  1.00  0.00    -0.203 F 
ATOM     80  F   UNL A   1      51.168  26.937  23.101  1.00  0.00    -0.200 F 
ATOM     81  C   UNL A   1      51.799  26.126  25.227  1.00  0.00     0.200 A 
ATOM     82  F   UNL A   1      52.375  25.316  27.369  1.00  0.00    -0.200 F 
ATOM     83  F   UNL A   1      53.030  25.855  24.776  1.00  0.00    -0.200 F 
ENDBRANCH  49  73
BRANCH  61  84
ATOM     84  C   UNL A   1      46.079  32.340  28.752  1.00  0.00     0.064 A 
ATOM     85  C   UNL A   1      46.032  33.375  27.808  1.00  0.00     0.173 A 
ATOM     86  C   UNL A   1      46.549  32.638  30.039  1.00  0.00     0.173 A 
ATOM     87  F   UNL A   1      45.603  33.132  26.561  1.00  0.00    -0.203 F 
ATOM     88  C   UNL A   1      46.451  34.660  28.139  1.00  0.00     0.198 A 
ATOM     89  C   UNL A   1      46.944  33.929  30.374  1.00  0.00     0.198 A 
ATOM     90  F   UNL A   1      46.605  31.680  30.977  1.00  0.00    -0.203 F 
ATOM     91  F   UNL A   1      46.428  35.630  27.214  1.00  0.00    -0.200 F 
ATOM     92  C   UNL A   1      46.898  34.938  29.423  1.00  0.00     0.200 A 
ATOM     93  F   UNL A   1      47.365  34.199  31.617  1.00  0.00    -0.200 F 
ATOM     94  F   UNL A   1      47.289  36.179  29.743  1.00  0.00    -0.200 F 
ENDBRANCH  61  84
ENDBRANCH  35  36
ENDBRANCH  27  30
ENDBRANCH  25  26
ENDBRANCH  24  25
ENDBRANCH   1  24
TORSDOF 14
ENDMDL
MODEL 3
REMARK VINA RESULT:     -12.5      5.600     11.188
REMARK SMILES CO[C@@H]1C[C@H](C(=O)NCCCCNC(=O)c2ccc(-c3c4nc(c(-c5c(F)c(F)c(F)c(F)c5F)c5ccc([nH]5)c(-c5c(F)c(F)c(F)c(F)c5F)c5nc(c(-c6c(F)c(F)c(F)c(F)c6F)c6ccc3[nH]6)C=C5)C=C4)cc2)N(C(=O)c2ccn(C)c(=O)c2)C1
REMARK SMILES IDX 10 1 9 2 8 3 6 4 7 5 5 7 3 8 4 9 90 10 79 11 2 12 1 13 80 14
REMARK SMILES IDX 81 15 82 16 83 17 89 18 84 19 87 20 85 21 88 22 86 23 11 24
REMARK SMILES IDX 12 25 13 26 14 27 15 29 16 30 17 31 78 32 18 33 77 34 19 35
REMARK SMILES IDX 20 36 21 37 71 38 22 39 76 40 70 41 72 42 23 43 75 44 69 45
REMARK SMILES IDX 68 46 24 48 56 49 36 50 55 51 37 52 40 53 54 54 73 55 38 56
REMARK SMILES IDX 39 57 53 59 74 60 41 61 25 62 26 63 34 64 27 65 28 66 32 67
REMARK SMILES IDX 35 68 29 69 30 70 33 71 31 72 57 73 58 74 66 75 59 76 60 77
REMARK SMILES IDX 64 78 67 79 61 80 62 81 65 82 63 83 42 84 43 85 51 86 44 87
REMARK SMILES IDX 45 88 49 89 52 90 46 91 47 92 50 93 48 94
REMARK H PARENT 8 6 13 28 72 47 40 58
REMARK Flexibility Score: inf
ROOT
ATOM      1  C   UNL A   1      37.374  21.369  24.534  1.00  0.00     0.023 C 
ENDROOT
BRANCH   1   2
ATOM      2  C   UNL A   1      36.997  22.393  25.608  1.00  0.00     0.116 C 
BRANCH   2   3
ATOM      3  N   UNL A   1      36.018  21.859  26.535  1.00  0.00    -0.354 N 
ATOM      4  C   UNL A   1      34.671  21.951  26.629  1.00  0.00     0.242 C 
ATOM      5  O   UNL A   1      34.190  21.483  27.674  1.00  0.00    -0.273 OA
ATOM      6  H   UNL A   1      36.419  21.314  27.250  1.00  0.00     0.163 HD
BRANCH   4   7
ATOM      7  C   UNL A   1      33.711  22.658  25.637  1.00  0.00     0.177 C 
ATOM      8  C   UNL A   1      32.145  21.153  24.595  1.00  0.00     0.139 C 
ATOM      9  C   UNL A   1      33.480  21.859  24.358  1.00  0.00     0.069 C 
ATOM     10  C   UNL A   1      31.363  22.140  25.486  1.00  0.00     0.152 C 
ATOM     11  N   UNL A   1      32.361  23.071  26.012  1.00  0.00    -0.324 N 
BRANCH   8  12
ATOM     12  O   UNL A   1      32.279  19.906  25.265  1.00  0.00    -0.380 OA
ATOM     13  C   UNL A   1      33.262  19.038  24.710  1.00  0.00     0.195 C 
ENDBRANCH   8  12
BRANCH  11  14
ATOM     14  C   UNL A   1      31.957  24.355  26.341  1.00  0.00     0.254 C 
ATOM     15  O   UNL A   1      31.120  24.603  27.203  1.00  0.00    -0.269 OA
BRANCH  14  16
ATOM     16  C   UNL A   1      32.440  25.433  25.433  1.00  0.00     0.046 A 
ATOM     17  C   UNL A   1      32.073  25.513  24.044  1.00  0.00     0.032 A 
ATOM     18  C   UNL A   1      33.209  26.375  26.003  1.00  0.00     0.085 A 
ATOM     19  C   UNL A   1      32.423  26.597  23.337  1.00  0.00     0.089 A 
ATOM     20  C   UNL A   1      33.586  27.584  25.235  1.00  0.00     0.251 A 
ATOM     21  N   UNL A   1      33.140  27.633  23.917  1.00  0.00    -0.319 N 
ATOM     22  O   UNL A   1      34.223  28.467  25.803  1.00  0.00    -0.269 OA
ATOM     23  C   UNL A   1      33.446  28.810  23.117  1.00  0.00     0.153 C 
ENDBRANCH  14  16
ENDBRANCH  11  14
ENDBRANCH   4   7
ENDBRANCH   2   3
ENDBRANCH   1   2
BRANCH   1  24
ATOM     24  C   UNL A   1      38.097  20.120  25.025  1.00  0.00     0.023 C 
BRANCH  24  25
ATOM     25  C   UNL A   1      39.373  20.395  25.798  1.00  0.00     0.116 C 
BRANCH  25  26
ATOM     26  N   UNL A   1      40.253  19.237  25.885  1.00  0.00    -0.352 N 
ATOM     27  C   UNL A   1      41.607  19.209  26.132  1.00  0.00     0.251 C 
ATOM     28  H   UNL A   1      39.823  18.363  25.750  1.00  0.00     0.163 HD
ATOM     29  O   UNL A   1      42.240  18.165  26.073  1.00  0.00    -0.269 OA
BRANCH  27  30
ATOM     30  C   UNL A   1      42.292  20.482  26.432  1.00  0.00     0.039 A 
ATOM     31  C   UNL A   1      42.793  21.250  25.378  1.00  0.00     0.014 A 
ATOM     32  C   UNL A   1      42.360  20.944  27.748  1.00  0.00     0.014 A 
ATOM     33  C   UNL A   1      43.297  22.524  25.640  1.00  0.00     0.010 A 
ATOM     34  C   UNL A   1      42.772  22.244  27.992  1.00  0.00     0.010 A 
ATOM     35  C   UNL A   1      43.253  23.043  26.942  1.00  0.00    -0.014 A 
BRANCH  35  36
ATOM     36  C   UNL A   1      43.738  24.408  27.261  1.00  0.00     0.031 A 
ATOM     37  C   UNL A   1      42.761  25.424  27.780  1.00  0.00     0.074 A 
ATOM     38  C   UNL A   1      45.008  24.756  26.980  1.00  0.00     0.049 A 
ATOM     39  N   UNL A   1      42.918  26.711  27.961  1.00  0.00    -0.248 NA
ATOM     40  C   UNL A   1      41.406  24.936  28.087  1.00  0.00     0.031 C 
ATOM     41  C   UNL A   1      46.027  23.870  26.413  1.00  0.00     0.029 A 
ATOM     42  N   UNL A   1      45.652  25.960  27.112  1.00  0.00    -0.354 N 
ATOM     43  C   UNL A   1      41.673  27.187  28.351  1.00  0.00     0.074 A 
ATOM     44  C   UNL A   1      40.761  26.065  28.340  1.00  0.00     0.031 C 
ATOM     45  C   UNL A   1      47.171  24.556  26.261  1.00  0.00     0.029 A 
ATOM     46  C   UNL A   1      46.958  25.937  26.686  1.00  0.00     0.049 A 
ATOM     47  H   UNL A   1      45.219  26.765  27.476  1.00  0.00     0.167 HD
ATOM     48  C   UNL A   1      41.331  28.445  28.711  1.00  0.00     0.037 A 
ATOM     49  C   UNL A   1      47.872  26.923  26.638  1.00  0.00     0.037 A 
ATOM     50  C   UNL A   1      42.264  29.534  28.796  1.00  0.00     0.049 A 
ATOM     51  C   UNL A   1      47.484  28.298  27.114  1.00  0.00     0.074 A 
ATOM     52  C   UNL A   1      42.050  30.822  29.251  1.00  0.00     0.029 A 
ATOM     53  N   UNL A   1      43.600  29.452  28.430  1.00  0.00    -0.354 N 
ATOM     54  N   UNL A   1      46.324  28.723  27.552  1.00  0.00    -0.248 NA
ATOM     55  C   UNL A   1      48.532  29.328  27.095  1.00  0.00     0.031 C 
ATOM     56  C   UNL A   1      43.251  31.529  29.135  1.00  0.00     0.029 A 
ATOM     57  C   UNL A   1      44.220  30.671  28.640  1.00  0.00     0.049 A 
ATOM     58  H   UNL A   1      44.040  28.647  28.074  1.00  0.00     0.167 HD
ATOM     59  C   UNL A   1      46.507  30.057  27.887  1.00  0.00     0.074 A 
ATOM     60  C   UNL A   1      47.895  30.369  27.611  1.00  0.00     0.031 C 
ATOM     61  C   UNL A   1      45.609  30.946  28.376  1.00  0.00     0.037 A 
BRANCH  48  62
ATOM     62  C   UNL A   1      39.894  28.704  29.054  1.00  0.00     0.064 A 
ATOM     63  C   UNL A   1      38.980  29.169  28.099  1.00  0.00     0.173 A 
ATOM     64  C   UNL A   1      39.421  28.463  30.353  1.00  0.00     0.173 A 
ATOM     65  F   UNL A   1      39.385  29.430  26.847  1.00  0.00    -0.203 F 
ATOM     66  C   UNL A   1      37.651  29.413  28.437  1.00  0.00     0.198 A 
ATOM     67  C   UNL A   1      38.085  28.680  30.681  1.00  0.00     0.198 A 
ATOM     68  F   UNL A   1      40.253  28.016  31.305  1.00  0.00    -0.203 F 
ATOM     69  F   UNL A   1      36.808  29.908  27.519  1.00  0.00    -0.200 F 
ATOM     70  C   UNL A   1      37.204  29.162  29.725  1.00  0.00     0.200 A 
ATOM     71  F   UNL A   1      37.651  28.427  31.923  1.00  0.00    -0.200 F 
ATOM     72  F   UNL A   1      35.923  29.393  30.047  1.00  0.00    -0.200 F 
ENDBRANCH  48  62
BRANCH  49  73
ATOM     73  C   UNL A   1      49.250  26.642  26.157  1.00  0.00     0.064 A 
ATOM     74  C   UNL A   1      50.220  26.123  27.026  1.00  0.00     0.173 A 
ATOM     75  C   UNL A   1      49.628  26.889  24.830  1.00  0.00     0.173 A 
ATOM     76  F   UNL A   1      49.910  25.890  28.310  1.00  0.00    -0.203 F 
ATOM     77  C   UNL A   1      51.521  25.881  26.592  1.00  0.00     0.198 A 
ATOM     78  C   UNL A   1      50.924  26.621  24.390  1.00  0.00     0.198 A 
ATOM     79  F   UNL A   1      48.736  27.379  23.957  1.00  0.00    -0.203 F 
ATOM     80  F   UNL A   1      52.439  25.425  27.455  1.00  0.00    -0.200 F 
ATOM     81  C   UNL A   1      51.871  26.126  25.273  1.00  0.00     0.200 A 
ATOM     82  F   UNL A   1      51.256  26.848  23.111  1.00  0.00    -0.200 F 
ATOM     83  F   UNL A   1      53.122  25.891  24.856  1.00  0.00    -0.200 F 
ENDBRANCH  49  73
BRANCH  61  84
ATOM     84  C   UNL A   1      46.105  32.324  28.684  1.00  0.00     0.064 A 
ATOM     85  C   UNL A   1      46.659  32.640  29.932  1.00  0.00     0.173 A 
ATOM     86  C   UNL A   1      46.086  33.320  27.697  1.00  0.00     0.173 A 
ATOM     87  F   UNL A   1      46.687  31.724  30.910  1.00  0.00    -0.203 F 
ATOM     88  C   UNL A   1      47.166  33.912  30.185  1.00  0.00     0.198 A 
ATOM     89  C   UNL A   1      46.615  34.582  27.945  1.00  0.00     0.198 A 
ATOM     90  F   UNL A   1      45.570  33.061  26.485  1.00  0.00    -0.203 F 
ATOM     91  F   UNL A   1      47.664  34.204  31.394  1.00  0.00    -0.200 F 
ATOM     92  C   UNL A   1      47.152  34.879  29.189  1.00  0.00     0.200 A 
ATOM     93  F   UNL A   1      46.611  35.512  26.979  1.00  0.00    -0.200 F 
ATOM     94  F   UNL A   1      47.652  36.098  29.432  1.00  0.00    -0.200 F 
ENDBRANCH  61  84
ENDBRANCH  35  36
ENDBRANCH  27  30
ENDBRANCH  25  26
ENDBRANCH  24  25
ENDBRANCH   1  24
TORSDOF 14
ENDMDL
