MODEL 1
REMARK VINA RESULT:     -11.2      0.000      0.000
REMARK SMILES CC(=O)N(C)n1cnn(CC(=O)NCCCCNC(=O)c2ccc(-c3c4nc(c(-c5c(F)c(F)c(F)c(F)c5F)c5ccc([nH]5)c(-c5c(F)c(F)c(F)c(F)c5F)c5nc(c(-c6c(F)c(F)c(F)c(F)c6F)c6ccc3[nH]6)C=C5)C=C4)cc2)c1=S
REMARK SMILES IDX 15 1 14 2 13 3 11 4 12 5 10 7 9 8 6 9 7 10 84 11 8 12 85 13
REMARK SMILES IDX 4 14 5 15 2 16 1 17 3 18 16 19 17 20 18 21 19 22 20 24 21 25
REMARK SMILES IDX 22 26 83 27 23 28 82 29 24 30 25 31 26 32 76 33 27 34 81 35
REMARK SMILES IDX 75 36 77 37 28 38 80 39 74 40 73 41 29 43 61 44 41 45 60 46
REMARK SMILES IDX 42 47 45 48 59 49 78 50 43 51 44 52 58 54 79 55 46 56 30 57
REMARK SMILES IDX 31 58 39 59 32 60 33 61 37 62 40 63 34 64 35 65 38 66 36 67
REMARK SMILES IDX 62 68 63 69 71 70 64 71 65 72 69 73 72 74 66 75 67 76 70 77
REMARK SMILES IDX 68 78 47 79 48 80 56 81 49 82 50 83 54 84 57 85 51 86 52 87
REMARK SMILES IDX 55 88 53 89
REMARK H PARENT 13 6 18 23 77 42 45 53
REMARK Flexibility Score: inf
ROOT
ATOM      1  C   UNL A   1      33.035  30.835  27.186  1.00  0.00     0.023 C 
ENDROOT
BRANCH   1   2
ATOM      2  C   UNL A   1      32.404  29.881  26.171  1.00  0.00     0.116 C 
BRANCH   2   3
ATOM      3  N   UNL A   1      33.163  29.768  24.944  1.00  0.00    -0.354 N 
ATOM      4  C   UNL A   1      33.033  28.882  23.910  1.00  0.00     0.241 C 
ATOM      5  O   UNL A   1      33.678  29.135  22.885  1.00  0.00    -0.273 OA
ATOM      6  H   UNL A   1      33.884  30.430  24.836  1.00  0.00     0.163 HD
BRANCH   4   7
ATOM      7  C   UNL A   1      31.993  27.755  23.918  1.00  0.00     0.247 C 
BRANCH   7   8
ATOM      8  N   UNL A   1      32.441  26.504  24.518  1.00  0.00    -0.227 N 
ATOM      9  N   UNL A   1      32.685  24.440  25.275  1.00  0.00    -0.211 N 
ATOM     10  C   UNL A   1      33.609  25.280  25.798  1.00  0.00     0.247 A 
ATOM     11  C   UNL A   1      31.915  25.197  24.405  1.00  0.00     0.217 A 
ATOM     12  N   UNL A   1      33.528  26.502  25.378  1.00  0.00    -0.158 NA
ATOM     13  S   UNL A   1      30.665  24.703  23.416  1.00  0.00    -0.037 S 
BRANCH   9  14
ATOM     14  N   UNL A   1      32.470  23.133  25.735  1.00  0.00    -0.250 N 
ATOM     15  C   UNL A   1      33.020  22.083  24.892  1.00  0.00     0.176 C 
BRANCH  14  16
ATOM     16  C   UNL A   1      31.757  22.969  26.913  1.00  0.00     0.238 C 
ATOM     17  C   UNL A   1      30.255  22.958  26.800  1.00  0.00     0.116 C 
ATOM     18  O   UNL A   1      32.295  22.815  28.012  1.00  0.00    -0.273 OA
ENDBRANCH  14  16
ENDBRANCH   9  14
ENDBRANCH   7   8
ENDBRANCH   4   7
ENDBRANCH   2   3
ENDBRANCH   1   2
BRANCH   1  19
ATOM     19  C   UNL A   1      34.539  30.656  27.431  1.00  0.00     0.023 C 
BRANCH  19  20
ATOM     20  C   UNL A   1      35.294  31.939  27.752  1.00  0.00     0.116 C 
BRANCH  20  21
ATOM     21  N   UNL A   1      34.875  32.568  29.007  1.00  0.00    -0.352 N 
ATOM     22  C   UNL A   1      35.189  32.172  30.301  1.00  0.00     0.251 C 
ATOM     23  H   UNL A   1      34.303  33.365  28.924  1.00  0.00     0.163 HD
ATOM     24  O   UNL A   1      34.506  32.491  31.257  1.00  0.00    -0.269 OA
BRANCH  22  25
ATOM     25  C   UNL A   1      36.409  31.367  30.491  1.00  0.00     0.039 A 
ATOM     26  C   UNL A   1      36.386  29.973  30.581  1.00  0.00     0.014 A 
ATOM     27  C   UNL A   1      37.608  32.068  30.522  1.00  0.00     0.014 A 
ATOM     28  C   UNL A   1      37.599  29.288  30.620  1.00  0.00     0.010 A 
ATOM     29  C   UNL A   1      38.780  31.393  30.349  1.00  0.00     0.010 A 
ATOM     30  C   UNL A   1      38.793  30.011  30.488  1.00  0.00    -0.014 A 
BRANCH  30  31
ATOM     31  C   UNL A   1      40.090  29.356  30.401  1.00  0.00     0.031 A 
ATOM     32  C   UNL A   1      40.764  29.118  31.707  1.00  0.00     0.074 A 
ATOM     33  C   UNL A   1      40.506  28.773  29.255  1.00  0.00     0.049 A 
ATOM     34  N   UNL A   1      41.901  29.586  32.101  1.00  0.00    -0.248 NA
ATOM     35  C   UNL A   1      40.038  28.366  32.745  1.00  0.00     0.031 C 
ATOM     36  C   UNL A   1      39.796  28.650  27.975  1.00  0.00     0.029 A 
ATOM     37  N   UNL A   1      41.627  28.039  29.034  1.00  0.00    -0.354 N 
ATOM     38  C   UNL A   1      42.128  29.039  33.361  1.00  0.00     0.074 A 
ATOM     39  C   UNL A   1      40.884  28.443  33.775  1.00  0.00     0.031 C 
ATOM     40  C   UNL A   1      40.376  27.690  27.223  1.00  0.00     0.029 A 
ATOM     41  C   UNL A   1      41.589  27.257  27.885  1.00  0.00     0.049 A 
ATOM     42  H   UNL A   1      42.404  28.059  29.639  1.00  0.00     0.167 HD
ATOM     43  C   UNL A   1      43.391  28.917  33.859  1.00  0.00     0.037 A 
ATOM     44  C   UNL A   1      42.474  26.284  27.554  1.00  0.00     0.037 A 
ATOM     45  C   UNL A   1      44.320  29.748  33.133  1.00  0.00     0.049 A 
ATOM     46  C   UNL A   1      43.711  26.542  28.343  1.00  0.00     0.074 A 
ATOM     47  C   UNL A   1      44.386  31.104  32.871  1.00  0.00     0.029 A 
ATOM     48  N   UNL A   1      45.130  29.155  32.193  1.00  0.00    -0.354 N 
ATOM     49  N   UNL A   1      44.472  27.589  28.162  1.00  0.00    -0.248 NA
ATOM     50  C   UNL A   1      43.804  25.920  29.658  1.00  0.00     0.031 C 
ATOM     51  C   UNL A   1      44.767  31.190  31.499  1.00  0.00     0.029 A 
ATOM     52  C   UNL A   1      45.008  29.894  31.041  1.00  0.00     0.049 A 
ATOM     53  H   UNL A   1      45.689  28.355  32.322  1.00  0.00     0.167 HD
ATOM     54  C   UNL A   1      44.803  28.010  29.443  1.00  0.00     0.074 A 
ATOM     55  C   UNL A   1      44.411  26.908  30.321  1.00  0.00     0.031 C 
ATOM     56  C   UNL A   1      45.073  29.322  29.717  1.00  0.00     0.037 A 
BRANCH  43  57
ATOM     57  C   UNL A   1      43.845  27.799  34.760  1.00  0.00     0.064 A 
ATOM     58  C   UNL A   1      43.733  26.466  34.320  1.00  0.00     0.173 A 
ATOM     59  C   UNL A   1      44.115  27.966  36.135  1.00  0.00     0.173 A 
ATOM     60  F   UNL A   1      43.447  26.191  33.038  1.00  0.00    -0.203 F 
ATOM     61  C   UNL A   1      43.821  25.387  35.205  1.00  0.00     0.198 A 
ATOM     62  C   UNL A   1      44.258  26.886  37.004  1.00  0.00     0.198 A 
ATOM     63  F   UNL A   1      44.135  29.172  36.715  1.00  0.00    -0.203 F 
ATOM     64  F   UNL A   1      43.585  24.144  34.764  1.00  0.00    -0.200 F 
ATOM     65  C   UNL A   1      44.081  25.599  36.546  1.00  0.00     0.200 A 
ATOM     66  F   UNL A   1      44.489  27.114  38.305  1.00  0.00    -0.200 F 
ATOM     67  F   UNL A   1      44.109  24.572  37.406  1.00  0.00    -0.200 F 
ENDBRANCH  43  57
BRANCH  44  68
ATOM     68  C   UNL A   1      42.190  24.991  26.881  1.00  0.00     0.064 A 
ATOM     69  C   UNL A   1      42.933  24.572  25.765  1.00  0.00     0.173 A 
ATOM     70  C   UNL A   1      41.360  24.017  27.473  1.00  0.00     0.173 A 
ATOM     71  F   UNL A   1      43.785  25.418  25.167  1.00  0.00    -0.203 F 
ATOM     72  C   UNL A   1      42.863  23.258  25.284  1.00  0.00     0.198 A 
ATOM     73  C   UNL A   1      41.284  22.710  26.989  1.00  0.00     0.198 A 
ATOM     74  F   UNL A   1      40.670  24.286  28.591  1.00  0.00    -0.203 F 
ATOM     75  F   UNL A   1      43.631  22.881  24.252  1.00  0.00    -0.200 F 
ATOM     76  C   UNL A   1      42.045  22.326  25.902  1.00  0.00     0.200 A 
ATOM     77  F   UNL A   1      40.513  21.812  27.619  1.00  0.00    -0.200 F 
ATOM     78  F   UNL A   1      42.020  21.055  25.478  1.00  0.00    -0.200 F 
ENDBRANCH  44  68
BRANCH  56  79
ATOM     79  C   UNL A   1      45.207  30.290  28.571  1.00  0.00     0.064 A 
ATOM     80  C   UNL A   1      44.157  31.089  28.083  1.00  0.00     0.173 A 
ATOM     81  C   UNL A   1      46.490  30.550  28.069  1.00  0.00     0.173 A 
ATOM     82  F   UNL A   1      42.920  30.985  28.580  1.00  0.00    -0.203 F 
ATOM     83  C   UNL A   1      44.375  32.069  27.116  1.00  0.00     0.198 A 
ATOM     84  C   UNL A   1      46.713  31.556  27.131  1.00  0.00     0.198 A 
ATOM     85  F   UNL A   1      47.545  29.864  28.536  1.00  0.00    -0.203 F 
ATOM     86  F   UNL A   1      43.352  32.812  26.667  1.00  0.00    -0.200 F 
ATOM     87  C   UNL A   1      45.656  32.308  26.647  1.00  0.00     0.200 A 
ATOM     88  F   UNL A   1      47.962  31.818  26.722  1.00  0.00    -0.200 F 
ATOM     89  F   UNL A   1      45.875  33.282  25.752  1.00  0.00    -0.200 F 
ENDBRANCH  56  79
ENDBRANCH  30  31
ENDBRANCH  22  25
ENDBRANCH  20  21
ENDBRANCH  19  20
ENDBRANCH   1  19
TORSDOF 14
ENDMDL
MODEL 2
REMARK VINA RESULT:     -11.2      3.051      8.713
REMARK SMILES CC(=O)N(C)n1cnn(CC(=O)NCCCCNC(=O)c2ccc(-c3c4nc(c(-c5c(F)c(F)c(F)c(F)c5F)c5ccc([nH]5)c(-c5c(F)c(F)c(F)c(F)c5F)c5nc(c(-c6c(F)c(F)c(F)c(F)c6F)c6ccc3[nH]6)C=C5)C=C4)cc2)c1=S
REMARK SMILES IDX 15 1 14 2 13 3 11 4 12 5 10 7 9 8 6 9 7 10 84 11 8 12 85 13
REMARK SMILES IDX 4 14 5 15 2 16 1 17 3 18 16 19 17 20 18 21 19 22 20 24 21 25
REMARK SMILES IDX 22 26 83 27 23 28 82 29 24 30 25 31 26 32 76 33 27 34 81 35
REMARK SMILES IDX 75 36 77 37 28 38 80 39 74 40 73 41 29 43 61 44 41 45 60 46
REMARK SMILES IDX 42 47 45 48 59 49 78 50 43 51 44 52 58 54 79 55 46 56 30 57
REMARK SMILES IDX 31 58 39 59 32 60 33 61 37 62 40 63 34 64 35 65 38 66 36 67
REMARK SMILES IDX 62 68 63 69 71 70 64 71 65 72 69 73 72 74 66 75 67 76 70 77
REMARK SMILES IDX 68 78 47 79 48 80 56 81 49 82 50 83 54 84 57 85 51 86 52 87
REMARK SMILES IDX 55 88 53 89
REMARK H PARENT 13 6 18 23 77 42 45 53
REMARK Flexibility Score: inf
ROOT
ATOM      1  C   UNL A   1      36.254  21.229  25.438  1.00  0.00     0.023 C 
ENDROOT
BRANCH   1   2
ATOM      2  C   UNL A   1      34.916  21.530  26.115  1.00  0.00     0.116 C 
BRANCH   2   3
ATOM      3  N   UNL A   1      34.014  20.400  26.127  1.00  0.00    -0.354 N 
ATOM      4  C   UNL A   1      32.918  20.143  25.350  1.00  0.00     0.241 C 
ATOM      5  O   UNL A   1      32.443  19.004  25.428  1.00  0.00    -0.273 OA
ATOM      6  H   UNL A   1      34.220  19.708  26.797  1.00  0.00     0.163 HD
BRANCH   4   7
ATOM      7  C   UNL A   1      32.420  21.124  24.281  1.00  0.00     0.247 C 
BRANCH   7   8
ATOM      8  N   UNL A   1      31.781  22.329  24.796  1.00  0.00    -0.227 N 
ATOM      9  N   UNL A   1      31.099  24.384  25.248  1.00  0.00    -0.211 N 
ATOM     10  C   UNL A   1      30.714  23.505  26.202  1.00  0.00     0.247 A 
ATOM     11  C   UNL A   1      31.778  23.649  24.288  1.00  0.00     0.217 A 
ATOM     12  N   UNL A   1      31.070  22.280  25.984  1.00  0.00    -0.158 NA
ATOM     13  S   UNL A   1      32.430  24.166  22.842  1.00  0.00    -0.037 S 
BRANCH   9  14
ATOM     14  N   UNL A   1      30.991  25.776  25.380  1.00  0.00    -0.250 N 
ATOM     15  C   UNL A   1      29.857  26.376  24.694  1.00  0.00     0.176 C 
BRANCH  14  16
ATOM     16  C   UNL A   1      31.960  26.434  26.121  1.00  0.00     0.238 C 
ATOM     17  C   UNL A   1      31.508  27.627  26.922  1.00  0.00     0.116 C 
ATOM     18  O   UNL A   1      33.139  26.075  26.161  1.00  0.00    -0.273 OA
ENDBRANCH  14  16
ENDBRANCH   9  14
ENDBRANCH   7   8
ENDBRANCH   4   7
ENDBRANCH   2   3
ENDBRANCH   1   2
BRANCH   1  19
ATOM     19  C   UNL A   1      37.101  22.450  25.053  1.00  0.00     0.023 C 
BRANCH  19  20
ATOM     20  C   UNL A   1      38.006  22.978  26.158  1.00  0.00     0.116 C 
BRANCH  20  21
ATOM     21  N   UNL A   1      39.179  22.136  26.408  1.00  0.00    -0.352 N 
ATOM     22  C   UNL A   1      40.499  22.542  26.551  1.00  0.00     0.251 C 
ATOM     23  H   UNL A   1      39.012  21.169  26.483  1.00  0.00     0.163 HD
ATOM     24  O   UNL A   1      41.433  21.783  26.364  1.00  0.00    -0.269 OA
BRANCH  22  25
ATOM     25  C   UNL A   1      40.744  23.934  26.972  1.00  0.00     0.039 A 
ATOM     26  C   UNL A   1      40.150  25.029  26.338  1.00  0.00     0.014 A 
ATOM     27  C   UNL A   1      41.561  24.105  28.082  1.00  0.00     0.014 A 
ATOM     28  C   UNL A   1      40.329  26.296  26.891  1.00  0.00     0.010 A 
ATOM     29  C   UNL A   1      41.559  25.303  28.734  1.00  0.00     0.010 A 
ATOM     30  C   UNL A   1      41.025  26.418  28.102  1.00  0.00    -0.014 A 
BRANCH  30  31
ATOM     31  C   UNL A   1      41.149  27.689  28.799  1.00  0.00     0.031 A 
ATOM     32  C   UNL A   1      42.286  28.542  28.357  1.00  0.00     0.074 A 
ATOM     33  C   UNL A   1      40.153  28.160  29.582  1.00  0.00     0.049 A 
ATOM     34  N   UNL A   1      43.287  28.947  29.066  1.00  0.00    -0.248 NA
ATOM     35  C   UNL A   1      42.389  28.891  26.930  1.00  0.00     0.031 C 
ATOM     36  C   UNL A   1      38.834  27.570  29.848  1.00  0.00     0.029 A 
ATOM     37  N   UNL A   1      40.064  29.360  30.213  1.00  0.00    -0.354 N 
ATOM     38  C   UNL A   1      44.049  29.758  28.230  1.00  0.00     0.074 A 
ATOM     39  C   UNL A   1      43.550  29.549  26.895  1.00  0.00     0.031 C 
ATOM     40  C   UNL A   1      38.009  28.510  30.355  1.00  0.00     0.029 A 
ATOM     41  C   UNL A   1      38.778  29.710  30.610  1.00  0.00     0.049 A 
ATOM     42  H   UNL A   1      40.847  29.934  30.375  1.00  0.00     0.167 HD
ATOM     43  C   UNL A   1      44.876  30.715  28.739  1.00  0.00     0.037 A 
ATOM     44  C   UNL A   1      38.387  30.928  31.059  1.00  0.00     0.037 A 
ATOM     45  C   UNL A   1      45.132  30.490  30.140  1.00  0.00     0.049 A 
ATOM     46  C   UNL A   1      39.618  31.635  31.511  1.00  0.00     0.074 A 
ATOM     47  C   UNL A   1      45.659  29.431  30.858  1.00  0.00     0.029 A 
ATOM     48  N   UNL A   1      44.447  31.248  31.060  1.00  0.00    -0.354 N 
ATOM     49  N   UNL A   1      40.330  31.251  32.538  1.00  0.00    -0.248 NA
ATOM     50  C   UNL A   1      40.329  32.434  30.521  1.00  0.00     0.031 C 
ATOM     51  C   UNL A   1      44.822  29.321  32.007  1.00  0.00     0.029 A 
ATOM     52  C   UNL A   1      43.907  30.374  31.972  1.00  0.00     0.049 A 
ATOM     53  H   UNL A   1      44.359  32.229  31.063  1.00  0.00     0.167 HD
ATOM     54  C   UNL A   1      41.647  31.383  32.124  1.00  0.00     0.074 A 
ATOM     55  C   UNL A   1      41.585  32.172  30.894  1.00  0.00     0.031 C 
ATOM     56  C   UNL A   1      42.639  30.589  32.629  1.00  0.00     0.037 A 
BRANCH  43  57
ATOM     57  C   UNL A   1      45.165  32.032  28.069  1.00  0.00     0.064 A 
ATOM     58  C   UNL A   1      44.115  32.947  27.857  1.00  0.00     0.173 A 
ATOM     59  C   UNL A   1      46.363  32.308  27.376  1.00  0.00     0.173 A 
ATOM     60  F   UNL A   1      42.922  32.765  28.441  1.00  0.00    -0.203 F 
ATOM     61  C   UNL A   1      44.240  34.018  26.967  1.00  0.00     0.198 A 
ATOM     62  C   UNL A   1      46.501  33.409  26.534  1.00  0.00     0.198 A 
ATOM     63  F   UNL A   1      47.404  31.467  27.392  1.00  0.00    -0.203 F 
ATOM     64  F   UNL A   1      43.176  34.790  26.703  1.00  0.00    -0.200 F 
ATOM     65  C   UNL A   1      45.431  34.247  26.305  1.00  0.00     0.200 A 
ATOM     66  F   UNL A   1      47.659  33.600  25.884  1.00  0.00    -0.200 F 
ATOM     67  F   UNL A   1      45.535  35.238  25.410  1.00  0.00    -0.200 F 
ENDBRANCH  43  57
BRANCH  44  68
ATOM     68  C   UNL A   1      37.098  31.619  30.800  1.00  0.00     0.064 A 
ATOM     69  C   UNL A   1      36.160  31.819  31.826  1.00  0.00     0.173 A 
ATOM     70  C   UNL A   1      36.869  32.330  29.604  1.00  0.00     0.173 A 
ATOM     71  F   UNL A   1      36.324  31.220  33.015  1.00  0.00    -0.203 F 
ATOM     72  C   UNL A   1      35.072  32.688  31.670  1.00  0.00     0.198 A 
ATOM     73  C   UNL A   1      35.781  33.190  29.446  1.00  0.00     0.198 A 
ATOM     74  F   UNL A   1      37.746  32.276  28.591  1.00  0.00    -0.203 F 
ATOM     75  F   UNL A   1      34.230  32.896  32.692  1.00  0.00    -0.200 F 
ATOM     76  C   UNL A   1      34.889  33.380  30.483  1.00  0.00     0.200 A 
ATOM     77  F   UNL A   1      35.637  33.877  28.304  1.00  0.00    -0.200 F 
ATOM     78  F   UNL A   1      33.881  34.253  30.353  1.00  0.00    -0.200 F 
ENDBRANCH  44  68
BRANCH  56  79
ATOM     79  C   UNL A   1      42.326  29.694  33.799  1.00  0.00     0.064 A 
ATOM     80  C   UNL A   1      41.809  28.391  33.683  1.00  0.00     0.173 A 
ATOM     81  C   UNL A   1      42.738  30.103  35.076  1.00  0.00     0.173 A 
ATOM     82  F   UNL A   1      41.490  27.877  32.490  1.00  0.00    -0.203 F 
ATOM     83  C   UNL A   1      41.674  27.558  34.793  1.00  0.00     0.198 A 
ATOM     84  C   UNL A   1      42.638  29.255  36.177  1.00  0.00     0.198 A 
ATOM     85  F   UNL A   1      43.295  31.312  35.246  1.00  0.00    -0.203 F 
ATOM     86  F   UNL A   1      41.172  26.322  34.650  1.00  0.00    -0.200 F 
ATOM     87  C   UNL A   1      42.098  27.988  36.038  1.00  0.00     0.200 A 
ATOM     88  F   UNL A   1      43.100  29.658  37.369  1.00  0.00    -0.200 F 
ATOM     89  F   UNL A   1      42.013  27.172  37.098  1.00  0.00    -0.200 F 
ENDBRANCH  56  79
ENDBRANCH  30  31
ENDBRANCH  22  25
ENDBRANCH  20  21
ENDBRANCH  19  20
ENDBRANCH   1  19
TORSDOF 14
ENDMDL
MODEL 3
REMARK VINA RESULT:     -11.2      3.018      8.523
REMARK SMILES CC(=O)N(C)n1cnn(CC(=O)NCCCCNC(=O)c2ccc(-c3c4nc(c(-c5c(F)c(F)c(F)c(F)c5F)c5ccc([nH]5)c(-c5c(F)c(F)c(F)c(F)c5F)c5nc(c(-c6c(F)c(F)c(F)c(F)c6F)c6ccc3[nH]6)C=C5)C=C4)cc2)c1=S
REMARK SMILES IDX 15 1 14 2 13 3 11 4 12 5 10 7 9 8 6 9 7 10 84 11 8 12 85 13
REMARK SMILES IDX 4 14 5 15 2 16 1 17 3 18 16 19 17 20 18 21 19 22 20 24 21 25
REMARK SMILES IDX 22 26 83 27 23 28 82 29 24 30 25 31 26 32 76 33 27 34 81 35
REMARK SMILES IDX 75 36 77 37 28 38 80 39 74 40 73 41 29 43 61 44 41 45 60 46
REMARK SMILES IDX 42 47 45 48 59 49 78 50 43 51 44 52 58 54 79 55 46 56 30 57
REMARK SMILES IDX 31 58 39 59 32 60 33 61 37 62 40 63 34 64 35 65 38 66 36 67
REMARK SMILES IDX 62 68 63 69 71 70 64 71 65 72 69 73 72 74 66 75 67 76 70 77
REMARK SMILES IDX 68 78 47 79 48 80 56 81 49 82 50 83 54 84 57 85 51 86 52 87
REMARK SMILES IDX 55 88 53 89
REMARK H PARENT 13 6 18 23 77 42 45 53
REMARK Flexibility Score: inf
ROOT
ATOM      1  C   UNL A   1      35.539  21.588  25.962  1.00  0.00     0.023 C 
ENDROOT
BRANCH   1   2
ATOM      2  C   UNL A   1      34.312  21.454  26.865  1.00  0.00     0.116 C 
BRANCH   2   3
ATOM      3  N   UNL A   1      33.447  20.355  26.496  1.00  0.00    -0.354 N 
ATOM      4  C   UNL A   1      32.628  20.208  25.411  1.00  0.00     0.241 C 
ATOM      5  O   UNL A   1      32.153  19.082  25.229  1.00  0.00    -0.273 OA
ATOM      6  H   UNL A   1      33.448  19.595  27.122  1.00  0.00     0.163 HD
BRANCH   4   7
ATOM      7  C   UNL A   1      32.466  21.304  24.349  1.00  0.00     0.247 C 
BRANCH   7   8
ATOM      8  N   UNL A   1      31.782  22.508  24.802  1.00  0.00    -0.227 N 
ATOM      9  N   UNL A   1      31.041  24.560  25.168  1.00  0.00    -0.211 N 
ATOM     10  C   UNL A   1      30.630  23.698  26.128  1.00  0.00     0.247 A 
ATOM     11  C   UNL A   1      31.776  23.814  24.259  1.00  0.00     0.217 A 
ATOM     12  N   UNL A   1      31.019  22.475  25.959  1.00  0.00    -0.158 NA
ATOM     13  S   UNL A   1      32.481  24.307  22.831  1.00  0.00    -0.037 S 
BRANCH   9  14
ATOM     14  N   UNL A   1      30.899  25.952  25.258  1.00  0.00    -0.250 N 
ATOM     15  C   UNL A   1      29.962  26.541  24.313  1.00  0.00     0.176 C 
BRANCH  14  16
ATOM     16  C   UNL A   1      31.659  26.622  26.205  1.00  0.00     0.238 C 
ATOM     17  C   UNL A   1      33.122  26.802  25.897  1.00  0.00     0.116 C 
ATOM     18  O   UNL A   1      31.187  27.078  27.249  1.00  0.00    -0.273 OA
ENDBRANCH  14  16
ENDBRANCH   9  14
ENDBRANCH   7   8
ENDBRANCH   4   7
ENDBRANCH   2   3
ENDBRANCH   1   2
BRANCH   1  19
ATOM     19  C   UNL A   1      36.136  22.997  25.846  1.00  0.00     0.023 C 
BRANCH  19  20
ATOM     20  C   UNL A   1      37.611  23.040  25.468  1.00  0.00     0.116 C 
BRANCH  20  21
ATOM     21  N   UNL A   1      38.447  22.139  26.266  1.00  0.00    -0.352 N 
ATOM     22  C   UNL A   1      39.654  22.430  26.888  1.00  0.00     0.251 C 
ATOM     23  H   UNL A   1      38.113  21.219  26.374  1.00  0.00     0.163 HD
ATOM     24  O   UNL A   1      40.455  21.561  27.182  1.00  0.00    -0.269 OA
BRANCH  22  25
ATOM     25  C   UNL A   1      39.932  23.840  27.213  1.00  0.00     0.039 A 
ATOM     26  C   UNL A   1      38.963  24.842  27.115  1.00  0.00     0.014 A 
ATOM     27  C   UNL A   1      41.208  24.122  27.683  1.00  0.00     0.014 A 
ATOM     28  C   UNL A   1      39.276  26.119  27.576  1.00  0.00     0.010 A 
ATOM     29  C   UNL A   1      41.439  25.305  28.321  1.00  0.00     0.010 A 
ATOM     30  C   UNL A   1      40.516  26.336  28.193  1.00  0.00    -0.014 A 
BRANCH  30  31
ATOM     31  C   UNL A   1      40.867  27.608  28.803  1.00  0.00     0.031 A 
ATOM     32  C   UNL A   1      42.033  28.301  28.190  1.00  0.00     0.074 A 
ATOM     33  C   UNL A   1      40.032  28.226  29.667  1.00  0.00     0.049 A 
ATOM     34  N   UNL A   1      43.151  28.611  28.758  1.00  0.00    -0.248 NA
ATOM     35  C   UNL A   1      42.005  28.579  26.744  1.00  0.00     0.031 C 
ATOM     36  C   UNL A   1      38.695  27.809  30.112  1.00  0.00     0.029 A 
ATOM     37  N   UNL A   1      40.156  29.452  30.239  1.00  0.00    -0.354 N 
ATOM     38  C   UNL A   1      43.896  29.292  27.799  1.00  0.00     0.074 A 
ATOM     39  C   UNL A   1      43.221  29.092  26.543  1.00  0.00     0.031 C 
ATOM     40  C   UNL A   1      38.048  28.860  30.659  1.00  0.00     0.029 A 
ATOM     41  C   UNL A   1      38.975  29.968  30.761  1.00  0.00     0.049 A 
ATOM     42  H   UNL A   1      41.012  29.935  30.281  1.00  0.00     0.167 HD
ATOM     43  C   UNL A   1      44.881  30.162  28.160  1.00  0.00     0.037 A 
ATOM     44  C   UNL A   1      38.781  31.241  31.186  1.00  0.00     0.037 A 
ATOM     45  C   UNL A   1      45.275  29.964  29.533  1.00  0.00     0.049 A 
ATOM     46  C   UNL A   1      40.130  31.814  31.457  1.00  0.00     0.074 A 
ATOM     47  C   UNL A   1      45.759  28.879  30.241  1.00  0.00     0.029 A 
ATOM     48  N   UNL A   1      44.795  30.834  30.483  1.00  0.00    -0.354 N 
ATOM     49  N   UNL A   1      40.910  31.389  32.416  1.00  0.00    -0.248 NA
ATOM     50  C   UNL A   1      40.805  32.482  30.352  1.00  0.00     0.031 C 
ATOM     51  C   UNL A   1      45.057  28.915  31.483  1.00  0.00     0.029 A 
ATOM     52  C   UNL A   1      44.271  30.068  31.496  1.00  0.00     0.049 A 
ATOM     53  H   UNL A   1      44.821  31.818  30.444  1.00  0.00     0.167 HD
ATOM     54  C   UNL A   1      42.175  31.345  31.848  1.00  0.00     0.074 A 
ATOM     55  C   UNL A   1      42.058  32.086  30.593  1.00  0.00     0.031 C 
ATOM     56  C   UNL A   1      43.123  30.459  32.279  1.00  0.00     0.037 A 
BRANCH  43  57
ATOM     57  C   UNL A   1      45.238  31.408  27.392  1.00  0.00     0.064 A 
ATOM     58  C   UNL A   1      46.556  31.580  26.924  1.00  0.00     0.173 A 
ATOM     59  C   UNL A   1      44.421  32.558  27.349  1.00  0.00     0.173 A 
ATOM     60  F   UNL A   1      47.427  30.561  26.949  1.00  0.00    -0.203 F 
ATOM     61  C   UNL A   1      47.032  32.826  26.506  1.00  0.00     0.198 A 
ATOM     62  C   UNL A   1      44.884  33.785  26.878  1.00  0.00     0.198 A 
ATOM     63  F   UNL A   1      43.186  32.573  27.866  1.00  0.00    -0.203 F 
ATOM     64  F   UNL A   1      48.325  32.969  26.186  1.00  0.00    -0.200 F 
ATOM     65  C   UNL A   1      46.197  33.927  26.485  1.00  0.00     0.200 A 
ATOM     66  F   UNL A   1      44.063  34.846  26.887  1.00  0.00    -0.200 F 
ATOM     67  F   UNL A   1      46.667  35.132  26.139  1.00  0.00    -0.200 F 
ENDBRANCH  43  57
BRANCH  44  68
ATOM     68  C   UNL A   1      37.558  32.071  31.038  1.00  0.00     0.064 A 
ATOM     69  C   UNL A   1      37.185  32.604  29.794  1.00  0.00     0.173 A 
ATOM     70  C   UNL A   1      36.588  32.144  32.060  1.00  0.00     0.173 A 
ATOM     71  F   UNL A   1      38.027  32.536  28.752  1.00  0.00    -0.203 F 
ATOM     72  C   UNL A   1      35.916  33.158  29.580  1.00  0.00     0.198 A 
ATOM     73  C   UNL A   1      35.326  32.703  31.848  1.00  0.00     0.198 A 
ATOM     74  F   UNL A   1      36.809  31.593  33.262  1.00  0.00    -0.203 F 
ATOM     75  F   UNL A   1      35.577  33.604  28.363  1.00  0.00    -0.200 F 
ATOM     76  C   UNL A   1      34.985  33.199  30.605  1.00  0.00     0.200 A 
ATOM     77  F   UNL A   1      34.425  32.704  32.842  1.00  0.00    -0.200 F 
ATOM     78  F   UNL A   1      33.752  33.676  30.387  1.00  0.00    -0.200 F 
ENDBRANCH  44  68
BRANCH  56  79
ATOM     79  C   UNL A   1      42.851  29.654  33.524  1.00  0.00     0.064 A 
ATOM     80  C   UNL A   1      43.047  30.132  34.832  1.00  0.00     0.173 A 
ATOM     81  C   UNL A   1      42.196  28.423  33.387  1.00  0.00     0.173 A 
ATOM     82  F   UNL A   1      43.566  31.343  35.057  1.00  0.00    -0.203 F 
ATOM     83  C   UNL A   1      42.643  29.394  35.946  1.00  0.00     0.198 A 
ATOM     84  C   UNL A   1      41.759  27.706  34.499  1.00  0.00     0.198 A 
ATOM     85  F   UNL A   1      41.925  27.939  32.165  1.00  0.00    -0.203 F 
ATOM     86  F   UNL A   1      42.848  29.874  37.182  1.00  0.00    -0.200 F 
ATOM     87  C   UNL A   1      41.991  28.186  35.777  1.00  0.00     0.200 A 
ATOM     88  F   UNL A   1      41.080  26.563  34.327  1.00  0.00    -0.200 F 
ATOM     89  F   UNL A   1      41.559  27.498  36.844  1.00  0.00    -0.200 F 
ENDBRANCH  56  79
ENDBRANCH  30  31
ENDBRANCH  22  25
ENDBRANCH  20  21
ENDBRANCH  19  20
ENDBRANCH   1  19
TORSDOF 14
ENDMDL
