MODEL 1
REMARK VINA RESULT:     -14.6      0.000      0.000
REMARK SMILES Cc1ccnc(C(=O)c2[nH]c3cc(Cl)c(F)cc3c2CC(=O)NCCCCNC(=O)c2ccc(-c3c4nc(c(-c5c(F)c(F)c(F)c(F)c5F)c5ccc([nH]5)c(-c5c(F)c(F)c(F)c(F)c5F)c5nc(c(-c6c(F)c(F)c(F)c(F)c6F)c6ccc3[nH]6)C=C5)C=C4)cc2)c1
REMARK SMILES IDX 25 1 24 2 23 3 21 4 22 5 20 7 19 8 9 9 10 10 11 11 18 13
REMARK SMILES IDX 12 14 17 15 13 16 15 17 14 18 16 19 7 20 8 21 6 22 1 23 2 24
REMARK SMILES IDX 3 25 94 26 4 27 5 28 26 29 27 30 28 31 29 32 30 34 31 35
REMARK SMILES IDX 32 36 93 37 33 38 92 39 34 40 35 41 36 42 86 43 37 44 91 45
REMARK SMILES IDX 85 46 87 47 38 48 90 49 84 50 83 51 39 53 71 54 51 55 70 56
REMARK SMILES IDX 52 57 55 58 69 59 88 60 53 61 54 62 68 64 89 65 56 66 40 67
REMARK SMILES IDX 41 68 49 69 42 70 43 71 47 72 50 73 44 74 45 75 48 76 46 77
REMARK SMILES IDX 72 78 73 79 81 80 74 81 75 82 79 83 82 84 76 85 77 86 80 87
REMARK SMILES IDX 78 88 57 89 58 90 66 91 59 92 60 93 64 94 67 95 61 96 62 97
REMARK SMILES IDX 65 98 63 99
REMARK H PARENT 23 6 10 12 28 33 87 52 55 63
REMARK Flexibility Score: inf
ROOT
ATOM      1  C   UNL A   1      31.851  27.961  27.553  1.00  0.00     0.023 C 
ENDROOT
BRANCH   1   2
ATOM      2  C   UNL A   1      32.016  26.796  26.544  1.00  0.00     0.116 C 
BRANCH   2   3
ATOM      3  N   UNL A   1      31.316  25.548  26.808  1.00  0.00    -0.356 N 
ATOM      4  C   UNL A   1      31.650  24.240  26.583  1.00  0.00     0.224 C 
ATOM      5  O   UNL A   1      30.883  23.376  27.014  1.00  0.00    -0.275 OA
ATOM      6  H   UNL A   1      30.434  25.667  27.227  1.00  0.00     0.163 HD
BRANCH   4   7
ATOM      7  C   UNL A   1      32.926  23.843  25.879  1.00  0.00     0.138 C 
BRANCH   7   8
ATOM      8  C   UNL A   1      32.726  23.100  24.597  1.00  0.00    -0.002 A 
ATOM      9  C   UNL A   1      32.571  23.602  23.305  1.00  0.00     0.093 A 
ATOM     10  N   UNL A   1      32.278  22.508  22.504  1.00  0.00    -0.351 N 
ATOM     11  C   UNL A   1      32.413  21.325  23.198  1.00  0.00     0.048 A 
ATOM     12  H   UNL A   1      32.007  22.569  21.559  1.00  0.00     0.167 HD
ATOM     13  C   UNL A   1      32.635  21.666  24.526  1.00  0.00     0.007 A 
ATOM     14  C   UNL A   1      32.341  19.988  22.769  1.00  0.00     0.050 A 
ATOM     15  C   UNL A   1      32.772  20.632  25.480  1.00  0.00     0.051 A 
ATOM     16  C   UNL A   1      32.544  18.984  23.727  1.00  0.00     0.078 A 
ATOM     17  C   UNL A   1      32.763  19.305  25.060  1.00  0.00     0.142 A 
ATOM     18  Cl  UNL A   1      32.530  17.332  23.232  1.00  0.00    -0.081 Cl
ATOM     19  F   UNL A   1      33.003  18.349  25.972  1.00  0.00    -0.205 F 
BRANCH   9  20
ATOM     20  C   UNL A   1      32.518  24.972  22.757  1.00  0.00     0.227 C 
ATOM     21  O   UNL A   1      33.449  25.381  22.087  1.00  0.00    -0.285 OA
BRANCH  20  22
ATOM     22  C   UNL A   1      31.361  25.917  23.076  1.00  0.00     0.113 A 
ATOM     23  C   UNL A   1      30.534  29.621  23.520  1.00  0.00     0.044 C 
ATOM     24  C   UNL A   1      30.417  28.129  23.399  1.00  0.00    -0.047 A 
ATOM     25  C   UNL A   1      29.263  27.526  23.874  1.00  0.00     0.023 A 
ATOM     26  C   UNL A   1      31.437  27.297  22.912  1.00  0.00     0.036 A 
ATOM     27  C   UNL A   1      29.207  26.144  23.900  1.00  0.00     0.112 A 
ATOM     28  N   UNL A   1      30.226  25.331  23.533  1.00  0.00    -0.253 NA
ENDBRANCH  20  22
ENDBRANCH   9  20
ENDBRANCH   7   8
ENDBRANCH   4   7
ENDBRANCH   2   3
ENDBRANCH   1   2
BRANCH   1  29
ATOM     29  C   UNL A   1      32.295  29.378  27.134  1.00  0.00     0.023 C 
BRANCH  29  30
ATOM     30  C   UNL A   1      33.801  29.564  27.088  1.00  0.00     0.116 C 
BRANCH  30  31
ATOM     31  N   UNL A   1      34.147  30.945  27.278  1.00  0.00    -0.352 N 
ATOM     32  C   UNL A   1      35.266  31.599  27.686  1.00  0.00     0.251 C 
ATOM     33  H   UNL A   1      33.406  31.555  27.063  1.00  0.00     0.163 HD
ATOM     34  O   UNL A   1      35.237  32.820  27.579  1.00  0.00    -0.269 OA
BRANCH  32  35
ATOM     35  C   UNL A   1      36.391  30.967  28.414  1.00  0.00     0.039 A 
ATOM     36  C   UNL A   1      37.252  31.488  29.377  1.00  0.00     0.014 A 
ATOM     37  C   UNL A   1      36.688  29.704  27.907  1.00  0.00     0.014 A 
ATOM     38  C   UNL A   1      38.550  30.931  29.454  1.00  0.00     0.010 A 
ATOM     39  C   UNL A   1      37.776  29.019  28.377  1.00  0.00     0.010 A 
ATOM     40  C   UNL A   1      38.881  29.778  28.686  1.00  0.00    -0.014 A 
BRANCH  40  41
ATOM     41  C   UNL A   1      40.142  28.957  28.788  1.00  0.00     0.031 A 
ATOM     42  C   UNL A   1      40.259  28.719  30.322  1.00  0.00     0.074 A 
ATOM     43  C   UNL A   1      40.936  28.464  27.723  1.00  0.00     0.049 A 
ATOM     44  N   UNL A   1      41.029  29.413  31.102  1.00  0.00    -0.248 NA
ATOM     45  C   UNL A   1      39.220  28.031  31.169  1.00  0.00     0.031 C 
ATOM     46  C   UNL A   1      40.859  28.599  26.218  1.00  0.00     0.029 A 
ATOM     47  N   UNL A   1      42.140  27.713  27.749  1.00  0.00    -0.354 N 
ATOM     48  C   UNL A   1      40.903  28.872  32.383  1.00  0.00     0.074 A 
ATOM     49  C   UNL A   1      39.629  28.248  32.426  1.00  0.00     0.031 C 
ATOM     50  C   UNL A   1      41.700  27.727  25.561  1.00  0.00     0.029 A 
ATOM     51  C   UNL A   1      42.533  27.021  26.519  1.00  0.00     0.049 A 
ATOM     52  H   UNL A   1      42.690  27.659  28.563  1.00  0.00     0.167 HD
ATOM     53  C   UNL A   1      42.038  28.654  33.102  1.00  0.00     0.037 A 
ATOM     54  C   UNL A   1      43.642  26.189  26.287  1.00  0.00     0.037 A 
ATOM     55  C   UNL A   1      43.097  29.431  32.502  1.00  0.00     0.049 A 
ATOM     56  C   UNL A   1      44.539  26.414  27.445  1.00  0.00     0.074 A 
ATOM     57  C   UNL A   1      43.329  30.780  32.346  1.00  0.00     0.029 A 
ATOM     58  N   UNL A   1      43.640  28.800  31.415  1.00  0.00    -0.354 N 
ATOM     59  N   UNL A   1      45.144  27.555  27.615  1.00  0.00    -0.248 NA
ATOM     60  C   UNL A   1      44.170  25.652  28.631  1.00  0.00     0.031 C 
ATOM     61  C   UNL A   1      43.819  30.943  31.016  1.00  0.00     0.029 A 
ATOM     62  C   UNL A   1      44.078  29.688  30.479  1.00  0.00     0.049 A 
ATOM     63  H   UNL A   1      43.707  27.823  31.322  1.00  0.00     0.167 HD
ATOM     64  C   UNL A   1      44.764  27.916  28.893  1.00  0.00     0.074 A 
ATOM     65  C   UNL A   1      44.161  26.691  29.473  1.00  0.00     0.031 C 
ATOM     66  C   UNL A   1      44.607  29.235  29.224  1.00  0.00     0.037 A 
BRANCH  53  67
ATOM     67  C   UNL A   1      42.339  27.412  33.914  1.00  0.00     0.064 A 
ATOM     68  C   UNL A   1      41.947  27.392  35.267  1.00  0.00     0.173 A 
ATOM     69  C   UNL A   1      43.214  26.371  33.525  1.00  0.00     0.173 A 
ATOM     70  F   UNL A   1      41.166  28.366  35.759  1.00  0.00    -0.203 F 
ATOM     71  C   UNL A   1      42.391  26.413  36.161  1.00  0.00     0.198 A 
ATOM     72  C   UNL A   1      43.625  25.368  34.410  1.00  0.00     0.198 A 
ATOM     73  F   UNL A   1      43.777  26.336  32.310  1.00  0.00    -0.203 F 
ATOM     74  F   UNL A   1      42.038  26.482  37.451  1.00  0.00    -0.200 F 
ATOM     75  C   UNL A   1      43.221  25.395  35.730  1.00  0.00     0.200 A 
ATOM     76  F   UNL A   1      44.456  24.404  33.987  1.00  0.00    -0.200 F 
ATOM     77  F   UNL A   1      43.653  24.461  36.588  1.00  0.00    -0.200 F 
ENDBRANCH  53  67
BRANCH  54  78
ATOM     78  C   UNL A   1      43.845  24.862  25.527  1.00  0.00     0.064 A 
ATOM     79  C   UNL A   1      45.072  24.376  24.961  1.00  0.00     0.173 A 
ATOM     80  C   UNL A   1      42.873  23.873  25.708  1.00  0.00     0.173 A 
ATOM     81  F   UNL A   1      46.109  25.202  24.746  1.00  0.00    -0.203 F 
ATOM     82  C   UNL A   1      45.287  23.004  24.656  1.00  0.00     0.198 A 
ATOM     83  C   UNL A   1      43.098  22.513  25.435  1.00  0.00     0.198 A 
ATOM     84  F   UNL A   1      41.702  24.201  26.264  1.00  0.00    -0.203 F 
ATOM     85  F   UNL A   1      46.463  22.576  24.161  1.00  0.00    -0.200 F 
ATOM     86  C   UNL A   1      44.304  22.070  24.925  1.00  0.00     0.200 A 
ATOM     87  F   UNL A   1      42.146  21.621  25.741  1.00  0.00    -0.200 F 
ATOM     88  F   UNL A   1      44.521  20.759  24.735  1.00  0.00    -0.200 F 
ENDBRANCH  54  78
BRANCH  66  89
ATOM     89  C   UNL A   1      45.047  30.308  28.258  1.00  0.00     0.064 A 
ATOM     90  C   UNL A   1      44.226  31.033  27.371  1.00  0.00     0.173 A 
ATOM     91  C   UNL A   1      46.362  30.753  28.405  1.00  0.00     0.173 A 
ATOM     92  F   UNL A   1      42.914  30.788  27.285  1.00  0.00    -0.203 F 
ATOM     93  C   UNL A   1      44.733  32.097  26.612  1.00  0.00     0.198 A 
ATOM     94  C   UNL A   1      46.852  31.839  27.689  1.00  0.00     0.198 A 
ATOM     95  F   UNL A   1      47.155  30.179  29.322  1.00  0.00    -0.203 F 
ATOM     96  F   UNL A   1      43.936  32.772  25.768  1.00  0.00    -0.200 F 
ATOM     97  C   UNL A   1      46.049  32.494  26.772  1.00  0.00     0.200 A 
ATOM     98  F   UNL A   1      48.094  32.276  27.928  1.00  0.00    -0.200 F 
ATOM     99  F   UNL A   1      46.535  33.531  26.075  1.00  0.00    -0.200 F 
ENDBRANCH  66  89
ENDBRANCH  40  41
ENDBRANCH  32  35
ENDBRANCH  30  31
ENDBRANCH  29  30
ENDBRANCH   1  29
TORSDOF 14
ENDMDL
MODEL 2
REMARK VINA RESULT:     -14.4      2.263      3.684
REMARK SMILES Cc1ccnc(C(=O)c2[nH]c3cc(Cl)c(F)cc3c2CC(=O)NCCCCNC(=O)c2ccc(-c3c4nc(c(-c5c(F)c(F)c(F)c(F)c5F)c5ccc([nH]5)c(-c5c(F)c(F)c(F)c(F)c5F)c5nc(c(-c6c(F)c(F)c(F)c(F)c6F)c6ccc3[nH]6)C=C5)C=C4)cc2)c1
REMARK SMILES IDX 25 1 24 2 23 3 21 4 22 5 20 7 19 8 9 9 10 10 11 11 18 13
REMARK SMILES IDX 12 14 17 15 13 16 15 17 14 18 16 19 7 20 8 21 6 22 1 23 2 24
REMARK SMILES IDX 3 25 94 26 4 27 5 28 26 29 27 30 28 31 29 32 30 34 31 35
REMARK SMILES IDX 32 36 93 37 33 38 92 39 34 40 35 41 36 42 86 43 37 44 91 45
REMARK SMILES IDX 85 46 87 47 38 48 90 49 84 50 83 51 39 53 71 54 51 55 70 56
REMARK SMILES IDX 52 57 55 58 69 59 88 60 53 61 54 62 68 64 89 65 56 66 40 67
REMARK SMILES IDX 41 68 49 69 42 70 43 71 47 72 50 73 44 74 45 75 48 76 46 77
REMARK SMILES IDX 72 78 73 79 81 80 74 81 75 82 79 83 82 84 76 85 77 86 80 87
REMARK SMILES IDX 78 88 57 89 58 90 66 91 59 92 60 93 64 94 67 95 61 96 62 97
REMARK SMILES IDX 65 98 63 99
REMARK H PARENT 23 6 10 12 28 33 87 52 55 63
REMARK Flexibility Score: inf
ROOT
ATOM      1  C   UNL A   1      32.172  27.712  26.823  1.00  0.00     0.023 C 
ENDROOT
BRANCH   1   2
ATOM      2  C   UNL A   1      31.099  26.923  26.030  1.00  0.00     0.116 C 
BRANCH   2   3
ATOM      3  N   UNL A   1      31.278  25.489  25.864  1.00  0.00    -0.356 N 
ATOM      4  C   UNL A   1      30.935  24.629  24.856  1.00  0.00     0.224 C 
ATOM      5  O   UNL A   1      31.314  23.459  24.953  1.00  0.00    -0.275 OA
ATOM      6  H   UNL A   1      31.731  25.053  26.621  1.00  0.00     0.163 HD
BRANCH   4   7
ATOM      7  C   UNL A   1      30.164  25.081  23.638  1.00  0.00     0.138 C 
BRANCH   7   8
ATOM      8  C   UNL A   1      30.695  26.316  22.986  1.00  0.00    -0.002 A 
ATOM      9  C   UNL A   1      31.914  26.514  22.337  1.00  0.00     0.093 A 
ATOM     10  N   UNL A   1      31.973  27.868  22.041  1.00  0.00    -0.351 N 
ATOM     11  C   UNL A   1      30.778  28.496  22.316  1.00  0.00     0.048 A 
ATOM     12  H   UNL A   1      32.769  28.322  21.680  1.00  0.00     0.167 HD
ATOM     13  C   UNL A   1      29.978  27.563  22.964  1.00  0.00     0.007 A 
ATOM     14  C   UNL A   1      30.343  29.809  22.063  1.00  0.00     0.050 A 
ATOM     15  C   UNL A   1      28.692  27.957  23.402  1.00  0.00     0.051 A 
ATOM     16  C   UNL A   1      29.040  30.152  22.452  1.00  0.00     0.078 A 
ATOM     17  C   UNL A   1      28.227  29.235  23.105  1.00  0.00     0.142 A 
ATOM     18  Cl  UNL A   1      28.444  31.732  22.102  1.00  0.00    -0.081 Cl
ATOM     19  F   UNL A   1      26.965  29.544  23.439  1.00  0.00    -0.205 F 
BRANCH   9  20
ATOM     20  C   UNL A   1      33.077  25.638  22.093  1.00  0.00     0.227 C 
ATOM     21  O   UNL A   1      33.365  25.337  20.948  1.00  0.00    -0.285 OA
BRANCH  20  22
ATOM     22  C   UNL A   1      33.882  25.036  23.244  1.00  0.00     0.113 A 
ATOM     23  C   UNL A   1      35.217  21.710  24.568  1.00  0.00     0.044 C 
ATOM     24  C   UNL A   1      34.927  23.173  24.394  1.00  0.00    -0.047 A 
ATOM     25  C   UNL A   1      35.153  24.013  25.473  1.00  0.00     0.023 A 
ATOM     26  C   UNL A   1      34.364  23.731  23.236  1.00  0.00     0.036 A 
ATOM     27  C   UNL A   1      34.753  25.334  25.371  1.00  0.00     0.112 A 
ATOM     28  N   UNL A   1      34.111  25.858  24.299  1.00  0.00    -0.253 NA
ENDBRANCH  20  22
ENDBRANCH   9  20
ENDBRANCH   7   8
ENDBRANCH   4   7
ENDBRANCH   2   3
ENDBRANCH   1   2
BRANCH   1  29
ATOM     29  C   UNL A   1      32.761  28.998  26.205  1.00  0.00     0.023 C 
BRANCH  29  30
ATOM     30  C   UNL A   1      34.182  29.299  26.647  1.00  0.00     0.116 C 
BRANCH  30  31
ATOM     31  N   UNL A   1      34.312  30.676  27.032  1.00  0.00    -0.352 N 
ATOM     32  C   UNL A   1      35.298  31.417  27.601  1.00  0.00     0.251 C 
ATOM     33  H   UNL A   1      33.502  31.202  26.840  1.00  0.00     0.163 HD
ATOM     34  O   UNL A   1      35.097  32.626  27.645  1.00  0.00    -0.269 OA
BRANCH  32  35
ATOM     35  C   UNL A   1      36.460  30.855  28.328  1.00  0.00     0.039 A 
ATOM     36  C   UNL A   1      37.354  31.457  29.210  1.00  0.00     0.014 A 
ATOM     37  C   UNL A   1      36.752  29.558  27.908  1.00  0.00     0.014 A 
ATOM     38  C   UNL A   1      38.661  30.919  29.275  1.00  0.00     0.010 A 
ATOM     39  C   UNL A   1      37.867  28.922  28.383  1.00  0.00     0.010 A 
ATOM     40  C   UNL A   1      38.974  29.713  28.585  1.00  0.00    -0.014 A 
BRANCH  40  41
ATOM     41  C   UNL A   1      40.248  28.914  28.698  1.00  0.00     0.031 A 
ATOM     42  C   UNL A   1      40.358  28.679  30.232  1.00  0.00     0.074 A 
ATOM     43  C   UNL A   1      41.058  28.436  27.639  1.00  0.00     0.049 A 
ATOM     44  N   UNL A   1      41.110  29.386  31.017  1.00  0.00    -0.248 NA
ATOM     45  C   UNL A   1      39.325  27.973  31.072  1.00  0.00     0.031 C 
ATOM     46  C   UNL A   1      40.991  28.568  26.133  1.00  0.00     0.029 A 
ATOM     47  N   UNL A   1      42.275  27.706  27.674  1.00  0.00    -0.354 N 
ATOM     48  C   UNL A   1      40.984  28.844  32.298  1.00  0.00     0.074 A 
ATOM     49  C   UNL A   1      39.720  28.198  32.332  1.00  0.00     0.031 C 
ATOM     50  C   UNL A   1      41.851  27.711  25.483  1.00  0.00     0.029 A 
ATOM     51  C   UNL A   1      42.690  27.020  26.447  1.00  0.00     0.049 A 
ATOM     52  H   UNL A   1      42.821  27.661  28.492  1.00  0.00     0.167 HD
ATOM     53  C   UNL A   1      42.117  28.646  33.025  1.00  0.00     0.037 A 
ATOM     54  C   UNL A   1      43.814  26.207  26.224  1.00  0.00     0.037 A 
ATOM     55  C   UNL A   1      43.167  29.441  32.433  1.00  0.00     0.049 A 
ATOM     56  C   UNL A   1      44.699  26.448  27.389  1.00  0.00     0.074 A 
ATOM     57  C   UNL A   1      43.376  30.794  32.279  1.00  0.00     0.029 A 
ATOM     58  N   UNL A   1      43.729  28.820  31.351  1.00  0.00    -0.354 N 
ATOM     59  N   UNL A   1      45.282  27.600  27.562  1.00  0.00    -0.248 NA
ATOM     60  C   UNL A   1      44.334  25.680  28.571  1.00  0.00     0.031 C 
ATOM     61  C   UNL A   1      43.873  30.965  30.952  1.00  0.00     0.029 A 
ATOM     62  C   UNL A   1      44.158  29.715  30.418  1.00  0.00     0.049 A 
ATOM     63  H   UNL A   1      43.813  27.843  31.258  1.00  0.00     0.167 HD
ATOM     64  C   UNL A   1      44.887  27.954  28.837  1.00  0.00     0.074 A 
ATOM     65  C   UNL A   1      44.301  26.719  29.414  1.00  0.00     0.031 C 
ATOM     66  C   UNL A   1      44.704  29.270  29.167  1.00  0.00     0.037 A 
BRANCH  53  67
ATOM     67  C   UNL A   1      42.434  27.409  33.840  1.00  0.00     0.064 A 
ATOM     68  C   UNL A   1      42.060  27.395  35.198  1.00  0.00     0.173 A 
ATOM     69  C   UNL A   1      43.307  26.370  33.445  1.00  0.00     0.173 A 
ATOM     70  F   UNL A   1      41.281  28.369  35.695  1.00  0.00    -0.203 F 
ATOM     71  C   UNL A   1      42.519  26.423  36.092  1.00  0.00     0.198 A 
ATOM     72  C   UNL A   1      43.733  25.373  34.331  1.00  0.00     0.198 A 
ATOM     73  F   UNL A   1      43.854  26.330  32.223  1.00  0.00    -0.203 F 
ATOM     74  F   UNL A   1      42.183  26.498  37.386  1.00  0.00    -0.200 F 
ATOM     75  C   UNL A   1      43.347  25.406  35.655  1.00  0.00     0.200 A 
ATOM     76  F   UNL A   1      44.563  24.411  33.901  1.00  0.00    -0.200 F 
ATOM     77  F   UNL A   1      43.794  24.479  36.513  1.00  0.00    -0.200 F 
ENDBRANCH  53  67
BRANCH  54  78
ATOM     78  C   UNL A   1      44.046  24.884  25.466  1.00  0.00     0.064 A 
ATOM     79  C   UNL A   1      45.294  24.403  24.941  1.00  0.00     0.173 A 
ATOM     80  C   UNL A   1      43.071  23.892  25.609  1.00  0.00     0.173 A 
ATOM     81  F   UNL A   1      46.336  25.231  24.765  1.00  0.00    -0.203 F 
ATOM     82  C   UNL A   1      45.522  23.032  24.638  1.00  0.00     0.198 A 
ATOM     83  C   UNL A   1      43.308  22.534  25.338  1.00  0.00     0.198 A 
ATOM     84  F   UNL A   1      41.881  24.216  26.126  1.00  0.00    -0.203 F 
ATOM     85  F   UNL A   1      46.715  22.608  24.182  1.00  0.00    -0.200 F 
ATOM     86  C   UNL A   1      44.532  22.096  24.868  1.00  0.00     0.200 A 
ATOM     87  F   UNL A   1      42.348  21.639  25.608  1.00  0.00    -0.200 F 
ATOM     88  F   UNL A   1      44.758  20.786  24.681  1.00  0.00    -0.200 F 
ENDBRANCH  54  78
BRANCH  66  89
ATOM     89  C   UNL A   1      45.132  30.351  28.204  1.00  0.00     0.064 A 
ATOM     90  C   UNL A   1      44.313  31.035  27.283  1.00  0.00     0.173 A 
ATOM     91  C   UNL A   1      46.424  30.848  28.387  1.00  0.00     0.173 A 
ATOM     92  F   UNL A   1      43.014  30.738  27.160  1.00  0.00    -0.203 F 
ATOM     93  C   UNL A   1      44.801  32.110  26.530  1.00  0.00     0.198 A 
ATOM     94  C   UNL A   1      46.894  31.946  27.675  1.00  0.00     0.198 A 
ATOM     95  F   UNL A   1      47.210  30.314  29.334  1.00  0.00    -0.203 F 
ATOM     96  F   UNL A   1      44.007  32.746  25.654  1.00  0.00    -0.200 F 
ATOM     97  C   UNL A   1      46.096  32.561  26.727  1.00  0.00     0.200 A 
ATOM     98  F   UNL A   1      48.110  32.433  27.948  1.00  0.00    -0.200 F 
ATOM     99  F   UNL A   1      46.563  33.609  26.034  1.00  0.00    -0.200 F 
ENDBRANCH  66  89
ENDBRANCH  40  41
ENDBRANCH  32  35
ENDBRANCH  30  31
ENDBRANCH  29  30
ENDBRANCH   1  29
TORSDOF 14
ENDMDL
MODEL 3
REMARK VINA RESULT:     -14.3      3.898      9.402
REMARK SMILES Cc1ccnc(C(=O)c2[nH]c3cc(Cl)c(F)cc3c2CC(=O)NCCCCNC(=O)c2ccc(-c3c4nc(c(-c5c(F)c(F)c(F)c(F)c5F)c5ccc([nH]5)c(-c5c(F)c(F)c(F)c(F)c5F)c5nc(c(-c6c(F)c(F)c(F)c(F)c6F)c6ccc3[nH]6)C=C5)C=C4)cc2)c1
REMARK SMILES IDX 25 1 24 2 23 3 21 4 22 5 20 7 19 8 9 9 10 10 11 11 18 13
REMARK SMILES IDX 12 14 17 15 13 16 15 17 14 18 16 19 7 20 8 21 6 22 1 23 2 24
REMARK SMILES IDX 3 25 94 26 4 27 5 28 26 29 27 30 28 31 29 32 30 34 31 35
REMARK SMILES IDX 32 36 93 37 33 38 92 39 34 40 35 41 36 42 86 43 37 44 91 45
REMARK SMILES IDX 85 46 87 47 38 48 90 49 84 50 83 51 39 53 71 54 51 55 70 56
REMARK SMILES IDX 52 57 55 58 69 59 88 60 53 61 54 62 68 64 89 65 56 66 40 67
REMARK SMILES IDX 41 68 49 69 42 70 43 71 47 72 50 73 44 74 45 75 48 76 46 77
REMARK SMILES IDX 72 78 73 79 81 80 74 81 75 82 79 83 82 84 76 85 77 86 80 87
REMARK SMILES IDX 78 88 57 89 58 90 66 91 59 92 60 93 64 94 67 95 61 96 62 97
REMARK SMILES IDX 65 98 63 99
REMARK H PARENT 23 6 10 12 28 33 87 52 55 63
REMARK Flexibility Score: inf
ROOT
ATOM      1  C   UNL A   1      35.014  23.785  25.904  1.00  0.00     0.023 C 
ENDROOT
BRANCH   1   2
ATOM      2  C   UNL A   1      34.240  24.721  24.941  1.00  0.00     0.116 C 
BRANCH   2   3
ATOM      3  N   UNL A   1      32.795  24.813  25.077  1.00  0.00    -0.356 N 
ATOM      4  C   UNL A   1      31.877  25.693  24.571  1.00  0.00     0.224 C 
ATOM      5  O   UNL A   1      30.686  25.455  24.781  1.00  0.00    -0.275 OA
ATOM      6  H   UNL A   1      32.402  24.109  25.642  1.00  0.00     0.163 HD
BRANCH   4   7
ATOM      7  C   UNL A   1      32.279  26.891  23.744  1.00  0.00     0.138 C 
BRANCH   7   8
ATOM      8  C   UNL A   1      31.846  28.209  24.302  1.00  0.00    -0.002 A 
ATOM      9  C   UNL A   1      32.333  28.897  25.412  1.00  0.00     0.093 A 
ATOM     10  N   UNL A   1      31.498  29.992  25.579  1.00  0.00    -0.351 N 
ATOM     11  C   UNL A   1      30.618  30.119  24.526  1.00  0.00     0.048 A 
ATOM     12  H   UNL A   1      31.529  30.601  26.353  1.00  0.00     0.167 HD
ATOM     13  C   UNL A   1      30.771  28.984  23.741  1.00  0.00     0.007 A 
ATOM     14  C   UNL A   1      29.691  31.128  24.212  1.00  0.00     0.050 A 
ATOM     15  C   UNL A   1      29.952  28.831  22.598  1.00  0.00     0.051 A 
ATOM     16  C   UNL A   1      28.937  30.980  23.039  1.00  0.00     0.078 A 
ATOM     17  C   UNL A   1      29.073  29.851  22.243  1.00  0.00     0.142 A 
ATOM     18  Cl  UNL A   1      27.836  32.226  22.582  1.00  0.00    -0.081 Cl
ATOM     19  F   UNL A   1      28.387  29.725  21.096  1.00  0.00    -0.205 F 
BRANCH   9  20
ATOM     20  C   UNL A   1      33.376  28.587  26.410  1.00  0.00     0.227 C 
ATOM     21  O   UNL A   1      33.464  27.452  26.845  1.00  0.00    -0.285 OA
BRANCH  20  22
ATOM     22  C   UNL A   1      34.297  29.670  26.969  1.00  0.00     0.113 A 
ATOM     23  C   UNL A   1      37.816  30.206  28.360  1.00  0.00     0.044 C 
ATOM     24  C   UNL A   1      36.420  30.439  27.859  1.00  0.00    -0.047 A 
ATOM     25  C   UNL A   1      35.810  31.644  28.170  1.00  0.00     0.023 A 
ATOM     26  C   UNL A   1      35.662  29.482  27.167  1.00  0.00     0.036 A 
ATOM     27  C   UNL A   1      34.477  31.810  27.839  1.00  0.00     0.112 A 
ATOM     28  N   UNL A   1      33.706  30.854  27.268  1.00  0.00    -0.253 NA
ENDBRANCH  20  22
ENDBRANCH   9  20
ENDBRANCH   7   8
ENDBRANCH   4   7
ENDBRANCH   2   3
ENDBRANCH   1   2
BRANCH   1  29
ATOM     29  C   UNL A   1      36.239  23.014  25.371  1.00  0.00     0.023 C 
BRANCH  29  30
ATOM     30  C   UNL A   1      37.554  23.755  25.538  1.00  0.00     0.116 C 
BRANCH  30  31
ATOM     31  N   UNL A   1      38.545  22.903  26.132  1.00  0.00    -0.352 N 
ATOM     32  C   UNL A   1      39.541  23.086  27.038  1.00  0.00     0.251 C 
ATOM     33  H   UNL A   1      38.490  21.974  25.809  1.00  0.00     0.163 HD
ATOM     34  O   UNL A   1      40.103  22.068  27.424  1.00  0.00    -0.269 OA
BRANCH  32  35
ATOM     35  C   UNL A   1      40.102  24.404  27.414  1.00  0.00     0.039 A 
ATOM     36  C   UNL A   1      41.406  24.775  27.732  1.00  0.00     0.014 A 
ATOM     37  C   UNL A   1      39.100  25.352  27.616  1.00  0.00     0.014 A 
ATOM     38  C   UNL A   1      41.571  25.871  28.612  1.00  0.00     0.010 A 
ATOM     39  C   UNL A   1      39.423  26.596  28.086  1.00  0.00     0.010 A 
ATOM     40  C   UNL A   1      40.445  26.649  29.007  1.00  0.00    -0.014 A 
BRANCH  40  41
ATOM     41  C   UNL A   1      40.468  27.944  29.778  1.00  0.00     0.031 A 
ATOM     42  C   UNL A   1      41.561  28.758  29.027  1.00  0.00     0.074 A 
ATOM     43  C   UNL A   1      39.622  28.321  30.850  1.00  0.00     0.049 A 
ATOM     44  N   UNL A   1      42.787  28.864  29.434  1.00  0.00    -0.248 NA
ATOM     45  C   UNL A   1      41.512  29.121  27.566  1.00  0.00     0.031 C 
ATOM     46  C   UNL A   1      38.507  27.620  31.594  1.00  0.00     0.029 A 
ATOM     47  N   UNL A   1      39.607  29.506  31.633  1.00  0.00    -0.354 N 
ATOM     48  C   UNL A   1      43.442  29.710  28.536  1.00  0.00     0.074 A 
ATOM     49  C   UNL A   1      42.733  29.611  27.310  1.00  0.00     0.031 C 
ATOM     50  C   UNL A   1      37.782  28.472  32.398  1.00  0.00     0.029 A 
ATOM     51  C   UNL A   1      38.397  29.788  32.410  1.00  0.00     0.049 A 
ATOM     52  H   UNL A   1      40.380  30.114  31.652  1.00  0.00     0.167 HD
ATOM     53  C   UNL A   1      44.235  30.693  29.041  1.00  0.00     0.037 A 
ATOM     54  C   UNL A   1      38.108  30.896  33.226  1.00  0.00     0.037 A 
ATOM     55  C   UNL A   1      44.530  30.361  30.415  1.00  0.00     0.049 A 
ATOM     56  C   UNL A   1      39.409  31.576  33.424  1.00  0.00     0.074 A 
ATOM     57  C   UNL A   1      45.225  29.341  31.029  1.00  0.00     0.029 A 
ATOM     58  N   UNL A   1      43.513  30.720  31.258  1.00  0.00    -0.354 N 
ATOM     59  N   UNL A   1      40.358  31.021  34.123  1.00  0.00    -0.248 NA
ATOM     60  C   UNL A   1      39.792  32.445  32.319  1.00  0.00     0.031 C 
ATOM     61  C   UNL A   1      44.439  28.953  32.154  1.00  0.00     0.029 A 
ATOM     62  C   UNL A   1      43.414  29.876  32.322  1.00  0.00     0.049 A 
ATOM     63  H   UNL A   1      42.923  31.494  31.111  1.00  0.00     0.167 HD
ATOM     64  C   UNL A   1      41.426  31.027  33.248  1.00  0.00     0.074 A 
ATOM     65  C   UNL A   1      41.013  31.927  32.144  1.00  0.00     0.031 C 
ATOM     66  C   UNL A   1      42.359  30.025  33.285  1.00  0.00     0.037 A 
BRANCH  53  67
ATOM     67  C   UNL A   1      44.274  32.127  28.555  1.00  0.00     0.064 A 
ATOM     68  C   UNL A   1      45.483  32.613  28.017  1.00  0.00     0.173 A 
ATOM     69  C   UNL A   1      43.299  33.113  28.832  1.00  0.00     0.173 A 
ATOM     70  F   UNL A   1      46.500  31.772  27.772  1.00  0.00    -0.203 F 
ATOM     71  C   UNL A   1      45.702  33.972  27.774  1.00  0.00     0.198 A 
ATOM     72  C   UNL A   1      43.504  34.469  28.549  1.00  0.00     0.198 A 
ATOM     73  F   UNL A   1      42.157  32.821  29.468  1.00  0.00    -0.203 F 
ATOM     74  F   UNL A   1      46.894  34.383  27.322  1.00  0.00    -0.200 F 
ATOM     75  C   UNL A   1      44.708  34.898  28.029  1.00  0.00     0.200 A 
ATOM     76  F   UNL A   1      42.543  35.361  28.833  1.00  0.00    -0.200 F 
ATOM     77  F   UNL A   1      44.920  36.202  27.804  1.00  0.00    -0.200 F 
ENDBRANCH  53  67
BRANCH  54  78
ATOM     78  C   UNL A   1      36.853  31.766  33.445  1.00  0.00     0.064 A 
ATOM     79  C   UNL A   1      36.665  32.758  34.466  1.00  0.00     0.173 A 
ATOM     80  C   UNL A   1      35.969  31.885  32.368  1.00  0.00     0.173 A 
ATOM     81  F   UNL A   1      37.451  32.789  35.554  1.00  0.00    -0.203 F 
ATOM     82  C   UNL A   1      35.692  33.791  34.363  1.00  0.00     0.198 A 
ATOM     83  C   UNL A   1      35.030  32.924  32.253  1.00  0.00     0.198 A 
ATOM     84  F   UNL A   1      36.076  31.039  31.338  1.00  0.00    -0.203 F 
ATOM     85  F   UNL A   1      35.566  34.728  35.321  1.00  0.00    -0.200 F 
ATOM     86  C   UNL A   1      34.897  33.887  33.237  1.00  0.00     0.200 A 
ATOM     87  F   UNL A   1      34.297  33.020  31.135  1.00  0.00    -0.200 F 
ATOM     88  F   UNL A   1      34.040  34.908  33.075  1.00  0.00    -0.200 F 
ENDBRANCH  54  78
BRANCH  66  89
ATOM     89  C   UNL A   1      42.340  29.024  34.414  1.00  0.00     0.064 A 
ATOM     90  C   UNL A   1      41.740  27.748  34.402  1.00  0.00     0.173 A 
ATOM     91  C   UNL A   1      43.164  29.321  35.501  1.00  0.00     0.173 A 
ATOM     92  F   UNL A   1      41.070  27.309  33.331  1.00  0.00    -0.203 F 
ATOM     93  C   UNL A   1      41.900  26.857  35.471  1.00  0.00     0.198 A 
ATOM     94  C   UNL A   1      43.362  28.418  36.540  1.00  0.00     0.198 A 
ATOM     95  F   UNL A   1      43.856  30.471  35.511  1.00  0.00    -0.203 F 
ATOM     96  F   UNL A   1      41.316  25.648  35.443  1.00  0.00    -0.200 F 
ATOM     97  C   UNL A   1      42.710  27.198  36.541  1.00  0.00     0.200 A 
ATOM     98  F   UNL A   1      44.226  28.719  37.515  1.00  0.00    -0.200 F 
ATOM     99  F   UNL A   1      42.894  26.339  37.554  1.00  0.00    -0.200 F 
ENDBRANCH  66  89
ENDBRANCH  40  41
ENDBRANCH  32  35
ENDBRANCH  30  31
ENDBRANCH  29  30
ENDBRANCH   1  29
TORSDOF 14
ENDMDL
