MODEL 1
REMARK VINA RESULT:     -11.8      0.000      0.000
REMARK SMILES CCCC[C@@H](C(=O)NCCCCNC(=O)c1ccc(-c2c3nc(c(-c4c(F)c(F)c(F)c(F)c4F)c4ccc([nH]4)c(-c4c(F)c(F)c(F)c(F)c4F)c4nc(c(-c5c(F)c(F)c(F)c(F)c5F)c5ccc2[nH]5)C=C4)C=C3)cc1)C1(O)Cc2ccccc2C1
REMARK SMILES IDX 10 1 9 2 8 3 6 4 7 5 5 7 4 8 3 9 2 10 1 11 79 12 81 13 88 14
REMARK SMILES IDX 82 15 87 16 83 17 86 18 84 19 85 20 80 21 11 23 12 24 13 25
REMARK SMILES IDX 14 26 15 28 16 29 17 30 78 31 18 32 77 33 19 34 20 35 21 36
REMARK SMILES IDX 71 37 22 38 76 39 70 40 72 41 23 42 75 43 69 44 68 45 24 47
REMARK SMILES IDX 56 48 36 49 55 50 37 51 40 52 54 53 73 54 38 55 39 56 53 58
REMARK SMILES IDX 74 59 41 60 25 61 26 62 34 63 27 64 28 65 32 66 35 67 29 68
REMARK SMILES IDX 30 69 33 70 31 71 57 72 58 73 66 74 59 75 60 76 64 77 67 78
REMARK SMILES IDX 61 79 62 80 65 81 63 82 42 83 43 84 51 85 44 86 45 87 49 88
REMARK SMILES IDX 52 89 46 90 47 91 50 92 48 93
REMARK H PARENT 8 6 80 22 13 27 72 46 40 57
REMARK Flexibility Score: inf
ROOT
ATOM      1  C   UNL A   1      32.113  30.457  26.736  1.00  0.00     0.023 C 
ENDROOT
BRANCH   1   2
ATOM      2  C   UNL A   1      32.127  29.975  25.291  1.00  0.00     0.116 C 
BRANCH   2   3
ATOM      3  N   UNL A   1      33.400  29.385  24.937  1.00  0.00    -0.356 N 
ATOM      4  C   UNL A   1      33.462  28.509  23.893  1.00  0.00     0.226 C 
ATOM      5  O   UNL A   1      33.826  28.966  22.808  1.00  0.00    -0.275 OA
ATOM      6  H   UNL A   1      34.213  29.614  25.442  1.00  0.00     0.163 HD
BRANCH   4   7
ATOM      7  C   UNL A   1      33.041  27.033  24.061  1.00  0.00     0.111 C 
BRANCH   7   8
ATOM      8  C   UNL A   1      33.986  25.918  23.525  1.00  0.00     0.016 C 
BRANCH   8   9
ATOM      9  C   UNL A   1      34.473  24.729  24.360  1.00  0.00     0.001 C 
BRANCH   9  10
ATOM     10  C   UNL A   1      34.186  24.715  25.853  1.00  0.00    -0.003 C 
ATOM     11  C   UNL A   1      34.426  23.351  26.470  1.00  0.00     0.004 C 
ENDBRANCH   9  10
ENDBRANCH   8   9
ENDBRANCH   7   8
BRANCH   7  12
ATOM     12  C   UNL A   1      31.570  26.770  23.476  1.00  0.00     0.084 C 
ATOM     13  C   UNL A   1      30.453  26.770  24.567  1.00  0.00     0.072 C 
ATOM     14  C   UNL A   1      31.292  25.398  22.772  1.00  0.00     0.072 C 
ATOM     15  C   UNL A   1      30.531  25.350  25.023  1.00  0.00    -0.042 A 
ATOM     16  C   UNL A   1      30.947  24.541  23.959  1.00  0.00    -0.042 A 
ATOM     17  C   UNL A   1      30.328  24.835  26.288  1.00  0.00     0.004 A 
ATOM     18  C   UNL A   1      31.093  23.177  24.120  1.00  0.00     0.004 A 
ATOM     19  C   UNL A   1      30.531  23.467  26.475  1.00  0.00     0.000 A 
ATOM     20  C   UNL A   1      30.890  22.642  25.395  1.00  0.00     0.000 A 
BRANCH  12  21
ATOM     21  O   UNL A   1      31.286  27.827  22.540  1.00  0.00    -0.388 OA
ATOM     22  H   UNL A   1      31.742  28.637  22.818  1.00  0.00     0.211 HD
ENDBRANCH  12  21
ENDBRANCH   7  12
ENDBRANCH   4   7
ENDBRANCH   2   3
ENDBRANCH   1   2
BRANCH   1  23
ATOM     23  C   UNL A   1      31.725  31.917  26.910  1.00  0.00     0.023 C 
BRANCH  23  24
ATOM     24  C   UNL A   1      32.852  32.816  27.398  1.00  0.00     0.116 C 
BRANCH  24  25
ATOM     25  N   UNL A   1      32.438  34.180  27.702  1.00  0.00    -0.352 N 
ATOM     26  C   UNL A   1      32.981  35.042  28.632  1.00  0.00     0.251 C 
ATOM     27  H   UNL A   1      31.680  34.529  27.181  1.00  0.00     0.163 HD
ATOM     28  O   UNL A   1      32.497  36.137  28.847  1.00  0.00    -0.269 OA
BRANCH  26  29
ATOM     29  C   UNL A   1      34.148  34.567  29.400  1.00  0.00     0.039 A 
ATOM     30  C   UNL A   1      33.935  33.935  30.626  1.00  0.00     0.014 A 
ATOM     31  C   UNL A   1      35.422  34.629  28.833  1.00  0.00     0.014 A 
ATOM     32  C   UNL A   1      35.000  33.285  31.248  1.00  0.00     0.010 A 
ATOM     33  C   UNL A   1      36.455  33.904  29.406  1.00  0.00     0.010 A 
ATOM     34  C   UNL A   1      36.255  33.223  30.618  1.00  0.00    -0.014 A 
BRANCH  34  35
ATOM     35  C   UNL A   1      37.378  32.455  31.207  1.00  0.00     0.031 A 
ATOM     36  C   UNL A   1      37.882  32.811  32.576  1.00  0.00     0.074 A 
ATOM     37  C   UNL A   1      37.992  31.501  30.481  1.00  0.00     0.049 A 
ATOM     38  N   UNL A   1      38.901  32.325  33.236  1.00  0.00    -0.248 NA
ATOM     39  C   UNL A   1      37.167  33.887  33.283  1.00  0.00     0.031 C 
ATOM     40  C   UNL A   1      37.635  31.113  29.115  1.00  0.00     0.029 A 
ATOM     41  N   UNL A   1      39.055  30.690  30.788  1.00  0.00    -0.354 N 
ATOM     42  C   UNL A   1      38.962  33.049  34.418  1.00  0.00     0.074 A 
ATOM     43  C   UNL A   1      37.918  34.048  34.360  1.00  0.00     0.031 C 
ATOM     44  C   UNL A   1      38.446  30.121  28.713  1.00  0.00     0.029 A 
ATOM     45  C   UNL A   1      39.399  29.826  29.777  1.00  0.00     0.049 A 
ATOM     46  H   UNL A   1      39.527  30.724  31.652  1.00  0.00     0.167 HD
ATOM     47  C   UNL A   1      39.792  32.875  35.473  1.00  0.00     0.037 A 
ATOM     48  C   UNL A   1      40.377  28.901  29.721  1.00  0.00     0.037 A 
ATOM     49  C   UNL A   1      40.801  31.853  35.541  1.00  0.00     0.049 A 
ATOM     50  C   UNL A   1      41.273  28.711  30.915  1.00  0.00     0.074 A 
ATOM     51  C   UNL A   1      41.646  31.542  36.590  1.00  0.00     0.029 A 
ATOM     52  N   UNL A   1      41.097  30.969  34.512  1.00  0.00    -0.354 N 
ATOM     53  N   UNL A   1      41.271  29.348  32.060  1.00  0.00    -0.248 NA
ATOM     54  C   UNL A   1      42.302  27.666  30.812  1.00  0.00     0.031 C 
ATOM     55  C   UNL A   1      42.481  30.497  36.183  1.00  0.00     0.029 A 
ATOM     56  C   UNL A   1      42.124  30.124  34.896  1.00  0.00     0.049 A 
ATOM     57  H   UNL A   1      40.643  30.947  33.639  1.00  0.00     0.167 HD
ATOM     58  C   UNL A   1      42.274  28.767  32.823  1.00  0.00     0.074 A 
ATOM     59  C   UNL A   1      42.855  27.714  32.015  1.00  0.00     0.031 C 
ATOM     60  C   UNL A   1      42.680  29.076  34.079  1.00  0.00     0.037 A 
BRANCH  47  61
ATOM     61  C   UNL A   1      39.632  33.805  36.639  1.00  0.00     0.064 A 
ATOM     62  C   UNL A   1      40.251  35.064  36.666  1.00  0.00     0.173 A 
ATOM     63  C   UNL A   1      38.833  33.443  37.735  1.00  0.00     0.173 A 
ATOM     64  F   UNL A   1      41.037  35.452  35.650  1.00  0.00    -0.203 F 
ATOM     65  C   UNL A   1      40.107  35.911  37.762  1.00  0.00     0.198 A 
ATOM     66  C   UNL A   1      38.665  34.307  38.814  1.00  0.00     0.198 A 
ATOM     67  F   UNL A   1      38.215  32.253  37.759  1.00  0.00    -0.203 F 
ATOM     68  F   UNL A   1      40.756  37.084  37.789  1.00  0.00    -0.200 F 
ATOM     69  C   UNL A   1      39.309  35.535  38.831  1.00  0.00     0.200 A 
ATOM     70  F   UNL A   1      37.885  33.947  39.842  1.00  0.00    -0.200 F 
ATOM     71  F   UNL A   1      39.168  36.354  39.883  1.00  0.00    -0.200 F 
ENDBRANCH  47  61
BRANCH  48  72
ATOM     72  C   UNL A   1      40.535  28.060  28.506  1.00  0.00     0.064 A 
ATOM     73  C   UNL A   1      41.308  28.503  27.422  1.00  0.00     0.173 A 
ATOM     74  C   UNL A   1      39.921  26.804  28.397  1.00  0.00     0.173 A 
ATOM     75  F   UNL A   1      41.900  29.705  27.471  1.00  0.00    -0.203 F 
ATOM     76  C   UNL A   1      41.444  27.730  26.270  1.00  0.00     0.198 A 
ATOM     77  C   UNL A   1      40.080  26.021  27.255  1.00  0.00     0.198 A 
ATOM     78  F   UNL A   1      39.177  26.331  29.407  1.00  0.00    -0.203 F 
ATOM     79  F   UNL A   1      42.153  28.197  25.233  1.00  0.00    -0.200 F 
ATOM     80  C   UNL A   1      40.834  26.488  26.190  1.00  0.00     0.200 A 
ATOM     81  F   UNL A   1      39.501  24.815  27.187  1.00  0.00    -0.200 F 
ATOM     82  F   UNL A   1      40.968  25.744  25.083  1.00  0.00    -0.200 F 
ENDBRANCH  48  72
BRANCH  60  83
ATOM     83  C   UNL A   1      43.781  28.246  34.669  1.00  0.00     0.064 A 
ATOM     84  C   UNL A   1      43.515  27.048  35.347  1.00  0.00     0.173 A 
ATOM     85  C   UNL A   1      45.120  28.631  34.512  1.00  0.00     0.173 A 
ATOM     86  F   UNL A   1      42.249  26.646  35.536  1.00  0.00    -0.203 F 
ATOM     87  C   UNL A   1      44.550  26.278  35.867  1.00  0.00     0.198 A 
ATOM     88  C   UNL A   1      46.155  27.843  35.008  1.00  0.00     0.198 A 
ATOM     89  F   UNL A   1      45.427  29.766  33.865  1.00  0.00    -0.203 F 
ATOM     90  F   UNL A   1      44.272  25.158  36.551  1.00  0.00    -0.200 F 
ATOM     91  C   UNL A   1      45.868  26.671  35.691  1.00  0.00     0.200 A 
ATOM     92  F   UNL A   1      47.428  28.218  34.825  1.00  0.00    -0.200 F 
ATOM     93  F   UNL A   1      46.864  25.923  36.184  1.00  0.00    -0.200 F 
ENDBRANCH  60  83
ENDBRANCH  34  35
ENDBRANCH  26  29
ENDBRANCH  24  25
ENDBRANCH  23  24
ENDBRANCH   1  23
TORSDOF 16
ENDMDL
MODEL 2
REMARK VINA RESULT:     -11.7      1.177      2.641
REMARK SMILES CCCC[C@@H](C(=O)NCCCCNC(=O)c1ccc(-c2c3nc(c(-c4c(F)c(F)c(F)c(F)c4F)c4ccc([nH]4)c(-c4c(F)c(F)c(F)c(F)c4F)c4nc(c(-c5c(F)c(F)c(F)c(F)c5F)c5ccc2[nH]5)C=C4)C=C3)cc1)C1(O)Cc2ccccc2C1
REMARK SMILES IDX 10 1 9 2 8 3 6 4 7 5 5 7 4 8 3 9 2 10 1 11 79 12 81 13 88 14
REMARK SMILES IDX 82 15 87 16 83 17 86 18 84 19 85 20 80 21 11 23 12 24 13 25
REMARK SMILES IDX 14 26 15 28 16 29 17 30 78 31 18 32 77 33 19 34 20 35 21 36
REMARK SMILES IDX 71 37 22 38 76 39 70 40 72 41 23 42 75 43 69 44 68 45 24 47
REMARK SMILES IDX 56 48 36 49 55 50 37 51 40 52 54 53 73 54 38 55 39 56 53 58
REMARK SMILES IDX 74 59 41 60 25 61 26 62 34 63 27 64 28 65 32 66 35 67 29 68
REMARK SMILES IDX 30 69 33 70 31 71 57 72 58 73 66 74 59 75 60 76 64 77 67 78
REMARK SMILES IDX 61 79 62 80 65 81 63 82 42 83 43 84 51 85 44 86 45 87 49 88
REMARK SMILES IDX 52 89 46 90 47 91 50 92 48 93
REMARK H PARENT 8 6 80 22 13 27 72 46 40 57
REMARK Flexibility Score: inf
ROOT
ATOM      1  C   UNL A   1      31.637  30.526  27.038  1.00  0.00     0.023 C 
ENDROOT
BRANCH   1   2
ATOM      2  C   UNL A   1      32.897  29.670  27.052  1.00  0.00     0.116 C 
BRANCH   2   3
ATOM      3  N   UNL A   1      32.596  28.281  27.321  1.00  0.00    -0.356 N 
ATOM      4  C   UNL A   1      32.451  27.415  26.276  1.00  0.00     0.226 C 
ATOM      5  O   UNL A   1      33.433  26.730  25.985  1.00  0.00    -0.275 OA
ATOM      6  H   UNL A   1      32.498  27.962  28.247  1.00  0.00     0.163 HD
BRANCH   4   7
ATOM      7  C   UNL A   1      31.135  27.347  25.471  1.00  0.00     0.111 C 
BRANCH   7   8
ATOM      8  C   UNL A   1      30.251  26.070  25.585  1.00  0.00     0.016 C 
BRANCH   8   9
ATOM      9  C   UNL A   1      30.743  24.732  26.145  1.00  0.00     0.001 C 
BRANCH   9  10
ATOM     10  C   UNL A   1      31.347  23.714  25.189  1.00  0.00    -0.003 C 
ATOM     11  C   UNL A   1      30.727  23.786  23.808  1.00  0.00     0.004 C 
ENDBRANCH   9  10
ENDBRANCH   8   9
ENDBRANCH   7   8
BRANCH   7  12
ATOM     12  C   UNL A   1      31.381  27.651  23.915  1.00  0.00     0.084 C 
ATOM     13  C   UNL A   1      31.597  29.165  23.598  1.00  0.00     0.072 C 
ATOM     14  C   UNL A   1      30.234  27.302  22.907  1.00  0.00     0.072 C 
ATOM     15  C   UNL A   1      30.178  29.611  23.467  1.00  0.00    -0.042 A 
ATOM     16  C   UNL A   1      29.397  28.549  22.993  1.00  0.00    -0.042 A 
ATOM     17  C   UNL A   1      29.617  30.825  23.812  1.00  0.00     0.004 A 
ATOM     18  C   UNL A   1      28.042  28.706  22.777  1.00  0.00     0.004 A 
ATOM     19  C   UNL A   1      28.238  30.973  23.654  1.00  0.00     0.000 A 
ATOM     20  C   UNL A   1      27.461  29.930  23.122  1.00  0.00     0.000 A 
BRANCH  12  21
ATOM     21  O   UNL A   1      32.566  26.934  23.520  1.00  0.00    -0.388 OA
ATOM     22  H   UNL A   1      32.590  26.075  23.971  1.00  0.00     0.211 HD
ENDBRANCH  12  21
ENDBRANCH   7  12
ENDBRANCH   4   7
ENDBRANCH   2   3
ENDBRANCH   1   2
BRANCH   1  23
ATOM     23  C   UNL A   1      31.853  31.959  26.580  1.00  0.00     0.023 C 
BRANCH  23  24
ATOM     24  C   UNL A   1      32.855  32.745  27.413  1.00  0.00     0.116 C 
BRANCH  24  25
ATOM     25  N   UNL A   1      32.446  34.114  27.703  1.00  0.00    -0.352 N 
ATOM     26  C   UNL A   1      32.982  34.978  28.635  1.00  0.00     0.251 C 
ATOM     27  H   UNL A   1      31.699  34.465  27.168  1.00  0.00     0.163 HD
ATOM     28  O   UNL A   1      32.504  36.079  28.835  1.00  0.00    -0.269 OA
BRANCH  26  29
ATOM     29  C   UNL A   1      34.134  34.499  29.423  1.00  0.00     0.039 A 
ATOM     30  C   UNL A   1      33.897  33.795  30.604  1.00  0.00     0.014 A 
ATOM     31  C   UNL A   1      35.426  34.634  28.911  1.00  0.00     0.014 A 
ATOM     32  C   UNL A   1      34.959  33.147  31.232  1.00  0.00     0.010 A 
ATOM     33  C   UNL A   1      36.461  33.912  29.486  1.00  0.00     0.010 A 
ATOM     34  C   UNL A   1      36.238  33.160  30.650  1.00  0.00    -0.014 A 
BRANCH  34  35
ATOM     35  C   UNL A   1      37.363  32.397  31.242  1.00  0.00     0.031 A 
ATOM     36  C   UNL A   1      37.859  32.753  32.615  1.00  0.00     0.074 A 
ATOM     37  C   UNL A   1      37.986  31.450  30.516  1.00  0.00     0.049 A 
ATOM     38  N   UNL A   1      38.878  32.271  33.278  1.00  0.00    -0.248 NA
ATOM     39  C   UNL A   1      37.134  33.822  33.321  1.00  0.00     0.031 C 
ATOM     40  C   UNL A   1      37.639  31.063  29.147  1.00  0.00     0.029 A 
ATOM     41  N   UNL A   1      39.054  30.644  30.826  1.00  0.00    -0.354 N 
ATOM     42  C   UNL A   1      38.929  32.992  34.463  1.00  0.00     0.074 A 
ATOM     43  C   UNL A   1      37.879  33.985  34.402  1.00  0.00     0.031 C 
ATOM     44  C   UNL A   1      38.457  30.077  28.747  1.00  0.00     0.029 A 
ATOM     45  C   UNL A   1      39.408  29.785  29.814  1.00  0.00     0.049 A 
ATOM     46  H   UNL A   1      39.521  30.678  31.692  1.00  0.00     0.167 HD
ATOM     47  C   UNL A   1      39.756  32.820  35.520  1.00  0.00     0.037 A 
ATOM     48  C   UNL A   1      40.392  28.867  29.759  1.00  0.00     0.037 A 
ATOM     49  C   UNL A   1      40.771  31.805  35.590  1.00  0.00     0.049 A 
ATOM     50  C   UNL A   1      41.283  28.679  30.957  1.00  0.00     0.074 A 
ATOM     51  C   UNL A   1      41.613  31.496  36.642  1.00  0.00     0.029 A 
ATOM     52  N   UNL A   1      41.077  30.926  34.560  1.00  0.00    -0.354 N 
ATOM     53  N   UNL A   1      41.272  29.313  32.104  1.00  0.00    -0.248 NA
ATOM     54  C   UNL A   1      42.319  27.641  30.855  1.00  0.00     0.031 C 
ATOM     55  C   UNL A   1      42.457  30.457  36.235  1.00  0.00     0.029 A 
ATOM     56  C   UNL A   1      42.108  30.086  34.946  1.00  0.00     0.049 A 
ATOM     57  H   UNL A   1      40.627  30.904  33.684  1.00  0.00     0.167 HD
ATOM     58  C   UNL A   1      42.276  28.736  32.869  1.00  0.00     0.074 A 
ATOM     59  C   UNL A   1      42.867  27.689  32.061  1.00  0.00     0.031 C 
ATOM     60  C   UNL A   1      42.674  29.044  34.128  1.00  0.00     0.037 A 
BRANCH  47  61
ATOM     61  C   UNL A   1      39.584  33.746  36.688  1.00  0.00     0.064 A 
ATOM     62  C   UNL A   1      38.792  33.397  37.793  1.00  0.00     0.173 A 
ATOM     63  C   UNL A   1      40.233  34.990  36.713  1.00  0.00     0.173 A 
ATOM     64  F   UNL A   1      38.138  32.226  37.812  1.00  0.00    -0.203 F 
ATOM     65  C   UNL A   1      38.628  34.274  38.863  1.00  0.00     0.198 A 
ATOM     66  C   UNL A   1      40.093  35.850  37.800  1.00  0.00     0.198 A 
ATOM     67  F   UNL A   1      41.005  35.372  35.685  1.00  0.00    -0.203 F 
ATOM     68  F   UNL A   1      37.820  33.941  39.880  1.00  0.00    -0.200 F 
ATOM     69  C   UNL A   1      39.283  35.495  38.869  1.00  0.00     0.200 A 
ATOM     70  F   UNL A   1      40.735  37.025  37.809  1.00  0.00    -0.200 F 
ATOM     71  F   UNL A   1      39.127  36.335  39.901  1.00  0.00    -0.200 F 
ENDBRANCH  47  61
BRANCH  48  72
ATOM     72  C   UNL A   1      40.561  28.030  28.543  1.00  0.00     0.064 A 
ATOM     73  C   UNL A   1      41.346  28.475  27.470  1.00  0.00     0.173 A 
ATOM     74  C   UNL A   1      39.944  26.777  28.422  1.00  0.00     0.173 A 
ATOM     75  F   UNL A   1      41.942  29.675  27.530  1.00  0.00    -0.203 F 
ATOM     76  C   UNL A   1      41.492  27.707  26.316  1.00  0.00     0.198 A 
ATOM     77  C   UNL A   1      40.113  25.998  27.279  1.00  0.00     0.198 A 
ATOM     78  F   UNL A   1      39.187  26.302  29.422  1.00  0.00    -0.203 F 
ATOM     79  F   UNL A   1      42.214  28.176  25.289  1.00  0.00    -0.200 F 
ATOM     80  C   UNL A   1      40.880  26.467  26.223  1.00  0.00     0.200 A 
ATOM     81  F   UNL A   1      39.531  24.794  27.199  1.00  0.00    -0.200 F 
ATOM     82  F   UNL A   1      41.024  25.728  25.115  1.00  0.00    -0.200 F 
ENDBRANCH  48  72
BRANCH  60  83
ATOM     83  C   UNL A   1      43.777  28.220  34.721  1.00  0.00     0.064 A 
ATOM     84  C   UNL A   1      45.116  28.633  34.662  1.00  0.00     0.173 A 
ATOM     85  C   UNL A   1      43.485  27.027  35.398  1.00  0.00     0.173 A 
ATOM     86  F   UNL A   1      45.448  29.759  34.013  1.00  0.00    -0.203 F 
ATOM     87  C   UNL A   1      46.125  27.867  35.239  1.00  0.00     0.198 A 
ATOM     88  C   UNL A   1      44.493  26.279  35.999  1.00  0.00     0.198 A 
ATOM     89  F   UNL A   1      42.218  26.593  35.488  1.00  0.00    -0.203 F 
ATOM     90  F   UNL A   1      47.403  28.256  35.133  1.00  0.00    -0.200 F 
ATOM     91  C   UNL A   1      45.812  26.696  35.914  1.00  0.00     0.200 A 
ATOM     92  F   UNL A   1      44.187  25.155  36.662  1.00  0.00    -0.200 F 
ATOM     93  F   UNL A   1      46.784  25.965  36.477  1.00  0.00    -0.200 F 
ENDBRANCH  60  83
ENDBRANCH  34  35
ENDBRANCH  26  29
ENDBRANCH  24  25
ENDBRANCH  23  24
ENDBRANCH   1  23
TORSDOF 16
ENDMDL
MODEL 3
REMARK VINA RESULT:     -11.7      5.706     11.092
REMARK SMILES CCCC[C@@H](C(=O)NCCCCNC(=O)c1ccc(-c2c3nc(c(-c4c(F)c(F)c(F)c(F)c4F)c4ccc([nH]4)c(-c4c(F)c(F)c(F)c(F)c4F)c4nc(c(-c5c(F)c(F)c(F)c(F)c5F)c5ccc2[nH]5)C=C4)C=C3)cc1)C1(O)Cc2ccccc2C1
REMARK SMILES IDX 10 1 9 2 8 3 6 4 7 5 5 7 4 8 3 9 2 10 1 11 79 12 81 13 88 14
REMARK SMILES IDX 82 15 87 16 83 17 86 18 84 19 85 20 80 21 11 23 12 24 13 25
REMARK SMILES IDX 14 26 15 28 16 29 17 30 78 31 18 32 77 33 19 34 20 35 21 36
REMARK SMILES IDX 71 37 22 38 76 39 70 40 72 41 23 42 75 43 69 44 68 45 24 47
REMARK SMILES IDX 56 48 36 49 55 50 37 51 40 52 54 53 73 54 38 55 39 56 53 58
REMARK SMILES IDX 74 59 41 60 25 61 26 62 34 63 27 64 28 65 32 66 35 67 29 68
REMARK SMILES IDX 30 69 33 70 31 71 57 72 58 73 66 74 59 75 60 76 64 77 67 78
REMARK SMILES IDX 61 79 62 80 65 81 63 82 42 83 43 84 51 85 44 86 45 87 49 88
REMARK SMILES IDX 52 89 46 90 47 91 50 92 48 93
REMARK H PARENT 8 6 80 22 13 27 72 46 40 57
REMARK Flexibility Score: inf
ROOT
ATOM      1  C   UNL A   1      37.271  21.202  24.851  1.00  0.00     0.023 C 
ENDROOT
BRANCH   1   2
ATOM      2  C   UNL A   1      35.837  20.994  25.322  1.00  0.00     0.116 C 
BRANCH   2   3
ATOM      3  N   UNL A   1      35.511  21.854  26.438  1.00  0.00    -0.356 N 
ATOM      4  C   UNL A   1      34.202  22.082  26.745  1.00  0.00     0.226 C 
ATOM      5  O   UNL A   1      33.718  21.398  27.649  1.00  0.00    -0.275 OA
ATOM      6  H   UNL A   1      36.226  22.269  26.972  1.00  0.00     0.163 HD
BRANCH   4   7
ATOM      7  C   UNL A   1      33.362  23.109  25.955  1.00  0.00     0.111 C 
BRANCH   7   8
ATOM      8  C   UNL A   1      32.692  24.284  26.728  1.00  0.00     0.016 C 
BRANCH   8   9
ATOM      9  C   UNL A   1      32.699  25.740  26.253  1.00  0.00     0.001 C 
BRANCH   9  10
ATOM     10  C   UNL A   1      33.783  26.192  25.286  1.00  0.00    -0.003 C 
ATOM     11  C   UNL A   1      33.588  27.626  24.836  1.00  0.00     0.004 C 
ENDBRANCH   9  10
ENDBRANCH   8   9
ENDBRANCH   7   8
BRANCH   7  12
ATOM     12  C   UNL A   1      32.240  22.391  25.061  1.00  0.00     0.084 C 
ATOM     13  C   UNL A   1      32.723  22.029  23.620  1.00  0.00     0.072 C 
ATOM     14  C   UNL A   1      30.932  23.190  24.739  1.00  0.00     0.072 C 
ATOM     15  C   UNL A   1      32.459  23.322  22.923  1.00  0.00    -0.042 A 
ATOM     16  C   UNL A   1      31.369  23.963  23.525  1.00  0.00    -0.042 A 
ATOM     17  C   UNL A   1      33.169  23.914  21.897  1.00  0.00     0.004 A 
ATOM     18  C   UNL A   1      30.915  25.181  23.058  1.00  0.00     0.004 A 
ATOM     19  C   UNL A   1      32.755  25.173  21.458  1.00  0.00     0.000 A 
ATOM     20  C   UNL A   1      31.625  25.791  22.020  1.00  0.00     0.000 A 
BRANCH  12  21
ATOM     21  O   UNL A   1      31.874  21.170  25.733  1.00  0.00    -0.388 OA
ATOM     22  H   UNL A   1      31.217  20.693  25.202  1.00  0.00     0.211 HD
ENDBRANCH  12  21
ENDBRANCH   7  12
ENDBRANCH   4   7
ENDBRANCH   2   3
ENDBRANCH   1   2
BRANCH   1  23
ATOM     23  C   UNL A   1      38.168  19.984  25.005  1.00  0.00     0.023 C 
BRANCH  23  24
ATOM     24  C   UNL A   1      39.453  20.240  25.779  1.00  0.00     0.116 C 
BRANCH  24  25
ATOM     25  N   UNL A   1      40.353  19.095  25.838  1.00  0.00    -0.352 N 
ATOM     26  C   UNL A   1      41.709  19.095  26.089  1.00  0.00     0.251 C 
ATOM     27  H   UNL A   1      39.943  18.214  25.680  1.00  0.00     0.163 HD
ATOM     28  O   UNL A   1      42.369  18.074  26.039  1.00  0.00    -0.269 OA
BRANCH  26  29
ATOM     29  C   UNL A   1      42.347  20.395  26.375  1.00  0.00     0.039 A 
ATOM     30  C   UNL A   1      42.814  21.165  25.310  1.00  0.00     0.014 A 
ATOM     31  C   UNL A   1      42.349  20.893  27.679  1.00  0.00     0.014 A 
ATOM     32  C   UNL A   1      43.208  22.481  25.545  1.00  0.00     0.010 A 
ATOM     33  C   UNL A   1      42.653  22.229  27.895  1.00  0.00     0.010 A 
ATOM     34  C   UNL A   1      43.083  23.036  26.830  1.00  0.00    -0.014 A 
BRANCH  34  35
ATOM     35  C   UNL A   1      43.399  24.461  27.089  1.00  0.00     0.031 A 
ATOM     36  C   UNL A   1      44.789  24.971  26.830  1.00  0.00     0.074 A 
ATOM     37  C   UNL A   1      42.468  25.267  27.633  1.00  0.00     0.049 A 
ATOM     38  N   UNL A   1      45.295  26.154  27.068  1.00  0.00    -0.248 NA
ATOM     39  C   UNL A   1      45.749  24.010  26.263  1.00  0.00     0.031 C 
ATOM     40  C   UNL A   1      41.105  24.868  27.991  1.00  0.00     0.029 A 
ATOM     41  N   UNL A   1      42.529  26.591  27.990  1.00  0.00    -0.354 N 
ATOM     42  C   UNL A   1      46.631  26.069  26.703  1.00  0.00     0.074 A 
ATOM     43  C   UNL A   1      46.874  24.706  26.287  1.00  0.00     0.031 C 
ATOM     44  C   UNL A   1      40.452  25.931  28.490  1.00  0.00     0.029 A 
ATOM     45  C   UNL A   1      41.357  27.075  28.518  1.00  0.00     0.049 A 
ATOM     46  H   UNL A   1      43.337  27.143  27.877  1.00  0.00     0.167 HD
ATOM     47  C   UNL A   1      47.564  27.050  26.685  1.00  0.00     0.037 A 
ATOM     48  C   UNL A   1      41.052  28.305  28.974  1.00  0.00     0.037 A 
ATOM     49  C   UNL A   1      47.305  28.413  27.062  1.00  0.00     0.049 A 
ATOM     50  C   UNL A   1      42.100  29.384  28.921  1.00  0.00     0.074 A 
ATOM     51  C   UNL A   1      48.158  29.500  27.010  1.00  0.00     0.029 A 
ATOM     52  N   UNL A   1      46.094  28.876  27.556  1.00  0.00    -0.354 N 
ATOM     53  N   UNL A   1      43.339  29.314  28.500  1.00  0.00    -0.248 NA
ATOM     54  C   UNL A   1      41.704  30.716  29.401  1.00  0.00     0.031 C 
ATOM     55  C   UNL A   1      47.476  30.613  27.512  1.00  0.00     0.029 A 
ATOM     56  C   UNL A   1      46.183  30.230  27.832  1.00  0.00     0.049 A 
ATOM     57  H   UNL A   1      45.291  28.323  27.692  1.00  0.00     0.167 HD
ATOM     58  C   UNL A   1      43.862  30.592  28.636  1.00  0.00     0.074 A 
ATOM     59  C   UNL A   1      42.801  31.423  29.166  1.00  0.00     0.031 C 
ATOM     60  C   UNL A   1      45.110  31.039  28.349  1.00  0.00     0.037 A 
BRANCH  47  61
ATOM     61  C   UNL A   1      48.946  26.679  26.231  1.00  0.00     0.064 A 
ATOM     62  C   UNL A   1      49.872  26.087  27.104  1.00  0.00     0.173 A 
ATOM     63  C   UNL A   1      49.343  26.900  24.904  1.00  0.00     0.173 A 
ATOM     64  F   UNL A   1      49.546  25.868  28.387  1.00  0.00    -0.203 F 
ATOM     65  C   UNL A   1      51.156  25.763  26.674  1.00  0.00     0.198 A 
ATOM     66  C   UNL A   1      50.618  26.544  24.470  1.00  0.00     0.198 A 
ATOM     67  F   UNL A   1      48.496  27.459  24.027  1.00  0.00    -0.203 F 
ATOM     68  F   UNL A   1      52.041  25.253  27.542  1.00  0.00    -0.200 F 
ATOM     69  C   UNL A   1      51.526  25.986  25.357  1.00  0.00     0.200 A 
ATOM     70  F   UNL A   1      50.970  26.749  23.194  1.00  0.00    -0.200 F 
ATOM     71  F   UNL A   1      52.761  25.669  24.945  1.00  0.00    -0.200 F 
ENDBRANCH  47  61
BRANCH  48  72
ATOM     72  C   UNL A   1      39.686  28.592  29.483  1.00  0.00     0.064 A 
ATOM     73  C   UNL A   1      39.358  28.363  30.827  1.00  0.00     0.173 A 
ATOM     74  C   UNL A   1      38.680  29.095  28.644  1.00  0.00     0.173 A 
ATOM     75  F   UNL A   1      40.280  27.865  31.664  1.00  0.00    -0.203 F 
ATOM     76  C   UNL A   1      38.074  28.608  31.308  1.00  0.00     0.198 A 
ATOM     77  C   UNL A   1      37.404  29.365  29.133  1.00  0.00     0.198 A 
ATOM     78  F   UNL A   1      38.943  29.337  27.352  1.00  0.00    -0.203 F 
ATOM     79  F   UNL A   1      37.777  28.340  32.587  1.00  0.00    -0.200 F 
ATOM     80  C   UNL A   1      37.099  29.114  30.462  1.00  0.00     0.200 A 
ATOM     81  F   UNL A   1      36.468  29.867  28.316  1.00  0.00    -0.200 F 
ATOM     82  F   UNL A   1      35.865  29.353  30.926  1.00  0.00    -0.200 F 
ENDBRANCH  48  72
BRANCH  60  83
ATOM     83  C   UNL A   1      45.384  32.497  28.570  1.00  0.00     0.064 A 
ATOM     84  C   UNL A   1      45.940  32.966  29.769  1.00  0.00     0.173 A 
ATOM     85  C   UNL A   1      45.133  33.427  27.552  1.00  0.00     0.173 A 
ATOM     86  F   UNL A   1      46.185  32.117  30.778  1.00  0.00    -0.203 F 
ATOM     87  C   UNL A   1      46.212  34.319  29.948  1.00  0.00     0.198 A 
ATOM     88  C   UNL A   1      45.432  34.775  27.723  1.00  0.00     0.198 A 
ATOM     89  F   UNL A   1      44.608  33.026  26.384  1.00  0.00    -0.203 F 
ATOM     90  F   UNL A   1      46.702  34.754  31.117  1.00  0.00    -0.200 F 
ATOM     91  C   UNL A   1      45.966  35.221  28.923  1.00  0.00     0.200 A 
ATOM     92  F   UNL A   1      45.207  35.643  26.727  1.00  0.00    -0.200 F 
ATOM     93  F   UNL A   1      46.236  36.522  29.094  1.00  0.00    -0.200 F 
ENDBRANCH  60  83
ENDBRANCH  34  35
ENDBRANCH  26  29
ENDBRANCH  24  25
ENDBRANCH  23  24
ENDBRANCH   1  23
TORSDOF 16
ENDMDL
