MODEL 1
REMARK VINA RESULT:     -12.0      0.000      0.000
REMARK SMILES O=C(CSCc1nnnn1-c1ccc([N+](=O)[O-])cc1)NCCCCNC(=O)c1ccc(-c2c3nc(c(-c4c(F)c(F)c(F)c(F)c4F)c4ccc([nH]4)c(-c4c(F)c(F)c(F)c(F)c4F)c4nc(c(-c5c(F)c(F)c(F)c(F)c5F)c5ccc2[nH]5)C=C4)C=C3)cc1
REMARK SMILES IDX 21 1 20 2 1 3 2 4 3 6 4 7 5 8 6 9 7 10 10 11 8 12 9 13 11 14
REMARK SMILES IDX 12 15 19 16 13 17 18 18 14 19 15 20 16 21 17 22 22 23 23 24
REMARK SMILES IDX 24 25 25 26 26 27 27 29 28 30 29 31 90 32 30 33 89 34 31 35
REMARK SMILES IDX 32 36 33 37 83 38 34 39 88 40 82 41 84 42 35 43 87 44 81 45
REMARK SMILES IDX 80 46 36 48 68 49 48 50 67 51 49 52 52 53 66 54 85 55 50 56
REMARK SMILES IDX 51 57 65 59 86 60 53 61 37 62 38 63 46 64 39 65 40 66 44 67
REMARK SMILES IDX 47 68 41 69 42 70 45 71 43 72 69 73 70 74 78 75 71 76 72 77
REMARK SMILES IDX 76 78 79 79 73 80 74 81 77 82 75 83 54 84 55 85 63 86 56 87
REMARK SMILES IDX 57 88 61 89 64 90 58 91 59 92 62 93 60 94
REMARK H PARENT 20 5 25 28 84 47 52 58
REMARK Flexibility Score: inf
ROOT
ATOM      1  C   UNL A   1      31.697  30.212  25.677  1.00  0.00     0.116 C 
ENDROOT
BRANCH   1   2
ATOM      2  N   UNL A   1      31.637  28.771  25.832  1.00  0.00    -0.355 N 
ATOM      3  O   UNL A   1      31.083  28.427  23.664  1.00  0.00    -0.274 OA
ATOM      4  C   UNL A   1      31.275  27.961  24.781  1.00  0.00     0.230 C 
ATOM      5  H   UNL A   1      31.857  28.367  26.703  1.00  0.00     0.163 HD
BRANCH   4   6
ATOM      6  C   UNL A   1      31.016  26.512  25.166  1.00  0.00     0.169 C 
BRANCH   6   7
ATOM      7  S   UNL A   1      32.247  25.705  26.222  1.00  0.00    -0.144 SA
BRANCH   7   8
ATOM      8  C   UNL A   1      33.775  25.673  25.228  1.00  0.00     0.149 C 
BRANCH   8   9
ATOM      9  C   UNL A   1      33.655  25.272  23.802  1.00  0.00     0.166 A 
ATOM     10  N   UNL A   1      33.639  26.138  22.801  1.00  0.00    -0.113 NA
ATOM     11  N   UNL A   1      33.596  24.004  23.246  1.00  0.00    -0.196 N 
ATOM     12  N   UNL A   1      33.668  25.411  21.646  1.00  0.00    -0.023 NA
ATOM     13  N   UNL A   1      33.718  24.117  21.906  1.00  0.00    -0.040 NA
BRANCH  11  14
ATOM     14  C   UNL A   1      33.510  22.730  23.832  1.00  0.00     0.069 A 
ATOM     15  C   UNL A   1      32.271  22.073  23.837  1.00  0.00     0.035 A 
ATOM     16  C   UNL A   1      34.640  22.124  24.386  1.00  0.00     0.035 A 
ATOM     17  C   UNL A   1      32.196  20.741  24.254  1.00  0.00     0.088 A 
ATOM     18  C   UNL A   1      34.564  20.799  24.832  1.00  0.00     0.088 A 
ATOM     19  C   UNL A   1      33.355  20.097  24.712  1.00  0.00     0.269 A 
BRANCH  19  20
ATOM     20  N   UNL A   1      33.333  18.650  24.952  1.00  0.00     0.062 N 
ATOM     21  O   UNL A   1      32.355  18.180  25.548  1.00  0.00    -0.258 OA
ATOM     22  O   UNL A   1      34.266  17.978  24.488  1.00  0.00    -0.258 OA
ENDBRANCH  19  20
ENDBRANCH  11  14
ENDBRANCH   8   9
ENDBRANCH   7   8
ENDBRANCH   6   7
ENDBRANCH   4   6
ENDBRANCH   1   2
BRANCH   1  23
ATOM     23  C   UNL A   1      32.333  30.903  26.884  1.00  0.00     0.023 C 
BRANCH  23  24
ATOM     24  C   UNL A   1      33.625  30.269  27.420  1.00  0.00     0.023 C 
BRANCH  24  25
ATOM     25  C   UNL A   1      34.787  31.238  27.524  1.00  0.00     0.116 C 
BRANCH  25  26
ATOM     26  N   UNL A   1      34.696  32.118  28.694  1.00  0.00    -0.352 N 
ATOM     27  C   UNL A   1      35.289  31.950  29.940  1.00  0.00     0.251 C 
ATOM     28  H   UNL A   1      34.146  32.927  28.584  1.00  0.00     0.163 HD
ATOM     29  O   UNL A   1      34.873  32.514  30.932  1.00  0.00    -0.269 OA
BRANCH  27  30
ATOM     30  C   UNL A   1      36.486  31.089  30.008  1.00  0.00     0.039 A 
ATOM     31  C   UNL A   1      36.445  29.693  30.100  1.00  0.00     0.014 A 
ATOM     32  C   UNL A   1      37.696  31.760  29.933  1.00  0.00     0.014 A 
ATOM     33  C   UNL A   1      37.655  28.997  30.114  1.00  0.00     0.010 A 
ATOM     34  C   UNL A   1      38.813  31.070  29.601  1.00  0.00     0.010 A 
ATOM     35  C   UNL A   1      38.833  29.714  29.883  1.00  0.00    -0.014 A 
BRANCH  35  36
ATOM     36  C   UNL A   1      40.175  29.160  29.938  1.00  0.00     0.031 A 
ATOM     37  C   UNL A   1      40.718  29.009  31.312  1.00  0.00     0.074 A 
ATOM     38  C   UNL A   1      40.648  28.495  28.853  1.00  0.00     0.049 A 
ATOM     39  N   UNL A   1      41.765  29.563  31.824  1.00  0.00    -0.248 NA
ATOM     40  C   UNL A   1      39.904  28.266  32.293  1.00  0.00     0.031 C 
ATOM     41  C   UNL A   1      39.985  28.268  27.556  1.00  0.00     0.029 A 
ATOM     42  N   UNL A   1      41.785  27.759  28.726  1.00  0.00    -0.354 N 
ATOM     43  C   UNL A   1      41.847  29.085  33.132  1.00  0.00     0.074 A 
ATOM     44  C   UNL A   1      40.568  28.504  33.424  1.00  0.00     0.031 C 
ATOM     45  C   UNL A   1      40.625  27.291  26.873  1.00  0.00     0.029 A 
ATOM     46  C   UNL A   1      41.822  26.929  27.603  1.00  0.00     0.049 A 
ATOM     47  H   UNL A   1      42.524  27.807  29.375  1.00  0.00     0.167 HD
ATOM     48  C   UNL A   1      43.046  28.962  33.769  1.00  0.00     0.037 A 
ATOM     49  C   UNL A   1      42.766  25.987  27.347  1.00  0.00     0.037 A 
ATOM     50  C   UNL A   1      44.065  29.692  33.059  1.00  0.00     0.049 A 
ATOM     51  C   UNL A   1      43.924  26.296  28.228  1.00  0.00     0.074 A 
ATOM     52  C   UNL A   1      44.281  31.024  32.767  1.00  0.00     0.029 A 
ATOM     53  N   UNL A   1      44.850  28.981  32.183  1.00  0.00    -0.354 N 
ATOM     54  N   UNL A   1      44.644  27.380  28.115  1.00  0.00    -0.248 NA
ATOM     55  C   UNL A   1      43.950  25.659  29.535  1.00  0.00     0.031 C 
ATOM     56  C   UNL A   1      44.797  31.028  31.437  1.00  0.00     0.029 A 
ATOM     57  C   UNL A   1      44.949  29.704  31.023  1.00  0.00     0.049 A 
ATOM     58  H   UNL A   1      45.268  28.108  32.358  1.00  0.00     0.167 HD
ATOM     59  C   UNL A   1      44.879  27.789  29.421  1.00  0.00     0.074 A 
ATOM     60  C   UNL A   1      44.472  26.658  30.253  1.00  0.00     0.031 C 
ATOM     61  C   UNL A   1      45.093  29.105  29.715  1.00  0.00     0.037 A 
BRANCH  48  62
ATOM     62  C   UNL A   1      43.395  27.897  34.789  1.00  0.00     0.064 A 
ATOM     63  C   UNL A   1      43.744  28.306  36.094  1.00  0.00     0.173 A 
ATOM     64  C   UNL A   1      43.686  26.549  34.487  1.00  0.00     0.173 A 
ATOM     65  F   UNL A   1      43.506  29.560  36.506  1.00  0.00    -0.203 F 
ATOM     66  C   UNL A   1      44.426  27.466  36.979  1.00  0.00     0.198 A 
ATOM     67  C   UNL A   1      44.320  25.697  35.393  1.00  0.00     0.198 A 
ATOM     68  F   UNL A   1      43.474  26.013  33.281  1.00  0.00    -0.203 F 
ATOM     69  F   UNL A   1      44.853  27.947  38.154  1.00  0.00    -0.200 F 
ATOM     70  C   UNL A   1      44.725  26.166  36.622  1.00  0.00     0.200 A 
ATOM     71  F   UNL A   1      44.604  24.441  35.024  1.00  0.00    -0.200 F 
ATOM     72  F   UNL A   1      45.437  25.379  37.440  1.00  0.00    -0.200 F 
ENDBRANCH  48  62
BRANCH  49  73
ATOM     73  C   UNL A   1      42.602  24.665  26.690  1.00  0.00     0.064 A 
ATOM     74  C   UNL A   1      43.254  24.356  25.483  1.00  0.00     0.173 A 
ATOM     75  C   UNL A   1      42.033  23.580  27.385  1.00  0.00     0.173 A 
ATOM     76  F   UNL A   1      43.867  25.323  24.784  1.00  0.00    -0.203 F 
ATOM     77  C   UNL A   1      43.344  23.039  25.011  1.00  0.00     0.198 A 
ATOM     78  C   UNL A   1      42.123  22.267  26.914  1.00  0.00     0.198 A 
ATOM     79  F   UNL A   1      41.462  23.761  28.585  1.00  0.00    -0.203 F 
ATOM     80  F   UNL A   1      44.020  22.777  23.883  1.00  0.00    -0.200 F 
ATOM     81  C   UNL A   1      42.788  21.996  25.732  1.00  0.00     0.200 A 
ATOM     82  F   UNL A   1      41.617  21.264  27.645  1.00  0.00    -0.200 F 
ATOM     83  F   UNL A   1      42.928  20.729  25.313  1.00  0.00    -0.200 F 
ENDBRANCH  49  73
BRANCH  61  84
ATOM     84  C   UNL A   1      45.282  30.061  28.567  1.00  0.00     0.064 A 
ATOM     85  C   UNL A   1      44.262  30.877  28.046  1.00  0.00     0.173 A 
ATOM     86  C   UNL A   1      46.584  30.293  28.111  1.00  0.00     0.173 A 
ATOM     87  F   UNL A   1      43.008  30.782  28.496  1.00  0.00    -0.203 F 
ATOM     88  C   UNL A   1      44.533  31.864  27.099  1.00  0.00     0.198 A 
ATOM     89  C   UNL A   1      46.858  31.301  27.191  1.00  0.00     0.198 A 
ATOM     90  F   UNL A   1      47.605  29.582  28.614  1.00  0.00    -0.203 F 
ATOM     91  F   UNL A   1      43.541  32.634  26.625  1.00  0.00    -0.200 F 
ATOM     92  C   UNL A   1      45.833  32.082  26.680  1.00  0.00     0.200 A 
ATOM     93  F   UNL A   1      48.126  31.541  26.829  1.00  0.00    -0.200 F 
ATOM     94  F   UNL A   1      46.106  33.065  25.811  1.00  0.00    -0.200 F 
ENDBRANCH  61  84
ENDBRANCH  35  36
ENDBRANCH  27  30
ENDBRANCH  25  26
ENDBRANCH  24  25
ENDBRANCH  23  24
ENDBRANCH   1  23
TORSDOF 16
ENDMDL
MODEL 2
REMARK VINA RESULT:     -11.9      3.045      8.809
REMARK SMILES O=C(CSCc1nnnn1-c1ccc([N+](=O)[O-])cc1)NCCCCNC(=O)c1ccc(-c2c3nc(c(-c4c(F)c(F)c(F)c(F)c4F)c4ccc([nH]4)c(-c4c(F)c(F)c(F)c(F)c4F)c4nc(c(-c5c(F)c(F)c(F)c(F)c5F)c5ccc2[nH]5)C=C4)C=C3)cc1
REMARK SMILES IDX 21 1 20 2 1 3 2 4 3 6 4 7 5 8 6 9 7 10 10 11 8 12 9 13 11 14
REMARK SMILES IDX 12 15 19 16 13 17 18 18 14 19 15 20 16 21 17 22 22 23 23 24
REMARK SMILES IDX 24 25 25 26 26 27 27 29 28 30 29 31 90 32 30 33 89 34 31 35
REMARK SMILES IDX 32 36 33 37 83 38 34 39 88 40 82 41 84 42 35 43 87 44 81 45
REMARK SMILES IDX 80 46 36 48 68 49 48 50 67 51 49 52 52 53 66 54 85 55 50 56
REMARK SMILES IDX 51 57 65 59 86 60 53 61 37 62 38 63 46 64 39 65 40 66 44 67
REMARK SMILES IDX 47 68 41 69 42 70 45 71 43 72 69 73 70 74 78 75 71 76 72 77
REMARK SMILES IDX 76 78 79 79 73 80 74 81 77 82 75 83 54 84 55 85 63 86 56 87
REMARK SMILES IDX 57 88 61 89 64 90 58 91 59 92 62 93 60 94
REMARK H PARENT 20 5 25 28 84 47 52 58
REMARK Flexibility Score: inf
ROOT
ATOM      1  C   UNL A   1      35.757  22.744  24.948  1.00  0.00     0.116 C 
ENDROOT
BRANCH   1   2
ATOM      2  N   UNL A   1      34.308  22.666  24.946  1.00  0.00    -0.355 N 
ATOM      3  O   UNL A   1      34.136  23.340  27.101  1.00  0.00    -0.274 OA
ATOM      4  C   UNL A   1      33.584  22.939  26.083  1.00  0.00     0.230 C 
ATOM      5  H   UNL A   1      33.837  22.415  24.119  1.00  0.00     0.163 HD
BRANCH   4   6
ATOM      6  C   UNL A   1      32.110  22.572  25.991  1.00  0.00     0.169 C 
BRANCH   6   7
ATOM      7  S   UNL A   1      30.921  23.939  25.945  1.00  0.00    -0.144 SA
BRANCH   7   8
ATOM      8  C   UNL A   1      30.861  24.455  24.198  1.00  0.00     0.149 C 
BRANCH   8   9
ATOM      9  C   UNL A   1      32.135  24.429  23.433  1.00  0.00     0.166 A 
ATOM     10  N   UNL A   1      32.467  23.451  22.605  1.00  0.00    -0.113 NA
ATOM     11  N   UNL A   1      33.147  25.373  23.377  1.00  0.00    -0.196 N 
ATOM     12  N   UNL A   1      33.617  23.835  21.978  1.00  0.00    -0.023 NA
ATOM     13  N   UNL A   1      33.998  25.033  22.385  1.00  0.00    -0.040 NA
BRANCH  11  14
ATOM     14  C   UNL A   1      33.353  26.565  24.092  1.00  0.00     0.069 A 
ATOM     15  C   UNL A   1      33.116  27.787  23.446  1.00  0.00     0.035 A 
ATOM     16  C   UNL A   1      33.773  26.532  25.424  1.00  0.00     0.035 A 
ATOM     17  C   UNL A   1      33.145  28.975  24.182  1.00  0.00     0.088 A 
ATOM     18  C   UNL A   1      33.831  27.723  26.158  1.00  0.00     0.088 A 
ATOM     19  C   UNL A   1      33.463  28.931  25.548  1.00  0.00     0.269 A 
BRANCH  19  20
ATOM     20  N   UNL A   1      33.292  30.135  26.370  1.00  0.00     0.062 N 
ATOM     21  O   UNL A   1      32.204  30.722  26.313  1.00  0.00    -0.258 OA
ATOM     22  O   UNL A   1      34.228  30.453  27.119  1.00  0.00    -0.258 OA
ENDBRANCH  19  20
ENDBRANCH  11  14
ENDBRANCH   8   9
ENDBRANCH   7   8
ENDBRANCH   6   7
ENDBRANCH   4   6
ENDBRANCH   1   2
BRANCH   1  23
ATOM     23  C   UNL A   1      36.409  21.473  25.495  1.00  0.00     0.023 C 
BRANCH  23  24
ATOM     24  C   UNL A   1      37.914  21.322  25.232  1.00  0.00     0.023 C 
BRANCH  24  25
ATOM     25  C   UNL A   1      38.780  22.242  26.071  1.00  0.00     0.116 C 
BRANCH  25  26
ATOM     26  N   UNL A   1      40.155  21.755  26.219  1.00  0.00    -0.352 N 
ATOM     27  C   UNL A   1      41.316  22.504  26.370  1.00  0.00     0.251 C 
ATOM     28  H   UNL A   1      40.272  20.778  26.209  1.00  0.00     0.163 HD
ATOM     29  O   UNL A   1      42.414  22.047  26.119  1.00  0.00    -0.269 OA
BRANCH  27  30
ATOM     30  C   UNL A   1      41.173  23.876  26.896  1.00  0.00     0.039 A 
ATOM     31  C   UNL A   1      40.121  24.737  26.565  1.00  0.00     0.014 A 
ATOM     32  C   UNL A   1      42.150  24.262  27.799  1.00  0.00     0.014 A 
ATOM     33  C   UNL A   1      40.084  25.996  27.170  1.00  0.00     0.010 A 
ATOM     34  C   UNL A   1      41.912  25.316  28.617  1.00  0.00     0.010 A 
ATOM     35  C   UNL A   1      41.009  26.270  28.182  1.00  0.00    -0.014 A 
BRANCH  35  36
ATOM     36  C   UNL A   1      41.155  27.548  28.858  1.00  0.00     0.031 A 
ATOM     37  C   UNL A   1      42.269  28.386  28.345  1.00  0.00     0.074 A 
ATOM     38  C   UNL A   1      40.108  28.027  29.576  1.00  0.00     0.049 A 
ATOM     39  N   UNL A   1      43.309  28.812  28.981  1.00  0.00    -0.248 NA
ATOM     40  C   UNL A   1      42.312  28.657  26.896  1.00  0.00     0.031 C 
ATOM     41  C   UNL A   1      38.793  27.401  29.810  1.00  0.00     0.029 A 
ATOM     42  N   UNL A   1      39.947  29.250  30.148  1.00  0.00    -0.354 N 
ATOM     43  C   UNL A   1      44.035  29.566  28.059  1.00  0.00     0.074 A 
ATOM     44  C   UNL A   1      43.507  29.231  26.767  1.00  0.00     0.031 C 
ATOM     45  C   UNL A   1      37.918  28.321  30.276  1.00  0.00     0.029 A 
ATOM     46  C   UNL A   1      38.636  29.554  30.522  1.00  0.00     0.049 A 
ATOM     47  H   UNL A   1      40.696  29.874  30.287  1.00  0.00     0.167 HD
ATOM     48  C   UNL A   1      44.823  30.605  28.456  1.00  0.00     0.037 A 
ATOM     49  C   UNL A   1      38.197  30.764  30.956  1.00  0.00     0.037 A 
ATOM     50  C   UNL A   1      45.041  30.550  29.880  1.00  0.00     0.049 A 
ATOM     51  C   UNL A   1      39.406  31.537  31.349  1.00  0.00     0.074 A 
ATOM     52  C   UNL A   1      45.666  29.664  30.733  1.00  0.00     0.029 A 
ATOM     53  N   UNL A   1      44.223  31.322  30.669  1.00  0.00    -0.354 N 
ATOM     54  N   UNL A   1      40.181  31.202  32.345  1.00  0.00    -0.248 NA
ATOM     55  C   UNL A   1      40.021  32.368  30.326  1.00  0.00     0.031 C 
ATOM     56  C   UNL A   1      44.838  29.627  31.893  1.00  0.00     0.029 A 
ATOM     57  C   UNL A   1      43.806  30.552  31.724  1.00  0.00     0.049 A 
ATOM     58  H   UNL A   1      43.979  32.261  30.507  1.00  0.00     0.167 HD
ATOM     59  C   UNL A   1      41.471  31.425  31.882  1.00  0.00     0.074 A 
ATOM     60  C   UNL A   1      41.306  32.194  30.650  1.00  0.00     0.031 C 
ATOM     61  C   UNL A   1      42.525  30.709  32.375  1.00  0.00     0.037 A 
BRANCH  48  62
ATOM     62  C   UNL A   1      45.078  31.870  27.661  1.00  0.00     0.064 A 
ATOM     63  C   UNL A   1      46.321  32.013  27.009  1.00  0.00     0.173 A 
ATOM     64  C   UNL A   1      44.305  33.049  27.741  1.00  0.00     0.173 A 
ATOM     65  F   UNL A   1      47.141  30.962  26.857  1.00  0.00    -0.203 F 
ATOM     66  C   UNL A   1      46.795  33.255  26.576  1.00  0.00     0.198 A 
ATOM     67  C   UNL A   1      44.759  34.277  27.259  1.00  0.00     0.198 A 
ATOM     68  F   UNL A   1      43.129  33.104  28.374  1.00  0.00    -0.203 F 
ATOM     69  F   UNL A   1      48.037  33.357  26.087  1.00  0.00    -0.200 F 
ATOM     70  C   UNL A   1      46.018  34.389  26.713  1.00  0.00     0.200 A 
ATOM     71  F   UNL A   1      43.991  35.365  27.408  1.00  0.00    -0.200 F 
ATOM     72  F   UNL A   1      46.494  35.590  26.362  1.00  0.00    -0.200 F 
ENDBRANCH  48  62
BRANCH  49  73
ATOM     73  C   UNL A   1      36.884  31.416  30.715  1.00  0.00     0.064 A 
ATOM     74  C   UNL A   1      36.019  31.742  31.773  1.00  0.00     0.173 A 
ATOM     75  C   UNL A   1      36.584  31.991  29.464  1.00  0.00     0.173 A 
ATOM     76  F   UNL A   1      36.261  31.278  33.007  1.00  0.00    -0.203 F 
ATOM     77  C   UNL A   1      34.929  32.606  31.593  1.00  0.00     0.198 A 
ATOM     78  C   UNL A   1      35.497  32.852  29.286  1.00  0.00     0.198 A 
ATOM     79  F   UNL A   1      37.397  31.806  28.414  1.00  0.00    -0.203 F 
ATOM     80  F   UNL A   1      34.157  32.937  32.638  1.00  0.00    -0.200 F 
ATOM     81  C   UNL A   1      34.676  33.168  30.353  1.00  0.00     0.200 A 
ATOM     82  F   UNL A   1      35.292  33.420  28.090  1.00  0.00    -0.200 F 
ATOM     83  F   UNL A   1      33.672  34.043  30.194  1.00  0.00    -0.200 F 
ENDBRANCH  49  73
BRANCH  61  84
ATOM     84  C   UNL A   1      42.282  29.836  33.577  1.00  0.00     0.064 A 
ATOM     85  C   UNL A   1      41.953  28.471  33.505  1.00  0.00     0.173 A 
ATOM     86  C   UNL A   1      42.581  30.356  34.841  1.00  0.00     0.173 A 
ATOM     87  F   UNL A   1      41.743  27.875  32.327  1.00  0.00    -0.203 F 
ATOM     88  C   UNL A   1      41.907  27.672  34.647  1.00  0.00     0.198 A 
ATOM     89  C   UNL A   1      42.568  29.550  35.975  1.00  0.00     0.198 A 
ATOM     90  F   UNL A   1      42.955  31.639  34.963  1.00  0.00    -0.203 F 
ATOM     91  F   UNL A   1      41.598  26.369  34.546  1.00  0.00    -0.200 F 
ATOM     92  C   UNL A   1      42.226  28.211  35.880  1.00  0.00     0.200 A 
ATOM     93  F   UNL A   1      42.928  30.066  37.159  1.00  0.00    -0.200 F 
ATOM     94  F   UNL A   1      42.235  27.435  36.973  1.00  0.00    -0.200 F 
ENDBRANCH  61  84
ENDBRANCH  35  36
ENDBRANCH  27  30
ENDBRANCH  25  26
ENDBRANCH  24  25
ENDBRANCH  23  24
ENDBRANCH   1  23
TORSDOF 16
ENDMDL
MODEL 3
REMARK VINA RESULT:     -11.9      3.472      8.572
REMARK SMILES O=C(CSCc1nnnn1-c1ccc([N+](=O)[O-])cc1)NCCCCNC(=O)c1ccc(-c2c3nc(c(-c4c(F)c(F)c(F)c(F)c4F)c4ccc([nH]4)c(-c4c(F)c(F)c(F)c(F)c4F)c4nc(c(-c5c(F)c(F)c(F)c(F)c5F)c5ccc2[nH]5)C=C4)C=C3)cc1
REMARK SMILES IDX 21 1 20 2 1 3 2 4 3 6 4 7 5 8 6 9 7 10 10 11 8 12 9 13 11 14
REMARK SMILES IDX 12 15 19 16 13 17 18 18 14 19 15 20 16 21 17 22 22 23 23 24
REMARK SMILES IDX 24 25 25 26 26 27 27 29 28 30 29 31 90 32 30 33 89 34 31 35
REMARK SMILES IDX 32 36 33 37 83 38 34 39 88 40 82 41 84 42 35 43 87 44 81 45
REMARK SMILES IDX 80 46 36 48 68 49 48 50 67 51 49 52 52 53 66 54 85 55 50 56
REMARK SMILES IDX 51 57 65 59 86 60 53 61 37 62 38 63 46 64 39 65 40 66 44 67
REMARK SMILES IDX 47 68 41 69 42 70 45 71 43 72 69 73 70 74 78 75 71 76 72 77
REMARK SMILES IDX 76 78 79 79 73 80 74 81 77 82 75 83 54 84 55 85 63 86 56 87
REMARK SMILES IDX 57 88 61 89 64 90 58 91 59 92 62 93 60 94
REMARK H PARENT 20 5 25 28 84 47 52 58
REMARK Flexibility Score: inf
ROOT
ATOM      1  C   UNL A   1      37.088  21.115  24.570  1.00  0.00     0.116 C 
ENDROOT
BRANCH   1   2
ATOM      2  N   UNL A   1      36.192  22.197  24.930  1.00  0.00    -0.355 N 
ATOM      3  O   UNL A   1      36.108  23.010  22.819  1.00  0.00    -0.274 OA
ATOM      4  C   UNL A   1      35.791  23.124  23.997  1.00  0.00     0.230 C 
ATOM      5  H   UNL A   1      35.866  22.269  25.857  1.00  0.00     0.163 HD
BRANCH   4   6
ATOM      6  C   UNL A   1      35.063  24.327  24.580  1.00  0.00     0.169 C 
BRANCH   6   7
ATOM      7  S   UNL A   1      33.999  25.271  23.458  1.00  0.00    -0.144 SA
BRANCH   7   8
ATOM      8  C   UNL A   1      32.305  24.718  23.833  1.00  0.00     0.149 C 
BRANCH   8   9
ATOM      9  C   UNL A   1      32.051  24.159  25.187  1.00  0.00     0.166 A 
ATOM     10  N   UNL A   1      31.732  24.903  26.234  1.00  0.00    -0.113 NA
ATOM     11  N   UNL A   1      32.039  22.838  25.606  1.00  0.00    -0.196 N 
ATOM     12  N   UNL A   1      31.433  24.047  27.254  1.00  0.00    -0.023 NA
ATOM     13  N   UNL A   1      31.544  22.790  26.862  1.00  0.00    -0.040 NA
BRANCH  11  14
ATOM     14  C   UNL A   1      32.369  21.645  24.943  1.00  0.00     0.069 A 
ATOM     15  C   UNL A   1      32.979  20.615  25.673  1.00  0.00     0.035 A 
ATOM     16  C   UNL A   1      32.082  21.482  23.585  1.00  0.00     0.035 A 
ATOM     17  C   UNL A   1      33.157  19.360  25.083  1.00  0.00     0.088 A 
ATOM     18  C   UNL A   1      32.285  20.236  22.981  1.00  0.00     0.088 A 
ATOM     19  C   UNL A   1      32.770  19.165  23.748  1.00  0.00     0.269 A 
BRANCH  19  20
ATOM     20  N   UNL A   1      32.758  17.810  23.188  1.00  0.00     0.062 N 
ATOM     21  O   UNL A   1      32.446  17.682  21.996  1.00  0.00    -0.258 OA
ATOM     22  O   UNL A   1      33.121  16.882  23.926  1.00  0.00    -0.258 OA
ENDBRANCH  19  20
ENDBRANCH  11  14
ENDBRANCH   8   9
ENDBRANCH   7   8
ENDBRANCH   6   7
ENDBRANCH   4   6
ENDBRANCH   1   2
BRANCH   1  23
ATOM     23  C   UNL A   1      38.403  21.162  25.350  1.00  0.00     0.023 C 
BRANCH  23  24
ATOM     24  C   UNL A   1      38.695  22.469  26.101  1.00  0.00     0.023 C 
BRANCH  24  25
ATOM     25  C   UNL A   1      39.836  22.365  27.094  1.00  0.00     0.116 C 
BRANCH  25  26
ATOM     26  N   UNL A   1      41.148  22.247  26.449  1.00  0.00    -0.352 N 
ATOM     27  C   UNL A   1      41.967  23.269  25.984  1.00  0.00     0.251 C 
ATOM     28  H   UNL A   1      41.490  21.332  26.330  1.00  0.00     0.163 HD
ATOM     29  O   UNL A   1      42.835  23.071  25.156  1.00  0.00    -0.269 OA
BRANCH  27  30
ATOM     30  C   UNL A   1      41.777  24.609  26.571  1.00  0.00     0.039 A 
ATOM     31  C   UNL A   1      40.881  25.563  26.076  1.00  0.00     0.014 A 
ATOM     32  C   UNL A   1      42.532  24.865  27.704  1.00  0.00     0.014 A 
ATOM     33  C   UNL A   1      40.769  26.778  26.755  1.00  0.00     0.010 A 
ATOM     34  C   UNL A   1      42.164  25.877  28.527  1.00  0.00     0.010 A 
ATOM     35  C   UNL A   1      41.442  26.919  27.973  1.00  0.00    -0.014 A 
BRANCH  35  36
ATOM     36  C   UNL A   1      41.492  28.136  28.766  1.00  0.00     0.031 A 
ATOM     37  C   UNL A   1      42.606  29.051  28.409  1.00  0.00     0.074 A 
ATOM     38  C   UNL A   1      40.379  28.517  29.443  1.00  0.00     0.049 A 
ATOM     39  N   UNL A   1      43.582  29.452  29.154  1.00  0.00    -0.248 NA
ATOM     40  C   UNL A   1      42.740  29.451  26.996  1.00  0.00     0.031 C 
ATOM     41  C   UNL A   1      39.076  27.831  29.526  1.00  0.00     0.029 A 
ATOM     42  N   UNL A   1      40.133  29.679  30.105  1.00  0.00    -0.354 N 
ATOM     43  C   UNL A   1      44.342  30.307  28.355  1.00  0.00     0.074 A 
ATOM     44  C   UNL A   1      43.919  30.071  27.005  1.00  0.00     0.031 C 
ATOM     45  C   UNL A   1      38.136  28.678  30.004  1.00  0.00     0.029 A 
ATOM     46  C   UNL A   1      38.788  29.907  30.407  1.00  0.00     0.049 A 
ATOM     47  H   UNL A   1      40.846  30.311  30.352  1.00  0.00     0.167 HD
ATOM     48  C   UNL A   1      45.061  31.331  28.897  1.00  0.00     0.037 A 
ATOM     49  C   UNL A   1      38.274  31.059  30.910  1.00  0.00     0.037 A 
ATOM     50  C   UNL A   1      45.180  31.157  30.323  1.00  0.00     0.049 A 
ATOM     51  C   UNL A   1      39.422  31.832  31.456  1.00  0.00     0.074 A 
ATOM     52  C   UNL A   1      45.777  30.219  31.140  1.00  0.00     0.029 A 
ATOM     53  N   UNL A   1      44.280  31.830  31.114  1.00  0.00    -0.354 N 
ATOM     54  N   UNL A   1      40.138  31.435  32.473  1.00  0.00    -0.248 NA
ATOM     55  C   UNL A   1      40.076  32.769  30.555  1.00  0.00     0.031 C 
ATOM     56  C   UNL A   1      44.871  30.054  32.230  1.00  0.00     0.029 A 
ATOM     57  C   UNL A   1      43.819  30.957  32.065  1.00  0.00     0.049 A 
ATOM     58  H   UNL A   1      44.013  32.772  31.015  1.00  0.00     0.167 HD
ATOM     59  C   UNL A   1      41.448  31.739  32.126  1.00  0.00     0.074 A 
ATOM     60  C   UNL A   1      41.341  32.608  30.956  1.00  0.00     0.031 C 
ATOM     61  C   UNL A   1      42.491  31.015  32.631  1.00  0.00     0.037 A 
BRANCH  48  62
ATOM     62  C   UNL A   1      45.322  32.668  28.235  1.00  0.00     0.064 A 
ATOM     63  C   UNL A   1      44.219  33.497  27.936  1.00  0.00     0.173 A 
ATOM     64  C   UNL A   1      46.538  33.048  27.624  1.00  0.00     0.173 A 
ATOM     65  F   UNL A   1      43.012  33.248  28.465  1.00  0.00    -0.203 F 
ATOM     66  C   UNL A   1      44.305  34.546  27.017  1.00  0.00     0.198 A 
ATOM     67  C   UNL A   1      46.631  34.130  26.748  1.00  0.00     0.198 A 
ATOM     68  F   UNL A   1      47.666  32.343  27.754  1.00  0.00    -0.203 F 
ATOM     69  F   UNL A   1      43.198  35.214  26.668  1.00  0.00    -0.200 F 
ATOM     70  C   UNL A   1      45.509  34.854  26.414  1.00  0.00     0.200 A 
ATOM     71  F   UNL A   1      47.808  34.408  26.171  1.00  0.00    -0.200 F 
ATOM     72  F   UNL A   1      45.581  35.814  25.483  1.00  0.00    -0.200 F 
ENDBRANCH  48  62
BRANCH  49  73
ATOM     73  C   UNL A   1      36.958  31.688  30.630  1.00  0.00     0.064 A 
ATOM     74  C   UNL A   1      35.999  31.870  31.642  1.00  0.00     0.173 A 
ATOM     75  C   UNL A   1      36.732  32.382  29.425  1.00  0.00     0.173 A 
ATOM     76  F   UNL A   1      36.164  31.286  32.837  1.00  0.00    -0.203 F 
ATOM     77  C   UNL A   1      34.892  32.711  31.463  1.00  0.00     0.198 A 
ATOM     78  C   UNL A   1      35.627  33.220  29.248  1.00  0.00     0.198 A 
ATOM     79  F   UNL A   1      37.632  32.338  28.432  1.00  0.00    -0.203 F 
ATOM     80  F   UNL A   1      34.027  32.902  32.470  1.00  0.00    -0.200 F 
ATOM     81  C   UNL A   1      34.713  33.393  30.271  1.00  0.00     0.200 A 
ATOM     82  F   UNL A   1      35.493  33.906  28.104  1.00  0.00    -0.200 F 
ATOM     83  F   UNL A   1      33.688  34.245  30.122  1.00  0.00    -0.200 F 
ENDBRANCH  49  73
BRANCH  61  84
ATOM     84  C   UNL A   1      42.197  30.032  33.733  1.00  0.00     0.064 A 
ATOM     85  C   UNL A   1      41.918  28.671  33.519  1.00  0.00     0.173 A 
ATOM     86  C   UNL A   1      42.396  30.444  35.055  1.00  0.00     0.173 A 
ATOM     87  F   UNL A   1      41.806  28.178  32.282  1.00  0.00    -0.203 F 
ATOM     88  C   UNL A   1      41.822  27.772  34.581  1.00  0.00     0.198 A 
ATOM     89  C   UNL A   1      42.333  29.540  36.111  1.00  0.00     0.198 A 
ATOM     90  F   UNL A   1      42.720  31.721  35.315  1.00  0.00    -0.203 F 
ATOM     91  F   UNL A   1      41.563  26.476  34.346  1.00  0.00    -0.200 F 
ATOM     92  C   UNL A   1      42.042  28.206  35.876  1.00  0.00     0.200 A 
ATOM     93  F   UNL A   1      42.598  29.957  37.357  1.00  0.00    -0.200 F 
ATOM     94  F   UNL A   1      42.004  27.336  36.895  1.00  0.00    -0.200 F 
ENDBRANCH  61  84
ENDBRANCH  35  36
ENDBRANCH  27  30
ENDBRANCH  25  26
ENDBRANCH  24  25
ENDBRANCH  23  24
ENDBRANCH   1  23
TORSDOF 16
ENDMDL
