MODEL 1
REMARK VINA RESULT:     -12.8      0.000      0.000
REMARK SMILES CC(C)OC(=O)c1cccc(-c2ccc([C@H]3[NH2+][C@H](C(=O)NCCCCNC(=O)c4ccc(-c5c6nc(c(-c7c(F)c(F)c(F)c(F)c7F)c7ccc([nH]7)c(-c7c(F)c(F)c(F)c(F)c7F)c7nc(c(-c8c(F)c(F)c(F)c(F)c8F)c8ccc5[nH]8)C=C7)C=C6)cc4)C(C)(C)S3)o2)c1
REMARK SMILES IDX 22 1 21 2 19 3 20 4 18 6 16 7 17 8 95 9 92 12 93 13 94 14
REMARK SMILES IDX 15 15 12 16 13 17 96 18 14 19 11 20 7 21 8 22 97 23 9 24
REMARK SMILES IDX 10 25 5 26 6 27 4 28 2 29 1 30 3 31 23 32 24 33 25 34 26 35
REMARK SMILES IDX 27 36 28 38 29 39 30 40 91 41 31 42 90 43 32 44 33 45 34 46
REMARK SMILES IDX 84 47 35 48 89 49 83 50 85 51 36 52 88 53 82 54 81 55 37 57
REMARK SMILES IDX 69 58 49 59 68 60 50 61 53 62 67 63 86 64 51 65 52 66 66 68
REMARK SMILES IDX 87 69 54 70 38 71 39 72 47 73 40 74 41 75 45 76 48 77 42 78
REMARK SMILES IDX 43 79 46 80 44 81 70 82 71 83 79 84 72 85 73 86 77 87 80 88
REMARK SMILES IDX 74 89 75 90 78 91 76 92 55 93 56 94 64 95 57 96 58 97 62 98
REMARK SMILES IDX 65 99 59 100 60 101 63 102 61 103
REMARK H PARENT 21 5 17 10 17 11 26 37 85 56 53 67
REMARK Flexibility Score: inf
ROOT
ATOM      1  C   UNL A   1      32.863  30.385  27.235  1.00  0.00     0.116 C 
ENDROOT
BRANCH   1   2
ATOM      2  N   UNL A   1      32.492  29.052  27.613  1.00  0.00    -0.351 N 
ATOM      3  C   UNL A   1      32.020  28.028  26.858  1.00  0.00     0.279 C 
ATOM      4  O   UNL A   1      31.395  27.186  27.520  1.00  0.00    -0.268 OA
ATOM      5  H   UNL A   1      32.597  28.847  28.570  1.00  0.00     0.163 HD
BRANCH   3   6
ATOM      6  C   UNL A   1      32.374  27.807  25.327  1.00  0.00     0.289 C 
ATOM      7  C   UNL A   1      31.429  25.613  25.140  1.00  0.00     0.311 C 
ATOM      8  N   UNL A   1      32.713  26.340  25.219  1.00  0.00    -0.317 N 
ATOM      9  S   UNL A   1      30.226  26.700  24.299  1.00  0.00    -0.078 SA
ATOM     10  H   UNL A   1      33.266  26.168  24.379  1.00  0.00     0.348 HD
ATOM     11  H   UNL A   1      33.264  26.030  26.019  1.00  0.00     0.348 HD
ATOM     12  C   UNL A   1      31.418  28.056  24.120  1.00  0.00     0.078 C 
ATOM     13  C   UNL A   1      32.177  27.899  22.774  1.00  0.00     0.030 C 
ATOM     14  C   UNL A   1      30.633  29.348  23.963  1.00  0.00     0.030 C 
BRANCH   7  15
ATOM     15  C   UNL A   1      31.545  24.350  24.360  1.00  0.00     0.172 A 
ATOM     16  C   UNL A   1      32.220  22.293  24.054  1.00  0.00     0.134 A 
ATOM     17  C   UNL A   1      31.441  22.606  22.963  1.00  0.00     0.051 A 
ATOM     18  O   UNL A   1      32.284  23.340  24.916  1.00  0.00    -0.454 OA
ATOM     19  C   UNL A   1      31.003  23.927  23.159  1.00  0.00     0.054 A 
BRANCH  16  20
ATOM     20  C   UNL A   1      32.980  21.113  24.392  1.00  0.00     0.018 A 
ATOM     21  C   UNL A   1      35.143  20.137  24.869  1.00  0.00     0.060 A 
ATOM     22  C   UNL A   1      34.602  18.856  24.719  1.00  0.00     0.016 A 
ATOM     23  C   UNL A   1      34.333  21.262  24.705  1.00  0.00     0.027 A 
ATOM     24  C   UNL A   1      33.240  18.705  24.450  1.00  0.00     0.002 A 
ATOM     25  C   UNL A   1      32.428  19.832  24.290  1.00  0.00     0.012 A 
BRANCH  21  26
ATOM     26  C   UNL A   1      36.590  20.298  25.109  1.00  0.00     0.338 C 
ATOM     27  O   UNL A   1      37.427  19.501  24.713  1.00  0.00    -0.246 OA
BRANCH  26  28
ATOM     28  O   UNL A   1      36.794  21.432  25.817  1.00  0.00    -0.459 OA
BRANCH  28  29
ATOM     29  C   UNL A   1      37.823  22.362  25.417  1.00  0.00     0.170 C 
ATOM     30  C   UNL A   1      37.365  23.816  25.453  1.00  0.00     0.052 C 
ATOM     31  C   UNL A   1      39.108  22.113  26.194  1.00  0.00     0.052 C 
ENDBRANCH  28  29
ENDBRANCH  26  28
ENDBRANCH  21  26
ENDBRANCH  16  20
ENDBRANCH   7  15
ENDBRANCH   3   6
ENDBRANCH   1   2
BRANCH   1  32
ATOM     32  C   UNL A   1      31.672  31.048  26.540  1.00  0.00     0.023 C 
BRANCH  32  33
ATOM     33  C   UNL A   1      31.478  32.523  26.845  1.00  0.00     0.023 C 
BRANCH  33  34
ATOM     34  C   UNL A   1      32.764  33.234  27.214  1.00  0.00     0.116 C 
BRANCH  34  35
ATOM     35  N   UNL A   1      32.568  34.481  27.949  1.00  0.00    -0.352 N 
ATOM     36  C   UNL A   1      33.328  34.967  28.988  1.00  0.00     0.251 C 
ATOM     37  H   UNL A   1      31.806  35.037  27.669  1.00  0.00     0.163 HD
ATOM     38  O   UNL A   1      33.039  36.006  29.566  1.00  0.00    -0.269 OA
BRANCH  36  39
ATOM     39  C   UNL A   1      34.476  34.154  29.417  1.00  0.00     0.039 A 
ATOM     40  C   UNL A   1      35.759  34.543  29.032  1.00  0.00     0.014 A 
ATOM     41  C   UNL A   1      34.274  33.140  30.354  1.00  0.00     0.014 A 
ATOM     42  C   UNL A   1      36.858  33.964  29.661  1.00  0.00     0.010 A 
ATOM     43  C   UNL A   1      35.363  32.647  31.053  1.00  0.00     0.010 A 
ATOM     44  C   UNL A   1      36.664  33.051  30.711  1.00  0.00    -0.014 A 
BRANCH  44  45
ATOM     45  C   UNL A   1      37.801  32.472  31.462  1.00  0.00     0.031 A 
ATOM     46  C   UNL A   1      38.532  31.298  30.878  1.00  0.00     0.074 A 
ATOM     47  C   UNL A   1      38.105  32.926  32.693  1.00  0.00     0.049 A 
ATOM     48  N   UNL A   1      39.444  30.534  31.420  1.00  0.00    -0.248 NA
ATOM     49  C   UNL A   1      38.146  30.897  29.514  1.00  0.00     0.031 C 
ATOM     50  C   UNL A   1      37.429  34.025  33.386  1.00  0.00     0.029 A 
ATOM     51  N   UNL A   1      39.057  32.506  33.587  1.00  0.00    -0.354 N 
ATOM     52  C   UNL A   1      39.709  29.548  30.480  1.00  0.00     0.074 A 
ATOM     53  C   UNL A   1      38.818  29.768  29.363  1.00  0.00     0.031 C 
ATOM     54  C   UNL A   1      38.006  34.209  34.585  1.00  0.00     0.029 A 
ATOM     55  C   UNL A   1      39.062  33.218  34.762  1.00  0.00     0.049 A 
ATOM     56  H   UNL A   1      39.676  31.764  33.404  1.00  0.00     0.167 HD
ATOM     57  C   UNL A   1      40.637  28.563  30.531  1.00  0.00     0.037 A 
ATOM     58  C   UNL A   1      39.832  33.076  35.858  1.00  0.00     0.037 A 
ATOM     59  C   UNL A   1      41.556  28.388  31.620  1.00  0.00     0.049 A 
ATOM     60  C   UNL A   1      40.875  31.991  35.880  1.00  0.00     0.074 A 
ATOM     61  C   UNL A   1      42.582  27.469  31.744  1.00  0.00     0.029 A 
ATOM     62  N   UNL A   1      41.564  29.160  32.773  1.00  0.00    -0.354 N 
ATOM     63  N   UNL A   1      41.160  31.098  34.962  1.00  0.00    -0.248 NA
ATOM     64  C   UNL A   1      41.706  31.896  37.088  1.00  0.00     0.031 C 
ATOM     65  C   UNL A   1      43.192  27.665  32.988  1.00  0.00     0.029 A 
ATOM     66  C   UNL A   1      42.572  28.733  33.619  1.00  0.00     0.049 A 
ATOM     67  H   UNL A   1      40.943  29.902  32.961  1.00  0.00     0.167 HD
ATOM     68  C   UNL A   1      42.221  30.359  35.465  1.00  0.00     0.074 A 
ATOM     69  C   UNL A   1      42.535  30.911  36.767  1.00  0.00     0.031 C 
ATOM     70  C   UNL A   1      42.878  29.317  34.900  1.00  0.00     0.037 A 
BRANCH  57  71
ATOM     71  C   UNL A   1      40.703  27.620  29.367  1.00  0.00     0.064 A 
ATOM     72  C   UNL A   1      41.659  27.771  28.350  1.00  0.00     0.173 A 
ATOM     73  C   UNL A   1      39.802  26.551  29.265  1.00  0.00     0.173 A 
ATOM     74  F   UNL A   1      42.533  28.788  28.391  1.00  0.00    -0.203 F 
ATOM     75  C   UNL A   1      41.684  26.911  27.256  1.00  0.00     0.198 A 
ATOM     76  C   UNL A   1      39.851  25.671  28.187  1.00  0.00     0.198 A 
ATOM     77  F   UNL A   1      38.868  26.360  30.210  1.00  0.00    -0.203 F 
ATOM     78  F   UNL A   1      42.565  27.115  26.267  1.00  0.00    -0.200 F 
ATOM     79  C   UNL A   1      40.785  25.859  27.179  1.00  0.00     0.200 A 
ATOM     80  F   UNL A   1      38.988  24.650  28.117  1.00  0.00    -0.200 F 
ATOM     81  F   UNL A   1      40.811  25.030  26.125  1.00  0.00    -0.200 F 
ENDBRANCH  57  71
BRANCH  58  82
ATOM     82  C   UNL A   1      39.674  34.008  37.004  1.00  0.00     0.064 A 
ATOM     83  C   UNL A   1      38.879  33.658  38.106  1.00  0.00     0.173 A 
ATOM     84  C   UNL A   1      40.306  35.259  37.029  1.00  0.00     0.173 A 
ATOM     85  F   UNL A   1      38.239  32.479  38.120  1.00  0.00    -0.203 F 
ATOM     86  C   UNL A   1      38.708  34.530  39.179  1.00  0.00     0.198 A 
ATOM     87  C   UNL A   1      40.154  36.121  38.115  1.00  0.00     0.198 A 
ATOM     88  F   UNL A   1      41.081  35.639  36.004  1.00  0.00    -0.203 F 
ATOM     89  F   UNL A   1      37.910  34.185  40.198  1.00  0.00    -0.200 F 
ATOM     90  C   UNL A   1      39.350  35.758  39.185  1.00  0.00     0.200 A 
ATOM     91  F   UNL A   1      40.785  37.302  38.122  1.00  0.00    -0.200 F 
ATOM     92  F   UNL A   1      39.187  36.597  40.217  1.00  0.00    -0.200 F 
ENDBRANCH  58  82
BRANCH  70  93
ATOM     93  C   UNL A   1      44.031  28.735  35.659  1.00  0.00     0.064 A 
ATOM     94  C   UNL A   1      45.334  29.232  35.514  1.00  0.00     0.173 A 
ATOM     95  C   UNL A   1      43.814  27.714  36.598  1.00  0.00     0.173 A 
ATOM     96  F   UNL A   1      45.592  30.197  34.620  1.00  0.00    -0.203 F 
ATOM     97  C   UNL A   1      46.381  28.716  36.273  1.00  0.00     0.198 A 
ATOM     98  C   UNL A   1      44.858  27.220  37.372  1.00  0.00     0.198 A 
ATOM     99  F   UNL A   1      42.583  27.211  36.777  1.00  0.00    -0.203 F 
ATOM    100  F   UNL A   1      47.625  29.183  36.095  1.00  0.00    -0.200 F 
ATOM    101  C   UNL A   1      46.142  27.720  37.207  1.00  0.00     0.200 A 
ATOM    102  F   UNL A   1      44.622  26.268  38.285  1.00  0.00    -0.200 F 
ATOM    103  F   UNL A   1      47.149  27.237  37.947  1.00  0.00    -0.200 F 
ENDBRANCH  70  93
ENDBRANCH  44  45
ENDBRANCH  36  39
ENDBRANCH  34  35
ENDBRANCH  33  34
ENDBRANCH  32  33
ENDBRANCH   1  32
TORSDOF 16
ENDMDL
MODEL 2
REMARK VINA RESULT:     -12.5      1.468      7.542
REMARK SMILES CC(C)OC(=O)c1cccc(-c2ccc([C@H]3[NH2+][C@H](C(=O)NCCCCNC(=O)c4ccc(-c5c6nc(c(-c7c(F)c(F)c(F)c(F)c7F)c7ccc([nH]7)c(-c7c(F)c(F)c(F)c(F)c7F)c7nc(c(-c8c(F)c(F)c(F)c(F)c8F)c8ccc5[nH]8)C=C7)C=C6)cc4)C(C)(C)S3)o2)c1
REMARK SMILES IDX 22 1 21 2 19 3 20 4 18 6 16 7 17 8 95 9 92 12 93 13 94 14
REMARK SMILES IDX 15 15 12 16 13 17 96 18 14 19 11 20 7 21 8 22 97 23 9 24
REMARK SMILES IDX 10 25 5 26 6 27 4 28 2 29 1 30 3 31 23 32 24 33 25 34 26 35
REMARK SMILES IDX 27 36 28 38 29 39 30 40 91 41 31 42 90 43 32 44 33 45 34 46
REMARK SMILES IDX 84 47 35 48 89 49 83 50 85 51 36 52 88 53 82 54 81 55 37 57
REMARK SMILES IDX 69 58 49 59 68 60 50 61 53 62 67 63 86 64 51 65 52 66 66 68
REMARK SMILES IDX 87 69 54 70 38 71 39 72 47 73 40 74 41 75 45 76 48 77 42 78
REMARK SMILES IDX 43 79 46 80 44 81 70 82 71 83 79 84 72 85 73 86 77 87 80 88
REMARK SMILES IDX 74 89 75 90 78 91 76 92 55 93 56 94 64 95 57 96 58 97 62 98
REMARK SMILES IDX 65 99 59 100 60 101 63 102 61 103
REMARK H PARENT 21 5 17 10 17 11 26 37 85 56 53 67
REMARK Flexibility Score: inf
ROOT
ATOM      1  C   UNL A   1      32.732  29.455  25.918  1.00  0.00     0.116 C 
ENDROOT
BRANCH   1   2
ATOM      2  N   UNL A   1      31.569  28.724  25.504  1.00  0.00    -0.351 N 
ATOM      3  C   UNL A   1      31.415  27.816  24.508  1.00  0.00     0.279 C 
ATOM      4  O   UNL A   1      30.240  27.706  24.131  1.00  0.00    -0.268 OA
ATOM      5  H   UNL A   1      30.755  28.910  26.026  1.00  0.00     0.163 HD
BRANCH   3   6
ATOM      6  C   UNL A   1      32.563  26.849  23.993  1.00  0.00     0.289 C 
ATOM      7  C   UNL A   1      31.967  24.966  25.351  1.00  0.00     0.311 C 
ATOM      8  N   UNL A   1      32.965  26.047  25.208  1.00  0.00    -0.317 N 
ATOM      9  S   UNL A   1      31.385  24.523  23.678  1.00  0.00    -0.078 SA
ATOM     10  H   UNL A   1      33.895  25.652  25.076  1.00  0.00     0.348 HD
ATOM     11  H   UNL A   1      32.995  26.634  26.042  1.00  0.00     0.348 HD
ATOM     12  C   UNL A   1      32.422  25.774  22.871  1.00  0.00     0.078 C 
ATOM     13  C   UNL A   1      33.802  25.153  22.526  1.00  0.00     0.030 C 
ATOM     14  C   UNL A   1      31.802  26.092  21.520  1.00  0.00     0.030 C 
BRANCH   7  15
ATOM     15  C   UNL A   1      32.545  23.749  25.985  1.00  0.00     0.172 A 
ATOM     16  C   UNL A   1      33.857  22.001  26.032  1.00  0.00     0.134 A 
ATOM     17  C   UNL A   1      33.247  22.054  27.264  1.00  0.00     0.051 A 
ATOM     18  O   UNL A   1      33.447  23.031  25.247  1.00  0.00    -0.454 OA
ATOM     19  C   UNL A   1      32.404  23.179  27.237  1.00  0.00     0.054 A 
BRANCH  16  20
ATOM     20  C   UNL A   1      34.776  21.052  25.449  1.00  0.00     0.018 A 
ATOM     21  C   UNL A   1      35.149  18.815  24.606  1.00  0.00     0.060 A 
ATOM     22  C   UNL A   1      36.531  19.033  24.629  1.00  0.00     0.016 A 
ATOM     23  C   UNL A   1      34.275  19.823  25.015  1.00  0.00     0.027 A 
ATOM     24  C   UNL A   1      37.031  20.277  25.020  1.00  0.00     0.002 A 
ATOM     25  C   UNL A   1      36.155  21.287  25.426  1.00  0.00     0.012 A 
BRANCH  21  26
ATOM     26  C   UNL A   1      34.622  17.487  24.235  1.00  0.00     0.338 C 
ATOM     27  O   UNL A   1      34.400  17.154  23.081  1.00  0.00    -0.246 OA
BRANCH  26  28
ATOM     28  O   UNL A   1      34.441  16.757  25.358  1.00  0.00    -0.459 OA
BRANCH  28  29
ATOM     29  C   UNL A   1      33.114  16.348  25.751  1.00  0.00     0.170 C 
ATOM     30  C   UNL A   1      32.023  17.292  25.257  1.00  0.00     0.052 C 
ATOM     31  C   UNL A   1      32.867  14.891  25.382  1.00  0.00     0.052 C 
ENDBRANCH  28  29
ENDBRANCH  26  28
ENDBRANCH  21  26
ENDBRANCH  16  20
ENDBRANCH   7  15
ENDBRANCH   3   6
ENDBRANCH   1   2
BRANCH   1  32
ATOM     32  C   UNL A   1      32.397  30.231  27.192  1.00  0.00     0.023 C 
BRANCH  32  33
ATOM     33  C   UNL A   1      31.996  31.681  26.985  1.00  0.00     0.023 C 
BRANCH  33  34
ATOM     34  C   UNL A   1      33.088  32.665  27.353  1.00  0.00     0.116 C 
BRANCH  34  35
ATOM     35  N   UNL A   1      32.605  34.012  27.650  1.00  0.00    -0.352 N 
ATOM     36  C   UNL A   1      33.073  34.874  28.614  1.00  0.00     0.251 C 
ATOM     37  H   UNL A   1      31.861  34.339  27.096  1.00  0.00     0.163 HD
ATOM     38  O   UNL A   1      32.556  35.965  28.808  1.00  0.00    -0.269 OA
BRANCH  36  39
ATOM     39  C   UNL A   1      34.190  34.404  29.448  1.00  0.00     0.039 A 
ATOM     40  C   UNL A   1      33.913  33.610  30.561  1.00  0.00     0.014 A 
ATOM     41  C   UNL A   1      35.497  34.593  28.997  1.00  0.00     0.014 A 
ATOM     42  C   UNL A   1      34.957  32.926  31.179  1.00  0.00     0.010 A 
ATOM     43  C   UNL A   1      36.513  33.829  29.545  1.00  0.00     0.010 A 
ATOM     44  C   UNL A   1      36.253  32.991  30.642  1.00  0.00    -0.014 A 
BRANCH  44  45
ATOM     45  C   UNL A   1      37.377  32.218  31.219  1.00  0.00     0.031 A 
ATOM     46  C   UNL A   1      37.866  32.567  32.594  1.00  0.00     0.074 A 
ATOM     47  C   UNL A   1      38.013  31.289  30.479  1.00  0.00     0.049 A 
ATOM     48  N   UNL A   1      38.924  32.140  33.232  1.00  0.00    -0.248 NA
ATOM     49  C   UNL A   1      37.085  33.573  33.333  1.00  0.00     0.031 C 
ATOM     50  C   UNL A   1      37.662  30.904  29.110  1.00  0.00     0.029 A 
ATOM     51  N   UNL A   1      39.102  30.509  30.774  1.00  0.00    -0.354 N 
ATOM     52  C   UNL A   1      38.952  32.852  34.423  1.00  0.00     0.074 A 
ATOM     53  C   UNL A   1      37.847  33.783  34.393  1.00  0.00     0.031 C 
ATOM     54  C   UNL A   1      38.502  29.942  28.696  1.00  0.00     0.029 A 
ATOM     55  C   UNL A   1      39.474  29.671  29.750  1.00  0.00     0.049 A 
ATOM     56  H   UNL A   1      39.572  30.546  31.637  1.00  0.00     0.167 HD
ATOM     57  C   UNL A   1      39.807  32.718  35.465  1.00  0.00     0.037 A 
ATOM     58  C   UNL A   1      40.490  28.792  29.676  1.00  0.00     0.037 A 
ATOM     59  C   UNL A   1      40.867  31.750  35.508  1.00  0.00     0.049 A 
ATOM     60  C   UNL A   1      41.411  28.641  30.857  1.00  0.00     0.074 A 
ATOM     61  C   UNL A   1      41.746  31.480  36.540  1.00  0.00     0.029 A 
ATOM     62  N   UNL A   1      41.183  30.885  34.471  1.00  0.00    -0.354 N 
ATOM     63  N   UNL A   1      41.395  29.277  32.005  1.00  0.00    -0.248 NA
ATOM     64  C   UNL A   1      42.488  27.649  30.736  1.00  0.00     0.031 C 
ATOM     65  C   UNL A   1      42.616  30.470  36.115  1.00  0.00     0.029 A 
ATOM     66  C   UNL A   1      42.251  30.084  34.835  1.00  0.00     0.049 A 
ATOM     67  H   UNL A   1      40.716  30.846  33.605  1.00  0.00     0.167 HD
ATOM     68  C   UNL A   1      42.434  28.740  32.753  1.00  0.00     0.074 A 
ATOM     69  C   UNL A   1      43.058  27.723  31.932  1.00  0.00     0.031 C 
ATOM     70  C   UNL A   1      42.836  29.061  34.006  1.00  0.00     0.037 A 
BRANCH  57  71
ATOM     71  C   UNL A   1      39.609  33.632  36.638  1.00  0.00     0.064 A 
ATOM     72  C   UNL A   1      38.820  33.260  37.737  1.00  0.00     0.173 A 
ATOM     73  C   UNL A   1      40.219  34.895  36.666  1.00  0.00     0.173 A 
ATOM     74  F   UNL A   1      38.201  32.070  37.751  1.00  0.00    -0.203 F 
ATOM     75  C   UNL A   1      38.614  34.133  38.801  1.00  0.00     0.198 A 
ATOM     76  C   UNL A   1      40.040  35.753  37.747  1.00  0.00     0.198 A 
ATOM     77  F   UNL A   1      40.986  35.300  35.642  1.00  0.00    -0.203 F 
ATOM     78  F   UNL A   1      37.803  33.780  39.807  1.00  0.00    -0.200 F 
ATOM     79  C   UNL A   1      39.229  35.376  38.808  1.00  0.00     0.200 A 
ATOM     80  F   UNL A   1      40.641  36.949  37.758  1.00  0.00    -0.200 F 
ATOM     81  F   UNL A   1      39.032  36.216  39.834  1.00  0.00    -0.200 F 
ENDBRANCH  57  71
BRANCH  58  82
ATOM     82  C   UNL A   1      40.667  27.958  28.459  1.00  0.00     0.064 A 
ATOM     83  C   UNL A   1      41.440  28.419  27.383  1.00  0.00     0.173 A 
ATOM     84  C   UNL A   1      40.074  26.693  28.340  1.00  0.00     0.173 A 
ATOM     85  F   UNL A   1      42.012  29.631  27.442  1.00  0.00    -0.203 F 
ATOM     86  C   UNL A   1      41.598  27.655  26.229  1.00  0.00     0.198 A 
ATOM     87  C   UNL A   1      40.253  25.919  27.195  1.00  0.00     0.198 A 
ATOM     88  F   UNL A   1      39.330  26.204  29.343  1.00  0.00    -0.203 F 
ATOM     89  F   UNL A   1      42.308  28.138  25.200  1.00  0.00    -0.200 F 
ATOM     90  C   UNL A   1      41.009  26.403  26.138  1.00  0.00     0.200 A 
ATOM     91  F   UNL A   1      39.692  24.705  27.115  1.00  0.00    -0.200 F 
ATOM     92  F   UNL A   1      41.162  25.668  25.029  1.00  0.00    -0.200 F 
ENDBRANCH  58  82
BRANCH  70  93
ATOM     93  C   UNL A   1      43.971  28.274  34.590  1.00  0.00     0.064 A 
ATOM     94  C   UNL A   1      43.757  27.065  35.265  1.00  0.00     0.173 A 
ATOM     95  C   UNL A   1      45.294  28.703  34.405  1.00  0.00     0.173 A 
ATOM     96  F   UNL A   1      42.509  26.622  35.477  1.00  0.00    -0.203 F 
ATOM     97  C   UNL A   1      44.829  26.320  35.747  1.00  0.00     0.198 A 
ATOM     98  C   UNL A   1      46.364  27.943  34.866  1.00  0.00     0.198 A 
ATOM     99  F   UNL A   1      45.549  29.851  33.759  1.00  0.00    -0.203 F 
ATOM    100  F   UNL A   1      44.602  25.182  36.418  1.00  0.00    -0.200 F 
ATOM    101  C   UNL A   1      46.130  26.753  35.539  1.00  0.00     0.200 A 
ATOM    102  F   UNL A   1      47.620  28.356  34.651  1.00  0.00    -0.200 F 
ATOM    103  F   UNL A   1      47.160  26.025  35.990  1.00  0.00    -0.200 F 
ENDBRANCH  70  93
ENDBRANCH  44  45
ENDBRANCH  36  39
ENDBRANCH  34  35
ENDBRANCH  33  34
ENDBRANCH  32  33
ENDBRANCH   1  32
TORSDOF 16
ENDMDL
MODEL 3
REMARK VINA RESULT:     -12.2      2.379      7.936
REMARK SMILES CC(C)OC(=O)c1cccc(-c2ccc([C@H]3[NH2+][C@H](C(=O)NCCCCNC(=O)c4ccc(-c5c6nc(c(-c7c(F)c(F)c(F)c(F)c7F)c7ccc([nH]7)c(-c7c(F)c(F)c(F)c(F)c7F)c7nc(c(-c8c(F)c(F)c(F)c(F)c8F)c8ccc5[nH]8)C=C7)C=C6)cc4)C(C)(C)S3)o2)c1
REMARK SMILES IDX 22 1 21 2 19 3 20 4 18 6 16 7 17 8 95 9 92 12 93 13 94 14
REMARK SMILES IDX 15 15 12 16 13 17 96 18 14 19 11 20 7 21 8 22 97 23 9 24
REMARK SMILES IDX 10 25 5 26 6 27 4 28 2 29 1 30 3 31 23 32 24 33 25 34 26 35
REMARK SMILES IDX 27 36 28 38 29 39 30 40 91 41 31 42 90 43 32 44 33 45 34 46
REMARK SMILES IDX 84 47 35 48 89 49 83 50 85 51 36 52 88 53 82 54 81 55 37 57
REMARK SMILES IDX 69 58 49 59 68 60 50 61 53 62 67 63 86 64 51 65 52 66 66 68
REMARK SMILES IDX 87 69 54 70 38 71 39 72 47 73 40 74 41 75 45 76 48 77 42 78
REMARK SMILES IDX 43 79 46 80 44 81 70 82 71 83 79 84 72 85 73 86 77 87 80 88
REMARK SMILES IDX 74 89 75 90 78 91 76 92 55 93 56 94 64 95 57 96 58 97 62 98
REMARK SMILES IDX 65 99 59 100 60 101 63 102 61 103
REMARK H PARENT 21 5 17 10 17 11 26 37 85 56 53 67
REMARK Flexibility Score: inf
ROOT
ATOM      1  C   UNL A   1      33.000  27.124  24.010  1.00  0.00     0.116 C 
ENDROOT
BRANCH   1   2
ATOM      2  N   UNL A   1      32.770  26.627  25.336  1.00  0.00    -0.351 N 
ATOM      3  C   UNL A   1      32.193  25.471  25.750  1.00  0.00     0.279 C 
ATOM      4  O   UNL A   1      31.754  25.535  26.907  1.00  0.00    -0.268 OA
ATOM      5  H   UNL A   1      33.080  27.217  26.060  1.00  0.00     0.163 HD
BRANCH   3   6
ATOM      6  C   UNL A   1      32.229  24.110  24.933  1.00  0.00     0.289 C 
ATOM      7  C   UNL A   1      34.315  23.320  25.807  1.00  0.00     0.311 C 
ATOM      8  N   UNL A   1      33.686  23.899  24.602  1.00  0.00    -0.317 N 
ATOM      9  S   UNL A   1      33.053  22.316  26.663  1.00  0.00    -0.078 SA
ATOM     10  H   UNL A   1      33.779  23.258  23.815  1.00  0.00     0.348 HD
ATOM     11  H   UNL A   1      34.134  24.777  24.338  1.00  0.00     0.348 HD
ATOM     12  C   UNL A   1      31.762  22.716  25.454  1.00  0.00     0.078 C 
ATOM     13  C   UNL A   1      31.784  21.665  24.311  1.00  0.00     0.030 C 
ATOM     14  C   UNL A   1      30.414  22.514  26.126  1.00  0.00     0.030 C 
BRANCH   7  15
ATOM     15  C   UNL A   1      35.468  22.439  25.472  1.00  0.00     0.172 A 
ATOM     16  C   UNL A   1      37.547  21.785  25.643  1.00  0.00     0.134 A 
ATOM     17  C   UNL A   1      36.932  20.886  24.801  1.00  0.00     0.051 A 
ATOM     18  O   UNL A   1      36.667  22.729  26.066  1.00  0.00    -0.454 OA
ATOM     19  C   UNL A   1      35.593  21.304  24.692  1.00  0.00     0.054 A 
BRANCH  16  20
ATOM     20  C   UNL A   1      38.914  21.911  26.088  1.00  0.00     0.018 A 
ATOM     21  C   UNL A   1      41.100  20.894  26.302  1.00  0.00     0.060 A 
ATOM     22  C   UNL A   1      41.485  21.901  27.193  1.00  0.00     0.016 A 
ATOM     23  C   UNL A   1      39.818  20.900  25.751  1.00  0.00     0.027 A 
ATOM     24  C   UNL A   1      40.598  22.936  27.496  1.00  0.00     0.002 A 
ATOM     25  C   UNL A   1      39.315  22.944  26.941  1.00  0.00     0.012 A 
BRANCH  21  26
ATOM     26  C   UNL A   1      42.021  19.777  26.016  1.00  0.00     0.338 C 
ATOM     27  O   UNL A   1      41.640  18.647  25.751  1.00  0.00    -0.246 OA
BRANCH  26  28
ATOM     28  O   UNL A   1      43.294  20.223  26.105  1.00  0.00    -0.459 OA
BRANCH  28  29
ATOM     29  C   UNL A   1      44.217  20.004  25.018  1.00  0.00     0.170 C 
ATOM     30  C   UNL A   1      44.966  21.266  24.603  1.00  0.00     0.052 C 
ATOM     31  C   UNL A   1      45.135  18.827  25.318  1.00  0.00     0.052 C 
ENDBRANCH  28  29
ENDBRANCH  26  28
ENDBRANCH  21  26
ENDBRANCH  16  20
ENDBRANCH   7  15
ENDBRANCH   3   6
ENDBRANCH   1   2
BRANCH   1  32
ATOM     32  C   UNL A   1      33.004  28.652  24.052  1.00  0.00     0.023 C 
BRANCH  32  33
ATOM     33  C   UNL A   1      32.314  29.273  25.254  1.00  0.00     0.023 C 
BRANCH  33  34
ATOM     34  C   UNL A   1      33.280  29.803  26.294  1.00  0.00     0.116 C 
BRANCH  34  35
ATOM     35  N   UNL A   1      32.945  31.133  26.799  1.00  0.00    -0.352 N 
ATOM     36  C   UNL A   1      33.720  31.945  27.593  1.00  0.00     0.251 C 
ATOM     37  H   UNL A   1      32.063  31.486  26.543  1.00  0.00     0.163 HD
ATOM     38  O   UNL A   1      33.315  33.025  28.000  1.00  0.00    -0.269 OA
BRANCH  36  39
ATOM     39  C   UNL A   1      35.045  31.436  27.981  1.00  0.00     0.039 A 
ATOM     40  C   UNL A   1      36.100  32.339  28.118  1.00  0.00     0.014 A 
ATOM     41  C   UNL A   1      35.165  30.109  28.395  1.00  0.00     0.014 A 
ATOM     42  C   UNL A   1      37.265  31.923  28.758  1.00  0.00     0.010 A 
ATOM     43  C   UNL A   1      36.279  29.733  29.126  1.00  0.00     0.010 A 
ATOM     44  C   UNL A   1      37.339  30.634  29.311  1.00  0.00    -0.014 A 
BRANCH  44  45
ATOM     45  C   UNL A   1      38.527  30.178  30.070  1.00  0.00     0.031 A 
ATOM     46  C   UNL A   1      38.679  30.603  31.501  1.00  0.00     0.074 A 
ATOM     47  C   UNL A   1      39.500  29.480  29.453  1.00  0.00     0.049 A 
ATOM     48  N   UNL A   1      39.700  30.459  32.305  1.00  0.00    -0.248 NA
ATOM     49  C   UNL A   1      37.547  31.334  32.093  1.00  0.00     0.031 C 
ATOM     50  C   UNL A   1      39.487  29.058  28.051  1.00  0.00     0.029 A 
ATOM     51  N   UNL A   1      40.700  29.016  29.928  1.00  0.00    -0.354 N 
ATOM     52  C   UNL A   1      39.344  31.114  33.477  1.00  0.00     0.074 A 
ATOM     53  C   UNL A   1      38.046  31.709  33.259  1.00  0.00     0.031 C 
ATOM     54  C   UNL A   1      40.613  28.374  27.788  1.00  0.00     0.029 A 
ATOM     55  C   UNL A   1      41.443  28.345  28.987  1.00  0.00     0.049 A 
ATOM     56  H   UNL A   1      41.001  29.153  30.854  1.00  0.00     0.167 HD
ATOM     57  C   UNL A   1      40.028  31.184  34.643  1.00  0.00     0.037 A 
ATOM     58  C   UNL A   1      42.660  27.778  29.088  1.00  0.00     0.037 A 
ATOM     59  C   UNL A   1      41.292  30.540  34.868  1.00  0.00     0.049 A 
ATOM     60  C   UNL A   1      43.390  27.845  30.403  1.00  0.00     0.074 A 
ATOM     61  C   UNL A   1      42.038  30.486  36.030  1.00  0.00     0.029 A 
ATOM     62  N   UNL A   1      41.992  29.826  33.905  1.00  0.00    -0.354 N 
ATOM     63  N   UNL A   1      43.020  28.416  31.525  1.00  0.00    -0.248 NA
ATOM     64  C   UNL A   1      44.702  27.188  30.468  1.00  0.00     0.031 C 
ATOM     65  C   UNL A   1      43.207  29.765  35.763  1.00  0.00     0.029 A 
ATOM     66  C   UNL A   1      43.167  29.335  34.445  1.00  0.00     0.049 A 
ATOM     67  H   UNL A   1      41.695  29.689  32.976  1.00  0.00     0.167 HD
ATOM     68  C   UNL A   1      44.035  28.159  32.436  1.00  0.00     0.074 A 
ATOM     69  C   UNL A   1      45.035  27.376  31.738  1.00  0.00     0.031 C 
ATOM     70  C   UNL A   1      44.132  28.537  33.734  1.00  0.00     0.037 A 
BRANCH  57  71
ATOM     71  C   UNL A   1      39.407  31.972  35.758  1.00  0.00     0.064 A 
ATOM     72  C   UNL A   1      39.719  33.325  35.967  1.00  0.00     0.173 A 
ATOM     73  C   UNL A   1      38.486  31.370  36.627  1.00  0.00     0.173 A 
ATOM     74  F   UNL A   1      40.607  33.942  35.173  1.00  0.00    -0.203 F 
ATOM     75  C   UNL A   1      39.164  34.033  37.028  1.00  0.00     0.198 A 
ATOM     76  C   UNL A   1      37.906  32.091  37.668  1.00  0.00     0.198 A 
ATOM     77  F   UNL A   1      38.151  30.080  36.472  1.00  0.00    -0.203 F 
ATOM     78  F   UNL A   1      39.529  35.304  37.245  1.00  0.00    -0.200 F 
ATOM     79  C   UNL A   1      38.254  33.418  37.873  1.00  0.00     0.200 A 
ATOM     80  F   UNL A   1      37.020  31.499  38.478  1.00  0.00    -0.200 F 
ATOM     81  F   UNL A   1      37.719  34.101  38.895  1.00  0.00    -0.200 F 
ENDBRANCH  57  71
BRANCH  58  82
ATOM     82  C   UNL A   1      43.247  27.062  27.925  1.00  0.00     0.064 A 
ATOM     83  C   UNL A   1      43.852  27.775  26.879  1.00  0.00     0.173 A 
ATOM     84  C   UNL A   1      43.219  25.664  27.830  1.00  0.00     0.173 A 
ATOM     85  F   UNL A   1      43.888  29.115  26.917  1.00  0.00    -0.203 F 
ATOM     86  C   UNL A   1      44.390  27.117  25.775  1.00  0.00     0.198 A 
ATOM     87  C   UNL A   1      43.778  25.005  26.736  1.00  0.00     0.198 A 
ATOM     88  F   UNL A   1      42.656  24.936  28.805  1.00  0.00    -0.203 F 
ATOM     89  F   UNL A   1      44.924  27.826  24.771  1.00  0.00    -0.200 F 
ATOM     90  C   UNL A   1      44.357  25.733  25.706  1.00  0.00     0.200 A 
ATOM     91  F   UNL A   1      43.756  23.667  26.678  1.00  0.00    -0.200 F 
ATOM     92  F   UNL A   1      44.875  25.100  24.645  1.00  0.00    -0.200 F 
ENDBRANCH  58  82
BRANCH  70  93
ATOM     93  C   UNL A   1      45.333  28.070  34.501  1.00  0.00     0.064 A 
ATOM     94  C   UNL A   1      45.343  26.841  35.174  1.00  0.00     0.173 A 
ATOM     95  C   UNL A   1      46.510  28.833  34.499  1.00  0.00     0.173 A 
ATOM     96  F   UNL A   1      44.237  26.084  35.214  1.00  0.00    -0.203 F 
ATOM     97  C   UNL A   1      46.488  26.399  35.830  1.00  0.00     0.198 A 
ATOM     98  C   UNL A   1      47.660  28.375  35.134  1.00  0.00     0.198 A 
ATOM     99  F   UNL A   1      46.551  30.013  33.862  1.00  0.00    -0.203 F 
ATOM    100  F   UNL A   1      46.467  25.235  36.496  1.00  0.00    -0.200 F 
ATOM    101  C   UNL A   1      47.647  27.160  35.802  1.00  0.00     0.200 A 
ATOM    102  F   UNL A   1      48.783  29.105  35.093  1.00  0.00    -0.200 F 
ATOM    103  F   UNL A   1      48.752  26.724  36.422  1.00  0.00    -0.200 F 
ENDBRANCH  70  93
ENDBRANCH  44  45
ENDBRANCH  36  39
ENDBRANCH  34  35
ENDBRANCH  33  34
ENDBRANCH  32  33
ENDBRANCH   1  32
TORSDOF 16
ENDMDL
