MODEL 1
REMARK VINA RESULT:     -12.0      0.000      0.000
REMARK SMILES CO[C@@H]1C[C@H](C(=O)NCCCCNC(=O)c2ccc(-c3c4nc(c(-c5c(F)c(F)c(F)c(F)c5F)c5ccc([nH]5)c(-c5c(F)c(F)c(F)c(F)c5F)c5nc(c(-c6c(F)c(F)c(F)c(F)c6F)c6ccc3[nH]6)C=C5)C=C4)cc2)N(C(=O)[C@H](CC(C)C)NC(N)=O)C1
REMARK SMILES IDX 9 1 8 2 6 3 7 4 5 6 3 7 4 8 91 9 79 10 2 11 1 12 80 13 81 14
REMARK SMILES IDX 82 15 87 16 88 17 89 19 90 20 83 23 84 24 85 25 86 26 10 27
REMARK SMILES IDX 11 28 12 29 13 30 14 31 15 33 16 34 17 35 78 36 18 37 77 38
REMARK SMILES IDX 19 39 20 40 21 41 71 42 22 43 76 44 70 45 72 46 23 47 75 48
REMARK SMILES IDX 69 49 68 50 24 52 56 53 36 54 55 55 37 56 40 57 54 58 73 59
REMARK SMILES IDX 38 60 39 61 53 63 74 64 41 65 25 66 26 67 34 68 27 69 28 70
REMARK SMILES IDX 32 71 35 72 29 73 30 74 33 75 31 76 57 77 58 78 66 79 59 80
REMARK SMILES IDX 60 81 64 82 67 83 61 84 62 85 65 86 63 87 42 88 43 89 51 90
REMARK SMILES IDX 44 91 45 92 49 93 52 94 46 95 47 96 50 97 48 98
REMARK H PARENT 8 5 87 18 89 21 89 22 13 32 72 51 40 62
REMARK Flexibility Score: inf
ROOT
ATOM      1  C   UNL A   1      33.467  29.696  26.093  1.00  0.00     0.116 C 
ENDROOT
BRANCH   1   2
ATOM      2  N   UNL A   1      33.156  29.866  24.687  1.00  0.00    -0.354 N 
ATOM      3  C   UNL A   1      33.191  28.849  23.770  1.00  0.00     0.242 C 
ATOM      4  O   UNL A   1      33.921  29.001  22.785  1.00  0.00    -0.273 OA
ATOM      5  H   UNL A   1      32.906  30.765  24.372  1.00  0.00     0.163 HD
BRANCH   3   6
ATOM      6  C   UNL A   1      32.288  27.588  23.890  1.00  0.00     0.177 C 
ATOM      7  C   UNL A   1      30.228  27.798  22.678  1.00  0.00     0.139 C 
ATOM      8  C   UNL A   1      30.815  27.917  24.080  1.00  0.00     0.069 C 
ATOM      9  C   UNL A   1      31.094  26.697  22.022  1.00  0.00     0.152 C 
ATOM     10  N   UNL A   1      32.325  26.625  22.815  1.00  0.00    -0.326 N 
BRANCH   7  11
ATOM     11  O   UNL A   1      30.323  29.017  21.944  1.00  0.00    -0.380 OA
ATOM     12  C   UNL A   1      29.477  30.057  22.430  1.00  0.00     0.195 C 
ENDBRANCH   7  11
BRANCH  10  13
ATOM     13  C   UNL A   1      33.260  25.634  22.607  1.00  0.00     0.246 C 
ATOM     14  O   UNL A   1      33.696  25.442  21.463  1.00  0.00    -0.272 OA
BRANCH  13  15
ATOM     15  C   UNL A   1      33.613  24.619  23.762  1.00  0.00     0.173 C 
BRANCH  15  16
ATOM     16  N   UNL A   1      32.316  23.967  24.042  1.00  0.00    -0.327 N 
ATOM     17  C   UNL A   1      31.654  24.088  25.218  1.00  0.00     0.312 C 
ATOM     18  H   UNL A   1      31.912  23.413  23.336  1.00  0.00     0.166 HD
ATOM     19  N   UNL A   1      30.575  23.275  25.302  1.00  0.00    -0.352 N 
ATOM     20  O   UNL A   1      31.987  24.818  26.140  1.00  0.00    -0.249 OA
ATOM     21  H   UNL A   1      30.333  22.699  24.542  1.00  0.00     0.161 HD
ATOM     22  H   UNL A   1      30.034  23.260  26.125  1.00  0.00     0.161 HD
ENDBRANCH  15  16
BRANCH  15  23
ATOM     23  C   UNL A   1      34.639  23.487  23.529  1.00  0.00     0.038 C 
BRANCH  23  24
ATOM     24  C   UNL A   1      36.016  23.541  24.221  1.00  0.00    -0.015 C 
ATOM     25  C   UNL A   1      35.987  23.788  25.733  1.00  0.00     0.007 C 
ATOM     26  C   UNL A   1      36.828  22.272  23.942  1.00  0.00     0.007 C 
ENDBRANCH  23  24
ENDBRANCH  15  23
ENDBRANCH  13  15
ENDBRANCH  10  13
ENDBRANCH   3   6
ENDBRANCH   1   2
BRANCH   1  27
ATOM     27  C   UNL A   1      32.255  30.093  26.945  1.00  0.00     0.023 C 
BRANCH  27  28
ATOM     28  C   UNL A   1      31.893  31.570  26.893  1.00  0.00     0.023 C 
BRANCH  28  29
ATOM     29  C   UNL A   1      32.948  32.493  27.480  1.00  0.00     0.116 C 
BRANCH  29  30
ATOM     30  N   UNL A   1      32.501  33.868  27.665  1.00  0.00    -0.352 N 
ATOM     31  C   UNL A   1      32.991  34.821  28.532  1.00  0.00     0.251 C 
ATOM     32  H   UNL A   1      31.750  34.154  27.096  1.00  0.00     0.163 HD
ATOM     33  O   UNL A   1      32.473  35.915  28.636  1.00  0.00    -0.269 OA
BRANCH  31  34
ATOM     34  C   UNL A   1      34.146  34.451  29.373  1.00  0.00     0.039 A 
ATOM     35  C   UNL A   1      33.914  33.857  30.614  1.00  0.00     0.014 A 
ATOM     36  C   UNL A   1      35.441  34.585  28.870  1.00  0.00     0.014 A 
ATOM     37  C   UNL A   1      34.987  33.316  31.319  1.00  0.00     0.010 A 
ATOM     38  C   UNL A   1      36.489  33.956  29.522  1.00  0.00     0.010 A 
ATOM     39  C   UNL A   1      36.274  33.320  30.755  1.00  0.00    -0.014 A 
BRANCH  39  40
ATOM     40  C   UNL A   1      37.423  32.684  31.440  1.00  0.00     0.031 A 
ATOM     41  C   UNL A   1      38.140  31.545  30.773  1.00  0.00     0.074 A 
ATOM     42  C   UNL A   1      37.756  33.068  32.687  1.00  0.00     0.049 A 
ATOM     43  N   UNL A   1      39.094  30.781  31.238  1.00  0.00    -0.248 NA
ATOM     44  C   UNL A   1      37.690  31.186  29.417  1.00  0.00     0.031 C 
ATOM     45  C   UNL A   1      37.080  34.108  33.466  1.00  0.00     0.029 A 
ATOM     46  N   UNL A   1      38.742  32.615  33.526  1.00  0.00    -0.354 N 
ATOM     47  C   UNL A   1      39.326  29.832  30.251  1.00  0.00     0.074 A 
ATOM     48  C   UNL A   1      38.377  30.079  29.188  1.00  0.00     0.031 C 
ATOM     49  C   UNL A   1      37.689  34.233  34.657  1.00  0.00     0.029 A 
ATOM     50  C   UNL A   1      38.777  33.263  34.737  1.00  0.00     0.049 A 
ATOM     51  H   UNL A   1      39.366  31.894  33.284  1.00  0.00     0.167 HD
ATOM     52  C   UNL A   1      40.269  28.862  30.220  1.00  0.00     0.037 A 
ATOM     53  C   UNL A   1      39.599  33.091  35.790  1.00  0.00     0.037 A 
ATOM     54  C   UNL A   1      41.252  28.669  31.250  1.00  0.00     0.049 A 
ATOM     55  C   UNL A   1      40.685  32.054  35.700  1.00  0.00     0.074 A 
ATOM     56  C   UNL A   1      42.310  27.780  31.279  1.00  0.00     0.029 A 
ATOM     57  N   UNL A   1      41.300  29.391  32.434  1.00  0.00    -0.354 N 
ATOM     58  N   UNL A   1      40.950  31.215  34.728  1.00  0.00    -0.248 NA
ATOM     59  C   UNL A   1      41.595  31.946  36.849  1.00  0.00     0.031 C 
ATOM     60  C   UNL A   1      42.984  27.946  32.494  1.00  0.00     0.029 A 
ATOM     61  C   UNL A   1      42.366  28.963  33.205  1.00  0.00     0.049 A 
ATOM     62  H   UNL A   1      40.669  30.104  32.687  1.00  0.00     0.167 HD
ATOM     63  C   UNL A   1      42.067  30.499  35.134  1.00  0.00     0.074 A 
ATOM     64  C   UNL A   1      42.441  31.013  36.435  1.00  0.00     0.031 C 
ATOM     65  C   UNL A   1      42.724  29.503  34.491  1.00  0.00     0.037 A 
BRANCH  52  66
ATOM     66  C   UNL A   1      40.290  27.956  29.026  1.00  0.00     0.064 A 
ATOM     67  C   UNL A   1      41.026  28.272  27.874  1.00  0.00     0.173 A 
ATOM     68  C   UNL A   1      39.576  26.749  29.037  1.00  0.00     0.173 A 
ATOM     69  F   UNL A   1      41.713  29.423  27.807  1.00  0.00    -0.203 F 
ATOM     70  C   UNL A   1      41.019  27.431  26.764  1.00  0.00     0.198 A 
ATOM     71  C   UNL A   1      39.596  25.894  27.936  1.00  0.00     0.198 A 
ATOM     72  F   UNL A   1      38.857  26.396  30.114  1.00  0.00    -0.203 F 
ATOM     73  F   UNL A   1      41.683  27.783  25.655  1.00  0.00    -0.200 F 
ATOM     74  C   UNL A   1      40.309  26.240  26.799  1.00  0.00     0.200 A 
ATOM     75  F   UNL A   1      38.917  24.739  27.975  1.00  0.00    -0.200 F 
ATOM     76  F   UNL A   1      40.305  25.430  25.732  1.00  0.00    -0.200 F 
ENDBRANCH  52  66
BRANCH  53  77
ATOM     77  C   UNL A   1      39.456  33.947  36.995  1.00  0.00     0.064 A 
ATOM     78  C   UNL A   1      40.038  35.223  37.040  1.00  0.00     0.173 A 
ATOM     79  C   UNL A   1      38.744  33.515  38.122  1.00  0.00     0.173 A 
ATOM     80  F   UNL A   1      40.745  35.673  35.992  1.00  0.00    -0.203 F 
ATOM     81  C   UNL A   1      39.932  36.023  38.176  1.00  0.00     0.198 A 
ATOM     82  C   UNL A   1      38.617  34.327  39.247  1.00  0.00     0.198 A 
ATOM     83  F   UNL A   1      38.162  32.307  38.126  1.00  0.00    -0.203 F 
ATOM     84  F   UNL A   1      40.535  37.220  38.208  1.00  0.00    -0.200 F 
ATOM     85  C   UNL A   1      39.217  35.577  39.277  1.00  0.00     0.200 A 
ATOM     86  F   UNL A   1      37.915  33.897  40.305  1.00  0.00    -0.200 F 
ATOM     87  F   UNL A   1      39.114  36.347  40.369  1.00  0.00    -0.200 F 
ENDBRANCH  53  77
BRANCH  65  88
ATOM     88  C   UNL A   1      43.931  28.929  35.169  1.00  0.00     0.064 A 
ATOM     89  C   UNL A   1      45.214  29.438  34.933  1.00  0.00     0.173 A 
ATOM     90  C   UNL A   1      43.791  27.890  36.102  1.00  0.00     0.173 A 
ATOM     91  F   UNL A   1      45.397  30.422  34.039  1.00  0.00    -0.203 F 
ATOM     92  C   UNL A   1      46.322  28.914  35.594  1.00  0.00     0.198 A 
ATOM     93  C   UNL A   1      44.897  27.387  36.780  1.00  0.00     0.198 A 
ATOM     94  F   UNL A   1      42.581  27.375  36.364  1.00  0.00    -0.203 F 
ATOM     95  F   UNL A   1      47.546  29.388  35.326  1.00  0.00    -0.200 F 
ATOM     96  C   UNL A   1      46.161  27.895  36.521  1.00  0.00     0.200 A 
ATOM     97  F   UNL A   1      44.739  26.411  37.685  1.00  0.00    -0.200 F 
ATOM     98  F   UNL A   1      47.228  27.398  37.164  1.00  0.00    -0.200 F 
ENDBRANCH  65  88
ENDBRANCH  39  40
ENDBRANCH  31  34
ENDBRANCH  29  30
ENDBRANCH  28  29
ENDBRANCH  27  28
ENDBRANCH   1  27
TORSDOF 17
ENDMDL
MODEL 2
REMARK VINA RESULT:     -12.0      0.075      1.116
REMARK SMILES CO[C@@H]1C[C@H](C(=O)NCCCCNC(=O)c2ccc(-c3c4nc(c(-c5c(F)c(F)c(F)c(F)c5F)c5ccc([nH]5)c(-c5c(F)c(F)c(F)c(F)c5F)c5nc(c(-c6c(F)c(F)c(F)c(F)c6F)c6ccc3[nH]6)C=C5)C=C4)cc2)N(C(=O)[C@H](CC(C)C)NC(N)=O)C1
REMARK SMILES IDX 9 1 8 2 6 3 7 4 5 6 3 7 4 8 91 9 79 10 2 11 1 12 80 13 81 14
REMARK SMILES IDX 82 15 87 16 88 17 89 19 90 20 83 23 84 24 85 25 86 26 10 27
REMARK SMILES IDX 11 28 12 29 13 30 14 31 15 33 16 34 17 35 78 36 18 37 77 38
REMARK SMILES IDX 19 39 20 40 21 41 71 42 22 43 76 44 70 45 72 46 23 47 75 48
REMARK SMILES IDX 69 49 68 50 24 52 56 53 36 54 55 55 37 56 40 57 54 58 73 59
REMARK SMILES IDX 38 60 39 61 53 63 74 64 41 65 25 66 26 67 34 68 27 69 28 70
REMARK SMILES IDX 32 71 35 72 29 73 30 74 33 75 31 76 57 77 58 78 66 79 59 80
REMARK SMILES IDX 60 81 64 82 67 83 61 84 62 85 65 86 63 87 42 88 43 89 51 90
REMARK SMILES IDX 44 91 45 92 49 93 52 94 46 95 47 96 50 97 48 98
REMARK H PARENT 8 5 87 18 89 21 89 22 13 32 72 51 40 62
REMARK Flexibility Score: inf
ROOT
ATOM      1  C   UNL A   1      33.464  29.688  26.083  1.00  0.00     0.116 C 
ENDROOT
BRANCH   1   2
ATOM      2  N   UNL A   1      33.162  29.853  24.674  1.00  0.00    -0.354 N 
ATOM      3  C   UNL A   1      33.201  28.834  23.760  1.00  0.00     0.242 C 
ATOM      4  O   UNL A   1      33.937  28.983  22.779  1.00  0.00    -0.273 OA
ATOM      5  H   UNL A   1      32.914  30.752  24.356  1.00  0.00     0.163 HD
BRANCH   3   6
ATOM      6  C   UNL A   1      32.296  27.574  23.879  1.00  0.00     0.177 C 
ATOM      7  C   UNL A   1      30.237  27.789  22.666  1.00  0.00     0.139 C 
ATOM      8  C   UNL A   1      30.823  27.905  24.068  1.00  0.00     0.069 C 
ATOM      9  C   UNL A   1      31.102  26.688  22.009  1.00  0.00     0.152 C 
ATOM     10  N   UNL A   1      32.332  26.613  22.803  1.00  0.00    -0.326 N 
BRANCH   7  11
ATOM     11  O   UNL A   1      30.334  29.009  21.934  1.00  0.00    -0.380 OA
ATOM     12  C   UNL A   1      29.460  30.037  22.396  1.00  0.00     0.195 C 
ENDBRANCH   7  11
BRANCH  10  13
ATOM     13  C   UNL A   1      33.266  25.621  22.594  1.00  0.00     0.246 C 
ATOM     14  O   UNL A   1      33.697  25.425  21.448  1.00  0.00    -0.272 OA
BRANCH  13  15
ATOM     15  C   UNL A   1      33.623  24.609  23.750  1.00  0.00     0.173 C 
BRANCH  15  16
ATOM     16  N   UNL A   1      32.329  23.948  24.027  1.00  0.00    -0.327 N 
ATOM     17  C   UNL A   1      31.660  24.072  25.200  1.00  0.00     0.312 C 
ATOM     18  H   UNL A   1      31.933  23.387  23.323  1.00  0.00     0.166 HD
ATOM     19  N   UNL A   1      30.587  23.252  25.284  1.00  0.00    -0.352 N 
ATOM     20  O   UNL A   1      31.984  24.810  26.118  1.00  0.00    -0.249 OA
ATOM     21  H   UNL A   1      30.353  22.669  24.526  1.00  0.00     0.161 HD
ATOM     22  H   UNL A   1      30.042  23.237  26.104  1.00  0.00     0.161 HD
ENDBRANCH  15  16
BRANCH  15  23
ATOM     23  C   UNL A   1      34.656  23.483  23.519  1.00  0.00     0.038 C 
BRANCH  23  24
ATOM     24  C   UNL A   1      36.040  23.557  24.198  1.00  0.00    -0.015 C 
ATOM     25  C   UNL A   1      36.022  23.813  25.708  1.00  0.00     0.007 C 
ATOM     26  C   UNL A   1      36.862  22.295  23.919  1.00  0.00     0.007 C 
ENDBRANCH  23  24
ENDBRANCH  15  23
ENDBRANCH  13  15
ENDBRANCH  10  13
ENDBRANCH   3   6
ENDBRANCH   1   2
BRANCH   1  27
ATOM     27  C   UNL A   1      32.242  30.070  26.926  1.00  0.00     0.023 C 
BRANCH  27  28
ATOM     28  C   UNL A   1      31.881  31.548  26.896  1.00  0.00     0.023 C 
BRANCH  28  29
ATOM     29  C   UNL A   1      32.942  32.462  27.486  1.00  0.00     0.116 C 
BRANCH  29  30
ATOM     30  N   UNL A   1      32.510  33.844  27.656  1.00  0.00    -0.352 N 
ATOM     31  C   UNL A   1      33.011  34.800  28.513  1.00  0.00     0.251 C 
ATOM     32  H   UNL A   1      31.763  34.132  27.084  1.00  0.00     0.163 HD
ATOM     33  O   UNL A   1      32.506  35.901  28.605  1.00  0.00    -0.269 OA
BRANCH  31  34
ATOM     34  C   UNL A   1      34.161  34.426  29.360  1.00  0.00     0.039 A 
ATOM     35  C   UNL A   1      33.923  33.801  30.584  1.00  0.00     0.014 A 
ATOM     36  C   UNL A   1      35.460  34.589  28.875  1.00  0.00     0.014 A 
ATOM     37  C   UNL A   1      34.995  33.257  31.289  1.00  0.00     0.010 A 
ATOM     38  C   UNL A   1      36.509  33.958  29.525  1.00  0.00     0.010 A 
ATOM     39  C   UNL A   1      36.288  33.291  30.740  1.00  0.00    -0.014 A 
BRANCH  39  40
ATOM     40  C   UNL A   1      37.437  32.655  31.424  1.00  0.00     0.031 A 
ATOM     41  C   UNL A   1      38.151  31.514  30.757  1.00  0.00     0.074 A 
ATOM     42  C   UNL A   1      37.772  33.040  32.670  1.00  0.00     0.049 A 
ATOM     43  N   UNL A   1      39.104  30.748  31.222  1.00  0.00    -0.248 NA
ATOM     44  C   UNL A   1      37.699  31.153  29.403  1.00  0.00     0.031 C 
ATOM     45  C   UNL A   1      37.099  34.081  33.449  1.00  0.00     0.029 A 
ATOM     46  N   UNL A   1      38.760  32.587  33.508  1.00  0.00    -0.354 N 
ATOM     47  C   UNL A   1      39.334  29.798  30.236  1.00  0.00     0.074 A 
ATOM     48  C   UNL A   1      38.384  30.045  29.174  1.00  0.00     0.031 C 
ATOM     49  C   UNL A   1      37.710  34.207  34.638  1.00  0.00     0.029 A 
ATOM     50  C   UNL A   1      38.797  33.236  34.719  1.00  0.00     0.049 A 
ATOM     51  H   UNL A   1      39.382  31.864  33.266  1.00  0.00     0.167 HD
ATOM     52  C   UNL A   1      40.275  28.827  30.205  1.00  0.00     0.037 A 
ATOM     53  C   UNL A   1      39.621  33.064  35.770  1.00  0.00     0.037 A 
ATOM     54  C   UNL A   1      41.260  28.634  31.234  1.00  0.00     0.049 A 
ATOM     55  C   UNL A   1      40.705  32.025  35.680  1.00  0.00     0.074 A 
ATOM     56  C   UNL A   1      42.317  27.743  31.262  1.00  0.00     0.029 A 
ATOM     57  N   UNL A   1      41.310  29.358  32.416  1.00  0.00    -0.354 N 
ATOM     58  N   UNL A   1      40.967  31.184  34.709  1.00  0.00    -0.248 NA
ATOM     59  C   UNL A   1      41.617  31.917  36.827  1.00  0.00     0.031 C 
ATOM     60  C   UNL A   1      42.993  27.910  32.475  1.00  0.00     0.029 A 
ATOM     61  C   UNL A   1      42.378  28.929  33.186  1.00  0.00     0.049 A 
ATOM     62  H   UNL A   1      40.681  30.072  32.669  1.00  0.00     0.167 HD
ATOM     63  C   UNL A   1      42.084  30.468  35.114  1.00  0.00     0.074 A 
ATOM     64  C   UNL A   1      42.461  30.983  36.413  1.00  0.00     0.031 C 
ATOM     65  C   UNL A   1      42.739  29.470  34.471  1.00  0.00     0.037 A 
BRANCH  52  66
ATOM     66  C   UNL A   1      40.293  27.919  29.011  1.00  0.00     0.064 A 
ATOM     67  C   UNL A   1      41.028  28.232  27.858  1.00  0.00     0.173 A 
ATOM     68  C   UNL A   1      39.577  26.713  29.025  1.00  0.00     0.173 A 
ATOM     69  F   UNL A   1      41.717  29.382  27.789  1.00  0.00    -0.203 F 
ATOM     70  C   UNL A   1      41.018  27.390  26.749  1.00  0.00     0.198 A 
ATOM     71  C   UNL A   1      39.594  25.857  27.926  1.00  0.00     0.198 A 
ATOM     72  F   UNL A   1      38.859  26.364  30.103  1.00  0.00    -0.203 F 
ATOM     73  F   UNL A   1      41.681  27.739  25.639  1.00  0.00    -0.200 F 
ATOM     74  C   UNL A   1      40.306  26.201  26.787  1.00  0.00     0.200 A 
ATOM     75  F   UNL A   1      38.913  24.703  27.967  1.00  0.00    -0.200 F 
ATOM     76  F   UNL A   1      40.299  25.389  25.721  1.00  0.00    -0.200 F 
ENDBRANCH  52  66
BRANCH  53  77
ATOM     77  C   UNL A   1      39.481  33.922  36.974  1.00  0.00     0.064 A 
ATOM     78  C   UNL A   1      40.066  35.196  37.018  1.00  0.00     0.173 A 
ATOM     79  C   UNL A   1      38.769  33.493  38.102  1.00  0.00     0.173 A 
ATOM     80  F   UNL A   1      40.773  35.643  35.969  1.00  0.00    -0.203 F 
ATOM     81  C   UNL A   1      39.964  35.998  38.152  1.00  0.00     0.198 A 
ATOM     82  C   UNL A   1      38.645  34.306  39.227  1.00  0.00     0.198 A 
ATOM     83  F   UNL A   1      38.183  32.286  38.108  1.00  0.00    -0.203 F 
ATOM     84  F   UNL A   1      40.569  37.193  38.182  1.00  0.00    -0.200 F 
ATOM     85  C   UNL A   1      39.249  35.555  39.255  1.00  0.00     0.200 A 
ATOM     86  F   UNL A   1      37.943  33.880  40.286  1.00  0.00    -0.200 F 
ATOM     87  F   UNL A   1      39.148  36.327  40.345  1.00  0.00    -0.200 F 
ENDBRANCH  53  77
BRANCH  65  88
ATOM     88  C   UNL A   1      43.945  28.895  35.147  1.00  0.00     0.064 A 
ATOM     89  C   UNL A   1      43.846  27.794  36.009  1.00  0.00     0.173 A 
ATOM     90  C   UNL A   1      45.220  29.421  34.890  1.00  0.00     0.173 A 
ATOM     91  F   UNL A   1      42.646  27.267  36.296  1.00  0.00    -0.203 F 
ATOM     92  C   UNL A   1      44.980  27.252  36.607  1.00  0.00     0.198 A 
ATOM     93  C   UNL A   1      46.354  28.859  35.468  1.00  0.00     0.198 A 
ATOM     94  F   UNL A   1      45.365  30.470  34.067  1.00  0.00    -0.203 F 
ATOM     95  F   UNL A   1      44.859  26.225  37.458  1.00  0.00    -0.200 F 
ATOM     96  C   UNL A   1      46.232  27.779  36.330  1.00  0.00     0.200 A 
ATOM     97  F   UNL A   1      47.565  29.362  35.190  1.00  0.00    -0.200 F 
ATOM     98  F   UNL A   1      47.325  27.250  36.899  1.00  0.00    -0.200 F 
ENDBRANCH  65  88
ENDBRANCH  39  40
ENDBRANCH  31  34
ENDBRANCH  29  30
ENDBRANCH  28  29
ENDBRANCH  27  28
ENDBRANCH   1  27
TORSDOF 17
ENDMDL
MODEL 3
REMARK VINA RESULT:     -12.0      0.695      7.360
REMARK SMILES CO[C@@H]1C[C@H](C(=O)NCCCCNC(=O)c2ccc(-c3c4nc(c(-c5c(F)c(F)c(F)c(F)c5F)c5ccc([nH]5)c(-c5c(F)c(F)c(F)c(F)c5F)c5nc(c(-c6c(F)c(F)c(F)c(F)c6F)c6ccc3[nH]6)C=C5)C=C4)cc2)N(C(=O)[C@H](CC(C)C)NC(N)=O)C1
REMARK SMILES IDX 9 1 8 2 6 3 7 4 5 6 3 7 4 8 91 9 79 10 2 11 1 12 80 13 81 14
REMARK SMILES IDX 82 15 87 16 88 17 89 19 90 20 83 23 84 24 85 25 86 26 10 27
REMARK SMILES IDX 11 28 12 29 13 30 14 31 15 33 16 34 17 35 78 36 18 37 77 38
REMARK SMILES IDX 19 39 20 40 21 41 71 42 22 43 76 44 70 45 72 46 23 47 75 48
REMARK SMILES IDX 69 49 68 50 24 52 56 53 36 54 55 55 37 56 40 57 54 58 73 59
REMARK SMILES IDX 38 60 39 61 53 63 74 64 41 65 25 66 26 67 34 68 27 69 28 70
REMARK SMILES IDX 32 71 35 72 29 73 30 74 33 75 31 76 57 77 58 78 66 79 59 80
REMARK SMILES IDX 60 81 64 82 67 83 61 84 62 85 65 86 63 87 42 88 43 89 51 90
REMARK SMILES IDX 44 91 45 92 49 93 52 94 46 95 47 96 50 97 48 98
REMARK H PARENT 8 5 87 18 89 21 89 22 13 32 72 51 40 62
REMARK Flexibility Score: inf
ROOT
ATOM      1  C   UNL A   1      33.312  29.693  26.209  1.00  0.00     0.116 C 
ENDROOT
BRANCH   1   2
ATOM      2  N   UNL A   1      33.132  29.879  24.782  1.00  0.00    -0.354 N 
ATOM      3  C   UNL A   1      33.225  28.867  23.863  1.00  0.00     0.242 C 
ATOM      4  O   UNL A   1      34.044  29.008  22.948  1.00  0.00    -0.273 OA
ATOM      5  H   UNL A   1      32.933  30.786  24.454  1.00  0.00     0.163 HD
BRANCH   3   6
ATOM      6  C   UNL A   1      32.284  27.628  23.891  1.00  0.00     0.177 C 
ATOM      7  C   UNL A   1      30.228  27.994  22.711  1.00  0.00     0.139 C 
ATOM      8  C   UNL A   1      30.823  27.986  24.115  1.00  0.00     0.069 C 
ATOM      9  C   UNL A   1      31.057  26.921  21.967  1.00  0.00     0.152 C 
ATOM     10  N   UNL A   1      32.288  26.751  22.745  1.00  0.00    -0.326 N 
BRANCH   7  11
ATOM     11  O   UNL A   1      30.357  29.262  22.073  1.00  0.00    -0.380 OA
ATOM     12  C   UNL A   1      29.116  29.926  21.842  1.00  0.00     0.195 C 
ENDBRANCH   7  11
BRANCH  10  13
ATOM     13  C   UNL A   1      33.192  25.752  22.455  1.00  0.00     0.246 C 
ATOM     14  O   UNL A   1      33.561  25.588  21.283  1.00  0.00    -0.272 OA
BRANCH  13  15
ATOM     15  C   UNL A   1      33.590  24.695  23.558  1.00  0.00     0.173 C 
BRANCH  15  16
ATOM     16  N   UNL A   1      32.303  24.037  23.869  1.00  0.00    -0.327 N 
ATOM     17  C   UNL A   1      31.726  24.061  25.096  1.00  0.00     0.312 C 
ATOM     18  H   UNL A   1      31.840  23.554  23.148  1.00  0.00     0.166 HD
ATOM     19  N   UNL A   1      30.640  23.259  25.184  1.00  0.00    -0.352 N 
ATOM     20  O   UNL A   1      32.136  24.702  26.052  1.00  0.00    -0.249 OA
ATOM     21  H   UNL A   1      30.335  22.756  24.395  1.00  0.00     0.161 HD
ATOM     22  H   UNL A   1      30.157  23.177  26.038  1.00  0.00     0.161 HD
ENDBRANCH  15  16
BRANCH  15  23
ATOM     23  C   UNL A   1      34.599  23.569  23.240  1.00  0.00     0.038 C 
BRANCH  23  24
ATOM     24  C   UNL A   1      35.470  22.976  24.367  1.00  0.00    -0.015 C 
ATOM     25  C   UNL A   1      36.804  22.368  23.922  1.00  0.00     0.007 C 
ATOM     26  C   UNL A   1      35.739  24.011  25.464  1.00  0.00     0.007 C 
ENDBRANCH  23  24
ENDBRANCH  15  23
ENDBRANCH  13  15
ENDBRANCH  10  13
ENDBRANCH   3   6
ENDBRANCH   1   2
BRANCH   1  27
ATOM     27  C   UNL A   1      32.060  30.167  26.956  1.00  0.00     0.023 C 
BRANCH  27  28
ATOM     28  C   UNL A   1      31.776  31.658  26.846  1.00  0.00     0.023 C 
BRANCH  28  29
ATOM     29  C   UNL A   1      32.927  32.548  27.286  1.00  0.00     0.116 C 
BRANCH  29  30
ATOM     30  N   UNL A   1      32.534  33.912  27.616  1.00  0.00    -0.352 N 
ATOM     31  C   UNL A   1      33.062  34.748  28.576  1.00  0.00     0.251 C 
ATOM     32  H   UNL A   1      31.794  34.285  27.085  1.00  0.00     0.163 HD
ATOM     33  O   UNL A   1      32.587  35.845  28.796  1.00  0.00    -0.269 OA
BRANCH  31  34
ATOM     34  C   UNL A   1      34.202  34.248  29.368  1.00  0.00     0.039 A 
ATOM     35  C   UNL A   1      33.953  33.416  30.459  1.00  0.00     0.014 A 
ATOM     36  C   UNL A   1      35.507  34.511  28.945  1.00  0.00     0.014 A 
ATOM     37  C   UNL A   1      35.021  32.773  31.081  1.00  0.00     0.010 A 
ATOM     38  C   UNL A   1      36.554  33.791  29.497  1.00  0.00     0.010 A 
ATOM     39  C   UNL A   1      36.323  32.919  30.573  1.00  0.00    -0.014 A 
BRANCH  39  40
ATOM     40  C   UNL A   1      37.470  32.189  31.160  1.00  0.00     0.031 A 
ATOM     41  C   UNL A   1      37.949  32.555  32.536  1.00  0.00     0.074 A 
ATOM     42  C   UNL A   1      38.129  31.273  30.426  1.00  0.00     0.049 A 
ATOM     43  N   UNL A   1      38.995  32.123  33.192  1.00  0.00    -0.248 NA
ATOM     44  C   UNL A   1      37.175  33.583  33.252  1.00  0.00     0.031 C 
ATOM     45  C   UNL A   1      37.804  30.893  29.049  1.00  0.00     0.029 A 
ATOM     46  N   UNL A   1      39.222  30.502  30.732  1.00  0.00    -0.354 N 
ATOM     47  C   UNL A   1      39.023  32.852  34.372  1.00  0.00     0.074 A 
ATOM     48  C   UNL A   1      37.927  33.794  34.320  1.00  0.00     0.031 C 
ATOM     49  C   UNL A   1      38.661  29.942  28.640  1.00  0.00     0.029 A 
ATOM     50  C   UNL A   1      39.612  29.667  29.713  1.00  0.00     0.049 A 
ATOM     51  H   UNL A   1      39.684  30.544  31.600  1.00  0.00     0.167 HD
ATOM     52  C   UNL A   1      39.868  32.725  35.422  1.00  0.00     0.037 A 
ATOM     53  C   UNL A   1      40.623  28.780  29.658  1.00  0.00     0.037 A 
ATOM     54  C   UNL A   1      40.911  31.739  35.493  1.00  0.00     0.049 A 
ATOM     55  C   UNL A   1      41.503  28.607  30.865  1.00  0.00     0.074 A 
ATOM     56  C   UNL A   1      41.764  31.458  36.544  1.00  0.00     0.029 A 
ATOM     57  N   UNL A   1      41.233  30.861  34.468  1.00  0.00    -0.354 N 
ATOM     58  N   UNL A   1      41.472  29.244  32.010  1.00  0.00    -0.248 NA
ATOM     59  C   UNL A   1      42.554  27.583  30.778  1.00  0.00     0.031 C 
ATOM     60  C   UNL A   1      42.622  30.428  36.145  1.00  0.00     0.029 A 
ATOM     61  C   UNL A   1      42.278  30.042  34.858  1.00  0.00     0.049 A 
ATOM     62  H   UNL A   1      40.783  30.826  33.592  1.00  0.00     0.167 HD
ATOM     63  C   UNL A   1      42.476  28.685  32.787  1.00  0.00     0.074 A 
ATOM     64  C   UNL A   1      43.090  27.644  31.989  1.00  0.00     0.031 C 
ATOM     65  C   UNL A   1      42.860  29.004  34.047  1.00  0.00     0.037 A 
BRANCH  52  66
ATOM     66  C   UNL A   1      39.681  33.661  36.578  1.00  0.00     0.064 A 
ATOM     67  C   UNL A   1      38.873  33.325  37.674  1.00  0.00     0.173 A 
ATOM     68  C   UNL A   1      40.329  34.905  36.598  1.00  0.00     0.173 A 
ATOM     69  F   UNL A   1      38.218  32.153  37.696  1.00  0.00    -0.203 F 
ATOM     70  C   UNL A   1      38.691  34.213  38.732  1.00  0.00     0.198 A 
ATOM     71  C   UNL A   1      40.170  35.778  37.671  1.00  0.00     0.198 A 
ATOM     72  F   UNL A   1      41.115  35.275  35.576  1.00  0.00    -0.203 F 
ATOM     73  F   UNL A   1      37.869  33.892  39.739  1.00  0.00    -0.200 F 
ATOM     74  C   UNL A   1      39.345  35.435  38.732  1.00  0.00     0.200 A 
ATOM     75  F   UNL A   1      40.810  36.956  37.675  1.00  0.00    -0.200 F 
ATOM     76  F   UNL A   1      39.172  36.289  39.751  1.00  0.00    -0.200 F 
ENDBRANCH  52  66
BRANCH  53  77
ATOM     77  C   UNL A   1      40.827  27.958  28.437  1.00  0.00     0.064 A 
ATOM     78  C   UNL A   1      41.626  28.427  27.384  1.00  0.00     0.173 A 
ATOM     79  C   UNL A   1      40.234  26.697  28.294  1.00  0.00     0.173 A 
ATOM     80  F   UNL A   1      42.201  29.637  27.467  1.00  0.00    -0.203 F 
ATOM     81  C   UNL A   1      41.802  27.676  26.224  1.00  0.00     0.198 A 
ATOM     82  C   UNL A   1      40.432  25.935  27.144  1.00  0.00     0.198 A 
ATOM     83  F   UNL A   1      39.468  26.199  29.276  1.00  0.00    -0.203 F 
ATOM     84  F   UNL A   1      42.535  28.167  25.215  1.00  0.00    -0.200 F 
ATOM     85  C   UNL A   1      41.209  26.428  26.107  1.00  0.00     0.200 A 
ATOM     86  F   UNL A   1      39.868  24.724  27.039  1.00  0.00    -0.200 F 
ATOM     87  F   UNL A   1      41.381  25.704  24.992  1.00  0.00    -0.200 F 
ENDBRANCH  53  77
BRANCH  65  88
ATOM     88  C   UNL A   1      43.971  28.200  34.650  1.00  0.00     0.064 A 
ATOM     89  C   UNL A   1      43.720  27.004  35.336  1.00  0.00     0.173 A 
ATOM     90  C   UNL A   1      45.305  28.607  34.495  1.00  0.00     0.173 A 
ATOM     91  F   UNL A   1      42.460  26.583  35.521  1.00  0.00    -0.203 F 
ATOM     92  C   UNL A   1      44.765  26.252  35.864  1.00  0.00     0.198 A 
ATOM     93  C   UNL A   1      46.348  27.838  35.001  1.00  0.00     0.198 A 
ATOM     94  F   UNL A   1      45.593  29.741  33.841  1.00  0.00    -0.203 F 
ATOM     95  F   UNL A   1      44.502  25.132  36.550  1.00  0.00    -0.200 F 
ATOM     96  C   UNL A   1      46.078  26.665  35.689  1.00  0.00     0.200 A 
ATOM     97  F   UNL A   1      47.617  28.233  34.821  1.00  0.00    -0.200 F 
ATOM     98  F   UNL A   1      47.084  25.935  36.191  1.00  0.00    -0.200 F 
ENDBRANCH  65  88
ENDBRANCH  39  40
ENDBRANCH  31  34
ENDBRANCH  29  30
ENDBRANCH  28  29
ENDBRANCH  27  28
ENDBRANCH   1  27
TORSDOF 17
ENDMDL
