MODEL 1
REMARK VINA RESULT:     -12.4      0.000      0.000
REMARK SMILES CC[C@H](C)[C@H](C(=O)NCCCCNC(=O)c1ccc(-c2c3nc(c(-c4c(F)c(F)c(F)c(F)c4F)c4ccc([nH]4)c(-c4c(F)c(F)c(F)c(F)c4F)c4nc(c(-c5c(F)c(F)c(F)c(F)c5F)c5ccc2[nH]5)C=C4)C=C3)cc1)N1C(=O)/C(=C/c2ccc(C)o2)SC1=S
REMARK SMILES IDX 10 1 9 2 8 3 6 4 7 5 5 7 3 8 4 9 2 10 1 11 79 12 80 13 91 14
REMARK SMILES IDX 81 15 82 16 90 17 92 18 83 19 84 20 85 21 89 22 86 23 87 24
REMARK SMILES IDX 88 25 11 26 12 27 13 28 14 29 15 31 16 32 17 33 78 34 18 35
REMARK SMILES IDX 77 36 19 37 20 38 21 39 71 40 22 41 76 42 70 43 72 44 23 45
REMARK SMILES IDX 75 46 69 47 68 48 24 50 56 51 36 52 55 53 37 54 40 55 54 56
REMARK SMILES IDX 73 57 38 58 39 59 53 61 74 62 41 63 25 64 26 65 34 66 27 67
REMARK SMILES IDX 28 68 32 69 35 70 29 71 30 72 33 73 31 74 57 75 58 76 66 77
REMARK SMILES IDX 59 78 60 79 64 80 67 81 61 82 62 83 65 84 63 85 42 86 43 87
REMARK SMILES IDX 51 88 44 89 45 90 49 91 52 92 46 93 47 94 50 95 48 96
REMARK H PARENT 8 6 13 30 72 49 40 60
REMARK Flexibility Score: inf
ROOT
ATOM      1  C   UNL A   1      31.435  30.421  26.311  1.00  0.00     0.023 C 
ENDROOT
BRANCH   1   2
ATOM      2  C   UNL A   1      32.839  29.864  26.090  1.00  0.00     0.116 C 
BRANCH   2   3
ATOM      3  N   UNL A   1      33.216  29.807  24.685  1.00  0.00    -0.354 N 
ATOM      4  C   UNL A   1      32.949  28.848  23.740  1.00  0.00     0.243 C 
ATOM      5  O   UNL A   1      33.374  29.025  22.595  1.00  0.00    -0.273 OA
ATOM      6  H   UNL A   1      33.744  30.574  24.363  1.00  0.00     0.163 HD
BRANCH   4   7
ATOM      7  C   UNL A   1      32.080  27.617  24.112  1.00  0.00     0.184 C 
BRANCH   7   8
ATOM      8  C   UNL A   1      30.669  27.763  23.469  1.00  0.00     0.018 C 
ATOM      9  C   UNL A   1      29.665  26.648  23.832  1.00  0.00     0.010 C 
BRANCH   8  10
ATOM     10  C   UNL A   1      30.044  29.178  23.380  1.00  0.00     0.002 C 
ATOM     11  C   UNL A   1      29.749  29.754  22.004  1.00  0.00     0.004 C 
ENDBRANCH   8  10
ENDBRANCH   7   8
BRANCH   7  12
ATOM     12  N   UNL A   1      32.893  26.379  23.962  1.00  0.00    -0.280 N 
ATOM     13  C   UNL A   1      33.596  26.006  25.116  1.00  0.00     0.267 C 
ATOM     14  C   UNL A   1      33.114  25.570  22.865  1.00  0.00     0.149 C 
ATOM     15  O   UNL A   1      33.562  26.588  26.196  1.00  0.00    -0.268 OA
ATOM     16  C   UNL A   1      34.424  24.796  24.878  1.00  0.00     0.084 C 
ATOM     17  S   UNL A   1      34.044  24.156  23.338  1.00  0.00    -0.054 SA
ATOM     18  S   UNL A   1      32.635  25.657  21.274  1.00  0.00    -0.052 S 
ATOM     19  C   UNL A   1      35.310  24.314  25.763  1.00  0.00     0.068 C 
BRANCH  19  20
ATOM     20  C   UNL A   1      36.091  23.149  25.509  1.00  0.00     0.128 A 
ATOM     21  C   UNL A   1      37.453  23.020  25.247  1.00  0.00     0.050 A 
ATOM     22  O   UNL A   1      35.546  21.885  25.460  1.00  0.00    -0.462 OA
ATOM     23  C   UNL A   1      37.715  21.670  24.930  1.00  0.00     0.046 A 
ATOM     24  C   UNL A   1      36.518  21.012  25.078  1.00  0.00     0.101 A 
ATOM     25  C   UNL A   1      36.120  19.605  24.884  1.00  0.00     0.087 C 
ENDBRANCH  19  20
ENDBRANCH   7  12
ENDBRANCH   4   7
ENDBRANCH   2   3
ENDBRANCH   1   2
BRANCH   1  26
ATOM     26  C   UNL A   1      31.351  31.937  26.491  1.00  0.00     0.023 C 
BRANCH  26  27
ATOM     27  C   UNL A   1      32.604  32.613  27.044  1.00  0.00     0.116 C 
BRANCH  27  28
ATOM     28  N   UNL A   1      32.363  33.965  27.523  1.00  0.00    -0.352 N 
ATOM     29  C   UNL A   1      32.999  34.690  28.502  1.00  0.00     0.251 C 
ATOM     30  H   UNL A   1      31.625  34.436  27.073  1.00  0.00     0.163 HD
ATOM     31  O   UNL A   1      32.543  35.779  28.835  1.00  0.00    -0.269 OA
BRANCH  29  32
ATOM     32  C   UNL A   1      34.206  34.166  29.187  1.00  0.00     0.039 A 
ATOM     33  C   UNL A   1      34.030  33.315  30.282  1.00  0.00     0.014 A 
ATOM     34  C   UNL A   1      35.499  34.520  28.791  1.00  0.00     0.014 A 
ATOM     35  C   UNL A   1      35.140  32.769  30.932  1.00  0.00     0.010 A 
ATOM     36  C   UNL A   1      36.606  33.913  29.389  1.00  0.00     0.010 A 
ATOM     37  C   UNL A   1      36.440  33.028  30.464  1.00  0.00    -0.014 A 
BRANCH  37  38
ATOM     38  C   UNL A   1      37.613  32.346  31.078  1.00  0.00     0.031 A 
ATOM     39  C   UNL A   1      38.109  32.729  32.445  1.00  0.00     0.074 A 
ATOM     40  C   UNL A   1      38.256  31.390  30.378  1.00  0.00     0.049 A 
ATOM     41  N   UNL A   1      39.100  32.222  33.138  1.00  0.00    -0.248 NA
ATOM     42  C   UNL A   1      37.419  33.840  33.116  1.00  0.00     0.031 C 
ATOM     43  C   UNL A   1      37.915  30.967  29.019  1.00  0.00     0.029 A 
ATOM     44  N   UNL A   1      39.328  30.598  30.713  1.00  0.00    -0.354 N 
ATOM     45  C   UNL A   1      39.151  32.951  34.319  1.00  0.00     0.074 A 
ATOM     46  C   UNL A   1      38.133  33.975  34.225  1.00  0.00     0.031 C 
ATOM     47  C   UNL A   1      38.733  29.969  28.650  1.00  0.00     0.029 A 
ATOM     48  C   UNL A   1      39.681  29.706  29.728  1.00  0.00     0.049 A 
ATOM     49  H   UNL A   1      39.797  30.662  31.575  1.00  0.00     0.167 HD
ATOM     50  C   UNL A   1      39.958  32.769  35.393  1.00  0.00     0.037 A 
ATOM     51  C   UNL A   1      40.658  28.780  29.696  1.00  0.00     0.037 A 
ATOM     52  C   UNL A   1      40.966  31.743  35.489  1.00  0.00     0.049 A 
ATOM     53  C   UNL A   1      41.545  28.604  30.898  1.00  0.00     0.074 A 
ATOM     54  C   UNL A   1      41.792  31.441  36.558  1.00  0.00     0.029 A 
ATOM     55  N   UNL A   1      41.297  30.860  34.470  1.00  0.00    -0.354 N 
ATOM     56  N   UNL A   1      41.523  29.241  32.044  1.00  0.00    -0.248 NA
ATOM     57  C   UNL A   1      42.585  27.570  30.806  1.00  0.00     0.031 C 
ATOM     58  C   UNL A   1      42.662  30.417  36.167  1.00  0.00     0.029 A 
ATOM     59  C   UNL A   1      42.335  30.035  34.877  1.00  0.00     0.049 A 
ATOM     60  H   UNL A   1      40.859  30.825  33.589  1.00  0.00     0.167 HD
ATOM     61  C   UNL A   1      42.527  28.671  32.816  1.00  0.00     0.074 A 
ATOM     62  C   UNL A   1      43.120  27.619  32.017  1.00  0.00     0.031 C 
ATOM     63  C   UNL A   1      42.923  28.993  34.073  1.00  0.00     0.037 A 
BRANCH  50  64
ATOM     64  C   UNL A   1      39.784  33.700  36.561  1.00  0.00     0.064 A 
ATOM     65  C   UNL A   1      38.948  33.380  37.642  1.00  0.00     0.173 A 
ATOM     66  C   UNL A   1      40.498  34.907  36.624  1.00  0.00     0.173 A 
ATOM     67  F   UNL A   1      38.236  32.242  37.632  1.00  0.00    -0.203 F 
ATOM     68  C   UNL A   1      38.808  34.247  38.724  1.00  0.00     0.198 A 
ATOM     69  C   UNL A   1      40.381  35.755  37.723  1.00  0.00     0.198 A 
ATOM     70  F   UNL A   1      41.319  35.261  35.623  1.00  0.00    -0.203 F 
ATOM     71  F   UNL A   1      37.963  33.942  39.718  1.00  0.00    -0.200 F 
ATOM     72  C   UNL A   1      39.530  35.429  38.767  1.00  0.00     0.200 A 
ATOM     73  F   UNL A   1      41.094  36.889  37.770  1.00  0.00    -0.200 F 
ATOM     74  F   UNL A   1      39.402  36.257  39.813  1.00  0.00    -0.200 F 
ENDBRANCH  50  64
BRANCH  51  75
ATOM     75  C   UNL A   1      40.833  27.928  28.489  1.00  0.00     0.064 A 
ATOM     76  C   UNL A   1      41.641  28.345  27.420  1.00  0.00     0.173 A 
ATOM     77  C   UNL A   1      40.193  26.686  28.373  1.00  0.00     0.173 A 
ATOM     78  F   UNL A   1      42.259  29.535  27.473  1.00  0.00    -0.203 F 
ATOM     79  C   UNL A   1      41.782  27.565  26.275  1.00  0.00     0.198 A 
ATOM     80  C   UNL A   1      40.360  25.891  27.242  1.00  0.00     0.198 A 
ATOM     81  F   UNL A   1      39.413  26.238  29.368  1.00  0.00    -0.203 F 
ATOM     82  F   UNL A   1      42.517  28.011  25.249  1.00  0.00    -0.200 F 
ATOM     83  C   UNL A   1      41.147  26.334  26.190  1.00  0.00     0.200 A 
ATOM     84  F   UNL A   1      39.760  24.696  27.171  1.00  0.00    -0.200 F 
ATOM     85  F   UNL A   1      41.287  25.582  25.090  1.00  0.00    -0.200 F 
ENDBRANCH  51  75
BRANCH  63  86
ATOM     86  C   UNL A   1      44.034  28.176  34.672  1.00  0.00     0.064 A 
ATOM     87  C   UNL A   1      45.380  28.556  34.551  1.00  0.00     0.173 A 
ATOM     88  C   UNL A   1      43.749  27.005  35.390  1.00  0.00     0.173 A 
ATOM     89  F   UNL A   1      45.710  29.660  33.863  1.00  0.00    -0.203 F 
ATOM     90  C   UNL A   1      46.398  27.774  35.090  1.00  0.00     0.198 A 
ATOM     91  C   UNL A   1      44.766  26.245  35.960  1.00  0.00     0.198 A 
ATOM     92  F   UNL A   1      42.479  26.598  35.545  1.00  0.00    -0.203 F 
ATOM     93  F   UNL A   1      47.678  28.122  34.906  1.00  0.00    -0.200 F 
ATOM     94  C   UNL A   1      46.090  26.623  35.800  1.00  0.00     0.200 A 
ATOM     95  F   UNL A   1      44.465  25.142  36.660  1.00  0.00    -0.200 F 
ATOM     96  F   UNL A   1      47.070  25.872  36.321  1.00  0.00    -0.200 F 
ENDBRANCH  63  86
ENDBRANCH  37  38
ENDBRANCH  29  32
ENDBRANCH  27  28
ENDBRANCH  26  27
ENDBRANCH   1  26
TORSDOF 15
ENDMDL
MODEL 2
REMARK VINA RESULT:     -12.3      0.568      7.372
REMARK SMILES CC[C@H](C)[C@H](C(=O)NCCCCNC(=O)c1ccc(-c2c3nc(c(-c4c(F)c(F)c(F)c(F)c4F)c4ccc([nH]4)c(-c4c(F)c(F)c(F)c(F)c4F)c4nc(c(-c5c(F)c(F)c(F)c(F)c5F)c5ccc2[nH]5)C=C4)C=C3)cc1)N1C(=O)/C(=C/c2ccc(C)o2)SC1=S
REMARK SMILES IDX 10 1 9 2 8 3 6 4 7 5 5 7 3 8 4 9 2 10 1 11 79 12 80 13 91 14
REMARK SMILES IDX 81 15 82 16 90 17 92 18 83 19 84 20 85 21 89 22 86 23 87 24
REMARK SMILES IDX 88 25 11 26 12 27 13 28 14 29 15 31 16 32 17 33 78 34 18 35
REMARK SMILES IDX 77 36 19 37 20 38 21 39 71 40 22 41 76 42 70 43 72 44 23 45
REMARK SMILES IDX 75 46 69 47 68 48 24 50 56 51 36 52 55 53 37 54 40 55 54 56
REMARK SMILES IDX 73 57 38 58 39 59 53 61 74 62 41 63 25 64 26 65 34 66 27 67
REMARK SMILES IDX 28 68 32 69 35 70 29 71 30 72 33 73 31 74 57 75 58 76 66 77
REMARK SMILES IDX 59 78 60 79 64 80 67 81 61 82 62 83 65 84 63 85 42 86 43 87
REMARK SMILES IDX 51 88 44 89 45 90 49 91 52 92 46 93 47 94 50 95 48 96
REMARK H PARENT 8 6 13 30 72 49 40 60
REMARK Flexibility Score: inf
ROOT
ATOM      1  C   UNL A   1      31.384  30.597  26.271  1.00  0.00     0.023 C 
ENDROOT
BRANCH   1   2
ATOM      2  C   UNL A   1      32.769  30.000  26.038  1.00  0.00     0.116 C 
BRANCH   2   3
ATOM      3  N   UNL A   1      33.118  29.899  24.628  1.00  0.00    -0.354 N 
ATOM      4  C   UNL A   1      32.860  28.894  23.728  1.00  0.00     0.243 C 
ATOM      5  O   UNL A   1      33.255  29.038  22.568  1.00  0.00    -0.273 OA
ATOM      6  H   UNL A   1      33.616  30.667  24.265  1.00  0.00     0.163 HD
BRANCH   4   7
ATOM      7  C   UNL A   1      32.037  27.655  24.168  1.00  0.00     0.184 C 
BRANCH   7   8
ATOM      8  C   UNL A   1      30.599  27.749  23.577  1.00  0.00     0.018 C 
ATOM      9  C   UNL A   1      29.628  26.640  24.037  1.00  0.00     0.010 C 
BRANCH   8  10
ATOM     10  C   UNL A   1      29.948  29.149  23.444  1.00  0.00     0.002 C 
ATOM     11  C   UNL A   1      28.616  29.262  22.720  1.00  0.00     0.004 C 
ENDBRANCH   8  10
ENDBRANCH   7   8
BRANCH   7  12
ATOM     12  N   UNL A   1      32.874  26.432  24.019  1.00  0.00    -0.280 N 
ATOM     13  C   UNL A   1      33.559  26.056  25.183  1.00  0.00     0.267 C 
ATOM     14  C   UNL A   1      33.132  25.642  22.918  1.00  0.00     0.149 C 
ATOM     15  O   UNL A   1      33.492  26.623  26.270  1.00  0.00    -0.268 OA
ATOM     16  C   UNL A   1      34.412  24.864  24.948  1.00  0.00     0.084 C 
ATOM     17  S   UNL A   1      34.075  24.238  23.392  1.00  0.00    -0.054 SA
ATOM     18  S   UNL A   1      32.685  25.741  21.318  1.00  0.00    -0.052 S 
ATOM     19  C   UNL A   1      35.287  24.385  25.846  1.00  0.00     0.068 C 
BRANCH  19  20
ATOM     20  C   UNL A   1      36.092  23.236  25.593  1.00  0.00     0.128 A 
ATOM     21  C   UNL A   1      37.464  23.132  25.371  1.00  0.00     0.050 A 
ATOM     22  O   UNL A   1      35.569  21.965  25.504  1.00  0.00    -0.462 OA
ATOM     23  C   UNL A   1      37.756  21.793  25.037  1.00  0.00     0.046 A 
ATOM     24  C   UNL A   1      36.565  21.115  25.136  1.00  0.00     0.101 A 
ATOM     25  C   UNL A   1      36.195  19.706  24.902  1.00  0.00     0.087 C 
ENDBRANCH  19  20
ENDBRANCH   7  12
ENDBRANCH   4   7
ENDBRANCH   2   3
ENDBRANCH   1   2
BRANCH   1  26
ATOM     26  C   UNL A   1      31.346  32.112  26.472  1.00  0.00     0.023 C 
BRANCH  26  27
ATOM     27  C   UNL A   1      32.564  32.723  27.162  1.00  0.00     0.116 C 
BRANCH  27  28
ATOM     28  N   UNL A   1      32.354  34.099  27.584  1.00  0.00    -0.352 N 
ATOM     29  C   UNL A   1      32.992  34.841  28.549  1.00  0.00     0.251 C 
ATOM     30  H   UNL A   1      31.641  34.574  27.101  1.00  0.00     0.163 HD
ATOM     31  O   UNL A   1      32.562  35.956  28.831  1.00  0.00    -0.269 OA
BRANCH  29  32
ATOM     32  C   UNL A   1      34.168  34.308  29.280  1.00  0.00     0.039 A 
ATOM     33  C   UNL A   1      33.948  33.618  30.476  1.00  0.00     0.014 A 
ATOM     34  C   UNL A   1      35.476  34.502  28.827  1.00  0.00     0.014 A 
ATOM     35  C   UNL A   1      35.025  33.067  31.175  1.00  0.00     0.010 A 
ATOM     36  C   UNL A   1      36.544  33.884  29.483  1.00  0.00     0.010 A 
ATOM     37  C   UNL A   1      36.330  33.157  30.663  1.00  0.00    -0.014 A 
BRANCH  37  38
ATOM     38  C   UNL A   1      37.458  32.462  31.343  1.00  0.00     0.031 A 
ATOM     39  C   UNL A   1      38.155  31.295  30.698  1.00  0.00     0.074 A 
ATOM     40  C   UNL A   1      37.837  32.869  32.571  1.00  0.00     0.049 A 
ATOM     41  N   UNL A   1      39.170  30.591  31.138  1.00  0.00    -0.248 NA
ATOM     42  C   UNL A   1      37.635  30.844  29.399  1.00  0.00     0.031 C 
ATOM     43  C   UNL A   1      37.204  33.947  33.333  1.00  0.00     0.029 A 
ATOM     44  N   UNL A   1      38.846  32.430  33.393  1.00  0.00    -0.354 N 
ATOM     45  C   UNL A   1      39.405  29.618  30.175  1.00  0.00     0.074 A 
ATOM     46  C   UNL A   1      38.390  29.783  29.156  1.00  0.00     0.031 C 
ATOM     47  C   UNL A   1      37.861  34.112  34.492  1.00  0.00     0.029 A 
ATOM     48  C   UNL A   1      38.936  33.129  34.574  1.00  0.00     0.049 A 
ATOM     49  H   UNL A   1      39.446  31.687  33.160  1.00  0.00     0.167 HD
ATOM     50  C   UNL A   1      40.390  28.688  30.133  1.00  0.00     0.037 A 
ATOM     51  C   UNL A   1      39.789  32.993  35.607  1.00  0.00     0.037 A 
ATOM     52  C   UNL A   1      41.405  28.531  31.145  1.00  0.00     0.049 A 
ATOM     53  C   UNL A   1      40.868  31.947  35.539  1.00  0.00     0.074 A 
ATOM     54  C   UNL A   1      42.480  27.658  31.162  1.00  0.00     0.029 A 
ATOM     55  N   UNL A   1      41.463  29.255  32.328  1.00  0.00    -0.354 N 
ATOM     56  N   UNL A   1      41.133  31.092  34.581  1.00  0.00    -0.248 NA
ATOM     57  C   UNL A   1      41.774  31.856  36.692  1.00  0.00     0.031 C 
ATOM     58  C   UNL A   1      43.151  27.811  32.380  1.00  0.00     0.029 A 
ATOM     59  C   UNL A   1      42.536  28.826  33.094  1.00  0.00     0.049 A 
ATOM     60  H   UNL A   1      40.834  29.968  32.585  1.00  0.00     0.167 HD
ATOM     61  C   UNL A   1      42.249  30.381  35.003  1.00  0.00     0.074 A 
ATOM     62  C   UNL A   1      42.624  30.921  36.293  1.00  0.00     0.031 C 
ATOM     63  C   UNL A   1      42.900  29.367  34.380  1.00  0.00     0.037 A 
BRANCH  50  64
ATOM     64  C   UNL A   1      40.424  27.762  28.949  1.00  0.00     0.064 A 
ATOM     65  C   UNL A   1      41.217  28.032  27.823  1.00  0.00     0.173 A 
ATOM     66  C   UNL A   1      39.690  26.565  28.958  1.00  0.00     0.173 A 
ATOM     67  F   UNL A   1      41.934  29.165  27.758  1.00  0.00    -0.203 F 
ATOM     68  C   UNL A   1      41.249  27.157  26.739  1.00  0.00     0.198 A 
ATOM     69  C   UNL A   1      39.751  25.677  27.886  1.00  0.00     0.198 A 
ATOM     70  F   UNL A   1      38.921  26.250  30.011  1.00  0.00    -0.203 F 
ATOM     71  F   UNL A   1      41.974  27.464  25.654  1.00  0.00    -0.200 F 
ATOM     72  C   UNL A   1      40.522  25.977  26.775  1.00  0.00     0.200 A 
ATOM     73  F   UNL A   1      39.061  24.529  27.931  1.00  0.00    -0.200 F 
ATOM     74  F   UNL A   1      40.562  25.132  25.736  1.00  0.00    -0.200 F 
ENDBRANCH  50  64
BRANCH  51  75
ATOM     75  C   UNL A   1      39.672  33.890  36.788  1.00  0.00     0.064 A 
ATOM     76  C   UNL A   1      38.890  33.529  37.896  1.00  0.00     0.173 A 
ATOM     77  C   UNL A   1      40.329  35.128  36.832  1.00  0.00     0.173 A 
ATOM     78  F   UNL A   1      38.224  32.365  37.894  1.00  0.00    -0.203 F 
ATOM     79  C   UNL A   1      38.753  34.381  38.990  1.00  0.00     0.198 A 
ATOM     80  C   UNL A   1      40.218  35.964  37.940  1.00  0.00     0.198 A 
ATOM     81  F   UNL A   1      41.093  35.519  35.802  1.00  0.00    -0.203 F 
ATOM     82  F   UNL A   1      37.959  34.034  40.011  1.00  0.00    -0.200 F 
ATOM     83  C   UNL A   1      39.422  35.595  39.014  1.00  0.00     0.200 A 
ATOM     84  F   UNL A   1      40.880  37.129  37.968  1.00  0.00    -0.200 F 
ATOM     85  F   UNL A   1      39.294  36.412  40.068  1.00  0.00    -0.200 F 
ENDBRANCH  51  75
BRANCH  63  86
ATOM     86  C   UNL A   1      44.106  28.797  35.074  1.00  0.00     0.064 A 
ATOM     87  C   UNL A   1      44.007  27.712  35.958  1.00  0.00     0.173 A 
ATOM     88  C   UNL A   1      45.381  29.335  34.841  1.00  0.00     0.173 A 
ATOM     89  F   UNL A   1      42.809  27.169  36.228  1.00  0.00    -0.203 F 
ATOM     90  C   UNL A   1      45.130  27.213  36.612  1.00  0.00     0.198 A 
ATOM     91  C   UNL A   1      46.508  28.811  35.467  1.00  0.00     0.198 A 
ATOM     92  F   UNL A   1      45.537  30.368  33.998  1.00  0.00    -0.203 F 
ATOM     93  F   UNL A   1      45.001  26.219  37.501  1.00  0.00    -0.200 F 
ATOM     94  C   UNL A   1      46.381  27.758  36.361  1.00  0.00     0.200 A 
ATOM     95  F   UNL A   1      47.718  29.327  35.210  1.00  0.00    -0.200 F 
ATOM     96  F   UNL A   1      47.462  27.276  36.988  1.00  0.00    -0.200 F 
ENDBRANCH  63  86
ENDBRANCH  37  38
ENDBRANCH  29  32
ENDBRANCH  27  28
ENDBRANCH  26  27
ENDBRANCH   1  26
TORSDOF 15
ENDMDL
MODEL 3
REMARK VINA RESULT:     -12.2      5.200      9.937
REMARK SMILES CC[C@H](C)[C@H](C(=O)NCCCCNC(=O)c1ccc(-c2c3nc(c(-c4c(F)c(F)c(F)c(F)c4F)c4ccc([nH]4)c(-c4c(F)c(F)c(F)c(F)c4F)c4nc(c(-c5c(F)c(F)c(F)c(F)c5F)c5ccc2[nH]5)C=C4)C=C3)cc1)N1C(=O)/C(=C/c2ccc(C)o2)SC1=S
REMARK SMILES IDX 10 1 9 2 8 3 6 4 7 5 5 7 3 8 4 9 2 10 1 11 79 12 80 13 91 14
REMARK SMILES IDX 81 15 82 16 90 17 92 18 83 19 84 20 85 21 89 22 86 23 87 24
REMARK SMILES IDX 88 25 11 26 12 27 13 28 14 29 15 31 16 32 17 33 78 34 18 35
REMARK SMILES IDX 77 36 19 37 20 38 21 39 71 40 22 41 76 42 70 43 72 44 23 45
REMARK SMILES IDX 75 46 69 47 68 48 24 50 56 51 36 52 55 53 37 54 40 55 54 56
REMARK SMILES IDX 73 57 38 58 39 59 53 61 74 62 41 63 25 64 26 65 34 66 27 67
REMARK SMILES IDX 28 68 32 69 35 70 29 71 30 72 33 73 31 74 57 75 58 76 66 77
REMARK SMILES IDX 59 78 60 79 64 80 67 81 61 82 62 83 65 84 63 85 42 86 43 87
REMARK SMILES IDX 51 88 44 89 45 90 49 91 52 92 46 93 47 94 50 95 48 96
REMARK H PARENT 8 6 13 30 72 49 40 60
REMARK Flexibility Score: inf
ROOT
ATOM      1  C   UNL A   1      36.914  20.588  24.564  1.00  0.00     0.023 C 
ENDROOT
BRANCH   1   2
ATOM      2  C   UNL A   1      36.696  21.736  25.546  1.00  0.00     0.116 C 
BRANCH   2   3
ATOM      3  N   UNL A   1      35.661  21.456  26.531  1.00  0.00    -0.354 N 
ATOM      4  C   UNL A   1      34.310  21.702  26.483  1.00  0.00     0.243 C 
ATOM      5  O   UNL A   1      33.623  21.365  27.450  1.00  0.00    -0.273 OA
ATOM      6  H   UNL A   1      35.977  21.026  27.359  1.00  0.00     0.163 HD
BRANCH   4   7
ATOM      7  C   UNL A   1      33.684  22.328  25.209  1.00  0.00     0.184 C 
BRANCH   7   8
ATOM      8  C   UNL A   1      32.862  21.246  24.448  1.00  0.00     0.018 C 
ATOM      9  C   UNL A   1      32.240  21.714  23.115  1.00  0.00     0.010 C 
BRANCH   8  10
ATOM     10  C   UNL A   1      33.402  19.794  24.423  1.00  0.00     0.002 C 
ATOM     11  C   UNL A   1      32.544  18.693  25.027  1.00  0.00     0.004 C 
ENDBRANCH   8  10
ENDBRANCH   7   8
BRANCH   7  12
ATOM     12  N   UNL A   1      33.114  23.661  25.546  1.00  0.00    -0.280 N 
ATOM     13  C   UNL A   1      33.975  24.739  25.294  1.00  0.00     0.267 C 
ATOM     14  C   UNL A   1      31.907  24.010  26.116  1.00  0.00     0.149 C 
ATOM     15  O   UNL A   1      35.100  24.659  24.808  1.00  0.00    -0.268 OA
ATOM     16  C   UNL A   1      33.364  26.028  25.703  1.00  0.00     0.084 C 
ATOM     17  S   UNL A   1      31.729  25.758  26.127  1.00  0.00    -0.054 SA
ATOM     18  S   UNL A   1      30.631  23.121  26.709  1.00  0.00    -0.052 S 
ATOM     19  C   UNL A   1      34.025  27.196  25.713  1.00  0.00     0.068 C 
BRANCH  19  20
ATOM     20  C   UNL A   1      33.411  28.421  26.109  1.00  0.00     0.128 A 
ATOM     21  C   UNL A   1      32.210  28.997  25.699  1.00  0.00     0.050 A 
ATOM     22  O   UNL A   1      33.989  29.284  27.013  1.00  0.00    -0.462 OA
ATOM     23  C   UNL A   1      32.114  30.278  26.284  1.00  0.00     0.046 A 
ATOM     24  C   UNL A   1      33.223  30.407  27.083  1.00  0.00     0.101 A 
ATOM     25  C   UNL A   1      33.715  31.503  27.941  1.00  0.00     0.087 C 
ENDBRANCH  19  20
ENDBRANCH   7  12
ENDBRANCH   4   7
ENDBRANCH   2   3
ENDBRANCH   1   2
BRANCH   1  26
ATOM     26  C   UNL A   1      37.933  19.535  24.999  1.00  0.00     0.023 C 
BRANCH  26  27
ATOM     27  C   UNL A   1      39.152  20.060  25.755  1.00  0.00     0.116 C 
BRANCH  27  28
ATOM     28  N   UNL A   1      40.215  19.076  25.882  1.00  0.00    -0.352 N 
ATOM     29  C   UNL A   1      41.558  19.242  26.123  1.00  0.00     0.251 C 
ATOM     30  H   UNL A   1      39.926  18.140  25.779  1.00  0.00     0.163 HD
ATOM     31  O   UNL A   1      42.304  18.270  26.062  1.00  0.00    -0.269 OA
BRANCH  29  32
ATOM     32  C   UNL A   1      42.128  20.579  26.422  1.00  0.00     0.039 A 
ATOM     33  C   UNL A   1      42.589  21.357  25.355  1.00  0.00     0.014 A 
ATOM     34  C   UNL A   1      42.243  21.064  27.728  1.00  0.00     0.014 A 
ATOM     35  C   UNL A   1      43.098  22.637  25.590  1.00  0.00     0.010 A 
ATOM     36  C   UNL A   1      42.676  22.373  27.954  1.00  0.00     0.010 A 
ATOM     37  C   UNL A   1      43.106  23.175  26.887  1.00  0.00    -0.014 A 
BRANCH  37  38
ATOM     38  C   UNL A   1      43.529  24.584  27.117  1.00  0.00     0.031 A 
ATOM     39  C   UNL A   1      42.553  25.621  27.603  1.00  0.00     0.074 A 
ATOM     40  C   UNL A   1      44.803  24.939  26.856  1.00  0.00     0.049 A 
ATOM     41  N   UNL A   1      42.759  26.886  27.879  1.00  0.00    -0.248 NA
ATOM     42  C   UNL A   1      41.159  25.189  27.783  1.00  0.00     0.031 C 
ATOM     43  C   UNL A   1      45.834  24.046  26.323  1.00  0.00     0.029 A 
ATOM     44  N   UNL A   1      45.452  26.141  27.004  1.00  0.00    -0.354 N 
ATOM     45  C   UNL A   1      41.525  27.398  28.261  1.00  0.00     0.074 A 
ATOM     46  C   UNL A   1      40.565  26.324  28.124  1.00  0.00     0.031 C 
ATOM     47  C   UNL A   1      46.992  24.717  26.226  1.00  0.00     0.029 A 
ATOM     48  C   UNL A   1      46.779  26.097  26.652  1.00  0.00     0.049 A 
ATOM     49  H   UNL A   1      45.008  26.955  27.332  1.00  0.00     0.167 HD
ATOM     50  C   UNL A   1      41.225  28.642  28.708  1.00  0.00     0.037 A 
ATOM     51  C   UNL A   1      47.722  27.059  26.668  1.00  0.00     0.037 A 
ATOM     52  C   UNL A   1      42.185  29.708  28.852  1.00  0.00     0.049 A 
ATOM     53  C   UNL A   1      47.360  28.434  27.160  1.00  0.00     0.074 A 
ATOM     54  C   UNL A   1      41.990  30.984  29.352  1.00  0.00     0.029 A 
ATOM     55  N   UNL A   1      43.520  29.627  28.482  1.00  0.00    -0.354 N 
ATOM     56  N   UNL A   1      46.209  28.879  27.604  1.00  0.00    -0.248 NA
ATOM     57  C   UNL A   1      48.434  29.437  27.166  1.00  0.00     0.031 C 
ATOM     58  C   UNL A   1      43.189  31.694  29.229  1.00  0.00     0.029 A 
ATOM     59  C   UNL A   1      44.151  30.840  28.714  1.00  0.00     0.049 A 
ATOM     60  H   UNL A   1      43.956  28.826  28.109  1.00  0.00     0.167 HD
ATOM     61  C   UNL A   1      46.426  30.203  27.963  1.00  0.00     0.074 A 
ATOM     62  C   UNL A   1      47.824  30.480  27.709  1.00  0.00     0.031 C 
ATOM     63  C   UNL A   1      45.543  31.108  28.455  1.00  0.00     0.037 A 
BRANCH  50  64
ATOM     64  C   UNL A   1      39.796  28.924  29.078  1.00  0.00     0.064 A 
ATOM     65  C   UNL A   1      39.317  28.723  30.382  1.00  0.00     0.173 A 
ATOM     66  C   UNL A   1      38.902  29.446  28.129  1.00  0.00     0.173 A 
ATOM     67  F   UNL A   1      40.126  28.219  31.328  1.00  0.00    -0.203 F 
ATOM     68  C   UNL A   1      37.993  29.002  30.714  1.00  0.00     0.198 A 
ATOM     69  C   UNL A   1      37.589  29.755  28.473  1.00  0.00     0.198 A 
ATOM     70  F   UNL A   1      39.306  29.667  26.869  1.00  0.00    -0.203 F 
ATOM     71  F   UNL A   1      37.548  28.751  31.953  1.00  0.00    -0.200 F 
ATOM     72  C   UNL A   1      37.133  29.525  29.761  1.00  0.00     0.200 A 
ATOM     73  F   UNL A   1      36.763  30.277  27.555  1.00  0.00    -0.200 F 
ATOM     74  F   UNL A   1      35.862  29.802  30.084  1.00  0.00    -0.200 F 
ENDBRANCH  50  64
BRANCH  51  75
ATOM     75  C   UNL A   1      49.108  26.748  26.228  1.00  0.00     0.064 A 
ATOM     76  C   UNL A   1      50.061  26.257  27.132  1.00  0.00     0.173 A 
ATOM     77  C   UNL A   1      49.511  26.941  24.899  1.00  0.00     0.173 A 
ATOM     78  F   UNL A   1      49.731  26.074  28.419  1.00  0.00    -0.203 F 
ATOM     79  C   UNL A   1      51.369  25.994  26.730  1.00  0.00     0.198 A 
ATOM     80  C   UNL A   1      50.810  26.647  24.490  1.00  0.00     0.198 A 
ATOM     81  F   UNL A   1      48.638  27.404  23.992  1.00  0.00    -0.203 F 
ATOM     82  F   UNL A   1      52.272  25.576  27.626  1.00  0.00    -0.200 F 
ATOM     83  C   UNL A   1      51.741  26.183  25.407  1.00  0.00     0.200 A 
ATOM     84  F   UNL A   1      51.161  26.813  23.208  1.00  0.00    -0.200 F 
ATOM     85  F   UNL A   1      52.997  25.925  25.020  1.00  0.00    -0.200 F 
ENDBRANCH  51  75
BRANCH  63  86
ATOM     86  C   UNL A   1      46.075  32.478  28.779  1.00  0.00     0.064 A 
ATOM     87  C   UNL A   1      46.050  33.522  27.842  1.00  0.00     0.173 A 
ATOM     88  C   UNL A   1      46.602  32.753  30.050  1.00  0.00     0.173 A 
ATOM     89  F   UNL A   1      45.569  33.309  26.607  1.00  0.00    -0.203 F 
ATOM     90  C   UNL A   1      46.569  34.776  28.151  1.00  0.00     0.198 A 
ATOM     91  C   UNL A   1      47.087  34.018  30.368  1.00  0.00     0.198 A 
ATOM     92  F   UNL A   1      46.643  31.795  30.988  1.00  0.00    -0.203 F 
ATOM     93  F   UNL A   1      46.594  35.738  27.218  1.00  0.00    -0.200 F 
ATOM     94  C   UNL A   1      47.081  35.026  29.415  1.00  0.00     0.200 A 
ATOM     95  F   UNL A   1      47.566  34.263  31.596  1.00  0.00    -0.200 F 
ATOM     96  F   UNL A   1      47.578  36.234  29.713  1.00  0.00    -0.200 F 
ENDBRANCH  63  86
ENDBRANCH  37  38
ENDBRANCH  29  32
ENDBRANCH  27  28
ENDBRANCH  26  27
ENDBRANCH   1  26
TORSDOF 15
ENDMDL
