MODEL 1
REMARK VINA RESULT:     -13.3      0.000      0.000
REMARK SMILES CC(=O)Nc1ccc(/C(=C\c2ccc(S(C)(=O)=O)cc2)C(=O)NCCCCNC(=O)c2ccc(-c3c4nc(c(-c5c(F)c(F)c(F)c(F)c5F)c5ccc([nH]5)c(-c5c(F)c(F)c(F)c(F)c5F)c5nc(c(-c6c(F)c(F)c(F)c(F)c6F)c6ccc3[nH]6)C=C5)C=C4)cc2)cc1
REMARK SMILES IDX 25 1 24 2 23 3 21 4 22 5 9 7 10 8 8 9 5 10 6 11 95 12 7 13
REMARK SMILES IDX 94 14 4 15 1 16 2 17 3 18 11 20 12 21 20 22 13 23 19 24
REMARK SMILES IDX 14 25 15 26 16 27 17 28 18 29 26 30 27 31 28 32 29 33 30 35
REMARK SMILES IDX 31 36 32 37 93 38 33 39 92 40 34 41 35 42 36 43 86 44 37 45
REMARK SMILES IDX 91 46 85 47 87 48 38 49 90 50 84 51 83 52 39 54 71 55 51 56
REMARK SMILES IDX 70 57 52 58 55 59 69 60 88 61 53 62 54 63 68 65 89 66 56 67
REMARK SMILES IDX 40 68 41 69 49 70 42 71 43 72 47 73 50 74 44 75 45 76 48 77
REMARK SMILES IDX 46 78 72 79 73 80 81 81 74 82 75 83 79 84 82 85 76 86 77 87
REMARK SMILES IDX 80 88 78 89 57 90 58 91 66 92 59 93 60 94 64 95 67 96 61 97
REMARK SMILES IDX 62 98 65 99 63 100
REMARK H PARENT 23 6 4 19 28 34 87 53 55 64
REMARK Flexibility Score: inf
ROOT
ATOM      1  C   UNL A   1      34.747  23.427  24.855  1.00  0.00     0.023 C 
ENDROOT
BRANCH   1   2
ATOM      2  C   UNL A   1      33.358  22.815  24.655  1.00  0.00     0.116 C 
BRANCH   2   3
ATOM      3  N   UNL A   1      32.570  22.934  25.863  1.00  0.00    -0.352 N 
ATOM      4  C   UNL A   1      31.757  23.881  26.401  1.00  0.00     0.251 C 
ATOM      5  O   UNL A   1      31.248  23.530  27.469  1.00  0.00    -0.269 OA
ATOM      6  H   UNL A   1      32.638  22.135  26.433  1.00  0.00     0.163 HD
BRANCH   4   7
ATOM      7  C   UNL A   1      31.424  25.232  25.761  1.00  0.00     0.047 C 
ATOM      8  C   UNL A   1      30.660  25.259  24.642  1.00  0.00     0.022 C 
BRANCH   7   9
ATOM      9  C   UNL A   1      32.109  26.483  26.268  1.00  0.00    -0.013 A 
ATOM     10  C   UNL A   1      33.333  29.027  26.703  1.00  0.00     0.041 A 
ATOM     11  C   UNL A   1      32.057  28.755  27.193  1.00  0.00     0.027 A 
ATOM     12  C   UNL A   1      34.053  27.978  26.156  1.00  0.00     0.027 A 
ATOM     13  C   UNL A   1      31.469  27.488  27.009  1.00  0.00     0.011 A 
ATOM     14  C   UNL A   1      33.439  26.746  25.909  1.00  0.00     0.011 A 
BRANCH  10  15
ATOM     15  N   UNL A   1      33.811  30.345  26.790  1.00  0.00    -0.326 N 
ATOM     16  C   UNL A   1      35.703  30.063  28.412  1.00  0.00     0.114 C 
ATOM     17  C   UNL A   1      34.795  30.908  27.556  1.00  0.00     0.221 C 
ATOM     18  O   UNL A   1      34.962  32.129  27.499  1.00  0.00    -0.275 OA
ATOM     19  H   UNL A   1      33.355  30.980  26.191  1.00  0.00     0.169 HD
ENDBRANCH  10  15
ENDBRANCH   7   9
BRANCH   8  20
ATOM     20  C   UNL A   1      30.068  26.403  23.936  1.00  0.00    -0.025 A 
ATOM     21  C   UNL A   1      28.677  26.581  24.037  1.00  0.00     0.009 A 
ATOM     22  C   UNL A   1      30.838  27.336  23.238  1.00  0.00     0.009 A 
ATOM     23  C   UNL A   1      28.069  27.716  23.504  1.00  0.00     0.021 A 
ATOM     24  C   UNL A   1      30.233  28.477  22.702  1.00  0.00     0.021 A 
ATOM     25  C   UNL A   1      28.855  28.666  22.849  1.00  0.00     0.067 A 
BRANCH  25  26
ATOM     26  S   UNL A   1      28.100  30.190  22.325  1.00  0.00     0.175 S 
ATOM     27  C   UNL A   1      29.347  31.412  22.629  1.00  0.00     0.163 C 
ATOM     28  O   UNL A   1      27.900  30.091  20.893  1.00  0.00    -0.224 OA
ATOM     29  O   UNL A   1      26.987  30.455  23.217  1.00  0.00    -0.224 OA
ENDBRANCH  25  26
ENDBRANCH   8  20
ENDBRANCH   4   7
ENDBRANCH   2   3
ENDBRANCH   1   2
BRANCH   1  30
ATOM     30  C   UNL A   1      35.894  22.410  24.854  1.00  0.00     0.023 C 
BRANCH  30  31
ATOM     31  C   UNL A   1      36.832  22.490  26.053  1.00  0.00     0.116 C 
BRANCH  31  32
ATOM     32  N   UNL A   1      37.881  21.484  26.029  1.00  0.00    -0.352 N 
ATOM     33  C   UNL A   1      39.219  21.636  26.294  1.00  0.00     0.251 C 
ATOM     34  H   UNL A   1      37.593  20.572  25.792  1.00  0.00     0.163 HD
ATOM     35  O   UNL A   1      39.997  20.703  26.126  1.00  0.00    -0.269 OA
BRANCH  33  36
ATOM     36  C   UNL A   1      39.719  22.950  26.742  1.00  0.00     0.039 A 
ATOM     37  C   UNL A   1      40.664  22.996  27.767  1.00  0.00     0.014 A 
ATOM     38  C   UNL A   1      39.282  24.125  26.125  1.00  0.00     0.014 A 
ATOM     39  C   UNL A   1      41.224  24.220  28.132  1.00  0.00     0.010 A 
ATOM     40  C   UNL A   1      39.892  25.334  26.439  1.00  0.00     0.010 A 
ATOM     41  C   UNL A   1      40.869  25.393  27.446  1.00  0.00    -0.014 A 
BRANCH  41  42
ATOM     42  C   UNL A   1      41.507  26.693  27.766  1.00  0.00     0.031 A 
ATOM     43  C   UNL A   1      42.937  26.943  27.379  1.00  0.00     0.074 A 
ATOM     44  C   UNL A   1      40.821  27.616  28.466  1.00  0.00     0.049 A 
ATOM     45  N   UNL A   1      43.693  27.981  27.630  1.00  0.00    -0.248 NA
ATOM     46  C   UNL A   1      43.618  25.871  26.637  1.00  0.00     0.031 C 
ATOM     47  C   UNL A   1      39.445  27.466  28.943  1.00  0.00     0.029 A 
ATOM     48  N   UNL A   1      41.191  28.861  28.907  1.00  0.00    -0.354 N 
ATOM     49  C   UNL A   1      44.937  27.681  27.091  1.00  0.00     0.074 A 
ATOM     50  C   UNL A   1      44.852  26.342  26.550  1.00  0.00     0.031 C 
ATOM     51  C   UNL A   1      39.079  28.583  29.591  1.00  0.00     0.029 A 
ATOM     52  C   UNL A   1      40.205  29.512  29.609  1.00  0.00     0.049 A 
ATOM     53  H   UNL A   1      42.079  29.251  28.739  1.00  0.00     0.167 HD
ATOM     54  C   UNL A   1      46.041  28.462  27.031  1.00  0.00     0.037 A 
ATOM     55  C   UNL A   1      40.213  30.719  30.204  1.00  0.00     0.037 A 
ATOM     56  C   UNL A   1      46.111  29.803  27.548  1.00  0.00     0.049 A 
ATOM     57  C   UNL A   1      41.455  31.568  30.123  1.00  0.00     0.074 A 
ATOM     58  C   UNL A   1      47.162  30.701  27.482  1.00  0.00     0.029 A 
ATOM     59  N   UNL A   1      45.084  30.439  28.232  1.00  0.00    -0.354 N 
ATOM     60  N   UNL A   1      42.601  31.304  29.545  1.00  0.00    -0.248 NA
ATOM     61  C   UNL A   1      41.399  32.885  30.771  1.00  0.00     0.031 C 
ATOM     62  C   UNL A   1      46.789  31.861  28.167  1.00  0.00     0.029 A 
ATOM     63  C   UNL A   1      45.486  31.709  28.614  1.00  0.00     0.049 A 
ATOM     64  H   UNL A   1      44.201  30.045  28.420  1.00  0.00     0.167 HD
ATOM     65  C   UNL A   1      43.392  32.429  29.733  1.00  0.00     0.074 A 
ATOM     66  C   UNL A   1      42.588  33.385  30.466  1.00  0.00     0.031 C 
ATOM     67  C   UNL A   1      44.668  32.651  29.334  1.00  0.00     0.037 A 
BRANCH  54  68
ATOM     68  C   UNL A   1      47.264  27.886  26.378  1.00  0.00     0.064 A 
ATOM     69  C   UNL A   1      47.427  27.895  24.984  1.00  0.00     0.173 A 
ATOM     70  C   UNL A   1      48.300  27.347  27.154  1.00  0.00     0.173 A 
ATOM     71  F   UNL A   1      46.461  28.386  24.193  1.00  0.00    -0.203 F 
ATOM     72  C   UNL A   1      48.568  27.357  24.391  1.00  0.00     0.198 A 
ATOM     73  C   UNL A   1      49.453  26.839  26.560  1.00  0.00     0.198 A 
ATOM     74  F   UNL A   1      48.198  27.317  28.492  1.00  0.00    -0.203 F 
ATOM     75  F   UNL A   1      48.676  27.328  23.055  1.00  0.00    -0.200 F 
ATOM     76  C   UNL A   1      49.583  26.837  25.180  1.00  0.00     0.200 A 
ATOM     77  F   UNL A   1      50.439  26.350  27.326  1.00  0.00    -0.200 F 
ATOM     78  F   UNL A   1      50.681  26.327  24.610  1.00  0.00    -0.200 F 
ENDBRANCH  54  68
BRANCH  55  79
ATOM     79  C   UNL A   1      38.999  31.211  30.907  1.00  0.00     0.064 A 
ATOM     80  C   UNL A   1      38.043  31.985  30.234  1.00  0.00     0.173 A 
ATOM     81  C   UNL A   1      38.771  30.925  32.261  1.00  0.00     0.173 A 
ATOM     82  F   UNL A   1      38.225  32.302  28.944  1.00  0.00    -0.203 F 
ATOM     83  C   UNL A   1      36.917  32.473  30.894  1.00  0.00     0.198 A 
ATOM     84  C   UNL A   1      37.630  31.387  32.912  1.00  0.00     0.198 A 
ATOM     85  F   UNL A   1      39.651  30.182  32.948  1.00  0.00    -0.203 F 
ATOM     86  F   UNL A   1      36.043  33.250  30.239  1.00  0.00    -0.200 F 
ATOM     87  C   UNL A   1      36.708  32.168  32.231  1.00  0.00     0.200 A 
ATOM     88  F   UNL A   1      37.424  31.079  34.199  1.00  0.00    -0.200 F 
ATOM     89  F   UNL A   1      35.623  32.634  32.865  1.00  0.00    -0.200 F 
ENDBRANCH  55  79
BRANCH  67  90
ATOM     90  C   UNL A   1      45.263  33.993  29.647  1.00  0.00     0.064 A 
ATOM     91  C   UNL A   1      45.991  34.221  30.824  1.00  0.00     0.173 A 
ATOM     92  C   UNL A   1      45.139  35.053  28.735  1.00  0.00     0.173 A 
ATOM     93  F   UNL A   1      46.125  33.245  31.735  1.00  0.00    -0.203 F 
ATOM     94  C   UNL A   1      46.551  35.469  31.088  1.00  0.00     0.198 A 
ATOM     95  C   UNL A   1      45.728  36.288  28.988  1.00  0.00     0.198 A 
ATOM     96  F   UNL A   1      44.460  34.885  27.590  1.00  0.00    -0.203 F 
ATOM     97  F   UNL A   1      47.201  35.678  32.242  1.00  0.00    -0.200 F 
ATOM     98  C   UNL A   1      46.427  36.498  30.167  1.00  0.00     0.200 A 
ATOM     99  F   UNL A   1      45.619  37.277  28.089  1.00  0.00    -0.200 F 
ATOM    100  F   UNL A   1      46.974  37.695  30.419  1.00  0.00    -0.200 F 
ENDBRANCH  67  90
ENDBRANCH  41  42
ENDBRANCH  33  36
ENDBRANCH  31  32
ENDBRANCH  30  31
ENDBRANCH   1  30
TORSDOF 15
ENDMDL
MODEL 2
REMARK VINA RESULT:     -13.2      4.780     10.111
REMARK SMILES CC(=O)Nc1ccc(/C(=C\c2ccc(S(C)(=O)=O)cc2)C(=O)NCCCCNC(=O)c2ccc(-c3c4nc(c(-c5c(F)c(F)c(F)c(F)c5F)c5ccc([nH]5)c(-c5c(F)c(F)c(F)c(F)c5F)c5nc(c(-c6c(F)c(F)c(F)c(F)c6F)c6ccc3[nH]6)C=C5)C=C4)cc2)cc1
REMARK SMILES IDX 25 1 24 2 23 3 21 4 22 5 9 7 10 8 8 9 5 10 6 11 95 12 7 13
REMARK SMILES IDX 94 14 4 15 1 16 2 17 3 18 11 20 12 21 20 22 13 23 19 24
REMARK SMILES IDX 14 25 15 26 16 27 17 28 18 29 26 30 27 31 28 32 29 33 30 35
REMARK SMILES IDX 31 36 32 37 93 38 33 39 92 40 34 41 35 42 36 43 86 44 37 45
REMARK SMILES IDX 91 46 85 47 87 48 38 49 90 50 84 51 83 52 39 54 71 55 51 56
REMARK SMILES IDX 70 57 52 58 55 59 69 60 88 61 53 62 54 63 68 65 89 66 56 67
REMARK SMILES IDX 40 68 41 69 49 70 42 71 43 72 47 73 50 74 44 75 45 76 48 77
REMARK SMILES IDX 46 78 72 79 73 80 81 81 74 82 75 83 79 84 82 85 76 86 77 87
REMARK SMILES IDX 80 88 78 89 57 90 58 91 66 92 59 93 60 94 64 95 67 96 61 97
REMARK SMILES IDX 62 98 65 99 63 100
REMARK H PARENT 23 6 4 19 28 34 87 53 55 64
REMARK Flexibility Score: inf
ROOT
ATOM      1  C   UNL A   1      31.565  30.876  26.158  1.00  0.00     0.023 C 
ENDROOT
BRANCH   1   2
ATOM      2  C   UNL A   1      31.904  29.910  27.296  1.00  0.00     0.116 C 
BRANCH   2   3
ATOM      3  N   UNL A   1      33.312  29.576  27.279  1.00  0.00    -0.352 N 
ATOM      4  C   UNL A   1      34.064  28.569  26.763  1.00  0.00     0.251 C 
ATOM      5  O   UNL A   1      35.273  28.714  26.967  1.00  0.00    -0.269 OA
ATOM      6  H   UNL A   1      33.858  30.242  27.756  1.00  0.00     0.163 HD
BRANCH   4   7
ATOM      7  C   UNL A   1      33.527  27.388  25.950  1.00  0.00     0.047 C 
ATOM      8  C   UNL A   1      34.028  26.150  26.177  1.00  0.00     0.022 C 
BRANCH   7   9
ATOM      9  C   UNL A   1      32.599  27.651  24.783  1.00  0.00    -0.013 A 
ATOM     10  C   UNL A   1      30.646  28.555  22.903  1.00  0.00     0.041 A 
ATOM     11  C   UNL A   1      32.000  28.834  22.719  1.00  0.00     0.027 A 
ATOM     12  C   UNL A   1      30.299  27.684  23.922  1.00  0.00     0.027 A 
ATOM     13  C   UNL A   1      32.964  28.358  23.627  1.00  0.00     0.011 A 
ATOM     14  C   UNL A   1      31.250  27.275  24.864  1.00  0.00     0.011 A 
BRANCH  10  15
ATOM     15  N   UNL A   1      29.718  29.172  22.049  1.00  0.00    -0.326 N 
ATOM     16  C   UNL A   1      28.892  31.038  23.505  1.00  0.00     0.114 C 
ATOM     17  C   UNL A   1      28.858  30.218  22.242  1.00  0.00     0.221 C 
ATOM     18  O   UNL A   1      28.075  30.514  21.335  1.00  0.00    -0.275 OA
ATOM     19  H   UNL A   1      29.680  28.781  21.146  1.00  0.00     0.169 HD
ENDBRANCH  10  15
ENDBRANCH   7   9
BRANCH   8  20
ATOM     20  C   UNL A   1      33.584  24.847  25.664  1.00  0.00    -0.025 A 
ATOM     21  C   UNL A   1      34.378  24.229  24.682  1.00  0.00     0.009 A 
ATOM     22  C   UNL A   1      32.456  24.188  26.160  1.00  0.00     0.009 A 
ATOM     23  C   UNL A   1      34.089  22.937  24.249  1.00  0.00     0.021 A 
ATOM     24  C   UNL A   1      32.161  22.892  25.729  1.00  0.00     0.021 A 
ATOM     25  C   UNL A   1      32.986  22.269  24.786  1.00  0.00     0.067 A 
BRANCH  25  26
ATOM     26  S   UNL A   1      32.725  20.562  24.357  1.00  0.00     0.175 S 
ATOM     27  C   UNL A   1      34.307  19.808  24.618  1.00  0.00     0.163 C 
ATOM     28  O   UNL A   1      31.796  20.020  25.330  1.00  0.00    -0.224 OA
ATOM     29  O   UNL A   1      32.432  20.508  22.938  1.00  0.00    -0.224 OA
ENDBRANCH  25  26
ENDBRANCH   8  20
ENDBRANCH   4   7
ENDBRANCH   2   3
ENDBRANCH   1   2
BRANCH   1  30
ATOM     30  C   UNL A   1      31.368  32.331  26.599  1.00  0.00     0.023 C 
BRANCH  30  31
ATOM     31  C   UNL A   1      32.557  32.956  27.320  1.00  0.00     0.116 C 
BRANCH  31  32
ATOM     32  N   UNL A   1      32.330  34.339  27.709  1.00  0.00    -0.352 N 
ATOM     33  C   UNL A   1      32.988  35.080  28.658  1.00  0.00     0.251 C 
ATOM     34  H   UNL A   1      31.608  34.805  27.227  1.00  0.00     0.163 HD
ATOM     35  O   UNL A   1      32.604  36.209  28.943  1.00  0.00    -0.269 OA
BRANCH  33  36
ATOM     36  C   UNL A   1      34.139  34.485  29.364  1.00  0.00     0.039 A 
ATOM     37  C   UNL A   1      33.907  33.747  30.526  1.00  0.00     0.014 A 
ATOM     38  C   UNL A   1      35.434  34.625  28.857  1.00  0.00     0.014 A 
ATOM     39  C   UNL A   1      34.970  33.092  31.147  1.00  0.00     0.010 A 
ATOM     40  C   UNL A   1      36.479  33.913  29.436  1.00  0.00     0.010 A 
ATOM     41  C   UNL A   1      36.257  33.140  30.586  1.00  0.00    -0.014 A 
BRANCH  41  42
ATOM     42  C   UNL A   1      37.385  32.389  31.188  1.00  0.00     0.031 A 
ATOM     43  C   UNL A   1      37.893  32.761  32.551  1.00  0.00     0.074 A 
ATOM     44  C   UNL A   1      37.994  31.422  30.476  1.00  0.00     0.049 A 
ATOM     45  N   UNL A   1      38.909  32.274  33.218  1.00  0.00    -0.248 NA
ATOM     46  C   UNL A   1      37.183  33.844  33.249  1.00  0.00     0.031 C 
ATOM     47  C   UNL A   1      37.625  31.008  29.121  1.00  0.00     0.029 A 
ATOM     48  N   UNL A   1      39.061  30.617  30.789  1.00  0.00    -0.354 N 
ATOM     49  C   UNL A   1      38.968  33.000  34.399  1.00  0.00     0.074 A 
ATOM     50  C   UNL A   1      37.922  33.997  34.337  1.00  0.00     0.031 C 
ATOM     51  C   UNL A   1      38.436  30.014  28.728  1.00  0.00     0.029 A 
ATOM     52  C   UNL A   1      39.406  29.744  29.785  1.00  0.00     0.049 A 
ATOM     53  H   UNL A   1      39.535  30.661  31.650  1.00  0.00     0.167 HD
ATOM     54  C   UNL A   1      39.802  32.831  35.452  1.00  0.00     0.037 A 
ATOM     55  C   UNL A   1      40.397  28.836  29.725  1.00  0.00     0.037 A 
ATOM     56  C   UNL A   1      40.824  31.820  35.519  1.00  0.00     0.049 A 
ATOM     57  C   UNL A   1      41.312  28.670  30.909  1.00  0.00     0.074 A 
ATOM     58  C   UNL A   1      41.680  31.526  36.566  1.00  0.00     0.029 A 
ATOM     59  N   UNL A   1      41.129  30.938  34.493  1.00  0.00    -0.354 N 
ATOM     60  N   UNL A   1      41.310  29.311  32.053  1.00  0.00    -0.248 NA
ATOM     61  C   UNL A   1      42.361  27.647  30.796  1.00  0.00     0.031 C 
ATOM     62  C   UNL A   1      42.534  30.499  36.155  1.00  0.00     0.029 A 
ATOM     63  C   UNL A   1      42.176  30.114  34.873  1.00  0.00     0.049 A 
ATOM     64  H   UNL A   1      40.670  30.904  33.622  1.00  0.00     0.167 HD
ATOM     65  C   UNL A   1      42.334  28.753  32.806  1.00  0.00     0.074 A 
ATOM     66  C   UNL A   1      42.925  27.709  31.994  1.00  0.00     0.031 C 
ATOM     67  C   UNL A   1      42.746  29.074  34.056  1.00  0.00     0.037 A 
BRANCH  54  68
ATOM     68  C   UNL A   1      39.641  33.761  36.621  1.00  0.00     0.064 A 
ATOM     69  C   UNL A   1      40.257  35.022  36.647  1.00  0.00     0.173 A 
ATOM     70  C   UNL A   1      38.839  33.402  37.713  1.00  0.00     0.173 A 
ATOM     71  F   UNL A   1      41.047  35.410  35.634  1.00  0.00    -0.203 F 
ATOM     72  C   UNL A   1      40.100  35.875  37.737  1.00  0.00     0.198 A 
ATOM     73  C   UNL A   1      38.657  34.271  38.786  1.00  0.00     0.198 A 
ATOM     74  F   UNL A   1      38.222  32.211  37.737  1.00  0.00    -0.203 F 
ATOM     75  F   UNL A   1      40.742  37.052  37.763  1.00  0.00    -0.200 F 
ATOM     76  C   UNL A   1      39.293  35.502  38.802  1.00  0.00     0.200 A 
ATOM     77  F   UNL A   1      37.866  33.914  39.808  1.00  0.00    -0.200 F 
ATOM     78  F   UNL A   1      39.137  36.326  39.846  1.00  0.00    -0.200 F 
ENDBRANCH  54  68
BRANCH  55  79
ATOM     79  C   UNL A   1      40.562  27.993  28.511  1.00  0.00     0.064 A 
ATOM     80  C   UNL A   1      41.329  28.438  27.426  1.00  0.00     0.173 A 
ATOM     81  C   UNL A   1      39.956  26.733  28.407  1.00  0.00     0.173 A 
ATOM     82  F   UNL A   1      41.914  29.645  27.469  1.00  0.00    -0.203 F 
ATOM     83  C   UNL A   1      41.465  27.666  26.274  1.00  0.00     0.198 A 
ATOM     84  C   UNL A   1      40.116  25.948  27.268  1.00  0.00     0.198 A 
ATOM     85  F   UNL A   1      39.217  26.257  29.421  1.00  0.00    -0.203 F 
ATOM     86  F   UNL A   1      42.165  28.136  25.233  1.00  0.00    -0.200 F 
ATOM     87  C   UNL A   1      40.863  26.419  26.199  1.00  0.00     0.200 A 
ATOM     88  F   UNL A   1      39.546  24.738  27.205  1.00  0.00    -0.200 F 
ATOM     89  F   UNL A   1      40.997  25.674  25.093  1.00  0.00    -0.200 F 
ENDBRANCH  55  79
BRANCH  67  90
ATOM     90  C   UNL A   1      43.867  28.264  34.640  1.00  0.00     0.064 A 
ATOM     91  C   UNL A   1      45.203  28.685  34.555  1.00  0.00     0.173 A 
ATOM     92  C   UNL A   1      43.595  27.074  35.332  1.00  0.00     0.173 A 
ATOM     93  F   UNL A   1      45.517  29.808  33.892  1.00  0.00    -0.203 F 
ATOM     94  C   UNL A   1      46.227  27.929  35.120  1.00  0.00     0.198 A 
ATOM     95  C   UNL A   1      44.619  26.338  35.922  1.00  0.00     0.198 A 
ATOM     96  F   UNL A   1      42.333  26.632  35.448  1.00  0.00    -0.203 F 
ATOM     97  F   UNL A   1      47.501  28.324  34.985  1.00  0.00    -0.200 F 
ATOM     98  C   UNL A   1      45.934  26.762  35.809  1.00  0.00     0.200 A 
ATOM     99  F   UNL A   1      44.331  25.218  36.601  1.00  0.00    -0.200 F 
ATOM    100  F   UNL A   1      46.920  26.040  36.359  1.00  0.00    -0.200 F 
ENDBRANCH  67  90
ENDBRANCH  41  42
ENDBRANCH  33  36
ENDBRANCH  31  32
ENDBRANCH  30  31
ENDBRANCH   1  30
TORSDOF 15
ENDMDL
MODEL 3
REMARK VINA RESULT:     -13.2      4.430      9.953
REMARK SMILES CC(=O)Nc1ccc(/C(=C\c2ccc(S(C)(=O)=O)cc2)C(=O)NCCCCNC(=O)c2ccc(-c3c4nc(c(-c5c(F)c(F)c(F)c(F)c5F)c5ccc([nH]5)c(-c5c(F)c(F)c(F)c(F)c5F)c5nc(c(-c6c(F)c(F)c(F)c(F)c6F)c6ccc3[nH]6)C=C5)C=C4)cc2)cc1
REMARK SMILES IDX 25 1 24 2 23 3 21 4 22 5 9 7 10 8 8 9 5 10 6 11 95 12 7 13
REMARK SMILES IDX 94 14 4 15 1 16 2 17 3 18 11 20 12 21 20 22 13 23 19 24
REMARK SMILES IDX 14 25 15 26 16 27 17 28 18 29 26 30 27 31 28 32 29 33 30 35
REMARK SMILES IDX 31 36 32 37 93 38 33 39 92 40 34 41 35 42 36 43 86 44 37 45
REMARK SMILES IDX 91 46 85 47 87 48 38 49 90 50 84 51 83 52 39 54 71 55 51 56
REMARK SMILES IDX 70 57 52 58 55 59 69 60 88 61 53 62 54 63 68 65 89 66 56 67
REMARK SMILES IDX 40 68 41 69 49 70 42 71 43 72 47 73 50 74 44 75 45 76 48 77
REMARK SMILES IDX 46 78 72 79 73 80 81 81 74 82 75 83 79 84 82 85 76 86 77 87
REMARK SMILES IDX 80 88 78 89 57 90 58 91 66 92 59 93 60 94 64 95 67 96 61 97
REMARK SMILES IDX 62 98 65 99 63 100
REMARK H PARENT 23 6 4 19 28 34 87 53 55 64
REMARK Flexibility Score: inf
ROOT
ATOM      1  C   UNL A   1      32.767  26.888  25.904  1.00  0.00     0.023 C 
ENDROOT
BRANCH   1   2
ATOM      2  C   UNL A   1      31.762  25.937  25.249  1.00  0.00     0.116 C 
BRANCH   2   3
ATOM      3  N   UNL A   1      32.037  25.803  23.834  1.00  0.00    -0.352 N 
ATOM      4  C   UNL A   1      32.599  24.853  23.041  1.00  0.00     0.251 C 
ATOM      5  O   UNL A   1      32.594  25.158  21.845  1.00  0.00    -0.269 OA
ATOM      6  H   UNL A   1      31.743  26.590  23.321  1.00  0.00     0.163 HD
BRANCH   4   7
ATOM      7  C   UNL A   1      33.140  23.503  23.521  1.00  0.00     0.047 C 
ATOM      8  C   UNL A   1      32.304  22.439  23.569  1.00  0.00     0.022 C 
BRANCH   7   9
ATOM      9  C   UNL A   1      34.530  23.430  24.116  1.00  0.00    -0.013 A 
ATOM     10  C   UNL A   1      36.966  22.827  25.481  1.00  0.00     0.041 A 
ATOM     11  C   UNL A   1      36.847  22.623  24.107  1.00  0.00     0.027 A 
ATOM     12  C   UNL A   1      35.937  23.489  26.128  1.00  0.00     0.027 A 
ATOM     13  C   UNL A   1      35.658  22.954  23.430  1.00  0.00     0.011 A 
ATOM     14  C   UNL A   1      34.731  23.748  25.467  1.00  0.00     0.011 A 
BRANCH  10  15
ATOM     15  N   UNL A   1      38.118  22.349  26.126  1.00  0.00    -0.326 N 
ATOM     16  C   UNL A   1      39.266  24.498  26.717  1.00  0.00     0.114 C 
ATOM     17  C   UNL A   1      39.209  22.995  26.640  1.00  0.00     0.221 C 
ATOM     18  O   UNL A   1      40.138  22.319  27.090  1.00  0.00    -0.275 OA
ATOM     19  H   UNL A   1      38.146  21.369  26.228  1.00  0.00     0.169 HD
ENDBRANCH  10  15
ENDBRANCH   7   9
BRANCH   8  20
ATOM     20  C   UNL A   1      32.598  21.023  23.828  1.00  0.00    -0.025 A 
ATOM     21  C   UNL A   1      32.237  20.092  22.839  1.00  0.00     0.009 A 
ATOM     22  C   UNL A   1      33.272  20.593  24.974  1.00  0.00     0.009 A 
ATOM     23  C   UNL A   1      32.604  18.753  22.960  1.00  0.00     0.021 A 
ATOM     24  C   UNL A   1      33.644  19.251  25.100  1.00  0.00     0.021 A 
ATOM     25  C   UNL A   1      33.319  18.342  24.087  1.00  0.00     0.067 A 
BRANCH  25  26
ATOM     26  S   UNL A   1      33.933  16.673  24.152  1.00  0.00     0.175 S 
ATOM     27  C   UNL A   1      32.645  15.774  24.973  1.00  0.00     0.163 C 
ATOM     28  O   UNL A   1      34.017  16.201  22.784  1.00  0.00    -0.224 OA
ATOM     29  O   UNL A   1      35.100  16.671  25.014  1.00  0.00    -0.224 OA
ENDBRANCH  25  26
ENDBRANCH   8  20
ENDBRANCH   4   7
ENDBRANCH   2   3
ENDBRANCH   1   2
BRANCH   1  30
ATOM     30  C   UNL A   1      32.281  28.337  26.028  1.00  0.00     0.023 C 
BRANCH  30  31
ATOM     31  C   UNL A   1      33.353  29.399  25.810  1.00  0.00     0.116 C 
BRANCH  31  32
ATOM     32  N   UNL A   1      32.962  30.715  26.292  1.00  0.00    -0.352 N 
ATOM     33  C   UNL A   1      33.571  31.492  27.245  1.00  0.00     0.251 C 
ATOM     34  H   UNL A   1      32.155  31.099  25.879  1.00  0.00     0.163 HD
ATOM     35  O   UNL A   1      33.054  32.540  27.617  1.00  0.00    -0.269 OA
BRANCH  33  36
ATOM     36  C   UNL A   1      34.835  31.029  27.850  1.00  0.00     0.039 A 
ATOM     37  C   UNL A   1      35.881  31.941  28.001  1.00  0.00     0.014 A 
ATOM     38  C   UNL A   1      34.970  29.713  28.299  1.00  0.00     0.014 A 
ATOM     39  C   UNL A   1      37.044  31.549  28.663  1.00  0.00     0.010 A 
ATOM     40  C   UNL A   1      36.099  29.345  29.021  1.00  0.00     0.010 A 
ATOM     41  C   UNL A   1      37.147  30.260  29.211  1.00  0.00    -0.014 A 
BRANCH  41  42
ATOM     42  C   UNL A   1      38.343  29.848  29.985  1.00  0.00     0.031 A 
ATOM     43  C   UNL A   1      38.549  30.364  31.380  1.00  0.00     0.074 A 
ATOM     44  C   UNL A   1      39.274  29.067  29.404  1.00  0.00     0.049 A 
ATOM     45  N   UNL A   1      39.560  30.178  32.191  1.00  0.00    -0.248 NA
ATOM     46  C   UNL A   1      37.493  31.230  31.927  1.00  0.00     0.031 C 
ATOM     47  C   UNL A   1      39.209  28.547  28.037  1.00  0.00     0.029 A 
ATOM     48  N   UNL A   1      40.463  28.582  29.887  1.00  0.00    -0.354 N 
ATOM     49  C   UNL A   1      39.268  30.913  33.332  1.00  0.00     0.074 A 
ATOM     50  C   UNL A   1      38.015  31.593  33.089  1.00  0.00     0.031 C 
ATOM     51  C   UNL A   1      40.298  27.799  27.799  1.00  0.00     0.029 A 
ATOM     52  C   UNL A   1      41.155  27.817  28.980  1.00  0.00     0.049 A 
ATOM     53  H   UNL A   1      40.790  28.766  30.797  1.00  0.00     0.167 HD
ATOM     54  C   UNL A   1      39.970  30.991  34.487  1.00  0.00     0.037 A 
ATOM     55  C   UNL A   1      42.349  27.205  29.089  1.00  0.00     0.037 A 
ATOM     56  C   UNL A   1      41.203  30.291  34.732  1.00  0.00     0.049 A 
ATOM     57  C   UNL A   1      43.110  27.310  30.385  1.00  0.00     0.074 A 
ATOM     58  C   UNL A   1      41.959  30.254  35.890  1.00  0.00     0.029 A 
ATOM     59  N   UNL A   1      41.863  29.506  33.797  1.00  0.00    -0.354 N 
ATOM     60  N   UNL A   1      42.788  27.946  31.485  1.00  0.00    -0.248 NA
ATOM     61  C   UNL A   1      44.396  26.603  30.455  1.00  0.00     0.031 C 
ATOM     62  C   UNL A   1      43.101  29.486  35.641  1.00  0.00     0.029 A 
ATOM     63  C   UNL A   1      43.030  28.998  34.346  1.00  0.00     0.049 A 
ATOM     64  H   UNL A   1      41.549  29.336  32.880  1.00  0.00     0.167 HD
ATOM     65  C   UNL A   1      43.813  27.694  32.386  1.00  0.00     0.074 A 
ATOM     66  C   UNL A   1      44.760  26.834  31.709  1.00  0.00     0.031 C 
ATOM     67  C   UNL A   1      43.956  28.135  33.660  1.00  0.00     0.037 A 
BRANCH  54  68
ATOM     68  C   UNL A   1      39.417  31.863  35.577  1.00  0.00     0.064 A 
ATOM     69  C   UNL A   1      39.787  33.211  35.700  1.00  0.00     0.173 A 
ATOM     70  C   UNL A   1      38.482  31.356  36.492  1.00  0.00     0.173 A 
ATOM     71  F   UNL A   1      40.688  33.744  34.860  1.00  0.00    -0.203 F 
ATOM     72  C   UNL A   1      39.267  34.010  36.715  1.00  0.00     0.198 A 
ATOM     73  C   UNL A   1      37.939  32.165  37.486  1.00  0.00     0.198 A 
ATOM     74  F   UNL A   1      38.089  30.075  36.417  1.00  0.00    -0.203 F 
ATOM     75  F   UNL A   1      39.677  35.279  36.845  1.00  0.00    -0.200 F 
ATOM     76  C   UNL A   1      38.337  33.488  37.603  1.00  0.00     0.200 A 
ATOM     77  F   UNL A   1      37.030  31.663  38.334  1.00  0.00    -0.200 F 
ATOM     78  F   UNL A   1      37.832  34.258  38.575  1.00  0.00    -0.200 F 
ENDBRANCH  54  68
BRANCH  55  79
ATOM     79  C   UNL A   1      42.889  26.418  27.950  1.00  0.00     0.064 A 
ATOM     80  C   UNL A   1      43.658  27.032  26.952  1.00  0.00     0.173 A 
ATOM     81  C   UNL A   1      42.648  25.041  27.833  1.00  0.00     0.173 A 
ATOM     82  F   UNL A   1      43.901  28.350  27.009  1.00  0.00    -0.203 F 
ATOM     83  C   UNL A   1      44.144  26.305  25.867  1.00  0.00     0.198 A 
ATOM     84  C   UNL A   1      43.159  24.309  26.764  1.00  0.00     0.198 A 
ATOM     85  F   UNL A   1      41.924  24.404  28.765  1.00  0.00    -0.203 F 
ATOM     86  F   UNL A   1      44.835  26.927  24.902  1.00  0.00    -0.200 F 
ATOM     87  C   UNL A   1      43.899  24.943  25.777  1.00  0.00     0.200 A 
ATOM     88  F   UNL A   1      42.933  22.991  26.688  1.00  0.00    -0.200 F 
ATOM     89  F   UNL A   1      44.370  24.243  24.736  1.00  0.00    -0.200 F 
ENDBRANCH  55  79
BRANCH  67  90
ATOM     90  C   UNL A   1      45.163  27.664  34.419  1.00  0.00     0.064 A 
ATOM     91  C   UNL A   1      46.353  28.405  34.445  1.00  0.00     0.173 A 
ATOM     92  C   UNL A   1      45.112  26.476  35.165  1.00  0.00     0.173 A 
ATOM     93  F   UNL A   1      46.459  29.540  33.737  1.00  0.00    -0.203 F 
ATOM     94  C   UNL A   1      47.456  27.961  35.171  1.00  0.00     0.198 A 
ATOM     95  C   UNL A   1      46.205  26.053  35.914  1.00  0.00     0.198 A 
ATOM     96  F   UNL A   1      43.994  25.735  35.179  1.00  0.00    -0.203 F 
ATOM     97  F   UNL A   1      48.600  28.661  35.143  1.00  0.00    -0.200 F 
ATOM     98  C   UNL A   1      47.379  26.791  35.910  1.00  0.00     0.200 A 
ATOM     99  F   UNL A   1      46.122  24.929  36.641  1.00  0.00    -0.200 F 
ATOM    100  F   UNL A   1      48.438  26.370  36.615  1.00  0.00    -0.200 F 
ENDBRANCH  67  90
ENDBRANCH  41  42
ENDBRANCH  33  36
ENDBRANCH  31  32
ENDBRANCH  30  31
ENDBRANCH   1  30
TORSDOF 15
ENDMDL
