MODEL 1
REMARK VINA RESULT:     -11.9      0.000      0.000
REMARK SMILES CC1(C)CCCC[C@H]1[C@H](O)C(=O)NCCCCNC(=O)c1ccc(-c2c3nc(c(-c4c(F)c(F)c(F)c(F)c4F)c4ccc([nH]4)c(-c4c(F)c(F)c(F)c(F)c4F)c4nc(c(-c5c(F)c(F)c(F)c(F)c5F)c5ccc2[nH]5)C=C4)C=C3)cc1
REMARK SMILES IDX 16 1 15 2 14 3 13 4 11 5 12 6 9 8 8 9 1 10 2 11 3 12 4 13
REMARK SMILES IDX 5 14 7 15 6 16 10 17 17 19 18 20 19 21 20 23 21 24 22 25
REMARK SMILES IDX 83 26 23 27 82 28 24 29 25 30 26 31 76 32 27 33 81 34 75 35
REMARK SMILES IDX 77 36 28 37 80 38 74 39 73 40 29 42 61 43 41 44 60 45 42 46
REMARK SMILES IDX 45 47 59 48 78 49 43 50 44 51 58 53 79 54 46 55 30 56 31 57
REMARK SMILES IDX 39 58 32 59 33 60 37 61 40 62 34 63 35 64 38 65 36 66 62 67
REMARK SMILES IDX 63 68 71 69 64 70 65 71 69 72 72 73 66 74 67 75 70 76 68 77
REMARK SMILES IDX 47 78 48 79 56 80 49 81 50 82 54 83 57 84 51 85 52 86 55 87
REMARK SMILES IDX 53 88
REMARK H PARENT 13 7 10 18 18 22 77 41 45 52
REMARK Flexibility Score: inf
ROOT
ATOM      1  C   UNL A   1      31.589  31.952  26.844  1.00  0.00     0.023 C 
ENDROOT
BRANCH   1   2
ATOM      2  C   UNL A   1      31.844  30.488  26.483  1.00  0.00     0.023 C 
BRANCH   2   3
ATOM      3  C   UNL A   1      31.324  30.077  25.111  1.00  0.00     0.116 C 
BRANCH   3   4
ATOM      4  N   UNL A   1      32.404  29.703  24.222  1.00  0.00    -0.354 N 
ATOM      5  C   UNL A   1      32.546  28.637  23.386  1.00  0.00     0.249 C 
ATOM      6  O   UNL A   1      33.601  28.559  22.749  1.00  0.00    -0.272 OA
ATOM      7  H   UNL A   1      33.166  30.327  24.221  1.00  0.00     0.163 HD
BRANCH   5   8
ATOM      8  C   UNL A   1      31.435  27.585  23.211  1.00  0.00     0.206 C 
BRANCH   8   9
ATOM      9  C   UNL A   1      31.761  26.170  23.777  1.00  0.00     0.033 C 
ATOM     10  C   UNL A   1      29.528  25.953  25.062  1.00  0.00     0.011 C 
ATOM     11  C   UNL A   1      31.060  25.796  25.141  1.00  0.00    -0.030 C 
ATOM     12  C   UNL A   1      31.557  26.661  26.322  1.00  0.00     0.011 C 
ATOM     13  C   UNL A   1      31.420  24.331  25.515  1.00  0.00     0.007 C 
ATOM     14  C   UNL A   1      31.124  23.318  24.418  1.00  0.00     0.001 C 
ATOM     15  C   UNL A   1      31.478  25.107  22.683  1.00  0.00     0.007 C 
ATOM     16  C   UNL A   1      31.830  23.693  23.127  1.00  0.00     0.000 C 
ENDBRANCH   8   9
BRANCH   8  17
ATOM     17  O   UNL A   1      31.029  27.533  21.838  1.00  0.00    -0.383 OA
ATOM     18  H   UNL A   1      30.072  27.381  21.790  1.00  0.00     0.211 HD
ENDBRANCH   8  17
ENDBRANCH   5   8
ENDBRANCH   3   4
ENDBRANCH   2   3
ENDBRANCH   1   2
BRANCH   1  19
ATOM     19  C   UNL A   1      32.827  32.727  27.281  1.00  0.00     0.116 C 
BRANCH  19  20
ATOM     20  N   UNL A   1      32.528  34.109  27.626  1.00  0.00    -0.352 N 
ATOM     21  C   UNL A   1      33.057  34.893  28.620  1.00  0.00     0.251 C 
ATOM     22  H   UNL A   1      31.847  34.545  27.064  1.00  0.00     0.163 HD
ATOM     23  O   UNL A   1      32.556  35.982  28.884  1.00  0.00    -0.269 OA
BRANCH  21  24
ATOM     24  C   UNL A   1      34.220  34.409  29.394  1.00  0.00     0.039 A 
ATOM     25  C   UNL A   1      34.004  33.792  30.628  1.00  0.00     0.014 A 
ATOM     26  C   UNL A   1      35.516  34.549  28.890  1.00  0.00     0.014 A 
ATOM     27  C   UNL A   1      35.085  33.248  31.324  1.00  0.00     0.010 A 
ATOM     28  C   UNL A   1      36.577  33.929  29.541  1.00  0.00     0.010 A 
ATOM     29  C   UNL A   1      36.375  33.276  30.766  1.00  0.00    -0.014 A 
BRANCH  29  30
ATOM     30  C   UNL A   1      37.521  32.622  31.446  1.00  0.00     0.031 A 
ATOM     31  C   UNL A   1      38.219  31.457  30.803  1.00  0.00     0.074 A 
ATOM     32  C   UNL A   1      37.883  33.027  32.678  1.00  0.00     0.049 A 
ATOM     33  N   UNL A   1      39.194  30.716  31.266  1.00  0.00    -0.248 NA
ATOM     34  C   UNL A   1      37.733  31.050  29.476  1.00  0.00     0.031 C 
ATOM     35  C   UNL A   1      37.241  34.101  33.436  1.00  0.00     0.029 A 
ATOM     36  N   UNL A   1      38.868  32.569  33.517  1.00  0.00    -0.354 N 
ATOM     37  C   UNL A   1      39.426  29.751  30.295  1.00  0.00     0.074 A 
ATOM     38  C   UNL A   1      38.447  29.958  29.252  1.00  0.00     0.031 C 
ATOM     39  C   UNL A   1      37.857  34.232  34.621  1.00  0.00     0.029 A 
ATOM     40  C   UNL A   1      38.909  33.225  34.723  1.00  0.00     0.049 A 
ATOM     41  H   UNL A   1      39.485  31.841  33.278  1.00  0.00     0.167 HD
ATOM     42  C   UNL A   1      40.386  28.795  30.265  1.00  0.00     0.037 A 
ATOM     43  C   UNL A   1      39.697  33.028  35.798  1.00  0.00     0.037 A 
ATOM     44  C   UNL A   1      41.362  28.599  31.306  1.00  0.00     0.049 A 
ATOM     45  C   UNL A   1      40.754  31.960  35.749  1.00  0.00     0.074 A 
ATOM     46  C   UNL A   1      42.418  27.707  31.343  1.00  0.00     0.029 A 
ATOM     47  N   UNL A   1      41.391  29.300  32.504  1.00  0.00    -0.354 N 
ATOM     48  N   UNL A   1      41.025  31.110  34.789  1.00  0.00    -0.248 NA
ATOM     49  C   UNL A   1      41.622  31.833  36.926  1.00  0.00     0.031 C 
ATOM     50  C   UNL A   1      43.045  27.822  32.588  1.00  0.00     0.029 A 
ATOM     51  C   UNL A   1      42.425  28.835  33.302  1.00  0.00     0.049 A 
ATOM     52  H   UNL A   1      40.769  30.022  32.751  1.00  0.00     0.167 HD
ATOM     53  C   UNL A   1      42.105  30.359  35.235  1.00  0.00     0.074 A 
ATOM     54  C   UNL A   1      42.450  30.869  36.546  1.00  0.00     0.031 C 
ATOM     55  C   UNL A   1      42.753  29.343  34.612  1.00  0.00     0.037 A 
BRANCH  42  56
ATOM     56  C   UNL A   1      40.407  27.881  29.071  1.00  0.00     0.064 A 
ATOM     57  C   UNL A   1      41.169  28.172  27.928  1.00  0.00     0.173 A 
ATOM     58  C   UNL A   1      39.650  26.700  29.065  1.00  0.00     0.173 A 
ATOM     59  F   UNL A   1      41.906  29.293  27.874  1.00  0.00    -0.203 F 
ATOM     60  C   UNL A   1      41.128  27.348  26.806  1.00  0.00     0.198 A 
ATOM     61  C   UNL A   1      39.643  25.856  27.957  1.00  0.00     0.198 A 
ATOM     62  F   UNL A   1      38.911  26.363  30.132  1.00  0.00    -0.203 F 
ATOM     63  F   UNL A   1      41.800  27.691  25.699  1.00  0.00    -0.200 F 
ATOM     64  C   UNL A   1      40.368  26.189  26.823  1.00  0.00     0.200 A 
ATOM     65  F   UNL A   1      38.921  24.727  27.981  1.00  0.00    -0.200 F 
ATOM     66  F   UNL A   1      40.324  25.399  25.741  1.00  0.00    -0.200 F 
ENDBRANCH  42  56
BRANCH  43  67
ATOM     67  C   UNL A   1      39.512  33.881  37.000  1.00  0.00     0.064 A 
ATOM     68  C   UNL A   1      40.053  35.172  37.064  1.00  0.00     0.173 A 
ATOM     69  C   UNL A   1      38.753  33.436  38.094  1.00  0.00     0.173 A 
ATOM     70  F   UNL A   1      40.800  35.634  36.050  1.00  0.00    -0.203 F 
ATOM     71  C   UNL A   1      39.850  35.984  38.178  1.00  0.00     0.198 A 
ATOM     72  C   UNL A   1      38.527  34.260  39.195  1.00  0.00     0.198 A 
ATOM     73  F   UNL A   1      38.208  32.211  38.080  1.00  0.00    -0.203 F 
ATOM     74  F   UNL A   1      40.403  37.203  38.225  1.00  0.00    -0.200 F 
ATOM     75  C   UNL A   1      39.078  35.531  39.238  1.00  0.00     0.200 A 
ATOM     76  F   UNL A   1      37.764  33.825  40.208  1.00  0.00    -0.200 F 
ATOM     77  F   UNL A   1      38.867  36.319  40.300  1.00  0.00    -0.200 F 
ENDBRANCH  43  67
BRANCH  55  78
ATOM     78  C   UNL A   1      43.918  28.724  35.332  1.00  0.00     0.064 A 
ATOM     79  C   UNL A   1      45.225  29.208  35.178  1.00  0.00     0.173 A 
ATOM     80  C   UNL A   1      43.715  27.656  36.220  1.00  0.00     0.173 A 
ATOM     81  F   UNL A   1      45.477  30.218  34.330  1.00  0.00    -0.203 F 
ATOM     82  C   UNL A   1      46.290  28.629  35.865  1.00  0.00     0.198 A 
ATOM     83  C   UNL A   1      44.776  27.102  36.931  1.00  0.00     0.198 A 
ATOM     84  F   UNL A   1      42.484  27.158  36.410  1.00  0.00    -0.203 F 
ATOM     85  F   UNL A   1      47.537  29.075  35.663  1.00  0.00    -0.200 F 
ATOM     86  C   UNL A   1      46.064  27.583  36.748  1.00  0.00     0.200 A 
ATOM     87  F   UNL A   1      44.552  26.103  37.796  1.00  0.00    -0.200 F 
ATOM     88  F   UNL A   1      47.087  27.034  37.416  1.00  0.00    -0.200 F 
ENDBRANCH  55  78
ENDBRANCH  29  30
ENDBRANCH  21  24
ENDBRANCH  19  20
ENDBRANCH   1  19
TORSDOF 13
ENDMDL
MODEL 2
REMARK VINA RESULT:     -11.9      0.211      1.662
REMARK SMILES CC1(C)CCCC[C@H]1[C@H](O)C(=O)NCCCCNC(=O)c1ccc(-c2c3nc(c(-c4c(F)c(F)c(F)c(F)c4F)c4ccc([nH]4)c(-c4c(F)c(F)c(F)c(F)c4F)c4nc(c(-c5c(F)c(F)c(F)c(F)c5F)c5ccc2[nH]5)C=C4)C=C3)cc1
REMARK SMILES IDX 16 1 15 2 14 3 13 4 11 5 12 6 9 8 8 9 1 10 2 11 3 12 4 13
REMARK SMILES IDX 5 14 7 15 6 16 10 17 17 19 18 20 19 21 20 23 21 24 22 25
REMARK SMILES IDX 83 26 23 27 82 28 24 29 25 30 26 31 76 32 27 33 81 34 75 35
REMARK SMILES IDX 77 36 28 37 80 38 74 39 73 40 29 42 61 43 41 44 60 45 42 46
REMARK SMILES IDX 45 47 59 48 78 49 43 50 44 51 58 53 79 54 46 55 30 56 31 57
REMARK SMILES IDX 39 58 32 59 33 60 37 61 40 62 34 63 35 64 38 65 36 66 62 67
REMARK SMILES IDX 63 68 71 69 64 70 65 71 69 72 72 73 66 74 67 75 70 76 68 77
REMARK SMILES IDX 47 78 48 79 56 80 49 81 50 82 54 83 57 84 51 85 52 86 55 87
REMARK SMILES IDX 53 88
REMARK H PARENT 13 7 10 18 18 22 77 41 45 52
REMARK Flexibility Score: inf
ROOT
ATOM      1  C   UNL A   1      31.568  32.138  26.638  1.00  0.00     0.023 C 
ENDROOT
BRANCH   1   2
ATOM      2  C   UNL A   1      31.741  30.634  26.431  1.00  0.00     0.023 C 
BRANCH   2   3
ATOM      3  C   UNL A   1      31.241  30.121  25.085  1.00  0.00     0.116 C 
BRANCH   3   4
ATOM      4  N   UNL A   1      32.339  29.781  24.204  1.00  0.00    -0.354 N 
ATOM      5  C   UNL A   1      32.494  28.753  23.324  1.00  0.00     0.249 C 
ATOM      6  O   UNL A   1      33.563  28.697  22.708  1.00  0.00    -0.272 OA
ATOM      7  H   UNL A   1      33.104  30.399  24.248  1.00  0.00     0.163 HD
BRANCH   5   8
ATOM      8  C   UNL A   1      31.382  27.716  23.078  1.00  0.00     0.206 C 
BRANCH   8   9
ATOM      9  C   UNL A   1      31.640  26.303  23.682  1.00  0.00     0.033 C 
ATOM     10  C   UNL A   1      29.245  26.048  24.619  1.00  0.00     0.011 C 
ATOM     11  C   UNL A   1      30.750  25.912  24.925  1.00  0.00    -0.030 C 
ATOM     12  C   UNL A   1      31.053  26.778  26.169  1.00  0.00     0.011 C 
ATOM     13  C   UNL A   1      31.072  24.451  25.344  1.00  0.00     0.007 C 
ATOM     14  C   UNL A   1      30.958  23.439  24.211  1.00  0.00     0.001 C 
ATOM     15  C   UNL A   1      31.539  25.242  22.555  1.00  0.00     0.007 C 
ATOM     16  C   UNL A   1      31.842  23.831  23.041  1.00  0.00     0.000 C 
ENDBRANCH   8   9
BRANCH   8  17
ATOM     17  O   UNL A   1      31.079  27.654  21.678  1.00  0.00    -0.383 OA
ATOM     18  H   UNL A   1      31.775  27.159  21.219  1.00  0.00     0.211 HD
ENDBRANCH   8  17
ENDBRANCH   5   8
ENDBRANCH   3   4
ENDBRANCH   2   3
ENDBRANCH   1   2
BRANCH   1  19
ATOM     19  C   UNL A   1      32.749  32.830  27.310  1.00  0.00     0.116 C 
BRANCH  19  20
ATOM     20  N   UNL A   1      32.458  34.210  27.669  1.00  0.00    -0.352 N 
ATOM     21  C   UNL A   1      33.006  34.987  28.659  1.00  0.00     0.251 C 
ATOM     22  H   UNL A   1      31.767  34.650  27.122  1.00  0.00     0.163 HD
ATOM     23  O   UNL A   1      32.510  36.075  28.939  1.00  0.00    -0.269 OA
BRANCH  21  24
ATOM     24  C   UNL A   1      34.182  34.497  29.408  1.00  0.00     0.039 A 
ATOM     25  C   UNL A   1      33.989  33.889  30.650  1.00  0.00     0.014 A 
ATOM     26  C   UNL A   1      35.466  34.622  28.873  1.00  0.00     0.014 A 
ATOM     27  C   UNL A   1      35.081  33.340  31.324  1.00  0.00     0.010 A 
ATOM     28  C   UNL A   1      36.537  33.996  29.503  1.00  0.00     0.010 A 
ATOM     29  C   UNL A   1      36.357  33.352  30.736  1.00  0.00    -0.014 A 
BRANCH  29  30
ATOM     30  C   UNL A   1      37.513  32.691  31.393  1.00  0.00     0.031 A 
ATOM     31  C   UNL A   1      38.189  31.521  30.739  1.00  0.00     0.074 A 
ATOM     32  C   UNL A   1      37.904  33.096  32.617  1.00  0.00     0.049 A 
ATOM     33  N   UNL A   1      39.168  30.774  31.183  1.00  0.00    -0.248 NA
ATOM     34  C   UNL A   1      37.673  31.114  29.424  1.00  0.00     0.031 C 
ATOM     35  C   UNL A   1      37.285  34.177  33.386  1.00  0.00     0.029 A 
ATOM     36  N   UNL A   1      38.903  32.633  33.437  1.00  0.00    -0.354 N 
ATOM     37  C   UNL A   1      39.374  29.805  30.210  1.00  0.00     0.074 A 
ATOM     38  C   UNL A   1      38.374  30.017  29.187  1.00  0.00     0.031 C 
ATOM     39  C   UNL A   1      37.927  34.305  34.557  1.00  0.00     0.029 A 
ATOM     40  C   UNL A   1      38.974  33.291  34.640  1.00  0.00     0.049 A 
ATOM     41  H   UNL A   1      39.510  31.901  33.185  1.00  0.00     0.167 HD
ATOM     42  C   UNL A   1      40.326  28.842  30.162  1.00  0.00     0.037 A 
ATOM     43  C   UNL A   1      39.783  33.091  35.698  1.00  0.00     0.037 A 
ATOM     44  C   UNL A   1      41.322  28.642  31.182  1.00  0.00     0.049 A 
ATOM     45  C   UNL A   1      40.831  32.016  35.629  1.00  0.00     0.074 A 
ATOM     46  C   UNL A   1      42.373  27.742  31.198  1.00  0.00     0.029 A 
ATOM     47  N   UNL A   1      41.382  29.345  32.377  1.00  0.00    -0.354 N 
ATOM     48  N   UNL A   1      41.076  31.162  34.665  1.00  0.00    -0.248 NA
ATOM     49  C   UNL A   1      41.723  31.884  36.788  1.00  0.00     0.031 C 
ATOM     50  C   UNL A   1      43.027  27.855  32.430  1.00  0.00     0.029 A 
ATOM     51  C   UNL A   1      42.429  28.874  33.154  1.00  0.00     0.049 A 
ATOM     52  H   UNL A   1      40.769  30.071  32.636  1.00  0.00     0.167 HD
ATOM     53  C   UNL A   1      42.160  30.405  35.090  1.00  0.00     0.074 A 
ATOM     54  C   UNL A   1      42.536  30.915  36.393  1.00  0.00     0.031 C 
ATOM     55  C   UNL A   1      42.787  29.383  34.456  1.00  0.00     0.037 A 
BRANCH  42  56
ATOM     56  C   UNL A   1      40.316  27.925  28.969  1.00  0.00     0.064 A 
ATOM     57  C   UNL A   1      39.599  26.717  28.968  1.00  0.00     0.173 A 
ATOM     58  C   UNL A   1      41.039  28.254  27.813  1.00  0.00     0.173 A 
ATOM     59  F   UNL A   1      38.896  26.348  30.050  1.00  0.00    -0.203 F 
ATOM     60  C   UNL A   1      39.652  25.850  27.880  1.00  0.00     0.198 A 
ATOM     61  C   UNL A   1      41.058  27.403  26.711  1.00  0.00     0.198 A 
ATOM     62  F   UNL A   1      41.735  29.399  27.752  1.00  0.00    -0.203 F 
ATOM     63  F   UNL A   1      39.025  24.667  27.936  1.00  0.00    -0.200 F 
ATOM     64  C   UNL A   1      40.378  26.195  26.751  1.00  0.00     0.200 A 
ATOM     65  F   UNL A   1      41.747  27.746  25.613  1.00  0.00    -0.200 F 
ATOM     66  F   UNL A   1      40.434  25.357  25.706  1.00  0.00    -0.200 F 
ENDBRANCH  42  56
BRANCH  43  67
ATOM     67  C   UNL A   1      39.629  33.947  36.902  1.00  0.00     0.064 A 
ATOM     68  C   UNL A   1      40.229  35.212  36.974  1.00  0.00     0.173 A 
ATOM     69  C   UNL A   1      38.843  33.535  37.989  1.00  0.00     0.173 A 
ATOM     70  F   UNL A   1      41.003  35.643  35.967  1.00  0.00    -0.203 F 
ATOM     71  C   UNL A   1      40.056  36.029  38.090  1.00  0.00     0.198 A 
ATOM     72  C   UNL A   1      38.647  34.364  39.092  1.00  0.00     0.198 A 
ATOM     73  F   UNL A   1      38.241  32.337  37.967  1.00  0.00    -0.203 F 
ATOM     74  F   UNL A   1      40.664  37.220  38.145  1.00  0.00    -0.200 F 
ATOM     75  C   UNL A   1      39.256  35.609  39.143  1.00  0.00     0.200 A 
ATOM     76  F   UNL A   1      37.858  33.963  40.097  1.00  0.00    -0.200 F 
ATOM     77  F   UNL A   1      39.074  36.402  40.207  1.00  0.00    -0.200 F 
ENDBRANCH  43  67
BRANCH  55  78
ATOM     78  C   UNL A   1      43.963  28.756  35.153  1.00  0.00     0.064 A 
ATOM     79  C   UNL A   1      43.815  27.654  36.008  1.00  0.00     0.173 A 
ATOM     80  C   UNL A   1      45.261  29.241  34.928  1.00  0.00     0.173 A 
ATOM     81  F   UNL A   1      42.595  27.160  36.269  1.00  0.00    -0.203 F 
ATOM     82  C   UNL A   1      44.919  27.079  36.634  1.00  0.00     0.198 A 
ATOM     83  C   UNL A   1      46.365  28.642  35.528  1.00  0.00     0.198 A 
ATOM     84  F   UNL A   1      45.460  30.289  34.114  1.00  0.00    -0.203 F 
ATOM     85  F   UNL A   1      44.747  26.060  37.487  1.00  0.00    -0.200 F 
ATOM     86  C   UNL A   1      46.193  27.567  36.386  1.00  0.00     0.200 A 
ATOM     87  F   UNL A   1      47.597  29.105  35.273  1.00  0.00    -0.200 F 
ATOM     88  F   UNL A   1      47.255  27.006  36.980  1.00  0.00    -0.200 F 
ENDBRANCH  55  78
ENDBRANCH  29  30
ENDBRANCH  21  24
ENDBRANCH  19  20
ENDBRANCH   1  19
TORSDOF 13
ENDMDL
MODEL 3
REMARK VINA RESULT:     -11.9      1.080      2.223
REMARK SMILES CC1(C)CCCC[C@H]1[C@H](O)C(=O)NCCCCNC(=O)c1ccc(-c2c3nc(c(-c4c(F)c(F)c(F)c(F)c4F)c4ccc([nH]4)c(-c4c(F)c(F)c(F)c(F)c4F)c4nc(c(-c5c(F)c(F)c(F)c(F)c5F)c5ccc2[nH]5)C=C4)C=C3)cc1
REMARK SMILES IDX 16 1 15 2 14 3 13 4 11 5 12 6 9 8 8 9 1 10 2 11 3 12 4 13
REMARK SMILES IDX 5 14 7 15 6 16 10 17 17 19 18 20 19 21 20 23 21 24 22 25
REMARK SMILES IDX 83 26 23 27 82 28 24 29 25 30 26 31 76 32 27 33 81 34 75 35
REMARK SMILES IDX 77 36 28 37 80 38 74 39 73 40 29 42 61 43 41 44 60 45 42 46
REMARK SMILES IDX 45 47 59 48 78 49 43 50 44 51 58 53 79 54 46 55 30 56 31 57
REMARK SMILES IDX 39 58 32 59 33 60 37 61 40 62 34 63 35 64 38 65 36 66 62 67
REMARK SMILES IDX 63 68 71 69 64 70 65 71 69 72 72 73 66 74 67 75 70 76 68 77
REMARK SMILES IDX 47 78 48 79 56 80 49 81 50 82 54 83 57 84 51 85 52 86 55 87
REMARK SMILES IDX 53 88
REMARK H PARENT 13 7 10 18 18 22 77 41 45 52
REMARK Flexibility Score: inf
ROOT
ATOM      1  C   UNL A   1      31.463  32.136  26.561  1.00  0.00     0.023 C 
ENDROOT
BRANCH   1   2
ATOM      2  C   UNL A   1      31.697  30.686  26.139  1.00  0.00     0.023 C 
BRANCH   2   3
ATOM      3  C   UNL A   1      32.304  29.803  27.224  1.00  0.00     0.116 C 
BRANCH   3   4
ATOM      4  N   UNL A   1      31.620  28.531  27.319  1.00  0.00    -0.354 N 
ATOM      5  C   UNL A   1      31.778  27.375  26.614  1.00  0.00     0.249 C 
ATOM      6  O   UNL A   1      31.028  26.436  26.900  1.00  0.00    -0.272 OA
ATOM      7  H   UNL A   1      30.923  28.493  28.013  1.00  0.00     0.163 HD
BRANCH   5   8
ATOM      8  C   UNL A   1      32.857  27.226  25.526  1.00  0.00     0.206 C 
BRANCH   8   9
ATOM      9  C   UNL A   1      32.393  26.516  24.219  1.00  0.00     0.033 C 
ATOM     10  C   UNL A   1      32.631  28.630  22.751  1.00  0.00     0.011 C 
ATOM     11  C   UNL A   1      31.723  27.443  23.132  1.00  0.00    -0.030 C 
ATOM     12  C   UNL A   1      30.369  28.024  23.599  1.00  0.00     0.011 C 
ATOM     13  C   UNL A   1      31.404  26.599  21.867  1.00  0.00     0.007 C 
ATOM     14  C   UNL A   1      32.596  25.831  21.314  1.00  0.00     0.001 C 
ATOM     15  C   UNL A   1      33.582  25.714  23.626  1.00  0.00     0.007 C 
ATOM     16  C   UNL A   1      33.203  24.932  22.376  1.00  0.00     0.000 C 
ENDBRANCH   8   9
BRANCH   8  17
ATOM     17  O   UNL A   1      34.025  26.612  26.085  1.00  0.00    -0.383 OA
ATOM     18  H   UNL A   1      34.313  25.884  25.512  1.00  0.00     0.211 HD
ENDBRANCH   8  17
ENDBRANCH   5   8
ENDBRANCH   3   4
ENDBRANCH   2   3
ENDBRANCH   1   2
BRANCH   1  19
ATOM     19  C   UNL A   1      32.616  32.772  27.329  1.00  0.00     0.116 C 
BRANCH  19  20
ATOM     20  N   UNL A   1      32.382  34.178  27.626  1.00  0.00    -0.352 N 
ATOM     21  C   UNL A   1      32.979  34.980  28.566  1.00  0.00     0.251 C 
ATOM     22  H   UNL A   1      31.696  34.616  27.072  1.00  0.00     0.163 HD
ATOM     23  O   UNL A   1      32.528  36.098  28.802  1.00  0.00    -0.269 OA
BRANCH  21  24
ATOM     24  C   UNL A   1      34.152  34.484  29.314  1.00  0.00     0.039 A 
ATOM     25  C   UNL A   1      33.959  33.902  30.569  1.00  0.00     0.014 A 
ATOM     26  C   UNL A   1      35.434  34.578  28.768  1.00  0.00     0.014 A 
ATOM     27  C   UNL A   1      35.047  33.346  31.244  1.00  0.00     0.010 A 
ATOM     28  C   UNL A   1      36.500  33.945  29.400  1.00  0.00     0.010 A 
ATOM     29  C   UNL A   1      36.319  33.327  30.646  1.00  0.00    -0.014 A 
BRANCH  29  30
ATOM     30  C   UNL A   1      37.469  32.658  31.306  1.00  0.00     0.031 A 
ATOM     31  C   UNL A   1      38.155  31.500  30.641  1.00  0.00     0.074 A 
ATOM     32  C   UNL A   1      37.844  33.045  32.540  1.00  0.00     0.049 A 
ATOM     33  N   UNL A   1      39.131  30.748  31.085  1.00  0.00    -0.248 NA
ATOM     34  C   UNL A   1      37.655  31.113  29.314  1.00  0.00     0.031 C 
ATOM     35  C   UNL A   1      37.214  34.112  33.319  1.00  0.00     0.029 A 
ATOM     36  N   UNL A   1      38.835  32.572  33.364  1.00  0.00    -0.354 N 
ATOM     37  C   UNL A   1      39.350  29.796  30.099  1.00  0.00     0.074 A 
ATOM     38  C   UNL A   1      38.362  30.021  29.068  1.00  0.00     0.031 C 
ATOM     39  C   UNL A   1      37.843  34.223  34.499  1.00  0.00     0.029 A 
ATOM     40  C   UNL A   1      38.891  33.211  34.578  1.00  0.00     0.049 A 
ATOM     41  H   UNL A   1      39.447  31.845  33.108  1.00  0.00     0.167 HD
ATOM     42  C   UNL A   1      40.305  28.835  30.047  1.00  0.00     0.037 A 
ATOM     43  C   UNL A   1      39.688  32.996  35.642  1.00  0.00     0.037 A 
ATOM     44  C   UNL A   1      41.290  28.622  31.075  1.00  0.00     0.049 A 
ATOM     45  C   UNL A   1      40.740  31.924  35.568  1.00  0.00     0.074 A 
ATOM     46  C   UNL A   1      42.343  27.724  31.089  1.00  0.00     0.029 A 
ATOM     47  N   UNL A   1      41.334  29.306  32.282  1.00  0.00    -0.354 N 
ATOM     48  N   UNL A   1      40.999  31.086  34.594  1.00  0.00    -0.248 NA
ATOM     49  C   UNL A   1      41.619  31.777  36.736  1.00  0.00     0.031 C 
ATOM     50  C   UNL A   1      42.983  27.820  32.330  1.00  0.00     0.029 A 
ATOM     51  C   UNL A   1      42.374  28.825  33.063  1.00  0.00     0.049 A 
ATOM     52  H   UNL A   1      40.717  30.027  32.545  1.00  0.00     0.167 HD
ATOM     53  C   UNL A   1      42.079  30.325  35.020  1.00  0.00     0.074 A 
ATOM     54  C   UNL A   1      42.438  30.816  36.335  1.00  0.00     0.031 C 
ATOM     55  C   UNL A   1      42.716  29.315  34.377  1.00  0.00     0.037 A 
BRANCH  42  56
ATOM     56  C   UNL A   1      40.311  27.937  28.840  1.00  0.00     0.064 A 
ATOM     57  C   UNL A   1      39.607  26.722  28.816  1.00  0.00     0.173 A 
ATOM     58  C   UNL A   1      41.037  28.292  27.693  1.00  0.00     0.173 A 
ATOM     59  F   UNL A   1      38.903  26.328  29.888  1.00  0.00    -0.203 F 
ATOM     60  C   UNL A   1      39.676  25.873  27.715  1.00  0.00     0.198 A 
ATOM     61  C   UNL A   1      41.070  27.458  26.577  1.00  0.00     0.198 A 
ATOM     62  F   UNL A   1      41.720  29.445  27.653  1.00  0.00    -0.203 F 
ATOM     63  F   UNL A   1      39.060  24.683  27.750  1.00  0.00    -0.200 F 
ATOM     64  C   UNL A   1      40.403  26.243  26.595  1.00  0.00     0.200 A 
ATOM     65  F   UNL A   1      41.761  27.826  25.489  1.00  0.00    -0.200 F 
ATOM     66  F   UNL A   1      40.473  25.422  25.537  1.00  0.00    -0.200 F 
ENDBRANCH  42  56
BRANCH  43  67
ATOM     67  C   UNL A   1      39.518  33.833  36.858  1.00  0.00     0.064 A 
ATOM     68  C   UNL A   1      40.096  35.107  36.947  1.00  0.00     0.173 A 
ATOM     69  C   UNL A   1      38.739  33.392  37.938  1.00  0.00     0.173 A 
ATOM     70  F   UNL A   1      40.863  35.565  35.947  1.00  0.00    -0.203 F 
ATOM     71  C   UNL A   1      39.908  35.906  38.074  1.00  0.00     0.198 A 
ATOM     72  C   UNL A   1      38.528  34.203  39.052  1.00  0.00     0.198 A 
ATOM     73  F   UNL A   1      38.159  32.184  37.899  1.00  0.00    -0.203 F 
ATOM     74  F   UNL A   1      40.495  37.107  38.146  1.00  0.00    -0.200 F 
ATOM     75  C   UNL A   1      39.115  35.457  39.120  1.00  0.00     0.200 A 
ATOM     76  F   UNL A   1      37.746  33.773  40.051  1.00  0.00    -0.200 F 
ATOM     77  F   UNL A   1      38.918  36.233  40.195  1.00  0.00    -0.200 F 
ENDBRANCH  43  67
BRANCH  55  78
ATOM     78  C   UNL A   1      43.885  28.680  35.077  1.00  0.00     0.064 A 
ATOM     79  C   UNL A   1      43.730  27.568  35.917  1.00  0.00     0.173 A 
ATOM     80  C   UNL A   1      45.185  29.169  34.871  1.00  0.00     0.173 A 
ATOM     81  F   UNL A   1      42.508  27.070  36.160  1.00  0.00    -0.203 F 
ATOM     82  C   UNL A   1      44.828  26.985  36.546  1.00  0.00     0.198 A 
ATOM     83  C   UNL A   1      46.284  28.563  35.474  1.00  0.00     0.198 A 
ATOM     84  F   UNL A   1      45.392  30.226  34.072  1.00  0.00    -0.203 F 
ATOM     85  F   UNL A   1      44.648  25.956  37.385  1.00  0.00    -0.200 F 
ATOM     86  C   UNL A   1      46.104  27.477  36.317  1.00  0.00     0.200 A 
ATOM     87  F   UNL A   1      47.518  29.029  35.237  1.00  0.00    -0.200 F 
ATOM     88  F   UNL A   1      47.161  26.909  36.915  1.00  0.00    -0.200 F 
ENDBRANCH  55  78
ENDBRANCH  29  30
ENDBRANCH  21  24
ENDBRANCH  19  20
ENDBRANCH   1  19
TORSDOF 13
ENDMDL
