MODEL 1
REMARK VINA RESULT:     -13.5      0.000      0.000
REMARK SMILES CC(C)c1ccc(-c2cnc([C@@H]3[NH2+][C@H](C(=O)NCCCCNC(=O)c4ccc(-c5c6nc(c(-c7c(F)c(F)c(F)c(F)c7F)c7ccc([nH]7)c(-c7c(F)c(F)c(F)c(F)c7F)c7nc(c(-c8c(F)c(F)c(F)c(F)c8F)c8ccc5[nH]8)C=C7)C=C6)cc4)C(C)(C)S3)s2)cc1
REMARK SMILES IDX 19 1 18 2 17 3 15 4 16 5 14 7 12 8 13 9 91 10 88 13 89 14
REMARK SMILES IDX 90 15 11 16 8 17 9 18 92 19 10 20 7 21 4 22 5 23 94 24 6 25
REMARK SMILES IDX 93 26 2 27 1 28 3 29 20 30 21 31 22 32 23 33 24 35 25 36
REMARK SMILES IDX 26 37 87 38 27 39 86 40 28 41 29 42 30 43 80 44 31 45 85 46
REMARK SMILES IDX 79 47 81 48 32 49 84 50 78 51 77 52 33 54 65 55 45 56 64 57
REMARK SMILES IDX 46 58 49 59 63 60 82 61 47 62 48 63 62 65 83 66 50 67 34 68
REMARK SMILES IDX 35 69 43 70 36 71 37 72 41 73 44 74 38 75 39 76 42 77 40 78
REMARK SMILES IDX 66 79 67 80 75 81 68 82 69 83 73 84 76 85 70 86 71 87 74 88
REMARK SMILES IDX 72 89 51 90 52 91 60 92 53 93 54 94 58 95 61 96 55 97 56 98
REMARK SMILES IDX 59 99 57 100
REMARK H PARENT 17 6 13 11 13 12 22 34 81 53 49 64
REMARK Flexibility Score: inf
ROOT
ATOM      1  C   UNL A   1      31.436  30.680  26.453  1.00  0.00     0.023 C 
ENDROOT
BRANCH   1   2
ATOM      2  C   UNL A   1      32.813  30.030  26.634  1.00  0.00     0.116 C 
BRANCH   2   3
ATOM      3  N   UNL A   1      32.759  28.613  26.350  1.00  0.00    -0.351 N 
ATOM      4  C   UNL A   1      32.030  28.021  25.354  1.00  0.00     0.279 C 
ATOM      5  O   UNL A   1      31.359  27.053  25.697  1.00  0.00    -0.268 OA
ATOM      6  H   UNL A   1      33.296  28.020  26.924  1.00  0.00     0.163 HD
BRANCH   4   7
ATOM      7  C   UNL A   1      32.134  28.584  23.916  1.00  0.00     0.289 C 
ATOM      8  C   UNL A   1      33.085  26.870  22.483  1.00  0.00     0.304 C 
ATOM      9  N   UNL A   1      33.384  28.106  23.242  1.00  0.00    -0.318 N 
ATOM     10  S   UNL A   1      31.332  26.891  22.001  1.00  0.00    -0.079 SA
ATOM     11  H   UNL A   1      33.724  28.825  22.603  1.00  0.00     0.348 HD
ATOM     12  H   UNL A   1      34.099  27.913  23.944  1.00  0.00     0.348 HD
ATOM     13  C   UNL A   1      30.922  28.366  22.987  1.00  0.00     0.078 C 
ATOM     14  C   UNL A   1      30.793  29.542  21.999  1.00  0.00     0.030 C 
ATOM     15  C   UNL A   1      29.583  28.170  23.696  1.00  0.00     0.030 C 
BRANCH   8  16
ATOM     16  C   UNL A   1      33.475  25.588  23.191  1.00  0.00     0.162 A 
ATOM     17  C   UNL A   1      33.763  23.264  23.889  1.00  0.00     0.055 A 
ATOM     18  C   UNL A   1      34.422  24.218  24.639  1.00  0.00     0.132 A 
ATOM     19  S   UNL A   1      32.935  24.052  22.604  1.00  0.00    -0.112 S 
ATOM     20  N   UNL A   1      34.193  25.521  24.291  1.00  0.00    -0.242 NA
BRANCH  17  21
ATOM     21  C   UNL A   1      33.712  21.819  24.125  1.00  0.00    -0.007 A 
ATOM     22  C   UNL A   1      33.772  19.010  24.526  1.00  0.00    -0.045 A 
ATOM     23  C   UNL A   1      32.643  19.638  23.979  1.00  0.00     0.004 A 
ATOM     24  C   UNL A   1      34.869  19.808  24.873  1.00  0.00     0.004 A 
ATOM     25  C   UNL A   1      32.610  21.027  23.786  1.00  0.00     0.010 A 
ATOM     26  C   UNL A   1      34.836  21.189  24.678  1.00  0.00     0.010 A 
BRANCH  22  27
ATOM     27  C   UNL A   1      33.885  17.508  24.719  1.00  0.00     0.013 C 
ATOM     28  C   UNL A   1      32.739  16.881  25.515  1.00  0.00     0.012 C 
ATOM     29  C   UNL A   1      34.039  16.814  23.362  1.00  0.00     0.012 C 
ENDBRANCH  22  27
ENDBRANCH  17  21
ENDBRANCH   8  16
ENDBRANCH   4   7
ENDBRANCH   2   3
ENDBRANCH   1   2
BRANCH   1  30
ATOM     30  C   UNL A   1      31.409  32.209  26.556  1.00  0.00     0.023 C 
BRANCH  30  31
ATOM     31  C   UNL A   1      32.616  32.840  27.238  1.00  0.00     0.116 C 
BRANCH  31  32
ATOM     32  N   UNL A   1      32.373  34.213  27.649  1.00  0.00    -0.352 N 
ATOM     33  C   UNL A   1      32.999  34.960  28.613  1.00  0.00     0.251 C 
ATOM     34  H   UNL A   1      31.652  34.675  27.163  1.00  0.00     0.163 HD
ATOM     35  O   UNL A   1      32.559  36.072  28.905  1.00  0.00    -0.269 OA
BRANCH  33  36
ATOM     36  C   UNL A   1      34.179  34.428  29.327  1.00  0.00     0.039 A 
ATOM     37  C   UNL A   1      33.980  33.744  30.531  1.00  0.00     0.014 A 
ATOM     38  C   UNL A   1      35.474  34.606  28.831  1.00  0.00     0.014 A 
ATOM     39  C   UNL A   1      35.069  33.189  31.204  1.00  0.00     0.010 A 
ATOM     40  C   UNL A   1      36.551  33.993  29.467  1.00  0.00     0.010 A 
ATOM     41  C   UNL A   1      36.360  33.280  30.660  1.00  0.00    -0.014 A 
BRANCH  41  42
ATOM     42  C   UNL A   1      37.522  32.639  31.329  1.00  0.00     0.031 A 
ATOM     43  C   UNL A   1      38.253  31.512  30.655  1.00  0.00     0.074 A 
ATOM     44  C   UNL A   1      37.881  33.033  32.566  1.00  0.00     0.049 A 
ATOM     45  N   UNL A   1      39.239  30.776  31.108  1.00  0.00    -0.248 NA
ATOM     46  C   UNL A   1      37.803  31.145  29.304  1.00  0.00     0.031 C 
ATOM     47  C   UNL A   1      37.227  34.088  33.340  1.00  0.00     0.029 A 
ATOM     48  N   UNL A   1      38.878  32.583  33.395  1.00  0.00    -0.354 N 
ATOM     49  C   UNL A   1      39.515  29.856  30.104  1.00  0.00     0.074 A 
ATOM     50  C   UNL A   1      38.562  30.092  29.041  1.00  0.00     0.031 C 
ATOM     51  C   UNL A   1      37.852  34.219  34.521  1.00  0.00     0.029 A 
ATOM     52  C   UNL A   1      38.925  33.233  34.604  1.00  0.00     0.049 A 
ATOM     53  H   UNL A   1      39.502  31.863  33.145  1.00  0.00     0.167 HD
ATOM     54  C   UNL A   1      40.490  28.918  30.063  1.00  0.00     0.037 A 
ATOM     55  C   UNL A   1      39.735  33.047  35.663  1.00  0.00     0.037 A 
ATOM     56  C   UNL A   1      41.452  28.701  31.111  1.00  0.00     0.049 A 
ATOM     57  C   UNL A   1      40.801  31.986  35.596  1.00  0.00     0.074 A 
ATOM     58  C   UNL A   1      42.507  27.805  31.143  1.00  0.00     0.029 A 
ATOM     59  N   UNL A   1      41.477  29.389  32.315  1.00  0.00    -0.354 N 
ATOM     60  N   UNL A   1      41.089  31.162  34.618  1.00  0.00    -0.248 NA
ATOM     61  C   UNL A   1      41.657  31.833  36.780  1.00  0.00     0.031 C 
ATOM     62  C   UNL A   1      43.146  27.924  32.381  1.00  0.00     0.029 A 
ATOM     63  C   UNL A   1      42.519  28.927  33.103  1.00  0.00     0.049 A 
ATOM     64  H   UNL A   1      40.846  30.101  32.572  1.00  0.00     0.167 HD
ATOM     65  C   UNL A   1      42.176  30.417  35.055  1.00  0.00     0.074 A 
ATOM     66  C   UNL A   1      42.505  30.895  36.382  1.00  0.00     0.031 C 
ATOM     67  C   UNL A   1      42.842  29.426  34.415  1.00  0.00     0.037 A 
BRANCH  54  68
ATOM     68  C   UNL A   1      40.571  28.055  28.837  1.00  0.00     0.064 A 
ATOM     69  C   UNL A   1      39.863  26.846  28.745  1.00  0.00     0.173 A 
ATOM     70  C   UNL A   1      41.328  28.458  27.727  1.00  0.00     0.173 A 
ATOM     71  F   UNL A   1      39.133  26.410  29.783  1.00  0.00    -0.203 F 
ATOM     72  C   UNL A   1      39.933  26.061  27.596  1.00  0.00     0.198 A 
ATOM     73  C   UNL A   1      41.372  27.684  26.570  1.00  0.00     0.198 A 
ATOM     74  F   UNL A   1      42.019  29.607  27.761  1.00  0.00    -0.203 F 
ATOM     75  F   UNL A   1      39.285  24.888  27.549  1.00  0.00    -0.200 F 
ATOM     76  C   UNL A   1      40.680  26.484  26.509  1.00  0.00     0.200 A 
ATOM     77  F   UNL A   1      42.085  28.101  25.515  1.00  0.00    -0.200 F 
ATOM     78  F   UNL A   1      40.740  25.732  25.401  1.00  0.00    -0.200 F 
ENDBRANCH  54  68
BRANCH  55  79
ATOM     79  C   UNL A   1      39.590  33.898  36.872  1.00  0.00     0.064 A 
ATOM     80  C   UNL A   1      38.829  33.466  37.967  1.00  0.00     0.173 A 
ATOM     81  C   UNL A   1      40.191  35.163  36.953  1.00  0.00     0.173 A 
ATOM     82  F   UNL A   1      38.217  32.272  37.926  1.00  0.00    -0.203 F 
ATOM     83  C   UNL A   1      38.653  34.275  39.087  1.00  0.00     0.198 A 
ATOM     84  C   UNL A   1      40.038  35.960  38.086  1.00  0.00     0.198 A 
ATOM     85  F   UNL A   1      40.931  35.622  35.934  1.00  0.00    -0.203 F 
ATOM     86  F   UNL A   1      37.879  33.857  40.097  1.00  0.00    -0.200 F 
ATOM     87  C   UNL A   1      39.262  35.520  39.148  1.00  0.00     0.200 A 
ATOM     88  F   UNL A   1      40.637  37.156  38.146  1.00  0.00    -0.200 F 
ATOM     89  F   UNL A   1      39.092  36.298  40.225  1.00  0.00    -0.200 F 
ENDBRANCH  55  79
BRANCH  67  90
ATOM     90  C   UNL A   1      44.021  28.820  35.121  1.00  0.00     0.064 A 
ATOM     91  C   UNL A   1      43.883  27.705  35.961  1.00  0.00     0.173 A 
ATOM     92  C   UNL A   1      45.308  29.340  34.922  1.00  0.00     0.173 A 
ATOM     93  F   UNL A   1      42.670  27.182  36.194  1.00  0.00    -0.203 F 
ATOM     94  C   UNL A   1      44.990  27.148  36.596  1.00  0.00     0.198 A 
ATOM     95  C   UNL A   1      46.417  28.763  35.537  1.00  0.00     0.198 A 
ATOM     96  F   UNL A   1      45.493  30.402  34.124  1.00  0.00    -0.203 F 
ATOM     97  F   UNL A   1      44.830  26.113  37.432  1.00  0.00    -0.200 F 
ATOM     98  C   UNL A   1      46.255  27.673  36.378  1.00  0.00     0.200 A 
ATOM     99  F   UNL A   1      47.640  29.262  35.315  1.00  0.00    -0.200 F 
ATOM    100  F   UNL A   1      47.320  27.131  36.986  1.00  0.00    -0.200 F 
ENDBRANCH  67  90
ENDBRANCH  41  42
ENDBRANCH  33  36
ENDBRANCH  31  32
ENDBRANCH  30  31
ENDBRANCH   1  30
TORSDOF 14
ENDMDL
MODEL 2
REMARK VINA RESULT:     -13.3      0.514      7.310
REMARK SMILES CC(C)c1ccc(-c2cnc([C@@H]3[NH2+][C@H](C(=O)NCCCCNC(=O)c4ccc(-c5c6nc(c(-c7c(F)c(F)c(F)c(F)c7F)c7ccc([nH]7)c(-c7c(F)c(F)c(F)c(F)c7F)c7nc(c(-c8c(F)c(F)c(F)c(F)c8F)c8ccc5[nH]8)C=C7)C=C6)cc4)C(C)(C)S3)s2)cc1
REMARK SMILES IDX 19 1 18 2 17 3 15 4 16 5 14 7 12 8 13 9 91 10 88 13 89 14
REMARK SMILES IDX 90 15 11 16 8 17 9 18 92 19 10 20 7 21 4 22 5 23 94 24 6 25
REMARK SMILES IDX 93 26 2 27 1 28 3 29 20 30 21 31 22 32 23 33 24 35 25 36
REMARK SMILES IDX 26 37 87 38 27 39 86 40 28 41 29 42 30 43 80 44 31 45 85 46
REMARK SMILES IDX 79 47 81 48 32 49 84 50 78 51 77 52 33 54 65 55 45 56 64 57
REMARK SMILES IDX 46 58 49 59 63 60 82 61 47 62 48 63 62 65 83 66 50 67 34 68
REMARK SMILES IDX 35 69 43 70 36 71 37 72 41 73 44 74 38 75 39 76 42 77 40 78
REMARK SMILES IDX 66 79 67 80 75 81 68 82 69 83 73 84 76 85 70 86 71 87 74 88
REMARK SMILES IDX 72 89 51 90 52 91 60 92 53 93 54 94 58 95 61 96 55 97 56 98
REMARK SMILES IDX 59 99 57 100
REMARK H PARENT 17 6 13 11 13 12 22 34 81 53 49 64
REMARK Flexibility Score: inf
ROOT
ATOM      1  C   UNL A   1      31.465  30.734  26.191  1.00  0.00     0.023 C 
ENDROOT
BRANCH   1   2
ATOM      2  C   UNL A   1      32.596  29.922  26.834  1.00  0.00     0.116 C 
BRANCH   2   3
ATOM      3  N   UNL A   1      32.492  28.522  26.485  1.00  0.00    -0.351 N 
ATOM      4  C   UNL A   1      31.757  28.005  25.453  1.00  0.00     0.279 C 
ATOM      5  O   UNL A   1      31.044  27.050  25.741  1.00  0.00    -0.268 OA
ATOM      6  H   UNL A   1      32.996  27.884  27.040  1.00  0.00     0.163 HD
BRANCH   4   7
ATOM      7  C   UNL A   1      31.907  28.627  24.044  1.00  0.00     0.289 C 
ATOM      8  C   UNL A   1      33.070  27.041  22.619  1.00  0.00     0.304 C 
ATOM      9  N   UNL A   1      33.229  28.266  23.435  1.00  0.00    -0.318 N 
ATOM     10  S   UNL A   1      31.353  26.953  22.026  1.00  0.00    -0.079 SA
ATOM     11  H   UNL A   1      33.553  29.031  22.844  1.00  0.00     0.348 HD
ATOM     12  H   UNL A   1      33.912  28.099  24.174  1.00  0.00     0.348 HD
ATOM     13  C   UNL A   1      30.775  28.357  23.031  1.00  0.00     0.078 C 
ATOM     14  C   UNL A   1      30.619  29.556  22.077  1.00  0.00     0.030 C 
ATOM     15  C   UNL A   1      29.413  28.038  23.647  1.00  0.00     0.030 C 
BRANCH   8  16
ATOM     16  C   UNL A   1      33.510  25.765  23.307  1.00  0.00     0.162 A 
ATOM     17  C   UNL A   1      33.929  23.444  23.945  1.00  0.00     0.055 A 
ATOM     18  C   UNL A   1      34.462  24.414  24.770  1.00  0.00     0.132 A 
ATOM     19  S   UNL A   1      33.130  24.217  22.633  1.00  0.00    -0.112 S 
ATOM     20  N   UNL A   1      34.157  25.709  24.451  1.00  0.00    -0.242 NA
BRANCH  17  21
ATOM     21  C   UNL A   1      33.975  21.991  24.127  1.00  0.00    -0.007 A 
ATOM     22  C   UNL A   1      33.904  19.184  24.542  1.00  0.00    -0.045 A 
ATOM     23  C   UNL A   1      35.046  19.933  24.863  1.00  0.00     0.004 A 
ATOM     24  C   UNL A   1      32.800  19.858  24.007  1.00  0.00     0.004 A 
ATOM     25  C   UNL A   1      35.083  21.320  24.653  1.00  0.00     0.010 A 
ATOM     26  C   UNL A   1      32.837  21.237  23.801  1.00  0.00     0.010 A 
BRANCH  22  27
ATOM     27  C   UNL A   1      33.786  17.690  24.785  1.00  0.00     0.013 C 
ATOM     28  C   UNL A   1      32.461  17.250  25.410  1.00  0.00     0.012 C 
ATOM     29  C   UNL A   1      34.048  16.923  23.485  1.00  0.00     0.012 C 
ENDBRANCH  22  27
ENDBRANCH  17  21
ENDBRANCH   8  16
ENDBRANCH   4   7
ENDBRANCH   2   3
ENDBRANCH   1   2
BRANCH   1  30
ATOM     30  C   UNL A   1      31.343  32.187  26.666  1.00  0.00     0.023 C 
BRANCH  30  31
ATOM     31  C   UNL A   1      32.645  32.843  27.106  1.00  0.00     0.116 C 
BRANCH  31  32
ATOM     32  N   UNL A   1      32.450  34.190  27.616  1.00  0.00    -0.352 N 
ATOM     33  C   UNL A   1      33.100  34.842  28.631  1.00  0.00     0.251 C 
ATOM     34  H   UNL A   1      31.746  34.710  27.165  1.00  0.00     0.163 HD
ATOM     35  O   UNL A   1      32.698  35.945  29.004  1.00  0.00    -0.269 OA
BRANCH  33  36
ATOM     36  C   UNL A   1      34.260  34.220  29.304  1.00  0.00     0.039 A 
ATOM     37  C   UNL A   1      34.024  33.342  30.366  1.00  0.00     0.014 A 
ATOM     38  C   UNL A   1      35.570  34.500  28.908  1.00  0.00     0.014 A 
ATOM     39  C   UNL A   1      35.096  32.701  30.990  1.00  0.00     0.010 A 
ATOM     40  C   UNL A   1      36.633  33.808  29.484  1.00  0.00     0.010 A 
ATOM     41  C   UNL A   1      36.407  32.903  30.532  1.00  0.00    -0.014 A 
BRANCH  41  42
ATOM     42  C   UNL A   1      37.553  32.181  31.140  1.00  0.00     0.031 A 
ATOM     43  C   UNL A   1      38.035  32.550  32.515  1.00  0.00     0.074 A 
ATOM     44  C   UNL A   1      38.196  31.232  30.433  1.00  0.00     0.049 A 
ATOM     45  N   UNL A   1      39.064  32.090  33.185  1.00  0.00    -0.248 NA
ATOM     46  C   UNL A   1      37.277  33.593  33.223  1.00  0.00     0.031 C 
ATOM     47  C   UNL A   1      37.849  30.809  29.075  1.00  0.00     0.029 A 
ATOM     48  N   UNL A   1      39.284  30.459  30.752  1.00  0.00    -0.354 N 
ATOM     49  C   UNL A   1      39.081  32.795  34.382  1.00  0.00     0.074 A 
ATOM     50  C   UNL A   1      37.993  33.747  34.328  1.00  0.00     0.031 C 
ATOM     51  C   UNL A   1      38.693  29.840  28.687  1.00  0.00     0.029 A 
ATOM     52  C   UNL A   1      39.664  29.599  29.751  1.00  0.00     0.049 A 
ATOM     53  H   UNL A   1      39.747  30.514  31.619  1.00  0.00     0.167 HD
ATOM     54  C   UNL A   1      39.913  32.644  35.439  1.00  0.00     0.037 A 
ATOM     55  C   UNL A   1      40.685  28.724  29.693  1.00  0.00     0.037 A 
ATOM     56  C   UNL A   1      40.980  31.680  35.501  1.00  0.00     0.049 A 
ATOM     57  C   UNL A   1      41.604  28.587  30.877  1.00  0.00     0.074 A 
ATOM     58  C   UNL A   1      41.848  31.419  36.547  1.00  0.00     0.029 A 
ATOM     59  N   UNL A   1      41.324  30.816  34.471  1.00  0.00    -0.354 N 
ATOM     60  N   UNL A   1      41.574  29.217  32.026  1.00  0.00    -0.248 NA
ATOM     61  C   UNL A   1      42.696  27.612  30.757  1.00  0.00     0.031 C 
ATOM     62  C   UNL A   1      42.742  30.425  36.136  1.00  0.00     0.029 A 
ATOM     63  C   UNL A   1      42.402  30.033  34.852  1.00  0.00     0.049 A 
ATOM     64  H   UNL A   1      40.869  30.768  33.599  1.00  0.00     0.167 HD
ATOM     65  C   UNL A   1      42.619  28.695  32.776  1.00  0.00     0.074 A 
ATOM     66  C   UNL A   1      43.258  27.686  31.956  1.00  0.00     0.031 C 
ATOM     67  C   UNL A   1      43.015  29.021  34.030  1.00  0.00     0.037 A 
BRANCH  54  68
ATOM     68  C   UNL A   1      39.698  33.540  36.624  1.00  0.00     0.064 A 
ATOM     69  C   UNL A   1      40.350  34.777  36.735  1.00  0.00     0.173 A 
ATOM     70  C   UNL A   1      38.800  33.178  37.640  1.00  0.00     0.173 A 
ATOM     71  F   UNL A   1      41.228  35.164  35.796  1.00  0.00    -0.203 F 
ATOM     72  C   UNL A   1      40.131  35.607  37.831  1.00  0.00     0.198 A 
ATOM     73  C   UNL A   1      38.561  34.025  38.720  1.00  0.00     0.198 A 
ATOM     74  F   UNL A   1      38.145  32.009  37.581  1.00  0.00    -0.203 F 
ATOM     75  F   UNL A   1      40.801  36.764  37.937  1.00  0.00    -0.200 F 
ATOM     76  C   UNL A   1      39.232  35.234  38.818  1.00  0.00     0.200 A 
ATOM     77  F   UNL A   1      37.683  33.668  39.667  1.00  0.00    -0.200 F 
ATOM     78  F   UNL A   1      39.016  36.038  39.869  1.00  0.00    -0.200 F 
ENDBRANCH  54  68
BRANCH  55  79
ATOM     79  C   UNL A   1      40.883  27.888  28.481  1.00  0.00     0.064 A 
ATOM     80  C   UNL A   1      41.706  28.325  27.434  1.00  0.00     0.173 A 
ATOM     81  C   UNL A   1      40.245  26.647  28.335  1.00  0.00     0.173 A 
ATOM     82  F   UNL A   1      42.319  29.516  27.519  1.00  0.00    -0.203 F 
ATOM     83  C   UNL A   1      41.864  27.568  26.277  1.00  0.00     0.198 A 
ATOM     84  C   UNL A   1      40.427  25.876  27.188  1.00  0.00     0.198 A 
ATOM     85  F   UNL A   1      39.450  26.182  29.309  1.00  0.00    -0.203 F 
ATOM     86  F   UNL A   1      42.616  28.034  25.271  1.00  0.00    -0.200 F 
ATOM     87  C   UNL A   1      41.228  26.340  26.157  1.00  0.00     0.200 A 
ATOM     88  F   UNL A   1      39.821  24.687  27.081  1.00  0.00    -0.200 F 
ATOM     89  F   UNL A   1      41.381  25.612  25.043  1.00  0.00    -0.200 F 
ENDBRANCH  55  79
BRANCH  67  90
ATOM     90  C   UNL A   1      44.166  28.252  34.611  1.00  0.00     0.064 A 
ATOM     91  C   UNL A   1      45.487  28.710  34.503  1.00  0.00     0.173 A 
ATOM     92  C   UNL A   1      43.936  27.062  35.317  1.00  0.00     0.173 A 
ATOM     93  F   UNL A   1      45.758  29.835  33.825  1.00  0.00    -0.203 F 
ATOM     94  C   UNL A   1      46.540  27.990  35.061  1.00  0.00     0.198 A 
ATOM     95  C   UNL A   1      44.989  26.360  35.898  1.00  0.00     0.198 A 
ATOM     96  F   UNL A   1      42.690  26.585  35.453  1.00  0.00    -0.203 F 
ATOM     97  F   UNL A   1      47.800  28.420  34.907  1.00  0.00    -0.200 F 
ATOM     98  C   UNL A   1      46.290  26.820  35.764  1.00  0.00     0.200 A 
ATOM     99  F   UNL A   1      44.744  25.237  36.588  1.00  0.00    -0.200 F 
ATOM    100  F   UNL A   1      47.305  26.133  36.305  1.00  0.00    -0.200 F 
ENDBRANCH  67  90
ENDBRANCH  41  42
ENDBRANCH  33  36
ENDBRANCH  31  32
ENDBRANCH  30  31
ENDBRANCH   1  30
TORSDOF 14
ENDMDL
MODEL 3
REMARK VINA RESULT:     -13.2      5.495     11.378
REMARK SMILES CC(C)c1ccc(-c2cnc([C@@H]3[NH2+][C@H](C(=O)NCCCCNC(=O)c4ccc(-c5c6nc(c(-c7c(F)c(F)c(F)c(F)c7F)c7ccc([nH]7)c(-c7c(F)c(F)c(F)c(F)c7F)c7nc(c(-c8c(F)c(F)c(F)c(F)c8F)c8ccc5[nH]8)C=C7)C=C6)cc4)C(C)(C)S3)s2)cc1
REMARK SMILES IDX 19 1 18 2 17 3 15 4 16 5 14 7 12 8 13 9 91 10 88 13 89 14
REMARK SMILES IDX 90 15 11 16 8 17 9 18 92 19 10 20 7 21 4 22 5 23 94 24 6 25
REMARK SMILES IDX 93 26 2 27 1 28 3 29 20 30 21 31 22 32 23 33 24 35 25 36
REMARK SMILES IDX 26 37 87 38 27 39 86 40 28 41 29 42 30 43 80 44 31 45 85 46
REMARK SMILES IDX 79 47 81 48 32 49 84 50 78 51 77 52 33 54 65 55 45 56 64 57
REMARK SMILES IDX 46 58 49 59 63 60 82 61 47 62 48 63 62 65 83 66 50 67 34 68
REMARK SMILES IDX 35 69 43 70 36 71 37 72 41 73 44 74 38 75 39 76 42 77 40 78
REMARK SMILES IDX 66 79 67 80 75 81 68 82 69 83 73 84 76 85 70 86 71 87 74 88
REMARK SMILES IDX 72 89 51 90 52 91 60 92 53 93 54 94 58 95 61 96 55 97 56 98
REMARK SMILES IDX 59 99 57 100
REMARK H PARENT 17 6 13 11 13 12 22 34 81 53 49 64
REMARK Flexibility Score: inf
ROOT
ATOM      1  C   UNL A   1      37.269  20.876  24.574  1.00  0.00     0.023 C 
ENDROOT
BRANCH   1   2
ATOM      2  C   UNL A   1      37.489  22.163  25.379  1.00  0.00     0.116 C 
BRANCH   2   3
ATOM      3  N   UNL A   1      36.461  23.139  25.088  1.00  0.00    -0.351 N 
ATOM      4  C   UNL A   1      35.134  22.870  24.883  1.00  0.00     0.279 C 
ATOM      5  O   UNL A   1      34.638  23.394  23.892  1.00  0.00    -0.268 OA
ATOM      6  H   UNL A   1      36.740  24.081  25.033  1.00  0.00     0.163 HD
BRANCH   4   7
ATOM      7  C   UNL A   1      34.386  21.981  25.905  1.00  0.00     0.289 C 
ATOM      8  C   UNL A   1      32.434  23.189  26.697  1.00  0.00     0.304 C 
ATOM      9  N   UNL A   1      33.826  22.805  27.025  1.00  0.00    -0.318 N 
ATOM     10  S   UNL A   1      31.725  21.930  25.593  1.00  0.00    -0.079 SA
ATOM     11  H   UNL A   1      33.836  22.261  27.888  1.00  0.00     0.348 HD
ATOM     12  H   UNL A   1      34.393  23.644  27.150  1.00  0.00     0.348 HD
ATOM     13  C   UNL A   1      33.295  21.040  25.353  1.00  0.00     0.078 C 
ATOM     14  C   UNL A   1      33.218  19.759  26.206  1.00  0.00     0.030 C 
ATOM     15  C   UNL A   1      33.458  20.644  23.886  1.00  0.00     0.030 C 
BRANCH   8  16
ATOM     16  C   UNL A   1      32.283  24.592  26.145  1.00  0.00     0.162 A 
ATOM     17  C   UNL A   1      31.479  26.653  25.105  1.00  0.00     0.055 A 
ATOM     18  C   UNL A   1      32.757  26.685  25.627  1.00  0.00     0.132 A 
ATOM     19  S   UNL A   1      30.803  25.100  25.405  1.00  0.00    -0.112 S 
ATOM     20  N   UNL A   1      33.229  25.507  26.137  1.00  0.00    -0.242 NA
BRANCH  17  21
ATOM     21  C   UNL A   1      30.783  27.717  24.377  1.00  0.00    -0.007 A 
ATOM     22  C   UNL A   1      29.415  29.858  23.115  1.00  0.00    -0.045 A 
ATOM     23  C   UNL A   1      29.153  28.526  22.761  1.00  0.00     0.004 A 
ATOM     24  C   UNL A   1      30.372  30.104  24.106  1.00  0.00     0.004 A 
ATOM     25  C   UNL A   1      29.834  27.467  23.381  1.00  0.00     0.010 A 
ATOM     26  C   UNL A   1      31.046  29.050  24.723  1.00  0.00     0.010 A 
BRANCH  22  27
ATOM     27  C   UNL A   1      28.682  31.044  22.513  1.00  0.00     0.013 C 
ATOM     28  C   UNL A   1      28.025  30.766  21.160  1.00  0.00     0.012 C 
ATOM     29  C   UNL A   1      27.651  31.586  23.508  1.00  0.00     0.012 C 
ENDBRANCH  22  27
ENDBRANCH  17  21
ENDBRANCH   8  16
ENDBRANCH   4   7
ENDBRANCH   2   3
ENDBRANCH   1   2
BRANCH   1  30
ATOM     30  C   UNL A   1      38.122  19.676  25.002  1.00  0.00     0.023 C 
BRANCH  30  31
ATOM     31  C   UNL A   1      39.207  19.977  26.028  1.00  0.00     0.116 C 
BRANCH  31  32
ATOM     32  N   UNL A   1      40.281  18.998  26.011  1.00  0.00    -0.352 N 
ATOM     33  C   UNL A   1      41.635  19.184  26.122  1.00  0.00     0.251 C 
ATOM     34  H   UNL A   1      39.993  18.063  25.904  1.00  0.00     0.163 HD
ATOM     35  O   UNL A   1      42.397  18.233  25.952  1.00  0.00    -0.269 OA
BRANCH  33  36
ATOM     36  C   UNL A   1      42.188  20.524  26.413  1.00  0.00     0.039 A 
ATOM     37  C   UNL A   1      42.571  21.336  25.341  1.00  0.00     0.014 A 
ATOM     38  C   UNL A   1      42.342  20.981  27.725  1.00  0.00     0.014 A 
ATOM     39  C   UNL A   1      43.052  22.624  25.581  1.00  0.00     0.010 A 
ATOM     40  C   UNL A   1      42.756  22.290  27.960  1.00  0.00     0.010 A 
ATOM     41  C   UNL A   1      43.117  23.125  26.891  1.00  0.00    -0.014 A 
BRANCH  41  42
ATOM     42  C   UNL A   1      43.564  24.515  27.160  1.00  0.00     0.031 A 
ATOM     43  C   UNL A   1      42.588  25.535  27.677  1.00  0.00     0.074 A 
ATOM     44  C   UNL A   1      44.832  24.874  26.885  1.00  0.00     0.049 A 
ATOM     45  N   UNL A   1      42.767  26.814  27.901  1.00  0.00    -0.248 NA
ATOM     46  C   UNL A   1      41.224  25.063  27.956  1.00  0.00     0.031 C 
ATOM     47  C   UNL A   1      45.863  23.987  26.345  1.00  0.00     0.029 A 
ATOM     48  N   UNL A   1      45.469  26.084  27.010  1.00  0.00    -0.354 N 
ATOM     49  C   UNL A   1      41.538  27.296  28.333  1.00  0.00     0.074 A 
ATOM     50  C   UNL A   1      40.610  26.187  28.293  1.00  0.00     0.031 C 
ATOM     51  C   UNL A   1      47.008  24.676  26.205  1.00  0.00     0.029 A 
ATOM     52  C   UNL A   1      46.782  26.061  26.609  1.00  0.00     0.049 A 
ATOM     53  H   UNL A   1      45.025  26.891  27.358  1.00  0.00     0.167 HD
ATOM     54  C   UNL A   1      41.220  28.546  28.749  1.00  0.00     0.037 A 
ATOM     55  C   UNL A   1      47.697  27.047  26.562  1.00  0.00     0.037 A 
ATOM     56  C   UNL A   1      42.150  29.642  28.812  1.00  0.00     0.049 A 
ATOM     57  C   UNL A   1      47.312  28.429  27.016  1.00  0.00     0.074 A 
ATOM     58  C   UNL A   1      41.935  30.932  29.262  1.00  0.00     0.029 A 
ATOM     59  N   UNL A   1      43.476  29.575  28.410  1.00  0.00    -0.354 N 
ATOM     60  N   UNL A   1      46.163  28.859  27.479  1.00  0.00    -0.248 NA
ATOM     61  C   UNL A   1      48.354  29.463  26.947  1.00  0.00     0.031 C 
ATOM     62  C   UNL A   1      43.119  31.658  29.097  1.00  0.00     0.029 A 
ATOM     63  C   UNL A   1      44.086  30.807  28.587  1.00  0.00     0.049 A 
ATOM     64  H   UNL A   1      43.918  28.772  28.051  1.00  0.00     0.167 HD
ATOM     65  C   UNL A   1      46.352  30.201  27.784  1.00  0.00     0.074 A 
ATOM     66  C   UNL A   1      47.730  30.511  27.467  1.00  0.00     0.031 C 
ATOM     67  C   UNL A   1      45.464  31.095  28.282  1.00  0.00     0.037 A 
BRANCH  54  68
ATOM     68  C   UNL A   1      39.803  28.793  29.179  1.00  0.00     0.064 A 
ATOM     69  C   UNL A   1      39.403  28.626  30.514  1.00  0.00     0.173 A 
ATOM     70  C   UNL A   1      38.844  29.242  28.258  1.00  0.00     0.173 A 
ATOM     71  F   UNL A   1      40.278  28.187  31.432  1.00  0.00    -0.203 F 
ATOM     72  C   UNL A   1      38.089  28.873  30.905  1.00  0.00     0.198 A 
ATOM     73  C   UNL A   1      37.539  29.516  28.659  1.00  0.00     0.198 A 
ATOM     74  F   UNL A   1      39.176  29.424  26.972  1.00  0.00    -0.203 F 
ATOM     75  F   UNL A   1      37.719  28.661  32.176  1.00  0.00    -0.200 F 
ATOM     76  C   UNL A   1      37.161  29.325  29.979  1.00  0.00     0.200 A 
ATOM     77  F   UNL A   1      36.647  29.965  27.766  1.00  0.00    -0.200 F 
ATOM     78  F   UNL A   1      35.900  29.571  30.358  1.00  0.00    -0.200 F 
ENDBRANCH  54  68
BRANCH  55  79
ATOM     79  C   UNL A   1      49.076  26.764  26.089  1.00  0.00     0.064 A 
ATOM     80  C   UNL A   1      50.061  26.312  26.978  1.00  0.00     0.173 A 
ATOM     81  C   UNL A   1      49.444  26.954  24.749  1.00  0.00     0.173 A 
ATOM     82  F   UNL A   1      49.763  26.137  28.274  1.00  0.00    -0.203 F 
ATOM     83  C   UNL A   1      51.367  26.084  26.551  1.00  0.00     0.198 A 
ATOM     84  C   UNL A   1      50.744  26.698  24.317  1.00  0.00     0.198 A 
ATOM     85  F   UNL A   1      48.538  27.382  23.858  1.00  0.00    -0.203 F 
ATOM     86  F   UNL A   1      52.300  25.701  27.433  1.00  0.00    -0.200 F 
ATOM     87  C   UNL A   1      51.707  26.273  25.219  1.00  0.00     0.200 A 
ATOM     88  F   UNL A   1      51.065  26.871  23.028  1.00  0.00    -0.200 F 
ATOM     89  F   UNL A   1      52.963  26.054  24.810  1.00  0.00    -0.200 F 
ENDBRANCH  55  79
BRANCH  67  90
ATOM     90  C   UNL A   1      45.964  32.483  28.556  1.00  0.00     0.064 A 
ATOM     91  C   UNL A   1      46.547  32.826  29.785  1.00  0.00     0.173 A 
ATOM     92  C   UNL A   1      45.893  33.471  27.563  1.00  0.00     0.173 A 
ATOM     93  F   UNL A   1      46.624  31.920  30.772  1.00  0.00    -0.203 F 
ATOM     94  C   UNL A   1      47.019  34.115  30.017  1.00  0.00     0.198 A 
ATOM     95  C   UNL A   1      46.392  34.751  27.788  1.00  0.00     0.198 A 
ATOM     96  F   UNL A   1      45.350  33.191  26.369  1.00  0.00    -0.203 F 
ATOM     97  F   UNL A   1      47.530  34.435  31.214  1.00  0.00    -0.200 F 
ATOM     98  C   UNL A   1      46.947  35.074  29.017  1.00  0.00     0.200 A 
ATOM     99  F   UNL A   1      46.333  35.672  26.816  1.00  0.00    -0.200 F 
ATOM    100  F   UNL A   1      47.408  36.312  29.240  1.00  0.00    -0.200 F 
ENDBRANCH  67  90
ENDBRANCH  41  42
ENDBRANCH  33  36
ENDBRANCH  31  32
ENDBRANCH  30  31
ENDBRANCH   1  30
TORSDOF 14
ENDMDL
