MODEL 1
REMARK VINA RESULT:     -12.8      0.000      0.000
REMARK SMILES Cc1cccc(NC(=O)[C@H]2C[C@H]2C(=O)NCCCCNC(=O)c2ccc(-c3c4nc(c(-c5c(F)c(F)c(F)c(F)c5F)c5ccc([nH]5)c(-c5c(F)c(F)c(F)c(F)c5F)c5nc(c(-c6c(F)c(F)c(F)c(F)c6F)c6ccc3[nH]6)C=C5)C=C4)cc2)c1
REMARK SMILES IDX 17 1 16 2 15 3 13 4 14 5 12 7 10 8 11 9 8 10 7 11 9 13 6 14
REMARK SMILES IDX 1 15 2 16 3 17 86 18 4 19 5 20 18 21 19 22 20 23 21 24 22 26
REMARK SMILES IDX 23 27 24 28 85 29 25 30 84 31 26 32 27 33 28 34 78 35 29 36
REMARK SMILES IDX 83 37 77 38 79 39 30 40 82 41 76 42 75 43 31 45 63 46 43 47
REMARK SMILES IDX 62 48 44 49 47 50 61 51 80 52 45 53 46 54 60 56 81 57 48 58
REMARK SMILES IDX 32 59 33 60 41 61 34 62 35 63 39 64 42 65 36 66 37 67 40 68
REMARK SMILES IDX 38 69 64 70 65 71 73 72 66 73 67 74 71 75 74 76 68 77 69 78
REMARK SMILES IDX 72 79 70 80 49 81 50 82 58 83 51 84 52 85 56 86 59 87 53 88
REMARK SMILES IDX 54 89 57 90 55 91
REMARK H PARENT 15 6 7 12 20 25 79 44 47 55
REMARK Flexibility Score: inf
ROOT
ATOM      1  C   UNL A   1      33.143  29.229  26.087  1.00  0.00     0.023 C 
ENDROOT
BRANCH   1   2
ATOM      2  C   UNL A   1      32.105  28.096  26.046  1.00  0.00     0.116 C 
BRANCH   2   3
ATOM      3  N   UNL A   1      32.580  26.951  25.297  1.00  0.00    -0.356 N 
ATOM      4  C   UNL A   1      32.598  26.596  23.978  1.00  0.00     0.223 C 
ATOM      5  O   UNL A   1      32.985  25.464  23.730  1.00  0.00    -0.275 OA
ATOM      6  H   UNL A   1      32.985  26.266  25.876  1.00  0.00     0.163 HD
BRANCH   4   7
ATOM      7  C   UNL A   1      32.231  27.448  22.820  1.00  0.00     0.091 C 
ATOM      8  C   UNL A   1      30.829  27.858  22.439  1.00  0.00     0.092 C 
ATOM      9  C   UNL A   1      31.897  28.897  22.762  1.00  0.00     0.028 C 
BRANCH   8  10
ATOM     10  C   UNL A   1      29.623  27.776  23.293  1.00  0.00     0.228 C 
ATOM     11  N   UNL A   1      28.750  28.830  23.394  1.00  0.00    -0.326 N 
ATOM     12  H   UNL A   1      28.103  28.733  24.129  1.00  0.00     0.169 HD
ATOM     13  O   UNL A   1      29.467  26.809  24.036  1.00  0.00    -0.274 OA
BRANCH  11  14
ATOM     14  C   UNL A   1      28.590  30.020  22.665  1.00  0.00     0.041 A 
ATOM     15  C   UNL A   1      29.175  33.736  23.359  1.00  0.00     0.044 C 
ATOM     16  C   UNL A   1      28.796  32.458  22.674  1.00  0.00    -0.049 A 
ATOM     17  C   UNL A   1      28.279  32.500  21.377  1.00  0.00     0.003 A 
ATOM     18  C   UNL A   1      28.935  31.215  23.314  1.00  0.00     0.029 A 
ATOM     19  C   UNL A   1      27.914  31.323  20.735  1.00  0.00     0.002 A 
ATOM     20  C   UNL A   1      28.073  30.092  21.375  1.00  0.00     0.026 A 
ENDBRANCH  11  14
ENDBRANCH   8  10
ENDBRANCH   4   7
ENDBRANCH   2   3
ENDBRANCH   1   2
BRANCH   1  21
ATOM     21  C   UNL A   1      34.370  28.969  26.962  1.00  0.00     0.023 C 
BRANCH  21  22
ATOM     22  C   UNL A   1      34.952  30.205  27.631  1.00  0.00     0.116 C 
BRANCH  22  23
ATOM     23  N   UNL A   1      34.083  31.379  27.647  1.00  0.00    -0.352 N 
ATOM     24  C   UNL A   1      34.160  32.517  28.439  1.00  0.00     0.251 C 
ATOM     25  H   UNL A   1      33.336  31.361  27.006  1.00  0.00     0.163 HD
ATOM     26  O   UNL A   1      33.305  33.393  28.358  1.00  0.00    -0.269 OA
BRANCH  24  27
ATOM     27  C   UNL A   1      35.379  32.750  29.256  1.00  0.00     0.039 A 
ATOM     28  C   UNL A   1      36.376  33.553  28.692  1.00  0.00     0.014 A 
ATOM     29  C   UNL A   1      35.677  31.907  30.317  1.00  0.00     0.014 A 
ATOM     30  C   UNL A   1      37.707  33.246  28.941  1.00  0.00     0.010 A 
ATOM     31  C   UNL A   1      36.983  31.500  30.461  1.00  0.00     0.010 A 
ATOM     32  C   UNL A   1      37.983  32.119  29.707  1.00  0.00    -0.014 A 
BRANCH  32  33
ATOM     33  C   UNL A   1      39.301  31.524  29.814  1.00  0.00     0.031 A 
ATOM     34  C   UNL A   1      39.491  30.190  29.222  1.00  0.00     0.074 A 
ATOM     35  C   UNL A   1      40.324  32.209  30.370  1.00  0.00     0.049 A 
ATOM     36  N   UNL A   1      40.377  29.346  29.616  1.00  0.00    -0.248 NA
ATOM     37  C   UNL A   1      38.626  29.670  28.170  1.00  0.00     0.031 C 
ATOM     38  C   UNL A   1      41.744  31.881  30.307  1.00  0.00     0.029 A 
ATOM     39  N   UNL A   1      40.262  33.301  31.253  1.00  0.00    -0.354 N 
ATOM     40  C   UNL A   1      40.386  28.301  28.720  1.00  0.00     0.074 A 
ATOM     41  C   UNL A   1      39.220  28.505  27.895  1.00  0.00     0.031 C 
ATOM     42  C   UNL A   1      42.390  32.530  31.290  1.00  0.00     0.029 A 
ATOM     43  C   UNL A   1      41.389  33.188  32.106  1.00  0.00     0.049 A 
ATOM     44  H   UNL A   1      39.574  34.004  31.275  1.00  0.00     0.167 HD
ATOM     45  C   UNL A   1      41.467  27.470  28.705  1.00  0.00     0.037 A 
ATOM     46  C   UNL A   1      41.257  33.040  33.459  1.00  0.00     0.037 A 
ATOM     47  C   UNL A   1      42.406  27.853  29.759  1.00  0.00     0.049 A 
ATOM     48  C   UNL A   1      41.784  31.721  33.958  1.00  0.00     0.074 A 
ATOM     49  C   UNL A   1      43.514  28.685  29.746  1.00  0.00     0.029 A 
ATOM     50  N   UNL A   1      42.050  27.689  31.093  1.00  0.00    -0.354 N 
ATOM     51  N   UNL A   1      42.002  30.697  33.179  1.00  0.00    -0.248 NA
ATOM     52  C   UNL A   1      42.083  31.437  35.357  1.00  0.00     0.031 C 
ATOM     53  C   UNL A   1      43.788  29.069  31.081  1.00  0.00     0.029 A 
ATOM     54  C   UNL A   1      42.871  28.444  31.910  1.00  0.00     0.049 A 
ATOM     55  H   UNL A   1      41.315  27.116  31.411  1.00  0.00     0.167 HD
ATOM     56  C   UNL A   1      42.444  29.641  33.926  1.00  0.00     0.074 A 
ATOM     57  C   UNL A   1      42.500  30.162  35.281  1.00  0.00     0.031 C 
ATOM     58  C   UNL A   1      42.714  28.429  33.359  1.00  0.00     0.037 A 
BRANCH  45  59
ATOM     59  C   UNL A   1      41.829  26.533  27.571  1.00  0.00     0.064 A 
ATOM     60  C   UNL A   1      41.174  25.288  27.443  1.00  0.00     0.173 A 
ATOM     61  C   UNL A   1      42.833  26.763  26.613  1.00  0.00     0.173 A 
ATOM     62  F   UNL A   1      40.132  24.961  28.219  1.00  0.00    -0.203 F 
ATOM     63  C   UNL A   1      41.563  24.321  26.512  1.00  0.00     0.198 A 
ATOM     64  C   UNL A   1      43.254  25.780  25.710  1.00  0.00     0.198 A 
ATOM     65  F   UNL A   1      43.404  27.964  26.468  1.00  0.00    -0.203 F 
ATOM     66  F   UNL A   1      40.905  23.154  26.451  1.00  0.00    -0.200 F 
ATOM     67  C   UNL A   1      42.626  24.554  25.666  1.00  0.00     0.200 A 
ATOM     68  F   UNL A   1      44.274  26.035  24.877  1.00  0.00    -0.200 F 
ATOM     69  F   UNL A   1      43.022  23.617  24.795  1.00  0.00    -0.200 F 
ENDBRANCH  45  59
BRANCH  46  70
ATOM     70  C   UNL A   1      40.061  33.754  33.988  1.00  0.00     0.064 A 
ATOM     71  C   UNL A   1      38.975  32.924  34.329  1.00  0.00     0.173 A 
ATOM     72  C   UNL A   1      40.226  34.947  34.698  1.00  0.00     0.173 A 
ATOM     73  F   UNL A   1      38.736  31.811  33.617  1.00  0.00    -0.203 F 
ATOM     74  C   UNL A   1      38.308  33.107  35.533  1.00  0.00     0.198 A 
ATOM     75  C   UNL A   1      39.502  35.161  35.870  1.00  0.00     0.198 A 
ATOM     76  F   UNL A   1      41.189  35.816  34.357  1.00  0.00    -0.203 F 
ATOM     77  F   UNL A   1      37.481  32.154  35.987  1.00  0.00    -0.200 F 
ATOM     78  C   UNL A   1      38.613  34.198  36.329  1.00  0.00     0.200 A 
ATOM     79  F   UNL A   1      39.755  36.246  36.616  1.00  0.00    -0.200 F 
ATOM     80  F   UNL A   1      38.096  34.285  37.561  1.00  0.00    -0.200 F 
ENDBRANCH  46  70
BRANCH  58  81
ATOM     81  C   UNL A   1      42.971  27.143  34.106  1.00  0.00     0.064 A 
ATOM     82  C   UNL A   1      41.959  26.330  34.642  1.00  0.00     0.173 A 
ATOM     83  C   UNL A   1      44.284  26.615  34.195  1.00  0.00     0.173 A 
ATOM     84  F   UNL A   1      40.664  26.630  34.489  1.00  0.00    -0.203 F 
ATOM     85  C   UNL A   1      42.246  25.134  35.305  1.00  0.00     0.198 A 
ATOM     86  C   UNL A   1      44.556  25.385  34.787  1.00  0.00     0.198 A 
ATOM     87  F   UNL A   1      45.341  27.263  33.686  1.00  0.00    -0.203 F 
ATOM     88  F   UNL A   1      41.249  24.431  35.860  1.00  0.00    -0.200 F 
ATOM     89  C   UNL A   1      43.541  24.657  35.369  1.00  0.00     0.200 A 
ATOM     90  F   UNL A   1      45.808  24.905  34.775  1.00  0.00    -0.200 F 
ATOM     91  F   UNL A   1      43.806  23.489  35.966  1.00  0.00    -0.200 F 
ENDBRANCH  58  81
ENDBRANCH  32  33
ENDBRANCH  24  27
ENDBRANCH  22  23
ENDBRANCH  21  22
ENDBRANCH   1  21
TORSDOF 13
ENDMDL
MODEL 2
REMARK VINA RESULT:     -12.7      1.774      2.807
REMARK SMILES Cc1cccc(NC(=O)[C@H]2C[C@H]2C(=O)NCCCCNC(=O)c2ccc(-c3c4nc(c(-c5c(F)c(F)c(F)c(F)c5F)c5ccc([nH]5)c(-c5c(F)c(F)c(F)c(F)c5F)c5nc(c(-c6c(F)c(F)c(F)c(F)c6F)c6ccc3[nH]6)C=C5)C=C4)cc2)c1
REMARK SMILES IDX 17 1 16 2 15 3 13 4 14 5 12 7 10 8 11 9 8 10 7 11 9 13 6 14
REMARK SMILES IDX 1 15 2 16 3 17 86 18 4 19 5 20 18 21 19 22 20 23 21 24 22 26
REMARK SMILES IDX 23 27 24 28 85 29 25 30 84 31 26 32 27 33 28 34 78 35 29 36
REMARK SMILES IDX 83 37 77 38 79 39 30 40 82 41 76 42 75 43 31 45 63 46 43 47
REMARK SMILES IDX 62 48 44 49 47 50 61 51 80 52 45 53 46 54 60 56 81 57 48 58
REMARK SMILES IDX 32 59 33 60 41 61 34 62 35 63 39 64 42 65 36 66 37 67 40 68
REMARK SMILES IDX 38 69 64 70 65 71 73 72 66 73 67 74 71 75 74 76 68 77 69 78
REMARK SMILES IDX 72 79 70 80 49 81 50 82 58 83 51 84 52 85 56 86 59 87 53 88
REMARK SMILES IDX 54 89 57 90 55 91
REMARK H PARENT 15 6 7 12 20 25 79 44 47 55
REMARK Flexibility Score: inf
ROOT
ATOM      1  C   UNL A   1      33.102  28.410  27.107  1.00  0.00     0.023 C 
ENDROOT
BRANCH   1   2
ATOM      2  C   UNL A   1      33.504  28.093  25.659  1.00  0.00     0.116 C 
BRANCH   2   3
ATOM      3  N   UNL A   1      33.242  26.711  25.312  1.00  0.00    -0.356 N 
ATOM      4  C   UNL A   1      32.119  25.959  25.111  1.00  0.00     0.223 C 
ATOM      5  O   UNL A   1      32.295  24.762  24.945  1.00  0.00    -0.275 OA
ATOM      6  H   UNL A   1      34.069  26.190  25.195  1.00  0.00     0.163 HD
BRANCH   4   7
ATOM      7  C   UNL A   1      30.720  26.447  25.038  1.00  0.00     0.091 C 
ATOM      8  C   UNL A   1      30.170  27.385  23.990  1.00  0.00     0.092 C 
ATOM      9  C   UNL A   1      29.587  25.990  24.189  1.00  0.00     0.028 C 
BRANCH   8  10
ATOM     10  C   UNL A   1      30.797  27.725  22.693  1.00  0.00     0.228 C 
ATOM     11  N   UNL A   1      30.430  28.851  21.999  1.00  0.00    -0.326 N 
ATOM     12  H   UNL A   1      30.768  28.868  21.075  1.00  0.00     0.169 HD
ATOM     13  O   UNL A   1      31.555  26.921  22.154  1.00  0.00    -0.274 OA
BRANCH  11  14
ATOM     14  C   UNL A   1      29.671  29.984  22.335  1.00  0.00     0.041 A 
ATOM     15  C   UNL A   1      27.659  32.588  20.385  1.00  0.00     0.044 C 
ATOM     16  C   UNL A   1      28.309  31.841  21.511  1.00  0.00    -0.049 A 
ATOM     17  C   UNL A   1      28.165  32.308  22.820  1.00  0.00     0.003 A 
ATOM     18  C   UNL A   1      29.074  30.687  21.278  1.00  0.00     0.029 A 
ATOM     19  C   UNL A   1      28.771  31.631  23.871  1.00  0.00     0.002 A 
ATOM     20  C   UNL A   1      29.515  30.474  23.629  1.00  0.00     0.026 A 
ENDBRANCH  11  14
ENDBRANCH   8  10
ENDBRANCH   4   7
ENDBRANCH   2   3
ENDBRANCH   1   2
BRANCH   1  21
ATOM     21  C   UNL A   1      32.603  29.833  27.358  1.00  0.00     0.023 C 
BRANCH  21  22
ATOM     22  C   UNL A   1      33.546  30.933  26.894  1.00  0.00     0.116 C 
BRANCH  22  23
ATOM     23  N   UNL A   1      34.101  31.773  27.951  1.00  0.00    -0.352 N 
ATOM     24  C   UNL A   1      35.102  31.483  28.868  1.00  0.00     0.251 C 
ATOM     25  H   UNL A   1      33.708  32.673  28.025  1.00  0.00     0.163 HD
ATOM     26  O   UNL A   1      35.410  32.295  29.734  1.00  0.00    -0.269 OA
BRANCH  24  27
ATOM     27  C   UNL A   1      35.919  30.256  28.684  1.00  0.00     0.039 A 
ATOM     28  C   UNL A   1      36.276  29.553  29.840  1.00  0.00     0.014 A 
ATOM     29  C   UNL A   1      36.613  30.052  27.499  1.00  0.00     0.014 A 
ATOM     30  C   UNL A   1      37.523  28.944  29.898  1.00  0.00     0.010 A 
ATOM     31  C   UNL A   1      37.902  29.582  27.588  1.00  0.00     0.010 A 
ATOM     32  C   UNL A   1      38.378  29.106  28.812  1.00  0.00    -0.014 A 
BRANCH  32  33
ATOM     33  C   UNL A   1      39.788  28.772  28.845  1.00  0.00     0.031 A 
ATOM     34  C   UNL A   1      40.171  27.410  28.438  1.00  0.00     0.074 A 
ATOM     35  C   UNL A   1      40.710  29.705  29.166  1.00  0.00     0.049 A 
ATOM     36  N   UNL A   1      41.232  26.808  28.841  1.00  0.00    -0.248 NA
ATOM     37  C   UNL A   1      39.325  26.582  27.587  1.00  0.00     0.031 C 
ATOM     38  C   UNL A   1      42.155  29.619  28.980  1.00  0.00     0.029 A 
ATOM     39  N   UNL A   1      40.526  30.902  29.880  1.00  0.00    -0.354 N 
ATOM     40  C   UNL A   1      41.354  25.645  28.114  1.00  0.00     0.074 A 
ATOM     41  C   UNL A   1      40.100  25.506  27.416  1.00  0.00     0.031 C 
ATOM     42  C   UNL A   1      42.756  30.523  29.771  1.00  0.00     0.029 A 
ATOM     43  C   UNL A   1      41.728  31.128  30.596  1.00  0.00     0.049 A 
ATOM     44  H   UNL A   1      39.723  31.470  29.881  1.00  0.00     0.167 HD
ATOM     45  C   UNL A   1      42.567  25.021  28.090  1.00  0.00     0.037 A 
ATOM     46  C   UNL A   1      41.752  31.187  31.963  1.00  0.00     0.037 A 
ATOM     47  C   UNL A   1      43.510  25.730  28.955  1.00  0.00     0.049 A 
ATOM     48  C   UNL A   1      42.562  30.079  32.583  1.00  0.00     0.074 A 
ATOM     49  C   UNL A   1      44.436  26.725  28.685  1.00  0.00     0.029 A 
ATOM     50  N   UNL A   1      43.316  25.732  30.332  1.00  0.00    -0.354 N 
ATOM     51  N   UNL A   1      42.896  28.993  31.943  1.00  0.00    -0.248 NA
ATOM     52  C   UNL A   1      43.038  30.089  33.962  1.00  0.00     0.031 C 
ATOM     53  C   UNL A   1      44.755  27.368  29.906  1.00  0.00     0.029 A 
ATOM     54  C   UNL A   1      44.053  26.742  30.924  1.00  0.00     0.049 A 
ATOM     55  H   UNL A   1      42.735  25.103  30.817  1.00  0.00     0.167 HD
ATOM     56  C   UNL A   1      43.597  28.168  32.778  1.00  0.00     0.074 A 
ATOM     57  C   UNL A   1      43.678  28.909  34.024  1.00  0.00     0.031 C 
ATOM     58  C   UNL A   1      44.037  26.942  32.366  1.00  0.00     0.037 A 
BRANCH  45  59
ATOM     59  C   UNL A   1      42.992  23.984  27.072  1.00  0.00     0.064 A 
ATOM     60  C   UNL A   1      42.586  22.638  27.216  1.00  0.00     0.173 A 
ATOM     61  C   UNL A   1      43.831  24.223  25.967  1.00  0.00     0.173 A 
ATOM     62  F   UNL A   1      41.711  22.268  28.161  1.00  0.00    -0.203 F 
ATOM     63  C   UNL A   1      43.064  21.613  26.397  1.00  0.00     0.198 A 
ATOM     64  C   UNL A   1      44.346  23.191  25.174  1.00  0.00     0.198 A 
ATOM     65  F   UNL A   1      44.136  25.464  25.572  1.00  0.00    -0.203 F 
ATOM     66  F   UNL A   1      42.646  20.353  26.596  1.00  0.00    -0.200 F 
ATOM     67  C   UNL A   1      43.971  21.883  25.396  1.00  0.00     0.200 A 
ATOM     68  F   UNL A   1      45.209  23.478  24.188  1.00  0.00    -0.200 F 
ATOM     69  F   UNL A   1      44.456  20.897  24.630  1.00  0.00    -0.200 F 
ENDBRANCH  45  59
BRANCH  46  70
ATOM     70  C   UNL A   1      40.497  31.764  32.522  1.00  0.00     0.064 A 
ATOM     71  C   UNL A   1      39.613  30.825  33.090  1.00  0.00     0.173 A 
ATOM     72  C   UNL A   1      40.504  33.061  33.043  1.00  0.00     0.173 A 
ATOM     73  F   UNL A   1      39.518  29.594  32.564  1.00  0.00    -0.203 F 
ATOM     74  C   UNL A   1      39.030  31.074  34.326  1.00  0.00     0.198 A 
ATOM     75  C   UNL A   1      39.858  33.326  34.250  1.00  0.00     0.198 A 
ATOM     76  F   UNL A   1      41.262  34.016  32.484  1.00  0.00    -0.203 F 
ATOM     77  F   UNL A   1      38.432  30.077  34.992  1.00  0.00    -0.200 F 
ATOM     78  C   UNL A   1      39.202  32.309  34.929  1.00  0.00     0.200 A 
ATOM     79  F   UNL A   1      39.975  34.538  34.811  1.00  0.00    -0.200 F 
ATOM     80  F   UNL A   1      38.786  32.494  36.189  1.00  0.00    -0.200 F 
ENDBRANCH  46  70
BRANCH  58  81
ATOM     81  C   UNL A   1      44.599  25.862  33.258  1.00  0.00     0.064 A 
ATOM     82  C   UNL A   1      45.943  25.455  33.248  1.00  0.00     0.173 A 
ATOM     83  C   UNL A   1      43.796  25.276  34.268  1.00  0.00     0.173 A 
ATOM     84  F   UNL A   1      46.847  26.040  32.452  1.00  0.00    -0.203 F 
ATOM     85  C   UNL A   1      46.423  24.467  34.111  1.00  0.00     0.198 A 
ATOM     86  C   UNL A   1      44.297  24.348  35.177  1.00  0.00     0.198 A 
ATOM     87  F   UNL A   1      42.505  25.604  34.423  1.00  0.00    -0.203 F 
ATOM     88  F   UNL A   1      47.697  24.065  34.012  1.00  0.00    -0.200 F 
ATOM     89  C   UNL A   1      45.603  23.921  35.081  1.00  0.00     0.200 A 
ATOM     90  F   UNL A   1      43.508  23.885  36.156  1.00  0.00    -0.200 F 
ATOM     91  F   UNL A   1      46.079  23.006  35.935  1.00  0.00    -0.200 F 
ENDBRANCH  58  81
ENDBRANCH  32  33
ENDBRANCH  24  27
ENDBRANCH  22  23
ENDBRANCH  21  22
ENDBRANCH   1  21
TORSDOF 13
ENDMDL
MODEL 3
REMARK VINA RESULT:     -12.7      4.740     10.234
REMARK SMILES Cc1cccc(NC(=O)[C@H]2C[C@H]2C(=O)NCCCCNC(=O)c2ccc(-c3c4nc(c(-c5c(F)c(F)c(F)c(F)c5F)c5ccc([nH]5)c(-c5c(F)c(F)c(F)c(F)c5F)c5nc(c(-c6c(F)c(F)c(F)c(F)c6F)c6ccc3[nH]6)C=C5)C=C4)cc2)c1
REMARK SMILES IDX 17 1 16 2 15 3 13 4 14 5 12 7 10 8 11 9 8 10 7 11 9 13 6 14
REMARK SMILES IDX 1 15 2 16 3 17 86 18 4 19 5 20 18 21 19 22 20 23 21 24 22 26
REMARK SMILES IDX 23 27 24 28 85 29 25 30 84 31 26 32 27 33 28 34 78 35 29 36
REMARK SMILES IDX 83 37 77 38 79 39 30 40 82 41 76 42 75 43 31 45 63 46 43 47
REMARK SMILES IDX 62 48 44 49 47 50 61 51 80 52 45 53 46 54 60 56 81 57 48 58
REMARK SMILES IDX 32 59 33 60 41 61 34 62 35 63 39 64 42 65 36 66 37 67 40 68
REMARK SMILES IDX 38 69 64 70 65 71 73 72 66 73 67 74 71 75 74 76 68 77 69 78
REMARK SMILES IDX 72 79 70 80 49 81 50 82 58 83 51 84 52 85 56 86 59 87 53 88
REMARK SMILES IDX 54 89 57 90 55 91
REMARK H PARENT 15 6 7 12 20 25 79 44 47 55
REMARK Flexibility Score: inf
ROOT
ATOM      1  C   UNL A   1      37.020  21.308  25.332  1.00  0.00     0.023 C 
ENDROOT
BRANCH   1   2
ATOM      2  C   UNL A   1      36.604  22.077  24.069  1.00  0.00     0.116 C 
BRANCH   2   3
ATOM      3  N   UNL A   1      35.650  23.128  24.362  1.00  0.00    -0.356 N 
ATOM      4  C   UNL A   1      34.373  23.414  23.968  1.00  0.00     0.223 C 
ATOM      5  O   UNL A   1      33.921  24.484  24.345  1.00  0.00    -0.275 OA
ATOM      6  H   UNL A   1      36.007  23.792  24.993  1.00  0.00     0.163 HD
BRANCH   4   7
ATOM      7  C   UNL A   1      33.473  22.551  23.166  1.00  0.00     0.091 C 
ATOM      8  C   UNL A   1      32.634  21.416  23.702  1.00  0.00     0.092 C 
ATOM      9  C   UNL A   1      31.996  22.604  22.991  1.00  0.00     0.028 C 
BRANCH   8  10
ATOM     10  C   UNL A   1      32.297  21.161  25.121  1.00  0.00     0.228 C 
ATOM     11  N   UNL A   1      32.472  19.921  25.682  1.00  0.00    -0.326 N 
ATOM     12  H   UNL A   1      32.038  19.825  26.560  1.00  0.00     0.169 HD
ATOM     13  O   UNL A   1      31.721  22.028  25.775  1.00  0.00    -0.274 OA
BRANCH  11  14
ATOM     14  C   UNL A   1      33.141  18.760  25.261  1.00  0.00     0.041 A 
ATOM     15  C   UNL A   1      32.507  14.998  25.549  1.00  0.00     0.044 C 
ATOM     16  C   UNL A   1      33.146  16.314  25.219  1.00  0.00    -0.049 A 
ATOM     17  C   UNL A   1      34.371  16.335  24.547  1.00  0.00     0.003 A 
ATOM     18  C   UNL A   1      32.545  17.531  25.583  1.00  0.00     0.029 A 
ATOM     19  C   UNL A   1      34.978  17.547  24.244  1.00  0.00     0.002 A 
ATOM     20  C   UNL A   1      34.363  18.750  24.596  1.00  0.00     0.026 A 
ENDBRANCH  11  14
ENDBRANCH   8  10
ENDBRANCH   4   7
ENDBRANCH   2   3
ENDBRANCH   1   2
BRANCH   1  21
ATOM     21  C   UNL A   1      38.492  21.434  25.727  1.00  0.00     0.023 C 
BRANCH  21  22
ATOM     22  C   UNL A   1      38.999  22.863  25.859  1.00  0.00     0.116 C 
BRANCH  22  23
ATOM     23  N   UNL A   1      40.326  23.007  26.451  1.00  0.00    -0.352 N 
ATOM     24  C   UNL A   1      40.947  24.147  26.945  1.00  0.00     0.251 C 
ATOM     25  H   UNL A   1      40.856  22.180  26.507  1.00  0.00     0.163 HD
ATOM     26  O   UNL A   1      42.099  24.099  27.363  1.00  0.00    -0.269 OA
BRANCH  24  27
ATOM     27  C   UNL A   1      40.146  25.385  27.131  1.00  0.00     0.039 A 
ATOM     28  C   UNL A   1      40.596  26.535  26.472  1.00  0.00     0.014 A 
ATOM     29  C   UNL A   1      39.261  25.490  28.195  1.00  0.00     0.014 A 
ATOM     30  C   UNL A   1      40.453  27.767  27.097  1.00  0.00     0.010 A 
ATOM     31  C   UNL A   1      39.238  26.675  28.891  1.00  0.00     0.010 A 
ATOM     32  C   UNL A   1      39.907  27.788  28.377  1.00  0.00    -0.014 A 
BRANCH  32  33
ATOM     33  C   UNL A   1      39.954  28.944  29.249  1.00  0.00     0.031 A 
ATOM     34  C   UNL A   1      38.906  29.964  29.079  1.00  0.00     0.074 A 
ATOM     35  C   UNL A   1      40.884  29.035  30.225  1.00  0.00     0.049 A 
ATOM     36  N   UNL A   1      39.047  31.202  29.390  1.00  0.00    -0.248 NA
ATOM     37  C   UNL A   1      37.620  29.667  28.460  1.00  0.00     0.031 C 
ATOM     38  C   UNL A   1      40.900  29.970  31.345  1.00  0.00     0.029 A 
ATOM     39  N   UNL A   1      42.115  28.364  30.320  1.00  0.00    -0.354 N 
ATOM     40  C   UNL A   1      37.815  31.806  29.272  1.00  0.00     0.074 A 
ATOM     41  C   UNL A   1      36.985  30.834  28.605  1.00  0.00     0.031 C 
ATOM     42  C   UNL A   1      42.145  30.036  31.846  1.00  0.00     0.029 A 
ATOM     43  C   UNL A   1      43.003  29.250  30.980  1.00  0.00     0.049 A 
ATOM     44  H   UNL A   1      42.320  27.459  29.993  1.00  0.00     0.167 HD
ATOM     45  C   UNL A   1      37.622  33.008  29.887  1.00  0.00     0.037 A 
ATOM     46  C   UNL A   1      44.143  29.708  30.380  1.00  0.00     0.037 A 
ATOM     47  C   UNL A   1      38.865  33.453  30.514  1.00  0.00     0.049 A 
ATOM     48  C   UNL A   1      44.134  31.197  30.162  1.00  0.00     0.074 A 
ATOM     49  C   UNL A   1      39.353  33.297  31.802  1.00  0.00     0.029 A 
ATOM     50  N   UNL A   1      39.949  33.810  29.721  1.00  0.00    -0.354 N 
ATOM     51  N   UNL A   1      43.047  31.918  30.196  1.00  0.00    -0.248 NA
ATOM     52  C   UNL A   1      45.324  31.987  29.868  1.00  0.00     0.031 C 
ATOM     53  C   UNL A   1      40.753  33.504  31.767  1.00  0.00     0.029 A 
ATOM     54  C   UNL A   1      41.113  33.823  30.468  1.00  0.00     0.049 A 
ATOM     55  H   UNL A   1      39.896  34.024  28.761  1.00  0.00     0.167 HD
ATOM     56  C   UNL A   1      43.356  33.223  29.930  1.00  0.00     0.074 A 
ATOM     57  C   UNL A   1      44.798  33.219  29.753  1.00  0.00     0.031 C 
ATOM     58  C   UNL A   1      42.390  34.187  29.869  1.00  0.00     0.037 A 
BRANCH  45  59
ATOM     59  C   UNL A   1      36.271  33.622  30.191  1.00  0.00     0.064 A 
ATOM     60  C   UNL A   1      35.449  34.088  29.140  1.00  0.00     0.173 A 
ATOM     61  C   UNL A   1      35.743  33.831  31.479  1.00  0.00     0.173 A 
ATOM     62  F   UNL A   1      35.768  33.877  27.856  1.00  0.00    -0.203 F 
ATOM     63  C   UNL A   1      34.265  34.794  29.363  1.00  0.00     0.198 A 
ATOM     64  C   UNL A   1      34.580  34.578  31.705  1.00  0.00     0.198 A 
ATOM     65  F   UNL A   1      36.292  33.272  32.563  1.00  0.00    -0.203 F 
ATOM     66  F   UNL A   1      33.537  35.219  28.319  1.00  0.00    -0.200 F 
ATOM     67  C   UNL A   1      33.846  35.068  30.647  1.00  0.00     0.200 A 
ATOM     68  F   UNL A   1      34.175  34.812  32.962  1.00  0.00    -0.200 F 
ATOM     69  F   UNL A   1      32.728  35.774  30.864  1.00  0.00    -0.200 F 
ENDBRANCH  45  59
BRANCH  46  70
ATOM     70  C   UNL A   1      44.736  28.698  29.459  1.00  0.00     0.064 A 
ATOM     71  C   UNL A   1      44.590  28.986  28.087  1.00  0.00     0.173 A 
ATOM     72  C   UNL A   1      45.859  27.968  29.862  1.00  0.00     0.173 A 
ATOM     73  F   UNL A   1      43.486  29.613  27.651  1.00  0.00    -0.203 F 
ATOM     74  C   UNL A   1      45.673  28.857  27.227  1.00  0.00     0.198 A 
ATOM     75  C   UNL A   1      46.916  27.777  28.974  1.00  0.00     0.198 A 
ATOM     76  F   UNL A   1      46.004  27.591  31.140  1.00  0.00    -0.203 F 
ATOM     77  F   UNL A   1      45.618  29.400  26.003  1.00  0.00    -0.200 F 
ATOM     78  C   UNL A   1      46.854  28.302  27.689  1.00  0.00     0.200 A 
ATOM     79  F   UNL A   1      48.043  27.190  29.401  1.00  0.00    -0.200 F 
ATOM     80  F   UNL A   1      47.947  28.330  26.915  1.00  0.00    -0.200 F 
ENDBRANCH  46  70
BRANCH  58  81
ATOM     81  C   UNL A   1      42.579  35.592  29.351  1.00  0.00     0.064 A 
ATOM     82  C   UNL A   1      41.980  36.086  28.181  1.00  0.00     0.173 A 
ATOM     83  C   UNL A   1      43.293  36.548  30.117  1.00  0.00     0.173 A 
ATOM     84  F   UNL A   1      41.150  35.334  27.447  1.00  0.00    -0.203 F 
ATOM     85  C   UNL A   1      42.165  37.403  27.755  1.00  0.00     0.198 A 
ATOM     86  C   UNL A   1      43.409  37.880  29.729  1.00  0.00     0.198 A 
ATOM     87  F   UNL A   1      43.878  36.227  31.279  1.00  0.00    -0.203 F 
ATOM     88  F   UNL A   1      41.629  37.804  26.594  1.00  0.00    -0.200 F 
ATOM     89  C   UNL A   1      42.870  38.302  28.533  1.00  0.00     0.200 A 
ATOM     90  F   UNL A   1      44.033  38.753  30.532  1.00  0.00    -0.200 F 
ATOM     91  F   UNL A   1      43.007  39.576  28.144  1.00  0.00    -0.200 F 
ENDBRANCH  58  81
ENDBRANCH  32  33
ENDBRANCH  24  27
ENDBRANCH  22  23
ENDBRANCH  21  22
ENDBRANCH   1  21
TORSDOF 13
ENDMDL
