MODEL 1
REMARK VINA RESULT:     -11.7      0.000      0.000
REMARK SMILES C[NH2+]C[C@H](C)C(=O)N1CC[C@@](C(=O)NCCCCNC(=O)c2ccc(-c3c4nc(c(-c5c(F)c(F)c(F)c(F)c5F)c5ccc([nH]5)c(-c5c(F)c(F)c(F)c(F)c5F)c5nc(c(-c6c(F)c(F)c(F)c(F)c6F)c6ccc3[nH]6)C=C5)C=C4)cc2)(C(F)(F)F)C1
REMARK SMILES IDX 15 1 14 2 12 3 13 4 11 6 8 7 9 8 89 9 10 10 6 11 7 12 4 13
REMARK SMILES IDX 5 14 3 15 2 16 1 17 85 20 86 21 87 22 88 23 16 24 17 25
REMARK SMILES IDX 18 26 19 27 20 28 21 30 22 31 23 32 84 33 24 34 83 35 25 36
REMARK SMILES IDX 26 37 27 38 77 39 28 40 82 41 76 42 78 43 29 44 81 45 75 46
REMARK SMILES IDX 74 47 30 49 62 50 42 51 61 52 43 53 46 54 60 55 79 56 44 57
REMARK SMILES IDX 45 58 59 60 80 61 47 62 31 63 32 64 40 65 33 66 34 67 38 68
REMARK SMILES IDX 41 69 35 70 36 71 39 72 37 73 63 74 64 75 72 76 65 77 66 78
REMARK SMILES IDX 70 79 73 80 67 81 68 82 71 83 69 84 48 85 49 86 57 87 50 88
REMARK SMILES IDX 51 89 55 90 58 91 52 92 53 93 56 94 54 95
REMARK H PARENT 14 5 2 18 2 19 19 29 78 48 46 59
REMARK Flexibility Score: inf
ROOT
ATOM      1  C   UNL A   1      32.359  30.006  25.977  1.00  0.00     0.116 C 
ENDROOT
BRANCH   1   2
ATOM      2  N   UNL A   1      31.850  28.965  26.849  1.00  0.00    -0.355 N 
ATOM      3  C   UNL A   1      31.427  27.691  26.596  1.00  0.00     0.237 C 
ATOM      4  O   UNL A   1      31.117  27.036  27.593  1.00  0.00    -0.274 OA
ATOM      5  H   UNL A   1      31.799  29.225  27.797  1.00  0.00     0.163 HD
BRANCH   3   6
ATOM      6  C   UNL A   1      31.330  27.115  25.186  1.00  0.00     0.163 C 
ATOM      7  N   UNL A   1      30.121  28.103  23.380  1.00  0.00    -0.341 N 
ATOM      8  C   UNL A   1      29.485  26.824  23.612  1.00  0.00     0.121 C 
ATOM      9  C   UNL A   1      31.377  28.202  24.113  1.00  0.00     0.146 C 
ATOM     10  C   UNL A   1      30.012  26.349  24.959  1.00  0.00     0.050 C 
BRANCH   7  11
ATOM     11  C   UNL A   1      29.781  29.093  22.486  1.00  0.00     0.231 C 
ATOM     12  O   UNL A   1      30.623  29.507  21.680  1.00  0.00    -0.274 OA
BRANCH  11  13
ATOM     13  C   UNL A   1      28.462  29.854  22.624  1.00  0.00     0.130 C 
ATOM     14  C   UNL A   1      28.416  30.914  23.720  1.00  0.00     0.024 C 
BRANCH  13  15
ATOM     15  C   UNL A   1      28.028  30.423  21.255  1.00  0.00     0.273 C 
BRANCH  15  16
ATOM     16  N   UNL A   1      28.668  31.683  20.837  1.00  0.00    -0.348 N 
ATOM     17  C   UNL A   1      27.691  32.706  20.470  1.00  0.00     0.330 C 
ATOM     18  H   UNL A   1      29.235  32.035  21.609  1.00  0.00     0.346 HD
ATOM     19  H   UNL A   1      29.238  31.487  20.015  1.00  0.00     0.346 HD
ENDBRANCH  15  16
ENDBRANCH  13  15
ENDBRANCH  11  13
ENDBRANCH   7  11
BRANCH   6  20
ATOM     20  C   UNL A   1      32.513  26.193  24.968  1.00  0.00     0.404 C 
ATOM     21  F   UNL A   1      33.672  26.868  25.186  1.00  0.00    -0.170 F 
ATOM     22  F   UNL A   1      32.518  25.139  25.812  1.00  0.00    -0.170 F 
ATOM     23  F   UNL A   1      32.582  25.731  23.700  1.00  0.00    -0.170 F 
ENDBRANCH   6  20
ENDBRANCH   3   6
ENDBRANCH   1   2
BRANCH   1  24
ATOM     24  C   UNL A   1      31.417  31.199  25.850  1.00  0.00     0.023 C 
BRANCH  24  25
ATOM     25  C   UNL A   1      31.405  32.136  27.054  1.00  0.00     0.023 C 
BRANCH  25  26
ATOM     26  C   UNL A   1      32.675  32.952  27.252  1.00  0.00     0.116 C 
BRANCH  26  27
ATOM     27  N   UNL A   1      32.424  34.335  27.626  1.00  0.00    -0.352 N 
ATOM     28  C   UNL A   1      33.006  35.080  28.623  1.00  0.00     0.251 C 
ATOM     29  H   UNL A   1      31.743  34.802  27.089  1.00  0.00     0.163 HD
ATOM     30  O   UNL A   1      32.569  36.193  28.905  1.00  0.00    -0.269 OA
BRANCH  28  31
ATOM     31  C   UNL A   1      34.150  34.530  29.384  1.00  0.00     0.039 A 
ATOM     32  C   UNL A   1      33.913  33.917  30.615  1.00  0.00     0.014 A 
ATOM     33  C   UNL A   1      35.453  34.613  28.884  1.00  0.00     0.014 A 
ATOM     34  C   UNL A   1      34.972  33.332  31.313  1.00  0.00     0.010 A 
ATOM     35  C   UNL A   1      36.491  33.952  29.534  1.00  0.00     0.010 A 
ATOM     36  C   UNL A   1      36.264  33.310  30.760  1.00  0.00    -0.014 A 
BRANCH  36  37
ATOM     37  C   UNL A   1      37.385  32.625  31.456  1.00  0.00     0.031 A 
ATOM     38  C   UNL A   1      38.091  31.469  30.803  1.00  0.00     0.074 A 
ATOM     39  C   UNL A   1      37.732  33.011  32.699  1.00  0.00     0.049 A 
ATOM     40  N   UNL A   1      39.070  30.729  31.263  1.00  0.00    -0.248 NA
ATOM     41  C   UNL A   1      37.618  31.071  29.468  1.00  0.00     0.031 C 
ATOM     42  C   UNL A   1      37.085  34.077  33.465  1.00  0.00     0.029 A 
ATOM     43  N   UNL A   1      38.711  32.546  33.542  1.00  0.00    -0.354 N 
ATOM     44  C   UNL A   1      39.318  29.778  30.282  1.00  0.00     0.074 A 
ATOM     45  C   UNL A   1      38.349  29.992  29.231  1.00  0.00     0.031 C 
ATOM     46  C   UNL A   1      37.703  34.207  34.649  1.00  0.00     0.029 A 
ATOM     47  C   UNL A   1      38.765  33.209  34.744  1.00  0.00     0.049 A 
ATOM     48  H   UNL A   1      39.319  31.808  33.305  1.00  0.00     0.167 HD
ATOM     49  C   UNL A   1      40.285  28.829  30.249  1.00  0.00     0.037 A 
ATOM     50  C   UNL A   1      39.575  33.029  35.805  1.00  0.00     0.037 A 
ATOM     51  C   UNL A   1      41.261  28.631  31.289  1.00  0.00     0.049 A 
ATOM     52  C   UNL A   1      40.641  31.969  35.742  1.00  0.00     0.074 A 
ATOM     53  C   UNL A   1      42.319  27.740  31.321  1.00  0.00     0.029 A 
ATOM     54  N   UNL A   1      41.293  29.333  32.485  1.00  0.00    -0.354 N 
ATOM     55  N   UNL A   1      40.920  31.130  34.773  1.00  0.00    -0.248 NA
ATOM     56  C   UNL A   1      41.513  31.838  36.917  1.00  0.00     0.031 C 
ATOM     57  C   UNL A   1      42.957  27.863  32.561  1.00  0.00     0.029 A 
ATOM     58  C   UNL A   1      42.338  28.876  33.274  1.00  0.00     0.049 A 
ATOM     59  H   UNL A   1      40.668  30.050  32.737  1.00  0.00     0.167 HD
ATOM     60  C   UNL A   1      42.016  30.395  35.207  1.00  0.00     0.074 A 
ATOM     61  C   UNL A   1      42.362  30.901  36.519  1.00  0.00     0.031 C 
ATOM     62  C   UNL A   1      42.675  29.392  34.577  1.00  0.00     0.037 A 
BRANCH  49  63
ATOM     63  C   UNL A   1      40.335  27.931  29.045  1.00  0.00     0.064 A 
ATOM     64  C   UNL A   1      39.621  26.722  28.994  1.00  0.00     0.173 A 
ATOM     65  C   UNL A   1      41.078  28.298  27.912  1.00  0.00     0.173 A 
ATOM     66  F   UNL A   1      38.903  26.317  30.053  1.00  0.00    -0.203 F 
ATOM     67  C   UNL A   1      39.678  25.901  27.871  1.00  0.00     0.198 A 
ATOM     68  C   UNL A   1      41.103  27.491  26.777  1.00  0.00     0.198 A 
ATOM     69  F   UNL A   1      41.773  29.445  27.901  1.00  0.00    -0.203 F 
ATOM     70  F   UNL A   1      39.033  24.726  27.870  1.00  0.00    -0.200 F 
ATOM     71  C   UNL A   1      40.411  26.290  26.761  1.00  0.00     0.200 A 
ATOM     72  F   UNL A   1      41.800  27.876  25.698  1.00  0.00    -0.200 F 
ATOM     73  F   UNL A   1      40.458  25.503  25.678  1.00  0.00    -0.200 F 
ENDBRANCH  49  63
BRANCH  50  74
ATOM     74  C   UNL A   1      39.429  33.892  37.007  1.00  0.00     0.064 A 
ATOM     75  C   UNL A   1      38.695  33.461  38.120  1.00  0.00     0.173 A 
ATOM     76  C   UNL A   1      40.012  35.167  37.065  1.00  0.00     0.173 A 
ATOM     77  F   UNL A   1      38.103  32.258  38.107  1.00  0.00    -0.203 F 
ATOM     78  C   UNL A   1      38.528  34.280  39.235  1.00  0.00     0.198 A 
ATOM     79  C   UNL A   1      39.870  35.973  38.193  1.00  0.00     0.198 A 
ATOM     80  F   UNL A   1      40.730  35.626  36.029  1.00  0.00    -0.203 F 
ATOM     81  F   UNL A   1      37.777  33.862  40.264  1.00  0.00    -0.200 F 
ATOM     82  C   UNL A   1      39.120  35.533  39.273  1.00  0.00     0.200 A 
ATOM     83  F   UNL A   1      40.460  37.176  38.232  1.00  0.00    -0.200 F 
ATOM     84  F   UNL A   1      38.963  36.320  40.346  1.00  0.00    -0.200 F 
ENDBRANCH  50  74
BRANCH  62  85
ATOM     85  C   UNL A   1      43.864  28.802  35.280  1.00  0.00     0.064 A 
ATOM     86  C   UNL A   1      45.168  29.267  35.051  1.00  0.00     0.173 A 
ATOM     87  C   UNL A   1      43.693  27.769  36.217  1.00  0.00     0.173 A 
ATOM     88  F   UNL A   1      45.389  30.242  34.156  1.00  0.00    -0.203 F 
ATOM     89  C   UNL A   1      46.258  28.697  35.704  1.00  0.00     0.198 A 
ATOM     90  C   UNL A   1      44.781  27.227  36.894  1.00  0.00     0.198 A 
ATOM     91  F   UNL A   1      42.468  27.293  36.482  1.00  0.00    -0.203 F 
ATOM     92  F   UNL A   1      47.499  29.116  35.422  1.00  0.00    -0.200 F 
ATOM     93  C   UNL A   1      46.063  27.683  36.630  1.00  0.00     0.200 A 
ATOM     94  F   UNL A   1      44.589  26.260  37.801  1.00  0.00    -0.200 F 
ATOM     95  F   UNL A   1      47.113  27.138  37.260  1.00  0.00    -0.200 F 
ENDBRANCH  62  85
ENDBRANCH  36  37
ENDBRANCH  28  31
ENDBRANCH  26  27
ENDBRANCH  25  26
ENDBRANCH  24  25
ENDBRANCH   1  24
TORSDOF 16
ENDMDL
MODEL 2
REMARK VINA RESULT:     -11.7      0.518      2.087
REMARK SMILES C[NH2+]C[C@H](C)C(=O)N1CC[C@@](C(=O)NCCCCNC(=O)c2ccc(-c3c4nc(c(-c5c(F)c(F)c(F)c(F)c5F)c5ccc([nH]5)c(-c5c(F)c(F)c(F)c(F)c5F)c5nc(c(-c6c(F)c(F)c(F)c(F)c6F)c6ccc3[nH]6)C=C5)C=C4)cc2)(C(F)(F)F)C1
REMARK SMILES IDX 15 1 14 2 12 3 13 4 11 6 8 7 9 8 89 9 10 10 6 11 7 12 4 13
REMARK SMILES IDX 5 14 3 15 2 16 1 17 85 20 86 21 87 22 88 23 16 24 17 25
REMARK SMILES IDX 18 26 19 27 20 28 21 30 22 31 23 32 84 33 24 34 83 35 25 36
REMARK SMILES IDX 26 37 27 38 77 39 28 40 82 41 76 42 78 43 29 44 81 45 75 46
REMARK SMILES IDX 74 47 30 49 62 50 42 51 61 52 43 53 46 54 60 55 79 56 44 57
REMARK SMILES IDX 45 58 59 60 80 61 47 62 31 63 32 64 40 65 33 66 34 67 38 68
REMARK SMILES IDX 41 69 35 70 36 71 39 72 37 73 63 74 64 75 72 76 65 77 66 78
REMARK SMILES IDX 70 79 73 80 67 81 68 82 71 83 69 84 48 85 49 86 57 87 50 88
REMARK SMILES IDX 51 89 55 90 58 91 52 92 53 93 56 94 54 95
REMARK H PARENT 14 5 2 18 2 19 19 29 78 48 46 59
REMARK Flexibility Score: inf
ROOT
ATOM      1  C   UNL A   1      32.253  30.113  25.816  1.00  0.00     0.116 C 
ENDROOT
BRANCH   1   2
ATOM      2  N   UNL A   1      31.785  29.055  26.691  1.00  0.00    -0.355 N 
ATOM      3  C   UNL A   1      31.393  27.770  26.437  1.00  0.00     0.237 C 
ATOM      4  O   UNL A   1      31.115  27.103  27.435  1.00  0.00    -0.274 OA
ATOM      5  H   UNL A   1      31.743  29.308  27.640  1.00  0.00     0.163 HD
BRANCH   3   6
ATOM      6  C   UNL A   1      31.288  27.199  25.026  1.00  0.00     0.163 C 
ATOM      7  N   UNL A   1      29.779  27.966  23.342  1.00  0.00    -0.341 N 
ATOM      8  C   UNL A   1      29.407  26.590  23.593  1.00  0.00     0.121 C 
ATOM      9  C   UNL A   1      31.051  28.286  23.978  1.00  0.00     0.146 C 
ATOM     10  C   UNL A   1      30.118  26.207  24.883  1.00  0.00     0.050 C 
BRANCH   7  11
ATOM     11  C   UNL A   1      29.193  28.884  22.501  1.00  0.00     0.231 C 
ATOM     12  O   UNL A   1      29.884  29.473  21.661  1.00  0.00    -0.274 OA
BRANCH  11  13
ATOM     13  C   UNL A   1      27.762  29.364  22.739  1.00  0.00     0.130 C 
ATOM     14  C   UNL A   1      26.865  28.419  23.532  1.00  0.00     0.024 C 
BRANCH  13  15
ATOM     15  C   UNL A   1      27.768  30.788  23.337  1.00  0.00     0.273 C 
BRANCH  15  16
ATOM     16  N   UNL A   1      29.065  31.486  23.353  1.00  0.00    -0.348 N 
ATOM     17  C   UNL A   1      28.960  32.863  22.875  1.00  0.00     0.330 C 
ATOM     18  H   UNL A   1      29.420  31.498  24.309  1.00  0.00     0.346 HD
ATOM     19  H   UNL A   1      29.696  30.986  22.727  1.00  0.00     0.346 HD
ENDBRANCH  15  16
ENDBRANCH  13  15
ENDBRANCH  11  13
ENDBRANCH   7  11
BRANCH   6  20
ATOM     20  C   UNL A   1      32.598  26.511  24.695  1.00  0.00     0.404 C 
ATOM     21  F   UNL A   1      32.454  25.164  24.806  1.00  0.00    -0.170 F 
ATOM     22  F   UNL A   1      33.010  26.750  23.433  1.00  0.00    -0.170 F 
ATOM     23  F   UNL A   1      33.591  26.852  25.546  1.00  0.00    -0.170 F 
ENDBRANCH   6  20
ENDBRANCH   3   6
ENDBRANCH   1   2
BRANCH   1  24
ATOM     24  C   UNL A   1      31.343  31.337  25.813  1.00  0.00     0.023 C 
BRANCH  24  25
ATOM     25  C   UNL A   1      31.391  32.173  27.088  1.00  0.00     0.023 C 
BRANCH  25  26
ATOM     26  C   UNL A   1      32.663  32.989  27.280  1.00  0.00     0.116 C 
BRANCH  26  27
ATOM     27  N   UNL A   1      32.413  34.372  27.657  1.00  0.00    -0.352 N 
ATOM     28  C   UNL A   1      33.004  35.118  28.648  1.00  0.00     0.251 C 
ATOM     29  H   UNL A   1      31.726  34.838  27.127  1.00  0.00     0.163 HD
ATOM     30  O   UNL A   1      32.569  36.230  28.934  1.00  0.00    -0.269 OA
BRANCH  28  31
ATOM     31  C   UNL A   1      34.158  34.569  29.397  1.00  0.00     0.039 A 
ATOM     32  C   UNL A   1      33.935  33.964  30.634  1.00  0.00     0.014 A 
ATOM     33  C   UNL A   1      35.454  34.647  28.880  1.00  0.00     0.014 A 
ATOM     34  C   UNL A   1      35.001  33.379  31.322  1.00  0.00     0.010 A 
ATOM     35  C   UNL A   1      36.499  33.987  29.520  1.00  0.00     0.010 A 
ATOM     36  C   UNL A   1      36.287  33.352  30.753  1.00  0.00    -0.014 A 
BRANCH  36  37
ATOM     37  C   UNL A   1      37.414  32.669  31.438  1.00  0.00     0.031 A 
ATOM     38  C   UNL A   1      38.113  31.509  30.780  1.00  0.00     0.074 A 
ATOM     39  C   UNL A   1      37.776  33.058  32.676  1.00  0.00     0.049 A 
ATOM     40  N   UNL A   1      39.096  30.771  31.232  1.00  0.00    -0.248 NA
ATOM     41  C   UNL A   1      37.624  31.108  29.452  1.00  0.00     0.031 C 
ATOM     42  C   UNL A   1      37.138  34.127  33.446  1.00  0.00     0.029 A 
ATOM     43  N   UNL A   1      38.765  32.595  33.508  1.00  0.00    -0.354 N 
ATOM     44  C   UNL A   1      39.333  29.816  30.250  1.00  0.00     0.074 A 
ATOM     45  C   UNL A   1      38.351  30.028  29.210  1.00  0.00     0.031 C 
ATOM     46  C   UNL A   1      37.770  34.259  34.622  1.00  0.00     0.029 A 
ATOM     47  C   UNL A   1      38.832  33.261  34.708  1.00  0.00     0.049 A 
ATOM     48  H   UNL A   1      39.369  31.855  33.267  1.00  0.00     0.167 HD
ATOM     49  C   UNL A   1      40.298  28.867  30.209  1.00  0.00     0.037 A 
ATOM     50  C   UNL A   1      39.654  33.084  35.760  1.00  0.00     0.037 A 
ATOM     51  C   UNL A   1      41.286  28.671  31.238  1.00  0.00     0.049 A 
ATOM     52  C   UNL A   1      40.719  32.023  35.688  1.00  0.00     0.074 A 
ATOM     53  C   UNL A   1      42.343  27.780  31.262  1.00  0.00     0.029 A 
ATOM     54  N   UNL A   1      41.332  29.377  32.432  1.00  0.00    -0.354 N 
ATOM     55  N   UNL A   1      40.986  31.181  34.719  1.00  0.00    -0.248 NA
ATOM     56  C   UNL A   1      41.604  31.895  36.853  1.00  0.00     0.031 C 
ATOM     57  C   UNL A   1      42.996  27.905  32.493  1.00  0.00     0.029 A 
ATOM     58  C   UNL A   1      42.386  28.921  33.210  1.00  0.00     0.049 A 
ATOM     59  H   UNL A   1      40.710  30.095  32.689  1.00  0.00     0.167 HD
ATOM     60  C   UNL A   1      42.086  30.446  35.143  1.00  0.00     0.074 A 
ATOM     61  C   UNL A   1      42.448  30.956  36.448  1.00  0.00     0.031 C 
ATOM     62  C   UNL A   1      42.738  29.441  34.508  1.00  0.00     0.037 A 
BRANCH  49  63
ATOM     63  C   UNL A   1      40.334  27.965  29.008  1.00  0.00     0.064 A 
ATOM     64  C   UNL A   1      41.101  28.275  27.873  1.00  0.00     0.173 A 
ATOM     65  C   UNL A   1      39.620  26.756  29.002  1.00  0.00     0.173 A 
ATOM     66  F   UNL A   1      41.795  29.423  27.820  1.00  0.00    -0.203 F 
ATOM     67  C   UNL A   1      41.124  27.428  26.768  1.00  0.00     0.198 A 
ATOM     68  C   UNL A   1      39.674  25.894  27.909  1.00  0.00     0.198 A 
ATOM     69  F   UNL A   1      38.876  26.405  30.062  1.00  0.00    -0.203 F 
ATOM     70  F   UNL A   1      41.819  27.774  25.675  1.00  0.00    -0.200 F 
ATOM     71  C   UNL A   1      40.418  26.235  26.790  1.00  0.00     0.200 A 
ATOM     72  F   UNL A   1      39.003  24.734  27.939  1.00  0.00    -0.200 F 
ATOM     73  F   UNL A   1      40.447  25.417  25.729  1.00  0.00    -0.200 F 
ENDBRANCH  49  63
BRANCH  50  74
ATOM     74  C   UNL A   1      39.522  33.951  36.961  1.00  0.00     0.064 A 
ATOM     75  C   UNL A   1      40.150  35.202  37.020  1.00  0.00     0.173 A 
ATOM     76  C   UNL A   1      38.775  33.543  38.076  1.00  0.00     0.173 A 
ATOM     77  F   UNL A   1      40.891  35.630  35.988  1.00  0.00    -0.203 F 
ATOM     78  C   UNL A   1      40.056  36.003  38.158  1.00  0.00     0.198 A 
ATOM     79  C   UNL A   1      38.655  34.358  39.200  1.00  0.00     0.198 A 
ATOM     80  F   UNL A   1      38.149  32.357  38.069  1.00  0.00    -0.203 F 
ATOM     81  F   UNL A   1      40.709  37.172  38.207  1.00  0.00    -0.200 F 
ATOM     82  C   UNL A   1      39.304  35.582  39.244  1.00  0.00     0.200 A 
ATOM     83  F   UNL A   1      37.913  33.954  40.241  1.00  0.00    -0.200 F 
ATOM     84  F   UNL A   1      39.211  36.353  40.337  1.00  0.00    -0.200 F 
ENDBRANCH  50  74
BRANCH  62  85
ATOM     85  C   UNL A   1      43.934  28.852  35.199  1.00  0.00     0.064 A 
ATOM     86  C   UNL A   1      43.816  27.805  36.126  1.00  0.00     0.173 A 
ATOM     87  C   UNL A   1      45.224  29.330  34.913  1.00  0.00     0.173 A 
ATOM     88  F   UNL A   1      42.606  27.321  36.446  1.00  0.00    -0.203 F 
ATOM     89  C   UNL A   1      44.937  27.283  36.766  1.00  0.00     0.198 A 
ATOM     90  C   UNL A   1      46.346  28.781  35.527  1.00  0.00     0.198 A 
ATOM     91  F   UNL A   1      45.396  30.323  34.029  1.00  0.00    -0.203 F 
ATOM     92  F   UNL A   1      44.792  26.326  37.691  1.00  0.00    -0.200 F 
ATOM     93  C   UNL A   1      46.201  27.766  36.461  1.00  0.00     0.200 A 
ATOM     94  F   UNL A   1      47.567  29.237  35.218  1.00  0.00    -0.200 F 
ATOM     95  F   UNL A   1      47.280  27.260  37.075  1.00  0.00    -0.200 F 
ENDBRANCH  62  85
ENDBRANCH  36  37
ENDBRANCH  28  31
ENDBRANCH  26  27
ENDBRANCH  25  26
ENDBRANCH  24  25
ENDBRANCH   1  24
TORSDOF 16
ENDMDL
MODEL 3
REMARK VINA RESULT:     -11.7      6.139     11.295
REMARK SMILES C[NH2+]C[C@H](C)C(=O)N1CC[C@@](C(=O)NCCCCNC(=O)c2ccc(-c3c4nc(c(-c5c(F)c(F)c(F)c(F)c5F)c5ccc([nH]5)c(-c5c(F)c(F)c(F)c(F)c5F)c5nc(c(-c6c(F)c(F)c(F)c(F)c6F)c6ccc3[nH]6)C=C5)C=C4)cc2)(C(F)(F)F)C1
REMARK SMILES IDX 15 1 14 2 12 3 13 4 11 6 8 7 9 8 89 9 10 10 6 11 7 12 4 13
REMARK SMILES IDX 5 14 3 15 2 16 1 17 85 20 86 21 87 22 88 23 16 24 17 25
REMARK SMILES IDX 18 26 19 27 20 28 21 30 22 31 23 32 84 33 24 34 83 35 25 36
REMARK SMILES IDX 26 37 27 38 77 39 28 40 82 41 76 42 78 43 29 44 81 45 75 46
REMARK SMILES IDX 74 47 30 49 62 50 42 51 61 52 43 53 46 54 60 55 79 56 44 57
REMARK SMILES IDX 45 58 59 60 80 61 47 62 31 63 32 64 40 65 33 66 34 67 38 68
REMARK SMILES IDX 41 69 35 70 36 71 39 72 37 73 63 74 64 75 72 76 65 77 66 78
REMARK SMILES IDX 70 79 73 80 67 81 68 82 71 83 69 84 48 85 49 86 57 87 50 88
REMARK SMILES IDX 51 89 55 90 58 91 52 92 53 93 56 94 54 95
REMARK H PARENT 14 5 2 18 2 19 19 29 78 48 46 59
REMARK Flexibility Score: inf
ROOT
ATOM      1  C   UNL A   1      37.735  22.613  25.785  1.00  0.00     0.116 C 
ENDROOT
BRANCH   1   2
ATOM      2  N   UNL A   1      37.538  22.595  24.348  1.00  0.00    -0.355 N 
ATOM      3  C   UNL A   1      36.475  22.957  23.571  1.00  0.00     0.237 C 
ATOM      4  O   UNL A   1      36.667  22.881  22.356  1.00  0.00    -0.274 OA
ATOM      5  H   UNL A   1      38.313  22.262  23.842  1.00  0.00     0.163 HD
BRANCH   3   6
ATOM      6  C   UNL A   1      35.138  23.408  24.152  1.00  0.00     0.163 C 
ATOM      7  N   UNL A   1      33.983  25.408  23.548  1.00  0.00    -0.341 N 
ATOM      8  C   UNL A   1      34.291  25.554  24.955  1.00  0.00     0.121 C 
ATOM      9  C   UNL A   1      34.234  24.045  23.097  1.00  0.00     0.146 C 
ATOM     10  C   UNL A   1      35.311  24.466  25.259  1.00  0.00     0.050 C 
BRANCH   7  11
ATOM     11  C   UNL A   1      33.372  26.300  22.696  1.00  0.00     0.231 C 
ATOM     12  O   UNL A   1      33.349  26.069  21.481  1.00  0.00    -0.274 OA
BRANCH  11  13
ATOM     13  C   UNL A   1      32.931  27.678  23.188  1.00  0.00     0.130 C 
ATOM     14  C   UNL A   1      33.939  28.807  22.999  1.00  0.00     0.024 C 
BRANCH  13  15
ATOM     15  C   UNL A   1      31.548  28.038  22.602  1.00  0.00     0.273 C 
BRANCH  15  16
ATOM     16  N   UNL A   1      31.404  29.395  22.047  1.00  0.00    -0.348 N 
ATOM     17  C   UNL A   1      30.009  29.823  21.981  1.00  0.00     0.330 C 
ATOM     18  H   UNL A   1      31.919  30.047  22.639  1.00  0.00     0.346 HD
ATOM     19  H   UNL A   1      31.773  29.384  21.097  1.00  0.00     0.346 HD
ENDBRANCH  15  16
ENDBRANCH  13  15
ENDBRANCH  11  13
ENDBRANCH   7  11
BRANCH   6  20
ATOM     20  C   UNL A   1      34.425  22.189  24.703  1.00  0.00     0.404 C 
ATOM     21  F   UNL A   1      33.122  22.200  24.315  1.00  0.00    -0.170 F 
ATOM     22  F   UNL A   1      34.949  21.029  24.254  1.00  0.00    -0.170 F 
ATOM     23  F   UNL A   1      34.413  22.163  26.054  1.00  0.00    -0.170 F 
ENDBRANCH   6  20
ENDBRANCH   3   6
ENDBRANCH   1   2
BRANCH   1  24
ATOM     24  C   UNL A   1      39.196  22.453  26.194  1.00  0.00     0.023 C 
BRANCH  24  25
ATOM     25  C   UNL A   1      39.574  21.058  26.684  1.00  0.00     0.023 C 
BRANCH  25  26
ATOM     26  C   UNL A   1      39.698  20.001  25.595  1.00  0.00     0.116 C 
BRANCH  26  27
ATOM     27  N   UNL A   1      40.683  18.973  25.895  1.00  0.00    -0.352 N 
ATOM     28  C   UNL A   1      42.007  19.116  26.233  1.00  0.00     0.251 C 
ATOM     29  H   UNL A   1      40.354  18.046  25.849  1.00  0.00     0.163 HD
ATOM     30  O   UNL A   1      42.742  18.135  26.306  1.00  0.00    -0.269 OA
BRANCH  28  31
ATOM     31  C   UNL A   1      42.562  20.465  26.485  1.00  0.00     0.039 A 
ATOM     32  C   UNL A   1      43.004  21.228  25.403  1.00  0.00     0.014 A 
ATOM     33  C   UNL A   1      42.643  20.979  27.782  1.00  0.00     0.014 A 
ATOM     34  C   UNL A   1      43.466  22.529  25.615  1.00  0.00     0.010 A 
ATOM     35  C   UNL A   1      43.018  22.304  27.983  1.00  0.00     0.010 A 
ATOM     36  C   UNL A   1      43.442  23.092  26.904  1.00  0.00    -0.014 A 
BRANCH  36  37
ATOM     37  C   UNL A   1      43.859  24.500  27.133  1.00  0.00     0.031 A 
ATOM     38  C   UNL A   1      42.858  25.525  27.591  1.00  0.00     0.074 A 
ATOM     39  C   UNL A   1      45.130  24.868  26.878  1.00  0.00     0.049 A 
ATOM     40  N   UNL A   1      43.027  26.804  27.818  1.00  0.00    -0.248 NA
ATOM     41  C   UNL A   1      41.478  25.059  27.794  1.00  0.00     0.031 C 
ATOM     42  C   UNL A   1      46.181  23.983  26.372  1.00  0.00     0.029 A 
ATOM     43  N   UNL A   1      45.754  26.084  27.004  1.00  0.00    -0.354 N 
ATOM     44  C   UNL A   1      41.777  27.292  28.178  1.00  0.00     0.074 A 
ATOM     45  C   UNL A   1      40.848  26.189  28.078  1.00  0.00     0.031 C 
ATOM     46  C   UNL A   1      47.324  24.677  26.260  1.00  0.00     0.029 A 
ATOM     47  C   UNL A   1      47.081  26.063  26.649  1.00  0.00     0.049 A 
ATOM     48  H   UNL A   1      45.294  26.896  27.319  1.00  0.00     0.167 HD
ATOM     49  C   UNL A   1      41.440  28.541  28.580  1.00  0.00     0.037 A 
ATOM     50  C   UNL A   1      47.998  27.050  26.635  1.00  0.00     0.037 A 
ATOM     51  C   UNL A   1      42.371  29.633  28.697  1.00  0.00     0.049 A 
ATOM     52  C   UNL A   1      47.597  28.428  27.088  1.00  0.00     0.074 A 
ATOM     53  C   UNL A   1      42.142  30.918  29.156  1.00  0.00     0.029 A 
ATOM     54  N   UNL A   1      43.712  29.568  28.344  1.00  0.00    -0.354 N 
ATOM     55  N   UNL A   1      46.431  28.857  27.506  1.00  0.00    -0.248 NA
ATOM     56  C   UNL A   1      48.646  29.457  27.079  1.00  0.00     0.031 C 
ATOM     57  C   UNL A   1      43.329  31.647  29.027  1.00  0.00     0.029 A 
ATOM     58  C   UNL A   1      44.316  30.799  28.551  1.00  0.00     0.049 A 
ATOM     59  H   UNL A   1      44.167  28.767  27.999  1.00  0.00     0.167 HD
ATOM     60  C   UNL A   1      46.612  30.194  27.838  1.00  0.00     0.074 A 
ATOM     61  C   UNL A   1      48.005  30.498  27.590  1.00  0.00     0.031 C 
ATOM     62  C   UNL A   1      45.706  31.088  28.305  1.00  0.00     0.037 A 
BRANCH  49  63
ATOM     63  C   UNL A   1      40.000  28.794  28.927  1.00  0.00     0.064 A 
ATOM     64  C   UNL A   1      39.074  29.235  27.967  1.00  0.00     0.173 A 
ATOM     65  C   UNL A   1      39.528  28.559  30.228  1.00  0.00     0.173 A 
ATOM     66  F   UNL A   1      39.473  29.486  26.711  1.00  0.00    -0.203 F 
ATOM     67  C   UNL A   1      37.743  29.465  28.305  1.00  0.00     0.198 A 
ATOM     68  C   UNL A   1      38.188  28.755  30.553  1.00  0.00     0.198 A 
ATOM     69  F   UNL A   1      40.365  28.130  31.184  1.00  0.00    -0.203 F 
ATOM     70  F   UNL A   1      36.893  29.940  27.384  1.00  0.00    -0.200 F 
ATOM     71  C   UNL A   1      37.299  29.217  29.594  1.00  0.00     0.200 A 
ATOM     72  F   UNL A   1      37.757  28.500  31.797  1.00  0.00    -0.200 F 
ATOM     73  F   UNL A   1      36.016  29.430  29.916  1.00  0.00    -0.200 F 
ENDBRANCH  49  63
BRANCH  50  74
ATOM     74  C   UNL A   1      49.392  26.764  26.203  1.00  0.00     0.064 A 
ATOM     75  C   UNL A   1      50.347  26.291  27.112  1.00  0.00     0.173 A 
ATOM     76  C   UNL A   1      49.799  26.967  24.876  1.00  0.00     0.173 A 
ATOM     77  F   UNL A   1      50.012  26.098  28.396  1.00  0.00    -0.203 F 
ATOM     78  C   UNL A   1      51.663  26.054  26.718  1.00  0.00     0.198 A 
ATOM     79  C   UNL A   1      51.107  26.700  24.476  1.00  0.00     0.198 A 
ATOM     80  F   UNL A   1      48.923  27.413  23.964  1.00  0.00    -0.203 F 
ATOM     81  F   UNL A   1      52.568  25.651  27.621  1.00  0.00    -0.200 F 
ATOM     82  C   UNL A   1      52.040  26.254  25.399  1.00  0.00     0.200 A 
ATOM     83  F   UNL A   1      51.463  26.878  23.196  1.00  0.00    -0.200 F 
ATOM     84  F   UNL A   1      53.304  26.023  25.019  1.00  0.00    -0.200 F 
ENDBRANCH  50  74
BRANCH  62  85
ATOM     85  C   UNL A   1      46.203  32.471  28.618  1.00  0.00     0.064 A 
ATOM     86  C   UNL A   1      46.700  32.812  29.885  1.00  0.00     0.173 A 
ATOM     87  C   UNL A   1      46.202  33.465  27.625  1.00  0.00     0.173 A 
ATOM     88  F   UNL A   1      46.710  31.903  30.873  1.00  0.00    -0.203 F 
ATOM     89  C   UNL A   1      47.143  34.103  30.158  1.00  0.00     0.198 A 
ATOM     90  C   UNL A   1      46.680  34.745  27.892  1.00  0.00     0.198 A 
ATOM     91  F   UNL A   1      45.746  33.192  26.394  1.00  0.00    -0.203 F 
ATOM     92  F   UNL A   1      47.556  34.421  31.392  1.00  0.00    -0.200 F 
ATOM     93  C   UNL A   1      47.139  35.067  29.160  1.00  0.00     0.200 A 
ATOM     94  F   UNL A   1      46.692  35.669  26.921  1.00  0.00    -0.200 F 
ATOM     95  F   UNL A   1      47.570  36.308  29.423  1.00  0.00    -0.200 F 
ENDBRANCH  62  85
ENDBRANCH  36  37
ENDBRANCH  28  31
ENDBRANCH  26  27
ENDBRANCH  25  26
ENDBRANCH  24  25
ENDBRANCH   1  24
TORSDOF 16
ENDMDL
