MODEL 1
REMARK VINA RESULT:     -11.0      0.000      0.000
REMARK SMILES O=C(CSC(=S)N1CCCCC1)NCCCCNC(=O)c1ccc(-c2c3nc(c(-c4c(F)c(F)c(F)c(F)c4F)c4ccc([nH]4)c(-c4c(F)c(F)c(F)c(F)c4F)c4nc(c(-c5c(F)c(F)c(F)c(F)c5F)c5ccc2[nH]5)C=C4)C=C3)cc1
REMARK SMILES IDX 15 1 14 2 13 3 1 4 2 5 3 7 4 8 5 9 6 10 7 11 8 12 12 13 9 14
REMARK SMILES IDX 11 15 10 16 16 17 17 18 18 19 19 20 20 22 21 23 22 24 83 25
REMARK SMILES IDX 23 26 82 27 24 28 25 29 26 30 76 31 27 32 81 33 75 34 77 35
REMARK SMILES IDX 28 36 80 37 74 38 73 39 29 41 61 42 41 43 60 44 42 45 45 46
REMARK SMILES IDX 59 47 78 48 43 49 44 50 58 52 79 53 46 54 30 55 31 56 39 57
REMARK SMILES IDX 32 58 33 59 37 60 40 61 34 62 35 63 38 64 36 65 62 66 63 67
REMARK SMILES IDX 71 68 64 69 65 70 69 71 72 72 66 73 67 74 70 75 68 76 47 77
REMARK SMILES IDX 48 78 56 79 49 80 50 81 54 82 57 83 51 84 52 85 55 86 53 87
REMARK H PARENT 13 6 18 21 77 40 45 51
REMARK Flexibility Score: inf
ROOT
ATOM      1  C   UNL A   1      31.604  30.722  26.109  1.00  0.00     0.023 C 
ENDROOT
BRANCH   1   2
ATOM      2  C   UNL A   1      32.285  29.747  27.068  1.00  0.00     0.116 C 
BRANCH   2   3
ATOM      3  N   UNL A   1      32.291  28.381  26.584  1.00  0.00    -0.355 N 
ATOM      4  O   UNL A   1      34.570  28.200  26.479  1.00  0.00    -0.274 OA
ATOM      5  C   UNL A   1      33.462  27.675  26.402  1.00  0.00     0.230 C 
ATOM      6  H   UNL A   1      31.433  27.944  26.379  1.00  0.00     0.163 HD
BRANCH   5   7
ATOM      7  C   UNL A   1      33.305  26.217  25.988  1.00  0.00     0.177 C 
BRANCH   7   8
ATOM      8  S   UNL A   1      33.827  25.859  24.289  1.00  0.00    -0.087 SA
BRANCH   8   9
ATOM      9  C   UNL A   1      33.154  27.160  23.296  1.00  0.00     0.136 C 
ATOM     10  S   UNL A   1      33.977  28.527  22.780  1.00  0.00    -0.053 S 
BRANCH   9  11
ATOM     11  N   UNL A   1      31.845  26.881  22.901  1.00  0.00    -0.358 N 
ATOM     12  C   UNL A   1      30.860  27.937  22.645  1.00  0.00     0.118 C 
ATOM     13  C   UNL A   1      31.289  25.523  22.928  1.00  0.00     0.118 C 
ATOM     14  C   UNL A   1      29.736  27.907  23.673  1.00  0.00     0.021 C 
ATOM     15  C   UNL A   1      30.162  25.437  23.964  1.00  0.00     0.021 C 
ATOM     16  C   UNL A   1      29.102  26.518  23.743  1.00  0.00     0.004 C 
ENDBRANCH   9  11
ENDBRANCH   8   9
ENDBRANCH   7   8
ENDBRANCH   5   7
ENDBRANCH   2   3
ENDBRANCH   1   2
BRANCH   1  17
ATOM     17  C   UNL A   1      31.352  32.121  26.675  1.00  0.00     0.023 C 
BRANCH  17  18
ATOM     18  C   UNL A   1      32.556  32.805  27.317  1.00  0.00     0.116 C 
BRANCH  18  19
ATOM     19  N   UNL A   1      32.324  34.204  27.636  1.00  0.00    -0.352 N 
ATOM     20  C   UNL A   1      32.970  35.016  28.538  1.00  0.00     0.251 C 
ATOM     21  H   UNL A   1      31.596  34.635  27.132  1.00  0.00     0.163 HD
ATOM     22  O   UNL A   1      32.551  36.150  28.754  1.00  0.00    -0.269 OA
BRANCH  20  23
ATOM     23  C   UNL A   1      34.152  34.522  29.281  1.00  0.00     0.039 A 
ATOM     24  C   UNL A   1      33.964  33.971  30.553  1.00  0.00     0.014 A 
ATOM     25  C   UNL A   1      35.437  34.595  28.739  1.00  0.00     0.014 A 
ATOM     26  C   UNL A   1      35.050  33.427  31.245  1.00  0.00     0.010 A 
ATOM     27  C   UNL A   1      36.505  33.984  29.395  1.00  0.00     0.010 A 
ATOM     28  C   UNL A   1      36.324  33.389  30.653  1.00  0.00    -0.014 A 
BRANCH  28  29
ATOM     29  C   UNL A   1      37.468  32.719  31.327  1.00  0.00     0.031 A 
ATOM     30  C   UNL A   1      38.173  31.566  30.665  1.00  0.00     0.074 A 
ATOM     31  C   UNL A   1      37.832  33.105  32.566  1.00  0.00     0.049 A 
ATOM     32  N   UNL A   1      39.142  30.813  31.123  1.00  0.00    -0.248 NA
ATOM     33  C   UNL A   1      37.712  31.194  29.319  1.00  0.00     0.031 C 
ATOM     34  C   UNL A   1      37.204  34.180  33.335  1.00  0.00     0.029 A 
ATOM     35  N   UNL A   1      38.813  32.631  33.402  1.00  0.00    -0.354 N 
ATOM     36  C   UNL A   1      39.394  29.874  30.132  1.00  0.00     0.074 A 
ATOM     37  C   UNL A   1      38.442  30.117  29.069  1.00  0.00     0.031 C 
ATOM     38  C   UNL A   1      37.828  34.300  34.516  1.00  0.00     0.029 A 
ATOM     39  C   UNL A   1      38.872  33.283  34.610  1.00  0.00     0.049 A 
ATOM     40  H   UNL A   1      39.417  31.892  33.159  1.00  0.00     0.167 HD
ATOM     41  C   UNL A   1      40.346  28.911  30.102  1.00  0.00     0.037 A 
ATOM     42  C   UNL A   1      39.669  33.079  35.677  1.00  0.00     0.037 A 
ATOM     43  C   UNL A   1      41.308  28.685  31.151  1.00  0.00     0.049 A 
ATOM     44  C   UNL A   1      40.704  31.986  35.624  1.00  0.00     0.074 A 
ATOM     45  C   UNL A   1      42.350  27.777  31.183  1.00  0.00     0.029 A 
ATOM     46  N   UNL A   1      41.338  29.372  32.356  1.00  0.00    -0.354 N 
ATOM     47  N   UNL A   1      40.980  31.153  34.651  1.00  0.00    -0.248 NA
ATOM     48  C   UNL A   1      41.541  31.810  36.819  1.00  0.00     0.031 C 
ATOM     49  C   UNL A   1      42.975  27.870  32.431  1.00  0.00     0.029 A 
ATOM     50  C   UNL A   1      42.364  28.883  33.151  1.00  0.00     0.049 A 
ATOM     51  H   UNL A   1      40.723  30.097  32.609  1.00  0.00     0.167 HD
ATOM     52  C   UNL A   1      42.043  30.380  35.101  1.00  0.00     0.074 A 
ATOM     53  C   UNL A   1      42.370  30.852  36.429  1.00  0.00     0.031 C 
ATOM     54  C   UNL A   1      42.689  29.369  34.469  1.00  0.00     0.037 A 
BRANCH  41  55
ATOM     55  C   UNL A   1      40.399  28.019  28.893  1.00  0.00     0.064 A 
ATOM     56  C   UNL A   1      39.695  26.806  28.839  1.00  0.00     0.173 A 
ATOM     57  C   UNL A   1      41.127  28.403  27.757  1.00  0.00     0.173 A 
ATOM     58  F   UNL A   1      38.991  26.386  29.901  1.00  0.00    -0.203 F 
ATOM     59  C   UNL A   1      39.741  25.999  27.704  1.00  0.00     0.198 A 
ATOM     60  C   UNL A   1      41.143  27.612  26.612  1.00  0.00     0.198 A 
ATOM     61  F   UNL A   1      41.813  29.556  27.750  1.00  0.00    -0.203 F 
ATOM     62  F   UNL A   1      39.101  24.822  27.696  1.00  0.00    -0.200 F 
ATOM     63  C   UNL A   1      40.457  26.406  26.590  1.00  0.00     0.200 A 
ATOM     64  F   UNL A   1      41.822  28.014  25.529  1.00  0.00    -0.200 F 
ATOM     65  F   UNL A   1      40.492  25.635  25.495  1.00  0.00    -0.200 F 
ENDBRANCH  41  55
BRANCH  42  66
ATOM     66  C   UNL A   1      39.537  33.938  36.884  1.00  0.00     0.064 A 
ATOM     67  C   UNL A   1      38.764  33.528  37.980  1.00  0.00     0.173 A 
ATOM     68  C   UNL A   1      40.159  35.194  36.961  1.00  0.00     0.173 A 
ATOM     69  F   UNL A   1      38.131  32.346  37.945  1.00  0.00    -0.203 F 
ATOM     70  C   UNL A   1      38.596  34.349  39.093  1.00  0.00     0.198 A 
ATOM     71  C   UNL A   1      40.019  36.000  38.088  1.00  0.00     0.198 A 
ATOM     72  F   UNL A   1      40.913  35.634  35.943  1.00  0.00    -0.203 F 
ATOM     73  F   UNL A   1      37.806  33.955  40.100  1.00  0.00    -0.200 F 
ATOM     74  C   UNL A   1      39.228  35.582  39.148  1.00  0.00     0.200 A 
ATOM     75  F   UNL A   1      40.642  37.184  38.145  1.00  0.00    -0.200 F 
ATOM     76  F   UNL A   1      39.067  36.372  40.219  1.00  0.00    -0.200 F 
ENDBRANCH  42  66
BRANCH  54  77
ATOM     77  C   UNL A   1      43.847  28.733  35.184  1.00  0.00     0.064 A 
ATOM     78  C   UNL A   1      43.678  27.620  36.022  1.00  0.00     0.173 A 
ATOM     79  C   UNL A   1      45.149  29.223  34.999  1.00  0.00     0.173 A 
ATOM     80  F   UNL A   1      42.453  27.122  36.245  1.00  0.00    -0.203 F 
ATOM     81  C   UNL A   1      44.767  27.040  36.669  1.00  0.00     0.198 A 
ATOM     82  C   UNL A   1      46.239  28.617  35.619  1.00  0.00     0.198 A 
ATOM     83  F   UNL A   1      45.367  30.280  34.202  1.00  0.00    -0.203 F 
ATOM     84  F   UNL A   1      44.575  26.011  37.506  1.00  0.00    -0.200 F 
ATOM     85  C   UNL A   1      46.047  27.533  36.460  1.00  0.00     0.200 A 
ATOM     86  F   UNL A   1      47.475  29.086  35.401  1.00  0.00    -0.200 F 
ATOM     87  F   UNL A   1      47.093  26.967  37.077  1.00  0.00    -0.200 F 
ENDBRANCH  54  77
ENDBRANCH  28  29
ENDBRANCH  20  23
ENDBRANCH  18  19
ENDBRANCH  17  18
ENDBRANCH   1  17
TORSDOF 14
ENDMDL
MODEL 2
REMARK VINA RESULT:     -10.9      1.551      2.783
REMARK SMILES O=C(CSC(=S)N1CCCCC1)NCCCCNC(=O)c1ccc(-c2c3nc(c(-c4c(F)c(F)c(F)c(F)c4F)c4ccc([nH]4)c(-c4c(F)c(F)c(F)c(F)c4F)c4nc(c(-c5c(F)c(F)c(F)c(F)c5F)c5ccc2[nH]5)C=C4)C=C3)cc1
REMARK SMILES IDX 15 1 14 2 13 3 1 4 2 5 3 7 4 8 5 9 6 10 7 11 8 12 12 13 9 14
REMARK SMILES IDX 11 15 10 16 16 17 17 18 18 19 19 20 20 22 21 23 22 24 83 25
REMARK SMILES IDX 23 26 82 27 24 28 25 29 26 30 76 31 27 32 81 33 75 34 77 35
REMARK SMILES IDX 28 36 80 37 74 38 73 39 29 41 61 42 41 43 60 44 42 45 45 46
REMARK SMILES IDX 59 47 78 48 43 49 44 50 58 52 79 53 46 54 30 55 31 56 39 57
REMARK SMILES IDX 32 58 33 59 37 60 40 61 34 62 35 63 38 64 36 65 62 66 63 67
REMARK SMILES IDX 71 68 64 69 65 70 69 71 72 72 66 73 67 74 70 75 68 76 47 77
REMARK SMILES IDX 48 78 56 79 49 80 50 81 54 82 57 83 51 84 52 85 55 86 53 87
REMARK H PARENT 13 6 18 21 77 40 45 51
REMARK Flexibility Score: inf
ROOT
ATOM      1  C   UNL A   1      31.651  30.768  26.017  1.00  0.00     0.023 C 
ENDROOT
BRANCH   1   2
ATOM      2  C   UNL A   1      32.775  29.930  26.622  1.00  0.00     0.116 C 
BRANCH   2   3
ATOM      3  N   UNL A   1      32.758  28.549  26.184  1.00  0.00    -0.355 N 
ATOM      4  O   UNL A   1      31.405  27.803  27.872  1.00  0.00    -0.274 OA
ATOM      5  C   UNL A   1      31.991  27.591  26.812  1.00  0.00     0.230 C 
ATOM      6  H   UNL A   1      33.312  28.287  25.413  1.00  0.00     0.163 HD
BRANCH   5   7
ATOM      7  C   UNL A   1      31.996  26.207  26.175  1.00  0.00     0.177 C 
BRANCH   7   8
ATOM      8  S   UNL A   1      33.646  25.582  25.751  1.00  0.00    -0.087 SA
BRANCH   8   9
ATOM      9  C   UNL A   1      33.552  23.824  25.927  1.00  0.00     0.136 C 
ATOM     10  S   UNL A   1      32.434  22.989  26.857  1.00  0.00    -0.053 S 
BRANCH   9  11
ATOM     11  N   UNL A   1      34.485  23.176  25.117  1.00  0.00    -0.358 N 
ATOM     12  C   UNL A   1      34.225  21.865  24.513  1.00  0.00     0.118 C 
ATOM     13  C   UNL A   1      35.871  23.641  24.986  1.00  0.00     0.118 C 
ATOM     14  C   UNL A   1      35.141  20.795  25.097  1.00  0.00     0.021 C 
ATOM     15  C   UNL A   1      36.832  22.604  25.577  1.00  0.00     0.021 C 
ATOM     16  C   UNL A   1      36.606  21.214  24.981  1.00  0.00     0.004 C 
ENDBRANCH   9  11
ENDBRANCH   8   9
ENDBRANCH   7   8
ENDBRANCH   5   7
ENDBRANCH   2   3
ENDBRANCH   1   2
BRANCH   1  17
ATOM     17  C   UNL A   1      31.375  32.096  26.726  1.00  0.00     0.023 C 
BRANCH  17  18
ATOM     18  C   UNL A   1      32.600  32.819  27.279  1.00  0.00     0.116 C 
BRANCH  18  19
ATOM     19  N   UNL A   1      32.333  34.196  27.662  1.00  0.00    -0.352 N 
ATOM     20  C   UNL A   1      32.952  34.978  28.608  1.00  0.00     0.251 C 
ATOM     21  H   UNL A   1      31.599  34.634  27.172  1.00  0.00     0.163 HD
ATOM     22  O   UNL A   1      32.505  36.091  28.874  1.00  0.00    -0.269 OA
BRANCH  20  23
ATOM     23  C   UNL A   1      34.139  34.475  29.338  1.00  0.00     0.039 A 
ATOM     24  C   UNL A   1      33.965  33.956  30.625  1.00  0.00     0.014 A 
ATOM     25  C   UNL A   1      35.415  34.512  28.770  1.00  0.00     0.014 A 
ATOM     26  C   UNL A   1      35.054  33.404  31.307  1.00  0.00     0.010 A 
ATOM     27  C   UNL A   1      36.483  33.893  29.418  1.00  0.00     0.010 A 
ATOM     28  C   UNL A   1      36.315  33.328  30.691  1.00  0.00    -0.014 A 
BRANCH  28  29
ATOM     29  C   UNL A   1      37.459  32.648  31.356  1.00  0.00     0.031 A 
ATOM     30  C   UNL A   1      38.156  31.497  30.685  1.00  0.00     0.074 A 
ATOM     31  C   UNL A   1      37.829  33.025  32.597  1.00  0.00     0.049 A 
ATOM     32  N   UNL A   1      39.123  30.737  31.135  1.00  0.00    -0.248 NA
ATOM     33  C   UNL A   1      37.688  31.135  29.338  1.00  0.00     0.031 C 
ATOM     34  C   UNL A   1      37.208  34.098  33.375  1.00  0.00     0.029 A 
ATOM     35  N   UNL A   1      38.811  32.542  33.426  1.00  0.00    -0.354 N 
ATOM     36  C   UNL A   1      39.368  29.802  30.137  1.00  0.00     0.074 A 
ATOM     37  C   UNL A   1      38.413  30.056  29.080  1.00  0.00     0.031 C 
ATOM     38  C   UNL A   1      37.838  34.208  34.554  1.00  0.00     0.029 A 
ATOM     39  C   UNL A   1      38.878  33.187  34.638  1.00  0.00     0.049 A 
ATOM     40  H   UNL A   1      39.411  31.802  33.176  1.00  0.00     0.167 HD
ATOM     41  C   UNL A   1      40.315  28.836  30.097  1.00  0.00     0.037 A 
ATOM     42  C   UNL A   1      39.678  32.972  35.700  1.00  0.00     0.037 A 
ATOM     43  C   UNL A   1      41.280  28.599  31.141  1.00  0.00     0.049 A 
ATOM     44  C   UNL A   1      40.708  31.876  35.637  1.00  0.00     0.074 A 
ATOM     45  C   UNL A   1      42.319  27.686  31.164  1.00  0.00     0.029 A 
ATOM     46  N   UNL A   1      41.318  29.278  32.350  1.00  0.00    -0.354 N 
ATOM     47  N   UNL A   1      40.977  31.047  34.657  1.00  0.00    -0.248 NA
ATOM     48  C   UNL A   1      41.549  31.689  36.827  1.00  0.00     0.031 C 
ATOM     49  C   UNL A   1      42.949  27.769  32.410  1.00  0.00     0.029 A 
ATOM     50  C   UNL A   1      42.345  28.780  33.138  1.00  0.00     0.049 A 
ATOM     51  H   UNL A   1      40.707  30.005  32.610  1.00  0.00     0.167 HD
ATOM     52  C   UNL A   1      42.038  30.267  35.098  1.00  0.00     0.074 A 
ATOM     53  C   UNL A   1      42.373  30.730  36.428  1.00  0.00     0.031 C 
ATOM     54  C   UNL A   1      42.677  29.257  34.458  1.00  0.00     0.037 A 
BRANCH  41  55
ATOM     55  C   UNL A   1      40.360  27.950  28.883  1.00  0.00     0.064 A 
ATOM     56  C   UNL A   1      41.127  28.281  27.755  1.00  0.00     0.173 A 
ATOM     57  C   UNL A   1      39.663  26.732  28.866  1.00  0.00     0.173 A 
ATOM     58  F   UNL A   1      41.804  29.438  27.715  1.00  0.00    -0.203 F 
ATOM     59  C   UNL A   1      41.171  27.440  26.646  1.00  0.00     0.198 A 
ATOM     60  C   UNL A   1      39.737  25.877  27.770  1.00  0.00     0.198 A 
ATOM     61  F   UNL A   1      38.920  26.362  29.920  1.00  0.00    -0.203 F 
ATOM     62  F   UNL A   1      41.869  27.801  25.561  1.00  0.00    -0.200 F 
ATOM     63  C   UNL A   1      40.484  26.236  26.657  1.00  0.00     0.200 A 
ATOM     64  F   UNL A   1      39.085  24.706  27.789  1.00  0.00    -0.200 F 
ATOM     65  F   UNL A   1      40.535  25.422  25.594  1.00  0.00    -0.200 F 
ENDBRANCH  41  55
BRANCH  42  66
ATOM     66  C   UNL A   1      39.554  33.825  36.913  1.00  0.00     0.064 A 
ATOM     67  C   UNL A   1      38.779  33.415  38.006  1.00  0.00     0.173 A 
ATOM     68  C   UNL A   1      40.187  35.075  36.997  1.00  0.00     0.173 A 
ATOM     69  F   UNL A   1      38.135  32.238  37.965  1.00  0.00    -0.203 F 
ATOM     70  C   UNL A   1      38.620  34.230  39.125  1.00  0.00     0.198 A 
ATOM     71  C   UNL A   1      40.055  35.875  38.130  1.00  0.00     0.198 A 
ATOM     72  F   UNL A   1      40.944  35.515  35.981  1.00  0.00    -0.203 F 
ATOM     73  F   UNL A   1      37.827  33.836  40.130  1.00  0.00    -0.200 F 
ATOM     74  C   UNL A   1      39.262  35.457  39.188  1.00  0.00     0.200 A 
ATOM     75  F   UNL A   1      40.689  37.053  38.193  1.00  0.00    -0.200 F 
ATOM     76  F   UNL A   1      39.109  36.241  40.264  1.00  0.00    -0.200 F 
ENDBRANCH  42  66
BRANCH  54  77
ATOM     77  C   UNL A   1      43.835  28.611  35.165  1.00  0.00     0.064 A 
ATOM     78  C   UNL A   1      45.146  29.092  35.030  1.00  0.00     0.173 A 
ATOM     79  C   UNL A   1      43.623  27.518  36.020  1.00  0.00     0.173 A 
ATOM     80  F   UNL A   1      45.406  30.125  34.214  1.00  0.00    -0.203 F 
ATOM     81  C   UNL A   1      46.204  28.484  35.702  1.00  0.00     0.198 A 
ATOM     82  C   UNL A   1      44.678  26.937  36.717  1.00  0.00     0.198 A 
ATOM     83  F   UNL A   1      42.387  27.024  36.190  1.00  0.00    -0.203 F 
ATOM     84  F   UNL A   1      47.455  28.928  35.516  1.00  0.00    -0.200 F 
ATOM     85  C   UNL A   1      45.968  27.414  36.551  1.00  0.00     0.200 A 
ATOM     86  F   UNL A   1      44.443  25.913  37.550  1.00  0.00    -0.200 F 
ATOM     87  F   UNL A   1      46.987  26.837  37.204  1.00  0.00    -0.200 F 
ENDBRANCH  54  77
ENDBRANCH  28  29
ENDBRANCH  20  23
ENDBRANCH  18  19
ENDBRANCH  17  18
ENDBRANCH   1  17
TORSDOF 14
ENDMDL
MODEL 3
REMARK VINA RESULT:     -10.8      6.034     11.425
REMARK SMILES O=C(CSC(=S)N1CCCCC1)NCCCCNC(=O)c1ccc(-c2c3nc(c(-c4c(F)c(F)c(F)c(F)c4F)c4ccc([nH]4)c(-c4c(F)c(F)c(F)c(F)c4F)c4nc(c(-c5c(F)c(F)c(F)c(F)c5F)c5ccc2[nH]5)C=C4)C=C3)cc1
REMARK SMILES IDX 15 1 14 2 13 3 1 4 2 5 3 7 4 8 5 9 6 10 7 11 8 12 12 13 9 14
REMARK SMILES IDX 11 15 10 16 16 17 17 18 18 19 19 20 20 22 21 23 22 24 83 25
REMARK SMILES IDX 23 26 82 27 24 28 25 29 26 30 76 31 27 32 81 33 75 34 77 35
REMARK SMILES IDX 28 36 80 37 74 38 73 39 29 41 61 42 41 43 60 44 42 45 45 46
REMARK SMILES IDX 59 47 78 48 43 49 44 50 58 52 79 53 46 54 30 55 31 56 39 57
REMARK SMILES IDX 32 58 33 59 37 60 40 61 34 62 35 63 38 64 36 65 62 66 63 67
REMARK SMILES IDX 71 68 64 69 65 70 69 71 72 72 66 73 67 74 70 75 68 76 47 77
REMARK SMILES IDX 48 78 56 79 49 80 50 81 54 82 57 83 51 84 52 85 55 86 53 87
REMARK H PARENT 13 6 18 21 77 40 45 51
REMARK Flexibility Score: inf
ROOT
ATOM      1  C   UNL A   1      36.821  20.624  25.108  1.00  0.00     0.023 C 
ENDROOT
BRANCH   1   2
ATOM      2  C   UNL A   1      37.156  22.111  25.196  1.00  0.00     0.116 C 
BRANCH   2   3
ATOM      3  N   UNL A   1      36.038  22.969  24.861  1.00  0.00    -0.355 N 
ATOM      4  O   UNL A   1      36.503  23.067  22.622  1.00  0.00    -0.274 OA
ATOM      5  C   UNL A   1      35.748  23.320  23.559  1.00  0.00     0.230 C 
ATOM      6  H   UNL A   1      35.466  23.313  25.586  1.00  0.00     0.163 HD
BRANCH   5   7
ATOM      7  C   UNL A   1      34.482  24.142  23.354  1.00  0.00     0.177 C 
BRANCH   7   8
ATOM      8  S   UNL A   1      33.907  25.016  24.836  1.00  0.00    -0.087 SA
BRANCH   8   9
ATOM      9  C   UNL A   1      32.476  25.926  24.330  1.00  0.00     0.136 C 
ATOM     10  S   UNL A   1      31.249  25.356  23.339  1.00  0.00    -0.053 S 
BRANCH   9  11
ATOM     11  N   UNL A   1      32.428  27.185  24.931  1.00  0.00    -0.358 N 
ATOM     12  C   UNL A   1      33.594  28.071  24.992  1.00  0.00     0.118 C 
ATOM     13  C   UNL A   1      31.285  27.628  25.738  1.00  0.00     0.118 C 
ATOM     14  C   UNL A   1      34.073  28.258  26.428  1.00  0.00     0.021 C 
ATOM     15  C   UNL A   1      31.712  27.814  27.198  1.00  0.00     0.021 C 
ATOM     16  C   UNL A   1      32.928  28.732  27.322  1.00  0.00     0.004 C 
ENDBRANCH   9  11
ENDBRANCH   8   9
ENDBRANCH   7   8
ENDBRANCH   5   7
ENDBRANCH   2   3
ENDBRANCH   1   2
BRANCH   1  17
ATOM     17  C   UNL A   1      38.028  19.692  24.983  1.00  0.00     0.023 C 
BRANCH  17  18
ATOM     18  C   UNL A   1      39.279  20.120  25.746  1.00  0.00     0.116 C 
BRANCH  18  19
ATOM     19  N   UNL A   1      40.281  19.071  25.848  1.00  0.00    -0.352 N 
ATOM     20  C   UNL A   1      41.628  19.168  26.101  1.00  0.00     0.251 C 
ATOM     21  H   UNL A   1      39.944  18.154  25.717  1.00  0.00     0.163 HD
ATOM     22  O   UNL A   1      42.340  18.169  26.032  1.00  0.00    -0.269 OA
BRANCH  20  23
ATOM     23  C   UNL A   1      42.240  20.478  26.423  1.00  0.00     0.039 A 
ATOM     24  C   UNL A   1      42.769  21.246  25.381  1.00  0.00     0.014 A 
ATOM     25  C   UNL A   1      42.297  20.953  27.736  1.00  0.00     0.014 A 
ATOM     26  C   UNL A   1      43.282  22.519  25.646  1.00  0.00     0.010 A 
ATOM     27  C   UNL A   1      42.738  22.251  27.987  1.00  0.00     0.010 A 
ATOM     28  C   UNL A   1      43.231  23.052  26.945  1.00  0.00    -0.014 A 
BRANCH  28  29
ATOM     29  C   UNL A   1      43.673  24.444  27.227  1.00  0.00     0.031 A 
ATOM     30  C   UNL A   1      42.694  25.465  27.739  1.00  0.00     0.074 A 
ATOM     31  C   UNL A   1      44.942  24.809  26.958  1.00  0.00     0.049 A 
ATOM     32  N   UNL A   1      42.874  26.741  27.976  1.00  0.00    -0.248 NA
ATOM     33  C   UNL A   1      41.324  24.996  27.997  1.00  0.00     0.031 C 
ATOM     34  C   UNL A   1      45.979  23.927  26.419  1.00  0.00     0.029 A 
ATOM     35  N   UNL A   1      45.577  26.020  27.092  1.00  0.00    -0.354 N 
ATOM     36  C   UNL A   1      41.643  27.227  28.395  1.00  0.00     0.074 A 
ATOM     37  C   UNL A   1      40.709  26.123  28.329  1.00  0.00     0.031 C 
ATOM     38  C   UNL A   1      47.123  24.617  26.292  1.00  0.00     0.029 A 
ATOM     39  C   UNL A   1      46.893  26.001  26.697  1.00  0.00     0.049 A 
ATOM     40  H   UNL A   1      45.130  26.826  27.438  1.00  0.00     0.167 HD
ATOM     41  C   UNL A   1      41.324  28.474  28.815  1.00  0.00     0.037 A 
ATOM     42  C   UNL A   1      47.808  26.989  26.655  1.00  0.00     0.037 A 
ATOM     43  C   UNL A   1      42.259  29.567  28.902  1.00  0.00     0.049 A 
ATOM     44  C   UNL A   1      47.420  28.371  27.107  1.00  0.00     0.074 A 
ATOM     45  C   UNL A   1      42.046  30.848  29.376  1.00  0.00     0.029 A 
ATOM     46  N   UNL A   1      43.585  29.505  28.498  1.00  0.00    -0.354 N 
ATOM     47  N   UNL A   1      46.270  28.800  27.570  1.00  0.00    -0.248 NA
ATOM     48  C   UNL A   1      48.459  29.407  27.036  1.00  0.00     0.031 C 
ATOM     49  C   UNL A   1      43.225  31.582  29.204  1.00  0.00     0.029 A 
ATOM     50  C   UNL A   1      44.192  30.738  28.683  1.00  0.00     0.049 A 
ATOM     51  H   UNL A   1      44.029  28.706  28.133  1.00  0.00     0.167 HD
ATOM     52  C   UNL A   1      46.459  30.141  27.877  1.00  0.00     0.074 A 
ATOM     53  C   UNL A   1      47.837  30.453  27.560  1.00  0.00     0.031 C 
ATOM     54  C   UNL A   1      45.569  31.035  28.376  1.00  0.00     0.037 A 
BRANCH  41  55
ATOM     55  C   UNL A   1      39.899  28.734  29.215  1.00  0.00     0.064 A 
ATOM     56  C   UNL A   1      38.945  29.194  28.294  1.00  0.00     0.173 A 
ATOM     57  C   UNL A   1      39.470  28.476  30.526  1.00  0.00     0.173 A 
ATOM     58  F   UNL A   1      39.303  29.466  27.030  1.00  0.00    -0.203 F 
ATOM     59  C   UNL A   1      37.624  29.413  28.678  1.00  0.00     0.198 A 
ATOM     60  C   UNL A   1      38.141  28.662  30.898  1.00  0.00     0.198 A 
ATOM     61  F   UNL A   1      40.337  28.028  31.447  1.00  0.00    -0.203 F 
ATOM     62  F   UNL A   1      36.743  29.900  27.793  1.00  0.00    -0.200 F 
ATOM     63  C   UNL A   1      37.221  29.139  29.976  1.00  0.00     0.200 A 
ATOM     64  F   UNL A   1      37.750  28.382  32.148  1.00  0.00    -0.200 F 
ATOM     65  F   UNL A   1      35.948  29.339  30.341  1.00  0.00    -0.200 F 
ENDBRANCH  41  55
BRANCH  42  66
ATOM     66  C   UNL A   1      49.190  26.707  26.183  1.00  0.00     0.064 A 
ATOM     67  C   UNL A   1      49.563  26.952  24.854  1.00  0.00     0.173 A 
ATOM     68  C   UNL A   1      50.161  26.168  27.042  1.00  0.00     0.173 A 
ATOM     69  F   UNL A   1      48.664  27.446  23.989  1.00  0.00    -0.203 F 
ATOM     70  C   UNL A   1      50.841  26.645  24.394  1.00  0.00     0.198 A 
ATOM     71  C   UNL A   1      51.449  25.892  26.590  1.00  0.00     0.198 A 
ATOM     72  F   UNL A   1      49.859  25.917  28.324  1.00  0.00    -0.203 F 
ATOM     73  F   UNL A   1      51.151  26.837  23.105  1.00  0.00    -0.200 F 
ATOM     74  C   UNL A   1      51.785  26.121  25.264  1.00  0.00     0.200 A 
ATOM     75  F   UNL A   1      52.363  25.399  27.436  1.00  0.00    -0.200 F 
ATOM     76  F   UNL A   1      53.016  25.825  24.821  1.00  0.00    -0.200 F 
ENDBRANCH  42  66
BRANCH  54  77
ATOM     77  C   UNL A   1      46.066  32.425  28.656  1.00  0.00     0.064 A 
ATOM     78  C   UNL A   1      46.645  32.769  29.887  1.00  0.00     0.173 A 
ATOM     79  C   UNL A   1      45.996  33.415  27.665  1.00  0.00     0.173 A 
ATOM     80  F   UNL A   1      46.723  31.864  30.874  1.00  0.00    -0.203 F 
ATOM     81  C   UNL A   1      47.108  34.061  30.123  1.00  0.00     0.198 A 
ATOM     82  C   UNL A   1      46.493  34.696  27.893  1.00  0.00     0.198 A 
ATOM     83  F   UNL A   1      45.459  33.137  26.467  1.00  0.00    -0.203 F 
ATOM     84  F   UNL A   1      47.608  34.381  31.325  1.00  0.00    -0.200 F 
ATOM     85  C   UNL A   1      47.040  35.020  29.124  1.00  0.00     0.200 A 
ATOM     86  F   UNL A   1      46.441  35.615  26.919  1.00  0.00    -0.200 F 
ATOM     87  F   UNL A   1      47.495  36.260  29.351  1.00  0.00    -0.200 F 
ENDBRANCH  54  77
ENDBRANCH  28  29
ENDBRANCH  20  23
ENDBRANCH  18  19
ENDBRANCH  17  18
ENDBRANCH   1  17
TORSDOF 14
ENDMDL
