MODEL 1
REMARK VINA RESULT:     -11.7      0.000      0.000
REMARK SMILES COc1ccc(-c2cccc(/C=C\C(=O)NCCCCNC(=O)c3ccc(-c4c5nc(c(-c6c(F)c(F)c(F)c(F)c6F)c6ccc([nH]6)c(-c6c(F)c(F)c(F)c(F)c6F)c6nc(c(-c7c(F)c(F)c(F)c(F)c7F)c7ccc4[nH]7)C=C6)C=C5)cc3)c2)c(Cl)c1OC
REMARK SMILES IDX 18 1 17 2 16 3 14 4 15 5 13 7 12 8 11 9 7 10 8 11 87 12 9 13
REMARK SMILES IDX 10 14 6 15 3 16 4 17 90 18 5 19 88 20 89 21 2 22 1 23 91 24
REMARK SMILES IDX 92 25 19 26 20 27 21 28 22 29 23 31 24 32 25 33 86 34 26 35
REMARK SMILES IDX 85 36 27 37 28 38 29 39 79 40 30 41 84 42 78 43 80 44 31 45
REMARK SMILES IDX 83 46 77 47 76 48 32 50 64 51 44 52 63 53 45 54 48 55 62 56
REMARK SMILES IDX 81 57 46 58 47 59 61 61 82 62 49 63 33 64 34 65 42 66 35 67
REMARK SMILES IDX 36 68 40 69 43 70 37 71 38 72 41 73 39 74 65 75 66 76 74 77
REMARK SMILES IDX 67 78 68 79 72 80 75 81 69 82 70 83 73 84 71 85 50 86 51 87
REMARK SMILES IDX 59 88 52 89 53 90 57 91 60 92 54 93 55 94 58 95 56 96
REMARK H PARENT 16 6 21 30 80 49 48 60
REMARK Flexibility Score: inf
ROOT
ATOM      1  C   UNL A   1      36.298  21.801  24.257  1.00  0.00     0.023 C 
ENDROOT
BRANCH   1   2
ATOM      2  C   UNL A   1      35.777  20.826  25.301  1.00  0.00     0.116 C 
BRANCH   2   3
ATOM      3  N   UNL A   1      35.171  21.425  26.470  1.00  0.00    -0.353 N 
ATOM      4  C   UNL A   1      33.879  21.365  26.897  1.00  0.00     0.243 C 
ATOM      5  O   UNL A   1      33.579  21.917  27.956  1.00  0.00    -0.270 OA
ATOM      6  H   UNL A   1      35.778  21.950  27.038  1.00  0.00     0.163 HD
BRANCH   4   7
ATOM      7  C   UNL A   1      32.781  20.753  26.091  1.00  0.00     0.072 C 
ATOM      8  C   UNL A   1      32.194  21.094  24.929  1.00  0.00     0.014 C 
BRANCH   8   9
ATOM      9  C   UNL A   1      32.465  22.270  24.097  1.00  0.00    -0.025 A 
ATOM     10  C   UNL A   1      32.877  24.686  23.960  1.00  0.00    -0.016 A 
ATOM     11  C   UNL A   1      33.394  24.454  22.665  1.00  0.00     0.009 A 
ATOM     12  C   UNL A   1      32.429  23.559  24.672  1.00  0.00     0.017 A 
ATOM     13  C   UNL A   1      33.304  23.209  22.044  1.00  0.00     0.001 A 
ATOM     14  C   UNL A   1      32.804  22.123  22.750  1.00  0.00     0.008 A 
BRANCH  10  15
ATOM     15  C   UNL A   1      32.695  26.093  24.425  1.00  0.00     0.004 A 
ATOM     16  C   UNL A   1      32.725  28.770  25.362  1.00  0.00     0.162 A 
ATOM     17  C   UNL A   1      33.777  27.916  25.663  1.00  0.00     0.051 A 
ATOM     18  C   UNL A   1      31.595  28.296  24.655  1.00  0.00     0.180 A 
ATOM     19  C   UNL A   1      33.770  26.622  25.175  1.00  0.00     0.014 A 
ATOM     20  C   UNL A   1      31.577  26.947  24.200  1.00  0.00     0.094 A 
ATOM     21  Cl  UNL A   1      30.149  26.267  23.476  1.00  0.00    -0.079 Cl
BRANCH  16  22
ATOM     22  O   UNL A   1      32.738  30.083  25.774  1.00  0.00    -0.493 OA
ATOM     23  C   UNL A   1      33.226  30.266  27.104  1.00  0.00     0.278 C 
ENDBRANCH  16  22
BRANCH  18  24
ATOM     24  O   UNL A   1      30.590  29.230  24.583  1.00  0.00    -0.491 OA
ATOM     25  C   UNL A   1      30.116  29.687  23.329  1.00  0.00     0.278 C 
ENDBRANCH  18  24
ENDBRANCH  10  15
ENDBRANCH   8   9
ENDBRANCH   4   7
ENDBRANCH   2   3
ENDBRANCH   1   2
BRANCH   1  26
ATOM     26  C   UNL A   1      36.205  23.287  24.608  1.00  0.00     0.023 C 
BRANCH  26  27
ATOM     27  C   UNL A   1      37.247  23.863  25.568  1.00  0.00     0.116 C 
BRANCH  27  28
ATOM     28  N   UNL A   1      38.477  23.095  25.682  1.00  0.00    -0.352 N 
ATOM     29  C   UNL A   1      39.646  23.387  26.356  1.00  0.00     0.251 C 
ATOM     30  H   UNL A   1      38.477  22.235  25.204  1.00  0.00     0.163 HD
ATOM     31  O   UNL A   1      40.574  22.598  26.359  1.00  0.00    -0.269 OA
BRANCH  29  32
ATOM     32  C   UNL A   1      39.792  24.688  27.052  1.00  0.00     0.039 A 
ATOM     33  C   UNL A   1      39.305  24.809  28.358  1.00  0.00     0.014 A 
ATOM     34  C   UNL A   1      40.422  25.771  26.437  1.00  0.00     0.014 A 
ATOM     35  C   UNL A   1      39.537  25.984  29.079  1.00  0.00     0.010 A 
ATOM     36  C   UNL A   1      40.719  26.910  27.182  1.00  0.00     0.010 A 
ATOM     37  C   UNL A   1      40.290  27.026  28.514  1.00  0.00    -0.014 A 
BRANCH  37  38
ATOM     38  C   UNL A   1      40.653  28.235  29.300  1.00  0.00     0.031 A 
ATOM     39  C   UNL A   1      42.013  28.346  29.930  1.00  0.00     0.074 A 
ATOM     40  C   UNL A   1      39.728  29.192  29.517  1.00  0.00     0.049 A 
ATOM     41  N   UNL A   1      42.490  29.277  30.719  1.00  0.00    -0.248 NA
ATOM     42  C   UNL A   1      42.953  27.245  29.667  1.00  0.00     0.031 C 
ATOM     43  C   UNL A   1      38.354  29.169  29.016  1.00  0.00     0.029 A 
ATOM     44  N   UNL A   1      39.801  30.364  30.229  1.00  0.00    -0.354 N 
ATOM     45  C   UNL A   1      43.771  28.864  31.062  1.00  0.00     0.074 A 
ATOM     46  C   UNL A   1      43.977  27.573  30.442  1.00  0.00     0.031 C 
ATOM     47  C   UNL A   1      37.719  30.284  29.414  1.00  0.00     0.029 A 
ATOM     48  C   UNL A   1      38.631  31.086  30.224  1.00  0.00     0.049 A 
ATOM     49  H   UNL A   1      40.614  30.660  30.698  1.00  0.00     0.167 HD
ATOM     50  C   UNL A   1      44.700  29.512  31.804  1.00  0.00     0.037 A 
ATOM     51  C   UNL A   1      38.331  32.262  30.806  1.00  0.00     0.037 A 
ATOM     52  C   UNL A   1      44.501  30.811  32.393  1.00  0.00     0.049 A 
ATOM     53  C   UNL A   1      39.392  32.981  31.596  1.00  0.00     0.074 A 
ATOM     54  C   UNL A   1      45.395  31.579  33.118  1.00  0.00     0.029 A 
ATOM     55  N   UNL A   1      43.319  31.536  32.319  1.00  0.00    -0.354 N 
ATOM     56  N   UNL A   1      40.623  32.611  31.855  1.00  0.00    -0.248 NA
ATOM     57  C   UNL A   1      39.027  34.288  32.160  1.00  0.00     0.031 C 
ATOM     58  C   UNL A   1      44.744  32.753  33.512  1.00  0.00     0.029 A 
ATOM     59  C   UNL A   1      43.460  32.740  32.991  1.00  0.00     0.049 A 
ATOM     60  H   UNL A   1      42.502  31.238  31.858  1.00  0.00     0.167 HD
ATOM     61  C   UNL A   1      41.189  33.650  32.581  1.00  0.00     0.074 A 
ATOM     62  C   UNL A   1      40.171  34.672  32.709  1.00  0.00     0.031 C 
ATOM     63  C   UNL A   1      42.439  33.751  33.094  1.00  0.00     0.037 A 
BRANCH  50  64
ATOM     64  C   UNL A   1      46.021  28.826  32.014  1.00  0.00     0.064 A 
ATOM     65  C   UNL A   1      47.090  29.004  31.121  1.00  0.00     0.173 A 
ATOM     66  C   UNL A   1      46.229  27.999  33.127  1.00  0.00     0.173 A 
ATOM     67  F   UNL A   1      46.942  29.775  30.034  1.00  0.00    -0.203 F 
ATOM     68  C   UNL A   1      48.304  28.349  31.316  1.00  0.00     0.198 A 
ATOM     69  C   UNL A   1      47.455  27.371  33.336  1.00  0.00     0.198 A 
ATOM     70  F   UNL A   1      45.244  27.799  34.016  1.00  0.00    -0.203 F 
ATOM     71  F   UNL A   1      49.289  28.487  30.418  1.00  0.00    -0.200 F 
ATOM     72  C   UNL A   1      48.488  27.539  32.426  1.00  0.00     0.200 A 
ATOM     73  F   UNL A   1      47.636  26.600  34.417  1.00  0.00    -0.200 F 
ATOM     74  F   UNL A   1      49.656  26.912  32.613  1.00  0.00    -0.200 F 
ENDBRANCH  50  64
BRANCH  51  75
ATOM     75  C   UNL A   1      36.981  32.861  30.624  1.00  0.00     0.064 A 
ATOM     76  C   UNL A   1      35.997  32.723  31.615  1.00  0.00     0.173 A 
ATOM     77  C   UNL A   1      36.646  33.578  29.468  1.00  0.00     0.173 A 
ATOM     78  F   UNL A   1      36.263  32.030  32.732  1.00  0.00    -0.203 F 
ATOM     79  C   UNL A   1      34.722  33.260  31.443  1.00  0.00     0.198 A 
ATOM     80  C   UNL A   1      35.379  34.138  29.310  1.00  0.00     0.198 A 
ATOM     81  F   UNL A   1      37.552  33.743  28.494  1.00  0.00    -0.203 F 
ATOM     82  F   UNL A   1      33.788  33.073  32.385  1.00  0.00    -0.200 F 
ATOM     83  C   UNL A   1      34.416  33.971  30.294  1.00  0.00     0.200 A 
ATOM     84  F   UNL A   1      35.090  34.837  28.203  1.00  0.00    -0.200 F 
ATOM     85  F   UNL A   1      33.190  34.490  30.132  1.00  0.00    -0.200 F 
ENDBRANCH  51  75
BRANCH  63  86
ATOM     86  C   UNL A   1      42.791  35.029  33.798  1.00  0.00     0.064 A 
ATOM     87  C   UNL A   1      42.693  35.158  35.191  1.00  0.00     0.173 A 
ATOM     88  C   UNL A   1      43.261  36.132  33.066  1.00  0.00     0.173 A 
ATOM     89  F   UNL A   1      42.236  34.137  35.932  1.00  0.00    -0.203 F 
ATOM     90  C   UNL A   1      43.023  36.354  35.823  1.00  0.00     0.198 A 
ATOM     91  C   UNL A   1      43.619  37.314  33.706  1.00  0.00     0.198 A 
ATOM     92  F   UNL A   1      43.380  36.058  31.732  1.00  0.00    -0.203 F 
ATOM     93  F   UNL A   1      42.872  36.472  37.150  1.00  0.00    -0.200 F 
ATOM     94  C   UNL A   1      43.491  37.428  35.081  1.00  0.00     0.200 A 
ATOM     95  F   UNL A   1      44.084  38.347  32.988  1.00  0.00    -0.200 F 
ATOM     96  F   UNL A   1      43.812  38.577  35.693  1.00  0.00    -0.200 F 
ENDBRANCH  63  86
ENDBRANCH  37  38
ENDBRANCH  29  32
ENDBRANCH  27  28
ENDBRANCH  26  27
ENDBRANCH   1  26
TORSDOF 15
ENDMDL
MODEL 2
REMARK VINA RESULT:     -11.7      3.272      9.001
REMARK SMILES COc1ccc(-c2cccc(/C=C\C(=O)NCCCCNC(=O)c3ccc(-c4c5nc(c(-c6c(F)c(F)c(F)c(F)c6F)c6ccc([nH]6)c(-c6c(F)c(F)c(F)c(F)c6F)c6nc(c(-c7c(F)c(F)c(F)c(F)c7F)c7ccc4[nH]7)C=C6)C=C5)cc3)c2)c(Cl)c1OC
REMARK SMILES IDX 18 1 17 2 16 3 14 4 15 5 13 7 12 8 11 9 7 10 8 11 87 12 9 13
REMARK SMILES IDX 10 14 6 15 3 16 4 17 90 18 5 19 88 20 89 21 2 22 1 23 91 24
REMARK SMILES IDX 92 25 19 26 20 27 21 28 22 29 23 31 24 32 25 33 86 34 26 35
REMARK SMILES IDX 85 36 27 37 28 38 29 39 79 40 30 41 84 42 78 43 80 44 31 45
REMARK SMILES IDX 83 46 77 47 76 48 32 50 64 51 44 52 63 53 45 54 48 55 62 56
REMARK SMILES IDX 81 57 46 58 47 59 61 61 82 62 49 63 33 64 34 65 42 66 35 67
REMARK SMILES IDX 36 68 40 69 43 70 37 71 38 72 41 73 39 74 65 75 66 76 74 77
REMARK SMILES IDX 67 78 68 79 72 80 75 81 69 82 70 83 73 84 71 85 50 86 51 87
REMARK SMILES IDX 59 88 52 89 53 90 57 91 60 92 54 93 55 94 58 95 56 96
REMARK H PARENT 16 6 21 30 80 49 48 60
REMARK Flexibility Score: inf
ROOT
ATOM      1  C   UNL A   1      32.477  28.946  24.921  1.00  0.00     0.023 C 
ENDROOT
BRANCH   1   2
ATOM      2  C   UNL A   1      31.194  29.744  24.747  1.00  0.00     0.116 C 
BRANCH   2   3
ATOM      3  N   UNL A   1      30.696  29.840  23.393  1.00  0.00    -0.353 N 
ATOM      4  C   UNL A   1      29.727  29.107  22.777  1.00  0.00     0.243 C 
ATOM      5  O   UNL A   1      29.421  29.387  21.617  1.00  0.00    -0.270 OA
ATOM      6  H   UNL A   1      31.116  30.535  22.837  1.00  0.00     0.163 HD
BRANCH   4   7
ATOM      7  C   UNL A   1      29.090  27.911  23.401  1.00  0.00     0.072 C 
ATOM      8  C   UNL A   1      29.492  26.638  23.568  1.00  0.00     0.014 C 
BRANCH   8   9
ATOM      9  C   UNL A   1      30.742  26.022  23.112  1.00  0.00    -0.025 A 
ATOM     10  C   UNL A   1      32.190  24.042  23.026  1.00  0.00    -0.016 A 
ATOM     11  C   UNL A   1      32.854  24.661  21.942  1.00  0.00     0.009 A 
ATOM     12  C   UNL A   1      31.111  24.746  23.589  1.00  0.00     0.017 A 
ATOM     13  C   UNL A   1      32.583  25.974  21.559  1.00  0.00     0.001 A 
ATOM     14  C   UNL A   1      31.548  26.668  22.171  1.00  0.00     0.008 A 
BRANCH  10  15
ATOM     15  C   UNL A   1      32.754  22.783  23.598  1.00  0.00     0.004 A 
ATOM     16  C   UNL A   1      33.622  20.212  24.419  1.00  0.00     0.162 A 
ATOM     17  C   UNL A   1      32.454  20.348  23.683  1.00  0.00     0.051 A 
ATOM     18  C   UNL A   1      34.348  21.353  24.833  1.00  0.00     0.180 A 
ATOM     19  C   UNL A   1      32.055  21.603  23.258  1.00  0.00     0.014 A 
ATOM     20  C   UNL A   1      33.900  22.643  24.433  1.00  0.00     0.094 A 
ATOM     21  Cl  UNL A   1      34.654  24.084  25.051  1.00  0.00    -0.079 Cl
BRANCH  16  22
ATOM     22  O   UNL A   1      34.082  18.969  24.795  1.00  0.00    -0.493 OA
ATOM     23  C   UNL A   1      33.046  18.063  25.177  1.00  0.00     0.278 C 
ENDBRANCH  16  22
BRANCH  18  24
ATOM     24  O   UNL A   1      35.384  21.039  25.680  1.00  0.00    -0.491 OA
ATOM     25  C   UNL A   1      36.729  21.163  25.255  1.00  0.00     0.278 C 
ENDBRANCH  18  24
ENDBRANCH  10  15
ENDBRANCH   8   9
ENDBRANCH   4   7
ENDBRANCH   2   3
ENDBRANCH   1   2
BRANCH   1  26
ATOM     26  C   UNL A   1      32.557  28.046  26.156  1.00  0.00     0.023 C 
BRANCH  26  27
ATOM     27  C   UNL A   1      33.542  28.430  27.261  1.00  0.00     0.116 C 
BRANCH  27  28
ATOM     28  N   UNL A   1      33.517  29.831  27.653  1.00  0.00    -0.352 N 
ATOM     29  C   UNL A   1      34.531  30.636  28.134  1.00  0.00     0.251 C 
ATOM     30  H   UNL A   1      32.643  30.274  27.563  1.00  0.00     0.163 HD
ATOM     31  O   UNL A   1      34.325  31.809  28.387  1.00  0.00    -0.269 OA
BRANCH  29  32
ATOM     32  C   UNL A   1      35.875  30.061  28.381  1.00  0.00     0.039 A 
ATOM     33  C   UNL A   1      36.834  30.133  27.365  1.00  0.00     0.014 A 
ATOM     34  C   UNL A   1      36.198  29.478  29.608  1.00  0.00     0.014 A 
ATOM     35  C   UNL A   1      38.143  29.710  27.614  1.00  0.00     0.010 A 
ATOM     36  C   UNL A   1      37.519  29.127  29.879  1.00  0.00     0.010 A 
ATOM     37  C   UNL A   1      38.509  29.248  28.889  1.00  0.00    -0.014 A 
BRANCH  37  38
ATOM     38  C   UNL A   1      39.918  28.905  29.214  1.00  0.00     0.031 A 
ATOM     39  C   UNL A   1      40.773  29.870  29.988  1.00  0.00     0.074 A 
ATOM     40  C   UNL A   1      40.453  27.762  28.740  1.00  0.00     0.049 A 
ATOM     41  N   UNL A   1      42.043  29.792  30.297  1.00  0.00    -0.248 NA
ATOM     42  C   UNL A   1      40.120  31.107  30.445  1.00  0.00     0.031 C 
ATOM     43  C   UNL A   1      39.747  26.774  27.922  1.00  0.00     0.029 A 
ATOM     44  N   UNL A   1      41.719  27.244  28.865  1.00  0.00    -0.354 N 
ATOM     45  C   UNL A   1      42.344  30.974  30.962  1.00  0.00     0.074 A 
ATOM     46  C   UNL A   1      41.140  31.776  30.963  1.00  0.00     0.031 C 
ATOM     47  C   UNL A   1      40.581  25.759  27.638  1.00  0.00     0.029 A 
ATOM     48  C   UNL A   1      41.887  26.038  28.227  1.00  0.00     0.049 A 
ATOM     49  H   UNL A   1      42.438  27.694  29.364  1.00  0.00     0.167 HD
ATOM     50  C   UNL A   1      43.510  31.346  31.542  1.00  0.00     0.037 A 
ATOM     51  C   UNL A   1      42.972  25.247  28.130  1.00  0.00     0.037 A 
ATOM     52  C   UNL A   1      44.697  30.531  31.565  1.00  0.00     0.049 A 
ATOM     53  C   UNL A   1      44.247  25.666  28.814  1.00  0.00     0.074 A 
ATOM     54  C   UNL A   1      45.914  30.790  32.172  1.00  0.00     0.029 A 
ATOM     55  N   UNL A   1      44.812  29.290  30.954  1.00  0.00    -0.354 N 
ATOM     56  N   UNL A   1      44.499  26.755  29.499  1.00  0.00    -0.248 NA
ATOM     57  C   UNL A   1      45.382  24.738  28.724  1.00  0.00     0.031 C 
ATOM     58  C   UNL A   1      46.776  29.723  31.899  1.00  0.00     0.029 A 
ATOM     59  C   UNL A   1      46.081  28.775  31.165  1.00  0.00     0.049 A 
ATOM     60  H   UNL A   1      44.096  28.842  30.448  1.00  0.00     0.167 HD
ATOM     61  C   UNL A   1      45.805  26.629  29.950  1.00  0.00     0.074 A 
ATOM     62  C   UNL A   1      46.289  25.350  29.472  1.00  0.00     0.031 C 
ATOM     63  C   UNL A   1      46.539  27.492  30.693  1.00  0.00     0.037 A 
BRANCH  50  64
ATOM     64  C   UNL A   1      43.555  32.694  32.206  1.00  0.00     0.064 A 
ATOM     65  C   UNL A   1      43.236  32.855  33.563  1.00  0.00     0.173 A 
ATOM     66  C   UNL A   1      43.939  33.834  31.485  1.00  0.00     0.173 A 
ATOM     67  F   UNL A   1      42.851  31.799  34.296  1.00  0.00    -0.203 F 
ATOM     68  C   UNL A   1      43.263  34.112  34.164  1.00  0.00     0.198 A 
ATOM     69  C   UNL A   1      43.997  35.085  32.096  1.00  0.00     0.198 A 
ATOM     70  F   UNL A   1      44.262  33.738  30.186  1.00  0.00    -0.203 F 
ATOM     71  F   UNL A   1      42.896  34.248  35.445  1.00  0.00    -0.200 F 
ATOM     72  C   UNL A   1      43.650  35.224  33.432  1.00  0.00     0.200 A 
ATOM     73  F   UNL A   1      44.384  36.157  31.392  1.00  0.00    -0.200 F 
ATOM     74  F   UNL A   1      43.678  36.431  34.011  1.00  0.00    -0.200 F 
ENDBRANCH  50  64
BRANCH  51  75
ATOM     75  C   UNL A   1      42.891  23.956  27.397  1.00  0.00     0.064 A 
ATOM     76  C   UNL A   1      43.281  23.868  26.052  1.00  0.00     0.173 A 
ATOM     77  C   UNL A   1      42.425  22.788  28.018  1.00  0.00     0.173 A 
ATOM     78  F   UNL A   1      43.715  24.962  25.409  1.00  0.00    -0.203 F 
ATOM     79  C   UNL A   1      43.185  22.668  25.351  1.00  0.00     0.198 A 
ATOM     80  C   UNL A   1      42.357  21.581  27.323  1.00  0.00     0.198 A 
ATOM     81  F   UNL A   1      42.046  22.816  29.303  1.00  0.00    -0.203 F 
ATOM     82  F   UNL A   1      43.521  22.624  24.055  1.00  0.00    -0.200 F 
ATOM     83  C   UNL A   1      42.729  21.524  25.988  1.00  0.00     0.200 A 
ATOM     84  F   UNL A   1      41.928  20.475  27.945  1.00  0.00    -0.200 F 
ATOM     85  F   UNL A   1      42.641  20.369  25.313  1.00  0.00    -0.200 F 
ENDBRANCH  51  75
BRANCH  63  86
ATOM     86  C   UNL A   1      47.924  27.061  31.078  1.00  0.00     0.064 A 
ATOM     87  C   UNL A   1      48.160  26.232  32.185  1.00  0.00     0.173 A 
ATOM     88  C   UNL A   1      49.028  27.463  30.310  1.00  0.00     0.173 A 
ATOM     89  F   UNL A   1      47.139  25.833  32.958  1.00  0.00    -0.203 F 
ATOM     90  C   UNL A   1      49.453  25.846  32.525  1.00  0.00     0.198 A 
ATOM     91  C   UNL A   1      50.316  27.050  30.637  1.00  0.00     0.198 A 
ATOM     92  F   UNL A   1      48.856  28.251  29.238  1.00  0.00    -0.203 F 
ATOM     93  F   UNL A   1      49.660  25.096  33.617  1.00  0.00    -0.200 F 
ATOM     94  C   UNL A   1      50.528  26.249  31.748  1.00  0.00     0.200 A 
ATOM     95  F   UNL A   1      51.353  27.430  29.877  1.00  0.00    -0.200 F 
ATOM     96  F   UNL A   1      51.773  25.873  32.077  1.00  0.00    -0.200 F 
ENDBRANCH  63  86
ENDBRANCH  37  38
ENDBRANCH  29  32
ENDBRANCH  27  28
ENDBRANCH  26  27
ENDBRANCH   1  26
TORSDOF 15
ENDMDL
MODEL 3
REMARK VINA RESULT:     -11.6      3.851      8.758
REMARK SMILES COc1ccc(-c2cccc(/C=C\C(=O)NCCCCNC(=O)c3ccc(-c4c5nc(c(-c6c(F)c(F)c(F)c(F)c6F)c6ccc([nH]6)c(-c6c(F)c(F)c(F)c(F)c6F)c6nc(c(-c7c(F)c(F)c(F)c(F)c7F)c7ccc4[nH]7)C=C6)C=C5)cc3)c2)c(Cl)c1OC
REMARK SMILES IDX 18 1 17 2 16 3 14 4 15 5 13 7 12 8 11 9 7 10 8 11 87 12 9 13
REMARK SMILES IDX 10 14 6 15 3 16 4 17 90 18 5 19 88 20 89 21 2 22 1 23 91 24
REMARK SMILES IDX 92 25 19 26 20 27 21 28 22 29 23 31 24 32 25 33 86 34 26 35
REMARK SMILES IDX 85 36 27 37 28 38 29 39 79 40 30 41 84 42 78 43 80 44 31 45
REMARK SMILES IDX 83 46 77 47 76 48 32 50 64 51 44 52 63 53 45 54 48 55 62 56
REMARK SMILES IDX 81 57 46 58 47 59 61 61 82 62 49 63 33 64 34 65 42 66 35 67
REMARK SMILES IDX 36 68 40 69 43 70 37 71 38 72 41 73 39 74 65 75 66 76 74 77
REMARK SMILES IDX 67 78 68 79 72 80 75 81 69 82 70 83 73 84 71 85 50 86 51 87
REMARK SMILES IDX 59 88 52 89 53 90 57 91 60 92 54 93 55 94 58 95 56 96
REMARK H PARENT 16 6 21 30 80 49 48 60
REMARK Flexibility Score: inf
ROOT
ATOM      1  C   UNL A   1      36.989  21.209  24.455  1.00  0.00     0.023 C 
ENDROOT
BRANCH   1   2
ATOM      2  C   UNL A   1      35.850  21.718  25.324  1.00  0.00     0.116 C 
BRANCH   2   3
ATOM      3  N   UNL A   1      34.940  20.708  25.817  1.00  0.00    -0.353 N 
ATOM      4  C   UNL A   1      33.837  20.176  25.221  1.00  0.00     0.243 C 
ATOM      5  O   UNL A   1      33.221  19.282  25.804  1.00  0.00    -0.270 OA
ATOM      6  H   UNL A   1      35.147  20.354  26.712  1.00  0.00     0.163 HD
BRANCH   4   7
ATOM      7  C   UNL A   1      33.273  20.694  23.940  1.00  0.00     0.072 C 
ATOM      8  C   UNL A   1      32.495  21.750  23.639  1.00  0.00     0.014 C 
BRANCH   8   9
ATOM      9  C   UNL A   1      31.910  22.728  24.562  1.00  0.00    -0.025 A 
ATOM     10  C   UNL A   1      30.937  24.954  24.911  1.00  0.00    -0.016 A 
ATOM     11  C   UNL A   1      30.417  24.459  26.128  1.00  0.00     0.009 A 
ATOM     12  C   UNL A   1      31.676  24.050  24.127  1.00  0.00     0.017 A 
ATOM     13  C   UNL A   1      30.760  23.202  26.624  1.00  0.00     0.001 A 
ATOM     14  C   UNL A   1      31.539  22.349  25.855  1.00  0.00     0.008 A 
BRANCH  10  15
ATOM     15  C   UNL A   1      30.810  26.411  24.608  1.00  0.00     0.004 A 
ATOM     16  C   UNL A   1      30.225  29.094  23.900  1.00  0.00     0.162 A 
ATOM     17  C   UNL A   1      29.526  28.051  23.310  1.00  0.00     0.051 A 
ATOM     18  C   UNL A   1      31.284  28.830  24.799  1.00  0.00     0.180 A 
ATOM     19  C   UNL A   1      29.795  26.746  23.685  1.00  0.00     0.014 A 
ATOM     20  C   UNL A   1      31.586  27.482  25.140  1.00  0.00     0.094 A 
ATOM     21  Cl  UNL A   1      32.981  27.093  26.104  1.00  0.00    -0.079 Cl
BRANCH  16  22
ATOM     22  O   UNL A   1      29.930  30.405  23.599  1.00  0.00    -0.493 OA
ATOM     23  C   UNL A   1      28.581  30.609  23.175  1.00  0.00     0.278 C 
ENDBRANCH  16  22
BRANCH  18  24
ATOM     24  O   UNL A   1      31.961  29.970  25.163  1.00  0.00    -0.491 OA
ATOM     25  C   UNL A   1      31.868  30.475  26.483  1.00  0.00     0.278 C 
ENDBRANCH  18  24
ENDBRANCH  10  15
ENDBRANCH   8   9
ENDBRANCH   4   7
ENDBRANCH   2   3
ENDBRANCH   1   2
BRANCH   1  26
ATOM     26  C   UNL A   1      37.786  20.023  25.003  1.00  0.00     0.023 C 
BRANCH  26  27
ATOM     27  C   UNL A   1      39.096  20.316  25.736  1.00  0.00     0.116 C 
BRANCH  27  28
ATOM     28  N   UNL A   1      40.051  19.218  25.760  1.00  0.00    -0.352 N 
ATOM     29  C   UNL A   1      41.395  19.220  26.076  1.00  0.00     0.251 C 
ATOM     30  H   UNL A   1      39.683  18.340  25.512  1.00  0.00     0.163 HD
ATOM     31  O   UNL A   1      42.035  18.183  26.066  1.00  0.00    -0.269 OA
BRANCH  29  32
ATOM     32  C   UNL A   1      42.078  20.497  26.394  1.00  0.00     0.039 A 
ATOM     33  C   UNL A   1      42.576  21.272  25.341  1.00  0.00     0.014 A 
ATOM     34  C   UNL A   1      42.205  20.941  27.711  1.00  0.00     0.014 A 
ATOM     35  C   UNL A   1      43.114  22.535  25.604  1.00  0.00     0.010 A 
ATOM     36  C   UNL A   1      42.671  22.230  27.963  1.00  0.00     0.010 A 
ATOM     37  C   UNL A   1      43.121  23.046  26.912  1.00  0.00    -0.014 A 
BRANCH  37  38
ATOM     38  C   UNL A   1      43.577  24.431  27.202  1.00  0.00     0.031 A 
ATOM     39  C   UNL A   1      42.612  25.446  27.750  1.00  0.00     0.074 A 
ATOM     40  C   UNL A   1      44.837  24.797  26.891  1.00  0.00     0.049 A 
ATOM     41  N   UNL A   1      42.794  26.720  27.988  1.00  0.00    -0.248 NA
ATOM     42  C   UNL A   1      41.250  24.971  28.035  1.00  0.00     0.031 C 
ATOM     43  C   UNL A   1      45.848  23.924  26.294  1.00  0.00     0.029 A 
ATOM     44  N   UNL A   1      45.478  26.005  27.021  1.00  0.00    -0.354 N 
ATOM     45  C   UNL A   1      41.567  27.202  28.428  1.00  0.00     0.074 A 
ATOM     46  C   UNL A   1      40.636  26.096  28.371  1.00  0.00     0.031 C 
ATOM     47  C   UNL A   1      46.989  24.616  26.131  1.00  0.00     0.029 A 
ATOM     48  C   UNL A   1      46.780  25.988  26.582  1.00  0.00     0.049 A 
ATOM     49  H   UNL A   1      45.046  26.807  27.393  1.00  0.00     0.167 HD
ATOM     50  C   UNL A   1      41.252  28.444  28.865  1.00  0.00     0.037 A 
ATOM     51  C   UNL A   1      47.702  26.969  26.551  1.00  0.00     0.037 A 
ATOM     52  C   UNL A   1      42.191  29.533  28.949  1.00  0.00     0.049 A 
ATOM     53  C   UNL A   1      47.338  28.333  27.076  1.00  0.00     0.074 A 
ATOM     54  C   UNL A   1      41.989  30.816  29.427  1.00  0.00     0.029 A 
ATOM     55  N   UNL A   1      43.518  29.462  28.547  1.00  0.00    -0.354 N 
ATOM     56  N   UNL A   1      46.193  28.757  27.553  1.00  0.00    -0.248 NA
ATOM     57  C   UNL A   1      48.400  29.349  27.070  1.00  0.00     0.031 C 
ATOM     58  C   UNL A   1      43.182  31.531  29.282  1.00  0.00     0.029 A 
ATOM     59  C   UNL A   1      44.143  30.680  28.760  1.00  0.00     0.049 A 
ATOM     60  H   UNL A   1      43.950  28.663  28.166  1.00  0.00     0.167 HD
ATOM     61  C   UNL A   1      46.404  30.074  27.937  1.00  0.00     0.074 A 
ATOM     62  C   UNL A   1      47.791  30.375  27.649  1.00  0.00     0.031 C 
ATOM     63  C   UNL A   1      45.529  30.955  28.480  1.00  0.00     0.037 A 
BRANCH  50  64
ATOM     64  C   UNL A   1      39.832  28.690  29.292  1.00  0.00     0.064 A 
ATOM     65  C   UNL A   1      39.414  28.466  30.613  1.00  0.00     0.173 A 
ATOM     66  C   UNL A   1      38.883  29.171  28.378  1.00  0.00     0.173 A 
ATOM     67  F   UNL A   1      40.278  27.995  31.525  1.00  0.00    -0.203 F 
ATOM     68  C   UNL A   1      38.091  28.679  30.993  1.00  0.00     0.198 A 
ATOM     69  C   UNL A   1      37.569  29.415  28.769  1.00  0.00     0.198 A 
ATOM     70  F   UNL A   1      39.230  29.409  27.103  1.00  0.00    -0.203 F 
ATOM     71  F   UNL A   1      37.702  28.402  32.246  1.00  0.00    -0.200 F 
ATOM     72  C   UNL A   1      37.171  29.159  30.073  1.00  0.00     0.200 A 
ATOM     73  F   UNL A   1      36.684  29.891  27.883  1.00  0.00    -0.200 F 
ATOM     74  F   UNL A   1      35.900  29.366  30.441  1.00  0.00    -0.200 F 
ENDBRANCH  50  64
BRANCH  51  75
ATOM     75  C   UNL A   1      49.074  26.688  26.049  1.00  0.00     0.064 A 
ATOM     76  C   UNL A   1      50.030  26.082  26.877  1.00  0.00     0.173 A 
ATOM     77  C   UNL A   1      49.458  27.016  24.742  1.00  0.00     0.173 A 
ATOM     78  F   UNL A   1      49.716  25.766  28.143  1.00  0.00    -0.203 F 
ATOM     79  C   UNL A   1      51.325  25.836  26.424  1.00  0.00     0.198 A 
ATOM     80  C   UNL A   1      50.746  26.744  24.281  1.00  0.00     0.198 A 
ATOM     81  F   UNL A   1      48.581  27.592  23.908  1.00  0.00    -0.203 F 
ATOM     82  F   UNL A   1      52.231  25.299  27.252  1.00  0.00    -0.200 F 
ATOM     83  C   UNL A   1      51.680  26.162  25.125  1.00  0.00     0.200 A 
ATOM     84  F   UNL A   1      51.082  27.049  23.020  1.00  0.00    -0.200 F 
ATOM     85  F   UNL A   1      52.925  25.922  24.689  1.00  0.00    -0.200 F 
ENDBRANCH  51  75
BRANCH  63  86
ATOM     86  C   UNL A   1      46.059  32.312  28.845  1.00  0.00     0.064 A 
ATOM     87  C   UNL A   1      46.031  33.383  27.940  1.00  0.00     0.173 A 
ATOM     88  C   UNL A   1      46.575  32.547  30.129  1.00  0.00     0.173 A 
ATOM     89  F   UNL A   1      45.560  33.205  26.697  1.00  0.00    -0.203 F 
ATOM     90  C   UNL A   1      46.530  34.633  28.299  1.00  0.00     0.198 A 
ATOM     91  C   UNL A   1      47.044  33.806  30.492  1.00  0.00     0.198 A 
ATOM     92  F   UNL A   1      46.617  31.557  31.033  1.00  0.00    -0.203 F 
ATOM     93  F   UNL A   1      46.541  35.630  27.401  1.00  0.00    -0.200 F 
ATOM     94  C   UNL A   1      47.029  34.844  29.575  1.00  0.00     0.200 A 
ATOM     95  F   UNL A   1      47.514  34.011  31.730  1.00  0.00    -0.200 F 
ATOM     96  F   UNL A   1      47.505  36.050  29.918  1.00  0.00    -0.200 F 
ENDBRANCH  63  86
ENDBRANCH  37  38
ENDBRANCH  29  32
ENDBRANCH  27  28
ENDBRANCH  26  27
ENDBRANCH   1  26
TORSDOF 15
ENDMDL
