MODEL 1
REMARK VINA RESULT:     -11.4      0.000      0.000
REMARK SMILES CC(C)(C)[NH2+]Cc1cc(C(=O)NCCCCNC(=O)c2ccc(-c3c4nc(c(-c5c(F)c(F)c(F)c(F)c5F)c5ccc([nH]5)c(-c5c(F)c(F)c(F)c(F)c5F)c5nc(c(-c6c(F)c(F)c(F)c(F)c6F)c6ccc3[nH]6)C=C5)C=C4)cc2)cs1
REMARK SMILES IDX 14 1 13 2 12 3 10 4 11 5 9 7 7 8 8 9 84 10 83 11 6 12 5 13
REMARK SMILES IDX 2 16 1 17 3 18 4 19 15 20 16 21 17 22 18 23 19 25 20 26
REMARK SMILES IDX 21 27 82 28 22 29 81 30 23 31 24 32 25 33 75 34 26 35 80 36
REMARK SMILES IDX 74 37 76 38 27 39 79 40 73 41 72 42 28 44 60 45 40 46 59 47
REMARK SMILES IDX 41 48 44 49 58 50 77 51 42 52 43 53 57 55 78 56 45 57 29 58
REMARK SMILES IDX 30 59 38 60 31 61 32 62 36 63 39 64 33 65 34 66 37 67 35 68
REMARK SMILES IDX 61 69 62 70 70 71 63 72 64 73 68 74 71 75 65 76 66 77 69 78
REMARK SMILES IDX 67 79 46 80 47 81 55 82 48 83 49 84 53 85 56 86 50 87 51 88
REMARK SMILES IDX 54 89 52 90
REMARK H PARENT 12 6 5 14 5 15 17 24 76 43 44 54
REMARK Flexibility Score: inf
ROOT
ATOM      1  C   UNL A   1      36.789  20.450  25.063  1.00  0.00     0.023 C 
ENDROOT
BRANCH   1   2
ATOM      2  C   UNL A   1      36.736  21.943  25.361  1.00  0.00     0.116 C 
BRANCH   2   3
ATOM      3  N   UNL A   1      36.329  22.719  24.204  1.00  0.00    -0.352 N 
ATOM      4  C   UNL A   1      35.094  22.896  23.620  1.00  0.00     0.252 C 
ATOM      5  O   UNL A   1      34.993  23.765  22.758  1.00  0.00    -0.269 OA
ATOM      6  H   UNL A   1      37.062  23.204  23.761  1.00  0.00     0.163 HD
BRANCH   4   7
ATOM      7  C   UNL A   1      33.937  22.137  24.091  1.00  0.00     0.051 A 
ATOM      8  C   UNL A   1      32.711  20.283  24.784  1.00  0.00     0.059 A 
ATOM      9  C   UNL A   1      33.576  20.776  23.825  1.00  0.00     0.035 A 
ATOM     10  S   UNL A   1      31.880  21.570  25.548  1.00  0.00    -0.142 S 
ATOM     11  C   UNL A   1      32.966  22.717  24.891  1.00  0.00     0.079 A 
BRANCH   8  12
ATOM     12  C   UNL A   1      32.462  18.859  25.181  1.00  0.00     0.308 C 
BRANCH  12  13
ATOM     13  N   UNL A   1      33.701  18.135  25.494  1.00  0.00    -0.338 N 
ATOM     14  H   UNL A   1      34.473  18.713  25.162  1.00  0.00     0.347 HD
ATOM     15  H   UNL A   1      33.638  17.978  26.500  1.00  0.00     0.347 HD
BRANCH  13  16
ATOM     16  C   UNL A   1      33.914  16.782  24.948  1.00  0.00     0.088 C 
ATOM     17  C   UNL A   1      32.827  15.813  25.438  1.00  0.00     0.078 C 
ATOM     18  C   UNL A   1      35.283  16.143  25.233  1.00  0.00     0.078 C 
ATOM     19  C   UNL A   1      33.781  16.934  23.416  1.00  0.00     0.078 C 
ENDBRANCH  13  16
ENDBRANCH  12  13
ENDBRANCH   8  12
ENDBRANCH   4   7
ENDBRANCH   2   3
ENDBRANCH   1   2
BRANCH   1  20
ATOM     20  C   UNL A   1      38.184  19.943  24.715  1.00  0.00     0.023 C 
BRANCH  20  21
ATOM     21  C   UNL A   1      39.242  20.195  25.785  1.00  0.00     0.116 C 
BRANCH  21  22
ATOM     22  N   UNL A   1      40.219  19.120  25.899  1.00  0.00    -0.352 N 
ATOM     23  C   UNL A   1      41.571  19.205  26.136  1.00  0.00     0.251 C 
ATOM     24  H   UNL A   1      39.863  18.208  25.791  1.00  0.00     0.163 HD
ATOM     25  O   UNL A   1      42.280  18.207  26.080  1.00  0.00    -0.269 OA
BRANCH  23  26
ATOM     26  C   UNL A   1      42.168  20.526  26.421  1.00  0.00     0.039 A 
ATOM     27  C   UNL A   1      42.556  21.339  25.355  1.00  0.00     0.014 A 
ATOM     28  C   UNL A   1      42.282  20.982  27.737  1.00  0.00     0.014 A 
ATOM     29  C   UNL A   1      42.976  22.646  25.606  1.00  0.00     0.010 A 
ATOM     30  C   UNL A   1      42.610  22.311  27.977  1.00  0.00     0.010 A 
ATOM     31  C   UNL A   1      42.959  23.160  26.914  1.00  0.00    -0.014 A 
BRANCH  31  32
ATOM     32  C   UNL A   1      43.293  24.580  27.194  1.00  0.00     0.031 A 
ATOM     33  C   UNL A   1      44.689  25.087  26.954  1.00  0.00     0.074 A 
ATOM     34  C   UNL A   1      42.362  25.395  27.728  1.00  0.00     0.049 A 
ATOM     35  N   UNL A   1      45.196  26.267  27.204  1.00  0.00    -0.248 NA
ATOM     36  C   UNL A   1      45.651  24.129  26.388  1.00  0.00     0.031 C 
ATOM     37  C   UNL A   1      40.988  25.011  28.055  1.00  0.00     0.029 A 
ATOM     38  N   UNL A   1      42.433  26.715  28.100  1.00  0.00    -0.354 N 
ATOM     39  C   UNL A   1      46.533  26.188  26.838  1.00  0.00     0.074 A 
ATOM     40  C   UNL A   1      46.776  24.828  26.410  1.00  0.00     0.031 C 
ATOM     41  C   UNL A   1      40.339  26.076  28.552  1.00  0.00     0.029 A 
ATOM     42  C   UNL A   1      41.261  27.206  28.622  1.00  0.00     0.049 A 
ATOM     43  H   UNL A   1      43.248  27.259  28.001  1.00  0.00     0.167 HD
ATOM     44  C   UNL A   1      47.468  27.168  26.833  1.00  0.00     0.037 A 
ATOM     45  C   UNL A   1      40.965  28.426  29.111  1.00  0.00     0.037 A 
ATOM     46  C   UNL A   1      47.217  28.526  27.240  1.00  0.00     0.049 A 
ATOM     47  C   UNL A   1      42.028  29.493  29.110  1.00  0.00     0.074 A 
ATOM     48  C   UNL A   1      48.081  29.606  27.217  1.00  0.00     0.029 A 
ATOM     49  N   UNL A   1      46.012  28.989  27.749  1.00  0.00    -0.354 N 
ATOM     50  N   UNL A   1      43.269  29.426  28.691  1.00  0.00    -0.248 NA
ATOM     51  C   UNL A   1      41.647  30.809  29.644  1.00  0.00     0.031 C 
ATOM     52  C   UNL A   1      47.418  30.707  27.766  1.00  0.00     0.029 A 
ATOM     53  C   UNL A   1      46.119  30.332  28.069  1.00  0.00     0.049 A 
ATOM     54  H   UNL A   1      45.200  28.442  27.866  1.00  0.00     0.167 HD
ATOM     55  C   UNL A   1      43.804  30.695  28.877  1.00  0.00     0.074 A 
ATOM     56  C   UNL A   1      42.748  31.514  29.434  1.00  0.00     0.031 C 
ATOM     57  C   UNL A   1      45.055  31.140  28.610  1.00  0.00     0.037 A 
BRANCH  44  58
ATOM     58  C   UNL A   1      48.851  26.808  26.370  1.00  0.00     0.064 A 
ATOM     59  C   UNL A   1      49.799  26.250  27.241  1.00  0.00     0.173 A 
ATOM     60  C   UNL A   1      49.221  26.987  25.028  1.00  0.00     0.173 A 
ATOM     61  F   UNL A   1      49.502  26.067  28.537  1.00  0.00    -0.203 F 
ATOM     62  C   UNL A   1      51.075  25.914  26.795  1.00  0.00     0.198 A 
ATOM     63  C   UNL A   1      50.485  26.618  24.578  1.00  0.00     0.198 A 
ATOM     64  F   UNL A   1      48.353  27.512  24.150  1.00  0.00    -0.203 F 
ATOM     65  F   UNL A   1      51.980  25.434  27.658  1.00  0.00    -0.200 F 
ATOM     66  C   UNL A   1      51.414  26.091  25.462  1.00  0.00     0.200 A 
ATOM     67  F   UNL A   1      50.806  26.775  23.285  1.00  0.00    -0.200 F 
ATOM     68  F   UNL A   1      52.639  25.758  25.032  1.00  0.00    -0.200 F 
ENDBRANCH  44  58
BRANCH  45  69
ATOM     69  C   UNL A   1      39.599  28.715  29.626  1.00  0.00     0.064 A 
ATOM     70  C   UNL A   1      38.619  29.274  28.795  1.00  0.00     0.173 A 
ATOM     71  C   UNL A   1      39.251  28.455  30.960  1.00  0.00     0.173 A 
ATOM     72  F   UNL A   1      38.908  29.559  27.517  1.00  0.00    -0.203 F 
ATOM     73  C   UNL A   1      37.352  29.588  29.285  1.00  0.00     0.198 A 
ATOM     74  C   UNL A   1      37.973  28.739  31.439  1.00  0.00     0.198 A 
ATOM     75  F   UNL A   1      40.149  27.915  31.797  1.00  0.00    -0.203 F 
ATOM     76  F   UNL A   1      36.453  30.174  28.482  1.00  0.00    -0.200 F 
ATOM     77  C   UNL A   1      37.029  29.315  30.604  1.00  0.00     0.200 A 
ATOM     78  F   UNL A   1      37.660  28.458  32.712  1.00  0.00    -0.200 F 
ATOM     79  F   UNL A   1      35.810  29.616  31.074  1.00  0.00    -0.200 F 
ENDBRANCH  45  69
BRANCH  57  80
ATOM     80  C   UNL A   1      45.344  32.592  28.869  1.00  0.00     0.064 A 
ATOM     81  C   UNL A   1      45.069  33.583  27.917  1.00  0.00     0.173 A 
ATOM     82  C   UNL A   1      45.863  32.998  30.109  1.00  0.00     0.173 A 
ATOM     83  F   UNL A   1      44.586  33.247  26.711  1.00  0.00    -0.203 F 
ATOM     84  C   UNL A   1      45.330  34.925  28.185  1.00  0.00     0.198 A 
ATOM     85  C   UNL A   1      46.088  34.343  30.386  1.00  0.00     0.198 A 
ATOM     86  F   UNL A   1      46.136  32.090  31.059  1.00  0.00    -0.203 F 
ATOM     87  F   UNL A   1      45.109  35.850  27.241  1.00  0.00    -0.200 F 
ATOM     88  C   UNL A   1      45.829  35.304  29.422  1.00  0.00     0.200 A 
ATOM     89  F   UNL A   1      46.554  34.709  31.588  1.00  0.00    -0.200 F 
ATOM     90  F   UNL A   1      46.069  36.597  29.681  1.00  0.00    -0.200 F 
ENDBRANCH  57  80
ENDBRANCH  31  32
ENDBRANCH  23  26
ENDBRANCH  21  22
ENDBRANCH  20  21
ENDBRANCH   1  20
TORSDOF 14
ENDMDL
MODEL 2
REMARK VINA RESULT:     -11.3      6.591     10.880
REMARK SMILES CC(C)(C)[NH2+]Cc1cc(C(=O)NCCCCNC(=O)c2ccc(-c3c4nc(c(-c5c(F)c(F)c(F)c(F)c5F)c5ccc([nH]5)c(-c5c(F)c(F)c(F)c(F)c5F)c5nc(c(-c6c(F)c(F)c(F)c(F)c6F)c6ccc3[nH]6)C=C5)C=C4)cc2)cs1
REMARK SMILES IDX 14 1 13 2 12 3 10 4 11 5 9 7 7 8 8 9 84 10 83 11 6 12 5 13
REMARK SMILES IDX 2 16 1 17 3 18 4 19 15 20 16 21 17 22 18 23 19 25 20 26
REMARK SMILES IDX 21 27 82 28 22 29 81 30 23 31 24 32 25 33 75 34 26 35 80 36
REMARK SMILES IDX 74 37 76 38 27 39 79 40 73 41 72 42 28 44 60 45 40 46 59 47
REMARK SMILES IDX 41 48 44 49 58 50 77 51 42 52 43 53 57 55 78 56 45 57 29 58
REMARK SMILES IDX 30 59 38 60 31 61 32 62 36 63 39 64 33 65 34 66 37 67 35 68
REMARK SMILES IDX 61 69 62 70 70 71 63 72 64 73 68 74 71 75 65 76 66 77 69 78
REMARK SMILES IDX 67 79 46 80 47 81 55 82 48 83 49 84 53 85 56 86 50 87 51 88
REMARK SMILES IDX 54 89 52 90
REMARK H PARENT 12 6 5 14 5 15 17 24 76 43 44 54
REMARK Flexibility Score: inf
ROOT
ATOM      1  C   UNL A   1      34.390  30.607  27.611  1.00  0.00     0.023 C 
ENDROOT
BRANCH   1   2
ATOM      2  C   UNL A   1      33.498  29.675  26.802  1.00  0.00     0.116 C 
BRANCH   2   3
ATOM      3  N   UNL A   1      34.181  29.126  25.646  1.00  0.00    -0.352 N 
ATOM      4  C   UNL A   1      33.697  28.644  24.450  1.00  0.00     0.252 C 
ATOM      5  O   UNL A   1      34.510  28.413  23.558  1.00  0.00    -0.269 OA
ATOM      6  H   UNL A   1      35.161  29.091  25.731  1.00  0.00     0.163 HD
BRANCH   4   7
ATOM      7  C   UNL A   1      32.257  28.512  24.234  1.00  0.00     0.051 A 
ATOM      8  C   UNL A   1      30.157  28.982  23.344  1.00  0.00     0.059 A 
ATOM      9  C   UNL A   1      31.290  29.523  23.923  1.00  0.00     0.035 A 
ATOM     10  S   UNL A   1      30.005  27.333  23.774  1.00  0.00    -0.142 S 
ATOM     11  C   UNL A   1      31.615  27.290  24.351  1.00  0.00     0.079 A 
BRANCH   8  12
ATOM     12  C   UNL A   1      29.148  29.645  22.454  1.00  0.00     0.308 C 
BRANCH  12  13
ATOM     13  N   UNL A   1      29.522  31.022  22.106  1.00  0.00    -0.338 N 
ATOM     14  H   UNL A   1      30.388  31.229  22.604  1.00  0.00     0.347 HD
ATOM     15  H   UNL A   1      29.564  31.007  21.087  1.00  0.00     0.347 HD
BRANCH  13  16
ATOM     16  C   UNL A   1      28.589  32.127  22.395  1.00  0.00     0.088 C 
ATOM     17  C   UNL A   1      27.891  32.607  21.114  1.00  0.00     0.078 C 
ATOM     18  C   UNL A   1      29.189  33.356  23.097  1.00  0.00     0.078 C 
ATOM     19  C   UNL A   1      27.523  31.525  23.339  1.00  0.00     0.078 C 
ENDBRANCH  13  16
ENDBRANCH  12  13
ENDBRANCH   8  12
ENDBRANCH   4   7
ENDBRANCH   2   3
ENDBRANCH   1   2
BRANCH   1  20
ATOM     20  C   UNL A   1      34.075  32.085  27.408  1.00  0.00     0.023 C 
BRANCH  20  21
ATOM     21  C   UNL A   1      32.625  32.473  27.678  1.00  0.00     0.116 C 
BRANCH  21  22
ATOM     22  N   UNL A   1      32.412  33.913  27.745  1.00  0.00    -0.352 N 
ATOM     23  C   UNL A   1      33.067  34.848  28.513  1.00  0.00     0.251 C 
ATOM     24  H   UNL A   1      31.701  34.266  27.161  1.00  0.00     0.163 HD
ATOM     25  O   UNL A   1      32.683  36.011  28.545  1.00  0.00    -0.269 OA
BRANCH  23  26
ATOM     26  C   UNL A   1      34.220  34.422  29.333  1.00  0.00     0.039 A 
ATOM     27  C   UNL A   1      33.985  33.756  30.537  1.00  0.00     0.014 A 
ATOM     28  C   UNL A   1      35.525  34.624  28.878  1.00  0.00     0.014 A 
ATOM     29  C   UNL A   1      35.062  33.215  31.242  1.00  0.00     0.010 A 
ATOM     30  C   UNL A   1      36.583  34.003  29.531  1.00  0.00     0.010 A 
ATOM     31  C   UNL A   1      36.364  33.290  30.720  1.00  0.00    -0.014 A 
BRANCH  31  32
ATOM     32  C   UNL A   1      37.508  32.625  31.394  1.00  0.00     0.031 A 
ATOM     33  C   UNL A   1      38.201  31.464  30.734  1.00  0.00     0.074 A 
ATOM     34  C   UNL A   1      37.879  33.018  32.630  1.00  0.00     0.049 A 
ATOM     35  N   UNL A   1      39.167  30.707  31.190  1.00  0.00    -0.248 NA
ATOM     36  C   UNL A   1      37.724  31.085  29.396  1.00  0.00     0.031 C 
ATOM     37  C   UNL A   1      37.254  34.096  33.398  1.00  0.00     0.029 A 
ATOM     38  N   UNL A   1      38.866  32.549  33.461  1.00  0.00    -0.354 N 
ATOM     39  C   UNL A   1      39.401  29.759  30.203  1.00  0.00     0.074 A 
ATOM     40  C   UNL A   1      38.436  29.995  29.153  1.00  0.00     0.031 C 
ATOM     41  C   UNL A   1      37.889  34.224  34.574  1.00  0.00     0.029 A 
ATOM     42  C   UNL A   1      38.935  33.209  34.664  1.00  0.00     0.049 A 
ATOM     43  H   UNL A   1      39.469  31.810  33.218  1.00  0.00     0.167 HD
ATOM     44  C   UNL A   1      40.352  28.797  30.164  1.00  0.00     0.037 A 
ATOM     45  C   UNL A   1      39.744  33.014  35.724  1.00  0.00     0.037 A 
ATOM     46  C   UNL A   1      41.325  28.580  31.204  1.00  0.00     0.049 A 
ATOM     47  C   UNL A   1      40.782  31.925  35.661  1.00  0.00     0.074 A 
ATOM     48  C   UNL A   1      42.367  27.669  31.232  1.00  0.00     0.029 A 
ATOM     49  N   UNL A   1      41.373  29.279  32.400  1.00  0.00    -0.354 N 
ATOM     50  N   UNL A   1      41.043  31.083  34.690  1.00  0.00    -0.248 NA
ATOM     51  C   UNL A   1      41.646  31.764  36.840  1.00  0.00     0.031 C 
ATOM     52  C   UNL A   1      43.007  27.777  32.469  1.00  0.00     0.029 A 
ATOM     53  C   UNL A   1      42.409  28.801  33.186  1.00  0.00     0.049 A 
ATOM     54  H   UNL A   1      40.759  30.008  32.655  1.00  0.00     0.167 HD
ATOM     55  C   UNL A   1      42.118  30.319  35.125  1.00  0.00     0.074 A 
ATOM     56  C   UNL A   1      42.470  30.807  36.442  1.00  0.00     0.031 C 
ATOM     57  C   UNL A   1      42.756  29.306  34.490  1.00  0.00     0.037 A 
BRANCH  44  58
ATOM     58  C   UNL A   1      40.391  27.905  28.956  1.00  0.00     0.064 A 
ATOM     59  C   UNL A   1      41.152  28.231  27.822  1.00  0.00     0.173 A 
ATOM     60  C   UNL A   1      39.690  26.689  28.946  1.00  0.00     0.173 A 
ATOM     61  F   UNL A   1      41.833  29.386  27.775  1.00  0.00    -0.203 F 
ATOM     62  C   UNL A   1      41.185  27.389  26.713  1.00  0.00     0.198 A 
ATOM     63  C   UNL A   1      39.753  25.834  27.849  1.00  0.00     0.198 A 
ATOM     64  F   UNL A   1      38.950  26.325  30.004  1.00  0.00    -0.203 F 
ATOM     65  F   UNL A   1      41.875  27.749  25.622  1.00  0.00    -0.200 F 
ATOM     66  C   UNL A   1      40.492  26.188  26.731  1.00  0.00     0.200 A 
ATOM     67  F   UNL A   1      39.095  24.666  27.874  1.00  0.00    -0.200 F 
ATOM     68  F   UNL A   1      40.533  25.375  25.666  1.00  0.00    -0.200 F 
ENDBRANCH  44  58
BRANCH  45  69
ATOM     69  C   UNL A   1      39.620  33.877  36.929  1.00  0.00     0.064 A 
ATOM     70  C   UNL A   1      38.859  33.467  38.034  1.00  0.00     0.173 A 
ATOM     71  C   UNL A   1      40.242  35.132  36.997  1.00  0.00     0.173 A 
ATOM     72  F   UNL A   1      38.229  32.284  38.011  1.00  0.00    -0.203 F 
ATOM     73  C   UNL A   1      38.702  34.292  39.147  1.00  0.00     0.198 A 
ATOM     74  C   UNL A   1      40.112  35.941  38.124  1.00  0.00     0.198 A 
ATOM     75  F   UNL A   1      40.986  35.570  35.970  1.00  0.00    -0.203 F 
ATOM     76  F   UNL A   1      37.924  33.899  40.164  1.00  0.00    -0.200 F 
ATOM     77  C   UNL A   1      39.333  35.525  39.193  1.00  0.00     0.200 A 
ATOM     78  F   UNL A   1      40.737  37.126  38.172  1.00  0.00    -0.200 F 
ATOM     79  F   UNL A   1      39.184  36.317  40.264  1.00  0.00    -0.200 F 
ENDBRANCH  45  69
BRANCH  57  80
ATOM     80  C   UNL A   1      43.934  28.684  35.187  1.00  0.00     0.064 A 
ATOM     81  C   UNL A   1      45.238  29.169  35.015  1.00  0.00     0.173 A 
ATOM     82  C   UNL A   1      43.744  27.614  36.077  1.00  0.00     0.173 A 
ATOM     83  F   UNL A   1      45.476  30.180  34.165  1.00  0.00    -0.203 F 
ATOM     84  C   UNL A   1      46.312  28.588  35.684  1.00  0.00     0.198 A 
ATOM     85  C   UNL A   1      44.815  27.060  36.771  1.00  0.00     0.198 A 
ATOM     86  F   UNL A   1      42.515  27.118  36.286  1.00  0.00    -0.203 F 
ATOM     87  F   UNL A   1      47.556  29.033  35.463  1.00  0.00    -0.200 F 
ATOM     88  C   UNL A   1      46.099  27.541  36.568  1.00  0.00     0.200 A 
ATOM     89  F   UNL A   1      44.603  26.060  37.639  1.00  0.00    -0.200 F 
ATOM     90  F   UNL A   1      47.133  26.991  37.220  1.00  0.00    -0.200 F 
ENDBRANCH  57  80
ENDBRANCH  31  32
ENDBRANCH  23  26
ENDBRANCH  21  22
ENDBRANCH  20  21
ENDBRANCH   1  20
TORSDOF 14
ENDMDL
MODEL 3
REMARK VINA RESULT:     -11.2      0.576      1.737
REMARK SMILES CC(C)(C)[NH2+]Cc1cc(C(=O)NCCCCNC(=O)c2ccc(-c3c4nc(c(-c5c(F)c(F)c(F)c(F)c5F)c5ccc([nH]5)c(-c5c(F)c(F)c(F)c(F)c5F)c5nc(c(-c6c(F)c(F)c(F)c(F)c6F)c6ccc3[nH]6)C=C5)C=C4)cc2)cs1
REMARK SMILES IDX 14 1 13 2 12 3 10 4 11 5 9 7 7 8 8 9 84 10 83 11 6 12 5 13
REMARK SMILES IDX 2 16 1 17 3 18 4 19 15 20 16 21 17 22 18 23 19 25 20 26
REMARK SMILES IDX 21 27 82 28 22 29 81 30 23 31 24 32 25 33 75 34 26 35 80 36
REMARK SMILES IDX 74 37 76 38 27 39 79 40 73 41 72 42 28 44 60 45 40 46 59 47
REMARK SMILES IDX 41 48 44 49 58 50 77 51 42 52 43 53 57 55 78 56 45 57 29 58
REMARK SMILES IDX 30 59 38 60 31 61 32 62 36 63 39 64 33 65 34 66 37 67 35 68
REMARK SMILES IDX 61 69 62 70 70 71 63 72 64 73 68 74 71 75 65 76 66 77 69 78
REMARK SMILES IDX 67 79 46 80 47 81 55 82 48 83 49 84 53 85 56 86 50 87 51 88
REMARK SMILES IDX 54 89 52 90
REMARK H PARENT 12 6 5 14 5 15 17 24 76 43 44 54
REMARK Flexibility Score: inf
ROOT
ATOM      1  C   UNL A   1      37.546  21.395  24.499  1.00  0.00     0.023 C 
ENDROOT
BRANCH   1   2
ATOM      2  C   UNL A   1      37.505  22.550  25.492  1.00  0.00     0.116 C 
BRANCH   2   3
ATOM      3  N   UNL A   1      36.639  23.626  25.047  1.00  0.00    -0.352 N 
ATOM      4  C   UNL A   1      35.268  23.700  24.937  1.00  0.00     0.252 C 
ATOM      5  O   UNL A   1      34.774  24.803  24.714  1.00  0.00    -0.269 OA
ATOM      6  H   UNL A   1      37.113  24.446  24.778  1.00  0.00     0.163 HD
BRANCH   4   7
ATOM      7  C   UNL A   1      34.442  22.518  25.178  1.00  0.00     0.051 A 
ATOM      8  C   UNL A   1      33.626  20.359  24.874  1.00  0.00     0.059 A 
ATOM      9  C   UNL A   1      33.958  21.545  24.245  1.00  0.00     0.035 A 
ATOM     10  S   UNL A   1      33.286  20.643  26.527  1.00  0.00    -0.142 S 
ATOM     11  C   UNL A   1      33.974  22.207  26.445  1.00  0.00     0.079 A 
BRANCH   8  12
ATOM     12  C   UNL A   1      33.548  18.978  24.295  1.00  0.00     0.308 C 
BRANCH  12  13
ATOM     13  N   UNL A   1      33.700  17.930  25.314  1.00  0.00    -0.338 N 
ATOM     14  H   UNL A   1      34.462  18.221  25.926  1.00  0.00     0.347 HD
ATOM     15  H   UNL A   1      32.770  17.865  25.728  1.00  0.00     0.347 HD
BRANCH  13  16
ATOM     16  C   UNL A   1      33.989  16.544  24.898  1.00  0.00     0.088 C 
ATOM     17  C   UNL A   1      32.869  15.592  25.343  1.00  0.00     0.078 C 
ATOM     18  C   UNL A   1      35.327  15.959  25.375  1.00  0.00     0.078 C 
ATOM     19  C   UNL A   1      34.019  16.580  23.353  1.00  0.00     0.078 C 
ENDBRANCH  13  16
ENDBRANCH  12  13
ENDBRANCH   8  12
ENDBRANCH   4   7
ENDBRANCH   2   3
ENDBRANCH   1   2
BRANCH   1  20
ATOM     20  C   UNL A   1      38.100  20.102  25.087  1.00  0.00     0.023 C 
BRANCH  20  21
ATOM     21  C   UNL A   1      39.226  20.290  26.100  1.00  0.00     0.116 C 
BRANCH  21  22
ATOM     22  N   UNL A   1      40.230  19.236  26.055  1.00  0.00    -0.352 N 
ATOM     23  C   UNL A   1      41.599  19.345  26.126  1.00  0.00     0.251 C 
ATOM     24  H   UNL A   1      39.881  18.320  25.959  1.00  0.00     0.163 HD
ATOM     25  O   UNL A   1      42.315  18.366  25.948  1.00  0.00    -0.269 OA
BRANCH  23  26
ATOM     26  C   UNL A   1      42.202  20.669  26.382  1.00  0.00     0.039 A 
ATOM     27  C   UNL A   1      42.478  21.508  25.301  1.00  0.00     0.014 A 
ATOM     28  C   UNL A   1      42.429  21.102  27.691  1.00  0.00     0.014 A 
ATOM     29  C   UNL A   1      42.902  22.817  25.539  1.00  0.00     0.010 A 
ATOM     30  C   UNL A   1      42.759  22.431  27.926  1.00  0.00     0.010 A 
ATOM     31  C   UNL A   1      42.998  23.305  26.853  1.00  0.00    -0.014 A 
BRANCH  31  32
ATOM     32  C   UNL A   1      43.337  24.725  27.129  1.00  0.00     0.031 A 
ATOM     33  C   UNL A   1      44.730  25.230  26.874  1.00  0.00     0.074 A 
ATOM     34  C   UNL A   1      42.413  25.541  27.674  1.00  0.00     0.049 A 
ATOM     35  N   UNL A   1      45.241  26.410  27.118  1.00  0.00    -0.248 NA
ATOM     36  C   UNL A   1      45.685  24.272  26.296  1.00  0.00     0.031 C 
ATOM     37  C   UNL A   1      41.042  25.158  28.017  1.00  0.00     0.029 A 
ATOM     38  N   UNL A   1      42.489  26.861  28.046  1.00  0.00    -0.354 N 
ATOM     39  C   UNL A   1      46.574  26.329  26.737  1.00  0.00     0.074 A 
ATOM     40  C   UNL A   1      46.810  24.970  26.305  1.00  0.00     0.031 C 
ATOM     41  C   UNL A   1      40.400  26.223  28.522  1.00  0.00     0.029 A 
ATOM     42  C   UNL A   1      41.323  27.352  28.582  1.00  0.00     0.049 A 
ATOM     43  H   UNL A   1      43.303  27.404  27.938  1.00  0.00     0.167 HD
ATOM     44  C   UNL A   1      47.509  27.309  26.722  1.00  0.00     0.037 A 
ATOM     45  C   UNL A   1      41.035  28.573  29.075  1.00  0.00     0.037 A 
ATOM     46  C   UNL A   1      47.264  28.667  27.132  1.00  0.00     0.049 A 
ATOM     47  C   UNL A   1      42.099  29.638  29.062  1.00  0.00     0.074 A 
ATOM     48  C   UNL A   1      48.129  29.747  27.099  1.00  0.00     0.029 A 
ATOM     49  N   UNL A   1      46.066  29.131  27.654  1.00  0.00    -0.354 N 
ATOM     50  N   UNL A   1      43.335  29.571  28.629  1.00  0.00    -0.248 NA
ATOM     51  C   UNL A   1      41.725  30.954  29.600  1.00  0.00     0.031 C 
ATOM     52  C   UNL A   1      47.474  30.848  27.656  1.00  0.00     0.029 A 
ATOM     53  C   UNL A   1      46.178  30.474  27.973  1.00  0.00     0.049 A 
ATOM     54  H   UNL A   1      45.255  28.585  27.781  1.00  0.00     0.167 HD
ATOM     55  C   UNL A   1      43.872  30.839  28.809  1.00  0.00     0.074 A 
ATOM     56  C   UNL A   1      42.824  31.659  29.378  1.00  0.00     0.031 C 
ATOM     57  C   UNL A   1      45.121  31.282  28.527  1.00  0.00     0.037 A 
BRANCH  44  58
ATOM     58  C   UNL A   1      48.887  26.948  26.242  1.00  0.00     0.064 A 
ATOM     59  C   UNL A   1      49.241  27.028  24.887  1.00  0.00     0.173 A 
ATOM     60  C   UNL A   1      49.877  26.555  27.155  1.00  0.00     0.173 A 
ATOM     61  F   UNL A   1      48.330  27.389  23.971  1.00  0.00    -0.203 F 
ATOM     62  C   UNL A   1      50.525  26.699  24.459  1.00  0.00     0.198 A 
ATOM     63  C   UNL A   1      51.169  26.260  26.728  1.00  0.00     0.198 A 
ATOM     64  F   UNL A   1      49.596  26.465  28.464  1.00  0.00    -0.203 F 
ATOM     65  F   UNL A   1      50.823  26.731  23.153  1.00  0.00    -0.200 F 
ATOM     66  C   UNL A   1      51.490  26.323  25.381  1.00  0.00     0.200 A 
ATOM     67  F   UNL A   1      52.105  25.911  27.623  1.00  0.00    -0.200 F 
ATOM     68  F   UNL A   1      52.727  26.015  24.969  1.00  0.00    -0.200 F 
ENDBRANCH  44  58
BRANCH  45  69
ATOM     69  C   UNL A   1      39.675  28.862  29.606  1.00  0.00     0.064 A 
ATOM     70  C   UNL A   1      38.678  29.399  28.779  1.00  0.00     0.173 A 
ATOM     71  C   UNL A   1      39.349  28.627  30.950  1.00  0.00     0.173 A 
ATOM     72  F   UNL A   1      38.945  29.661  27.492  1.00  0.00    -0.203 F 
ATOM     73  C   UNL A   1      37.417  29.715  29.283  1.00  0.00     0.198 A 
ATOM     74  C   UNL A   1      38.078  28.912  31.444  1.00  0.00     0.198 A 
ATOM     75  F   UNL A   1      40.265  28.109  31.783  1.00  0.00    -0.203 F 
ATOM     76  F   UNL A   1      36.501  30.278  28.483  1.00  0.00    -0.200 F 
ATOM     77  C   UNL A   1      37.117  29.465  30.613  1.00  0.00     0.200 A 
ATOM     78  F   UNL A   1      37.787  28.654  32.726  1.00  0.00    -0.200 F 
ATOM     79  F   UNL A   1      35.903  29.767  31.096  1.00  0.00    -0.200 F 
ENDBRANCH  45  69
BRANCH  57  80
ATOM     80  C   UNL A   1      45.415  32.734  28.783  1.00  0.00     0.064 A 
ATOM     81  C   UNL A   1      45.999  33.173  29.979  1.00  0.00     0.173 A 
ATOM     82  C   UNL A   1      45.147  33.693  27.793  1.00  0.00     0.173 A 
ATOM     83  F   UNL A   1      46.262  32.299  30.963  1.00  0.00    -0.203 F 
ATOM     84  C   UNL A   1      46.278  34.521  30.188  1.00  0.00     0.198 A 
ATOM     85  C   UNL A   1      45.460  35.035  27.991  1.00  0.00     0.198 A 
ATOM     86  F   UNL A   1      44.597  33.326  26.626  1.00  0.00    -0.203 F 
ATOM     87  F   UNL A   1      46.787  34.925  31.360  1.00  0.00    -0.200 F 
ATOM     88  C   UNL A   1      46.017  35.449  29.191  1.00  0.00     0.200 A 
ATOM     89  F   UNL A   1      45.224  35.926  27.018  1.00  0.00    -0.200 F 
ATOM     90  F   UNL A   1      46.296  36.745  29.389  1.00  0.00    -0.200 F 
ENDBRANCH  57  80
ENDBRANCH  31  32
ENDBRANCH  23  26
ENDBRANCH  21  22
ENDBRANCH  20  21
ENDBRANCH   1  20
TORSDOF 14
ENDMDL
