MODEL 1
REMARK VINA RESULT:     -13.3      0.000      0.000
REMARK SMILES Cc1ccc(O)c(C(=O)[C@@H]2[C@@H](C(=O)NCCCCNC(=O)c3ccc(-c4c5nc(c(-c6c(F)c(F)c(F)c(F)c6F)c6ccc([nH]6)c(-c6c(F)c(F)c(F)c(F)c6F)c6nc(c(-c7c(F)c(F)c(F)c(F)c7F)c7ccc4[nH]7)C=C6)C=C5)cc3)[C@H]3C=C[C@@H]2C3)c1
REMARK SMILES IDX 16 1 15 2 14 3 12 4 13 5 11 7 10 8 88 9 85 10 87 11 89 12
REMARK SMILES IDX 86 13 8 14 9 15 7 16 1 17 2 18 3 19 90 20 4 21 5 22 6 23
REMARK SMILES IDX 17 25 18 26 19 27 20 28 21 30 22 31 23 32 84 33 24 34 83 35
REMARK SMILES IDX 25 36 26 37 27 38 77 39 28 40 82 41 76 42 78 43 29 44 81 45
REMARK SMILES IDX 75 46 74 47 30 49 62 50 42 51 61 52 43 53 46 54 60 55 79 56
REMARK SMILES IDX 44 57 45 58 59 60 80 61 47 62 31 63 32 64 40 65 33 66 34 67
REMARK SMILES IDX 38 68 41 69 35 70 36 71 39 72 37 73 63 74 64 75 72 76 65 77
REMARK SMILES IDX 66 78 70 79 73 80 67 81 68 82 71 83 69 84 48 85 49 86 57 87
REMARK SMILES IDX 50 88 51 89 55 90 58 91 52 92 53 93 56 94 54 95
REMARK H PARENT 14 6 6 24 19 29 78 48 46 59
REMARK Flexibility Score: inf
ROOT
ATOM      1  C   UNL A   1      32.185  30.556  26.274  1.00  0.00     0.023 C 
ENDROOT
BRANCH   1   2
ATOM      2  C   UNL A   1      32.524  29.456  27.278  1.00  0.00     0.116 C 
BRANCH   2   3
ATOM      3  N   UNL A   1      31.571  28.366  27.232  1.00  0.00    -0.356 N 
ATOM      4  C   UNL A   1      31.348  27.349  26.368  1.00  0.00     0.224 C 
ATOM      5  O   UNL A   1      30.395  26.611  26.654  1.00  0.00    -0.275 OA
ATOM      6  H   UNL A   1      30.951  28.364  27.996  1.00  0.00     0.163 HD
BRANCH   4   7
ATOM      7  C   UNL A   1      32.109  27.067  25.076  1.00  0.00     0.097 C 
ATOM      8  C   UNL A   1      31.457  26.212  23.964  1.00  0.00     0.081 C 
ATOM      9  C   UNL A   1      32.624  25.262  23.555  1.00  0.00     0.024 C 
ATOM     10  C   UNL A   1      33.505  26.403  25.278  1.00  0.00     0.025 C 
ATOM     11  C   UNL A   1      32.839  24.281  24.700  1.00  0.00    -0.027 C 
ATOM     12  C   UNL A   1      33.899  26.072  23.836  1.00  0.00     0.017 C 
ATOM     13  C   UNL A   1      33.382  24.970  25.718  1.00  0.00    -0.027 C 
BRANCH   8  14
ATOM     14  C   UNL A   1      30.728  27.012  22.873  1.00  0.00     0.171 C 
ATOM     15  O   UNL A   1      31.118  26.961  21.702  1.00  0.00    -0.294 OA
BRANCH  14  16
ATOM     16  C   UNL A   1      29.617  27.953  23.151  1.00  0.00     0.060 A 
ATOM     17  C   UNL A   1      28.915  31.669  22.898  1.00  0.00     0.044 C 
ATOM     18  C   UNL A   1      28.713  30.206  23.156  1.00  0.00    -0.050 A 
ATOM     19  C   UNL A   1      27.438  29.689  23.400  1.00  0.00     0.007 A 
ATOM     20  C   UNL A   1      29.806  29.332  23.131  1.00  0.00     0.019 A 
ATOM     21  C   UNL A   1      27.261  28.316  23.582  1.00  0.00     0.047 A 
ATOM     22  C   UNL A   1      28.345  27.452  23.448  1.00  0.00     0.126 A 
BRANCH  22  23
ATOM     23  O   UNL A   1      28.100  26.118  23.629  1.00  0.00    -0.507 OA
ATOM     24  H   UNL A   1      27.575  25.650  23.010  1.00  0.00     0.293 HD
ENDBRANCH  22  23
ENDBRANCH  14  16
ENDBRANCH   8  14
ENDBRANCH   4   7
ENDBRANCH   2   3
ENDBRANCH   1   2
BRANCH   1  25
ATOM     25  C   UNL A   1      31.720  31.869  26.886  1.00  0.00     0.023 C 
BRANCH  25  26
ATOM     26  C   UNL A   1      32.830  32.787  27.373  1.00  0.00     0.116 C 
BRANCH  26  27
ATOM     27  N   UNL A   1      32.408  34.153  27.658  1.00  0.00    -0.352 N 
ATOM     28  C   UNL A   1      32.964  35.032  28.563  1.00  0.00     0.251 C 
ATOM     29  H   UNL A   1      31.636  34.485  27.145  1.00  0.00     0.163 HD
ATOM     30  O   UNL A   1      32.487  36.138  28.754  1.00  0.00    -0.269 OA
BRANCH  28  31
ATOM     31  C   UNL A   1      34.129  34.568  29.342  1.00  0.00     0.039 A 
ATOM     32  C   UNL A   1      33.914  33.945  30.571  1.00  0.00     0.014 A 
ATOM     33  C   UNL A   1      35.405  34.622  28.776  1.00  0.00     0.014 A 
ATOM     34  C   UNL A   1      34.973  33.288  31.196  1.00  0.00     0.010 A 
ATOM     35  C   UNL A   1      36.434  33.890  29.354  1.00  0.00     0.010 A 
ATOM     36  C   UNL A   1      36.227  33.214  30.566  1.00  0.00    -0.014 A 
BRANCH  36  37
ATOM     37  C   UNL A   1      37.344  32.437  31.157  1.00  0.00     0.031 A 
ATOM     38  C   UNL A   1      37.840  32.782  32.532  1.00  0.00     0.074 A 
ATOM     39  C   UNL A   1      37.964  31.488  30.428  1.00  0.00     0.049 A 
ATOM     40  N   UNL A   1      38.861  32.297  33.191  1.00  0.00    -0.248 NA
ATOM     41  C   UNL A   1      37.115  33.845  33.247  1.00  0.00     0.031 C 
ATOM     42  C   UNL A   1      37.618  31.110  29.056  1.00  0.00     0.029 A 
ATOM     43  N   UNL A   1      39.026  30.676  30.736  1.00  0.00    -0.354 N 
ATOM     44  C   UNL A   1      38.912  33.012  34.380  1.00  0.00     0.074 A 
ATOM     45  C   UNL A   1      37.861  34.004  34.328  1.00  0.00     0.031 C 
ATOM     46  C   UNL A   1      38.433  30.121  28.652  1.00  0.00     0.029 A 
ATOM     47  C   UNL A   1      39.379  29.821  29.722  1.00  0.00     0.049 A 
ATOM     48  H   UNL A   1      39.491  30.705  31.603  1.00  0.00     0.167 HD
ATOM     49  C   UNL A   1      39.743  32.837  35.434  1.00  0.00     0.037 A 
ATOM     50  C   UNL A   1      40.358  28.898  29.665  1.00  0.00     0.037 A 
ATOM     51  C   UNL A   1      40.755  31.819  35.501  1.00  0.00     0.049 A 
ATOM     52  C   UNL A   1      41.248  28.700  30.862  1.00  0.00     0.074 A 
ATOM     53  C   UNL A   1      41.600  31.507  36.551  1.00  0.00     0.029 A 
ATOM     54  N   UNL A   1      41.055  30.939  34.470  1.00  0.00    -0.354 N 
ATOM     55  N   UNL A   1      41.241  29.332  32.012  1.00  0.00    -0.248 NA
ATOM     56  C   UNL A   1      42.277  27.656  30.759  1.00  0.00     0.031 C 
ATOM     57  C   UNL A   1      42.434  30.461  36.143  1.00  0.00     0.029 A 
ATOM     58  C   UNL A   1      42.081  30.094  34.855  1.00  0.00     0.049 A 
ATOM     59  H   UNL A   1      40.604  30.920  33.595  1.00  0.00     0.167 HD
ATOM     60  C   UNL A   1      42.240  28.746  32.775  1.00  0.00     0.074 A 
ATOM     61  C   UNL A   1      42.826  27.698  31.965  1.00  0.00     0.031 C 
ATOM     62  C   UNL A   1      42.639  29.049  34.036  1.00  0.00     0.037 A 
BRANCH  49  63
ATOM     63  C   UNL A   1      39.575  33.759  36.605  1.00  0.00     0.064 A 
ATOM     64  C   UNL A   1      40.199  35.016  36.646  1.00  0.00     0.173 A 
ATOM     65  C   UNL A   1      38.768  33.391  37.692  1.00  0.00     0.173 A 
ATOM     66  F   UNL A   1      40.993  35.408  35.638  1.00  0.00    -0.203 F 
ATOM     67  C   UNL A   1      40.049  35.855  37.746  1.00  0.00     0.198 A 
ATOM     68  C   UNL A   1      38.596  34.247  38.777  1.00  0.00     0.198 A 
ATOM     69  F   UNL A   1      38.147  32.203  37.702  1.00  0.00    -0.203 F 
ATOM     70  F   UNL A   1      40.699  37.026  37.786  1.00  0.00    -0.200 F 
ATOM     71  C   UNL A   1      39.242  35.474  38.807  1.00  0.00     0.200 A 
ATOM     72  F   UNL A   1      37.807  33.882  39.798  1.00  0.00    -0.200 F 
ATOM     73  F   UNL A   1      39.095  36.284  39.863  1.00  0.00    -0.200 F 
ENDBRANCH  49  63
BRANCH  50  74
ATOM     74  C   UNL A   1      40.525  28.062  28.447  1.00  0.00     0.064 A 
ATOM     75  C   UNL A   1      39.907  26.808  28.349  1.00  0.00     0.173 A 
ATOM     76  C   UNL A   1      41.305  28.492  27.364  1.00  0.00     0.173 A 
ATOM     77  F   UNL A   1      39.168  26.345  29.368  1.00  0.00    -0.203 F 
ATOM     78  C   UNL A   1      40.078  26.006  27.222  1.00  0.00     0.198 A 
ATOM     79  C   UNL A   1      41.455  27.700  26.227  1.00  0.00     0.198 A 
ATOM     80  F   UNL A   1      41.913  29.686  27.406  1.00  0.00    -0.203 F 
ATOM     81  F   UNL A   1      39.511  24.793  27.173  1.00  0.00    -0.200 F 
ATOM     82  C   UNL A   1      40.848  26.455  26.160  1.00  0.00     0.200 A 
ATOM     83  F   UNL A   1      42.190  28.143  25.197  1.00  0.00    -0.200 F 
ATOM     84  F   UNL A   1      41.011  25.684  25.076  1.00  0.00    -0.200 F 
ENDBRANCH  50  74
BRANCH  62  85
ATOM     85  C   UNL A   1      43.736  28.216  34.627  1.00  0.00     0.064 A 
ATOM     86  C   UNL A   1      45.078  28.612  34.557  1.00  0.00     0.173 A 
ATOM     87  C   UNL A   1      43.433  27.030  35.313  1.00  0.00     0.173 A 
ATOM     88  F   UNL A   1      45.418  29.730  33.899  1.00  0.00    -0.203 F 
ATOM     89  C   UNL A   1      46.082  27.840  35.137  1.00  0.00     0.198 A 
ATOM     90  C   UNL A   1      44.435  26.275  35.915  1.00  0.00     0.198 A 
ATOM     91  F   UNL A   1      42.162  26.612  35.413  1.00  0.00    -0.203 F 
ATOM     92  F   UNL A   1      47.363  28.216  35.023  1.00  0.00    -0.200 F 
ATOM     93  C   UNL A   1      45.759  26.677  35.821  1.00  0.00     0.200 A 
ATOM     94  F   UNL A   1      44.120  25.159  36.586  1.00  0.00    -0.200 F 
ATOM     95  F   UNL A   1      46.725  25.941  36.385  1.00  0.00    -0.200 F 
ENDBRANCH  62  85
ENDBRANCH  36  37
ENDBRANCH  28  31
ENDBRANCH  26  27
ENDBRANCH  25  26
ENDBRANCH   1  25
TORSDOF 14
ENDMDL
MODEL 2
REMARK VINA RESULT:     -13.3      0.061      1.585
REMARK SMILES Cc1ccc(O)c(C(=O)[C@@H]2[C@@H](C(=O)NCCCCNC(=O)c3ccc(-c4c5nc(c(-c6c(F)c(F)c(F)c(F)c6F)c6ccc([nH]6)c(-c6c(F)c(F)c(F)c(F)c6F)c6nc(c(-c7c(F)c(F)c(F)c(F)c7F)c7ccc4[nH]7)C=C6)C=C5)cc3)[C@H]3C=C[C@@H]2C3)c1
REMARK SMILES IDX 16 1 15 2 14 3 12 4 13 5 11 7 10 8 88 9 85 10 87 11 89 12
REMARK SMILES IDX 86 13 8 14 9 15 7 16 1 17 2 18 3 19 90 20 4 21 5 22 6 23
REMARK SMILES IDX 17 25 18 26 19 27 20 28 21 30 22 31 23 32 84 33 24 34 83 35
REMARK SMILES IDX 25 36 26 37 27 38 77 39 28 40 82 41 76 42 78 43 29 44 81 45
REMARK SMILES IDX 75 46 74 47 30 49 62 50 42 51 61 52 43 53 46 54 60 55 79 56
REMARK SMILES IDX 44 57 45 58 59 60 80 61 47 62 31 63 32 64 40 65 33 66 34 67
REMARK SMILES IDX 38 68 41 69 35 70 36 71 39 72 37 73 63 74 64 75 72 76 65 77
REMARK SMILES IDX 66 78 70 79 73 80 67 81 68 82 71 83 69 84 48 85 49 86 57 87
REMARK SMILES IDX 50 88 51 89 55 90 58 91 52 92 53 93 56 94 54 95
REMARK H PARENT 14 6 6 24 19 29 78 48 46 59
REMARK Flexibility Score: inf
ROOT
ATOM      1  C   UNL A   1      32.179  30.557  26.287  1.00  0.00     0.023 C 
ENDROOT
BRANCH   1   2
ATOM      2  C   UNL A   1      32.516  29.460  27.295  1.00  0.00     0.116 C 
BRANCH   2   3
ATOM      3  N   UNL A   1      31.571  28.364  27.244  1.00  0.00    -0.356 N 
ATOM      4  C   UNL A   1      31.360  27.346  26.378  1.00  0.00     0.224 C 
ATOM      5  O   UNL A   1      30.410  26.601  26.659  1.00  0.00    -0.275 OA
ATOM      6  H   UNL A   1      30.946  28.358  28.004  1.00  0.00     0.163 HD
BRANCH   4   7
ATOM      7  C   UNL A   1      32.130  27.069  25.090  1.00  0.00     0.097 C 
ATOM      8  C   UNL A   1      31.498  26.193  23.983  1.00  0.00     0.081 C 
ATOM      9  C   UNL A   1      32.685  25.263  23.585  1.00  0.00     0.024 C 
ATOM     10  C   UNL A   1      33.538  26.435  25.302  1.00  0.00     0.025 C 
ATOM     11  C   UNL A   1      32.917  24.296  24.738  1.00  0.00    -0.027 C 
ATOM     12  C   UNL A   1      33.942  26.101  23.863  1.00  0.00     0.017 C 
ATOM     13  C   UNL A   1      33.443  25.003  25.751  1.00  0.00    -0.027 C 
BRANCH   8  14
ATOM     14  C   UNL A   1      30.756  26.970  22.885  1.00  0.00     0.171 C 
ATOM     15  O   UNL A   1      31.133  26.895  21.710  1.00  0.00    -0.294 OA
BRANCH  14  16
ATOM     16  C   UNL A   1      29.647  27.915  23.156  1.00  0.00     0.060 A 
ATOM     17  C   UNL A   1      28.958  31.632  22.890  1.00  0.00     0.044 C 
ATOM     18  C   UNL A   1      28.751  30.171  23.150  1.00  0.00    -0.050 A 
ATOM     19  C   UNL A   1      27.473  29.658  23.391  1.00  0.00     0.007 A 
ATOM     20  C   UNL A   1      29.840  29.293  23.133  1.00  0.00     0.019 A 
ATOM     21  C   UNL A   1      27.290  28.287  23.576  1.00  0.00     0.047 A 
ATOM     22  C   UNL A   1      28.372  27.419  23.449  1.00  0.00     0.126 A 
BRANCH  22  23
ATOM     23  O   UNL A   1      28.122  26.086  23.633  1.00  0.00    -0.507 OA
ATOM     24  H   UNL A   1      28.372  25.668  24.433  1.00  0.00     0.293 HD
ENDBRANCH  22  23
ENDBRANCH  14  16
ENDBRANCH   8  14
ENDBRANCH   4   7
ENDBRANCH   2   3
ENDBRANCH   1   2
BRANCH   1  25
ATOM     25  C   UNL A   1      31.716  31.873  26.893  1.00  0.00     0.023 C 
BRANCH  25  26
ATOM     26  C   UNL A   1      32.828  32.788  27.381  1.00  0.00     0.116 C 
BRANCH  26  27
ATOM     27  N   UNL A   1      32.408  34.155  27.665  1.00  0.00    -0.352 N 
ATOM     28  C   UNL A   1      32.964  35.033  28.572  1.00  0.00     0.251 C 
ATOM     29  H   UNL A   1      31.639  34.489  27.149  1.00  0.00     0.163 HD
ATOM     30  O   UNL A   1      32.490  36.141  28.761  1.00  0.00    -0.269 OA
BRANCH  28  31
ATOM     31  C   UNL A   1      34.126  34.566  29.354  1.00  0.00     0.039 A 
ATOM     32  C   UNL A   1      33.904  33.923  30.572  1.00  0.00     0.014 A 
ATOM     33  C   UNL A   1      35.406  34.635  28.800  1.00  0.00     0.014 A 
ATOM     34  C   UNL A   1      34.963  33.265  31.197  1.00  0.00     0.010 A 
ATOM     35  C   UNL A   1      36.435  33.902  29.376  1.00  0.00     0.010 A 
ATOM     36  C   UNL A   1      36.222  33.208  30.577  1.00  0.00    -0.014 A 
BRANCH  36  37
ATOM     37  C   UNL A   1      37.339  32.430  31.167  1.00  0.00     0.031 A 
ATOM     38  C   UNL A   1      37.833  32.771  32.544  1.00  0.00     0.074 A 
ATOM     39  C   UNL A   1      37.960  31.484  30.435  1.00  0.00     0.049 A 
ATOM     40  N   UNL A   1      38.854  32.285  33.202  1.00  0.00    -0.248 NA
ATOM     41  C   UNL A   1      37.106  33.831  33.260  1.00  0.00     0.031 C 
ATOM     42  C   UNL A   1      37.616  31.110  29.062  1.00  0.00     0.029 A 
ATOM     43  N   UNL A   1      39.023  30.672  30.742  1.00  0.00    -0.354 N 
ATOM     44  C   UNL A   1      38.903  32.996  34.393  1.00  0.00     0.074 A 
ATOM     45  C   UNL A   1      37.852  33.987  34.343  1.00  0.00     0.031 C 
ATOM     46  C   UNL A   1      38.433  30.123  28.656  1.00  0.00     0.029 A 
ATOM     47  C   UNL A   1      39.378  29.820  29.725  1.00  0.00     0.049 A 
ATOM     48  H   UNL A   1      39.487  30.698  31.610  1.00  0.00     0.167 HD
ATOM     49  C   UNL A   1      39.733  32.818  35.447  1.00  0.00     0.037 A 
ATOM     50  C   UNL A   1      40.358  28.898  29.666  1.00  0.00     0.037 A 
ATOM     51  C   UNL A   1      40.747  31.801  35.512  1.00  0.00     0.049 A 
ATOM     52  C   UNL A   1      41.247  28.697  30.864  1.00  0.00     0.074 A 
ATOM     53  C   UNL A   1      41.590  31.486  36.561  1.00  0.00     0.029 A 
ATOM     54  N   UNL A   1      41.048  30.925  34.478  1.00  0.00    -0.354 N 
ATOM     55  N   UNL A   1      41.238  29.325  32.015  1.00  0.00    -0.248 NA
ATOM     56  C   UNL A   1      42.276  27.654  30.759  1.00  0.00     0.031 C 
ATOM     57  C   UNL A   1      42.425  30.442  36.152  1.00  0.00     0.029 A 
ATOM     58  C   UNL A   1      42.074  30.079  34.862  1.00  0.00     0.049 A 
ATOM     59  H   UNL A   1      40.598  30.908  33.603  1.00  0.00     0.167 HD
ATOM     60  C   UNL A   1      42.236  28.738  32.778  1.00  0.00     0.074 A 
ATOM     61  C   UNL A   1      42.824  27.693  31.966  1.00  0.00     0.031 C 
ATOM     62  C   UNL A   1      42.634  29.037  34.040  1.00  0.00     0.037 A 
BRANCH  49  63
ATOM     63  C   UNL A   1      39.563  33.737  36.621  1.00  0.00     0.064 A 
ATOM     64  C   UNL A   1      38.771  33.381  37.723  1.00  0.00     0.173 A 
ATOM     65  C   UNL A   1      40.212  34.980  36.653  1.00  0.00     0.173 A 
ATOM     66  F   UNL A   1      38.117  32.209  37.735  1.00  0.00    -0.203 F 
ATOM     67  C   UNL A   1      38.607  34.249  38.799  1.00  0.00     0.198 A 
ATOM     68  C   UNL A   1      40.071  35.833  37.744  1.00  0.00     0.198 A 
ATOM     69  F   UNL A   1      40.983  35.368  35.626  1.00  0.00    -0.203 F 
ATOM     70  F   UNL A   1      37.802  33.910  39.814  1.00  0.00    -0.200 F 
ATOM     71  C   UNL A   1      39.263  35.472  38.812  1.00  0.00     0.200 A 
ATOM     72  F   UNL A   1      40.713  37.010  37.761  1.00  0.00    -0.200 F 
ATOM     73  F   UNL A   1      39.108  36.304  39.849  1.00  0.00    -0.200 F 
ENDBRANCH  49  63
BRANCH  50  74
ATOM     74  C   UNL A   1      40.526  28.066  28.446  1.00  0.00     0.064 A 
ATOM     75  C   UNL A   1      39.909  26.812  28.343  1.00  0.00     0.173 A 
ATOM     76  C   UNL A   1      41.307  28.500  27.365  1.00  0.00     0.173 A 
ATOM     77  F   UNL A   1      39.169  26.346  29.360  1.00  0.00    -0.203 F 
ATOM     78  C   UNL A   1      40.082  26.013  27.214  1.00  0.00     0.198 A 
ATOM     79  C   UNL A   1      41.459  27.712  26.226  1.00  0.00     0.198 A 
ATOM     80  F   UNL A   1      41.915  29.694  27.411  1.00  0.00    -0.203 F 
ATOM     81  F   UNL A   1      39.516  24.801  27.160  1.00  0.00    -0.200 F 
ATOM     82  C   UNL A   1      40.853  26.466  26.154  1.00  0.00     0.200 A 
ATOM     83  F   UNL A   1      42.194  28.159  25.198  1.00  0.00    -0.200 F 
ATOM     84  F   UNL A   1      41.018  25.700  25.068  1.00  0.00    -0.200 F 
ENDBRANCH  50  74
BRANCH  62  85
ATOM     85  C   UNL A   1      43.731  28.203  34.629  1.00  0.00     0.064 A 
ATOM     86  C   UNL A   1      43.462  27.000  35.296  1.00  0.00     0.173 A 
ATOM     87  C   UNL A   1      45.072  28.590  34.481  1.00  0.00     0.173 A 
ATOM     88  F   UNL A   1      42.195  26.597  35.475  1.00  0.00    -0.203 F 
ATOM     89  C   UNL A   1      44.495  26.223  35.812  1.00  0.00     0.198 A 
ATOM     90  C   UNL A   1      46.104  27.797  34.974  1.00  0.00     0.198 A 
ATOM     91  F   UNL A   1      45.380  29.730  33.844  1.00  0.00    -0.203 F 
ATOM     92  F   UNL A   1      44.214  25.097  36.482  1.00  0.00    -0.200 F 
ATOM     93  C   UNL A   1      45.815  26.618  35.644  1.00  0.00     0.200 A 
ATOM     94  F   UNL A   1      47.378  28.174  34.800  1.00  0.00    -0.200 F 
ATOM     95  F   UNL A   1      46.808  25.865  36.134  1.00  0.00    -0.200 F 
ENDBRANCH  62  85
ENDBRANCH  36  37
ENDBRANCH  28  31
ENDBRANCH  26  27
ENDBRANCH  25  26
ENDBRANCH   1  25
TORSDOF 14
ENDMDL
MODEL 3
REMARK VINA RESULT:     -13.3      3.546      8.320
REMARK SMILES Cc1ccc(O)c(C(=O)[C@@H]2[C@@H](C(=O)NCCCCNC(=O)c3ccc(-c4c5nc(c(-c6c(F)c(F)c(F)c(F)c6F)c6ccc([nH]6)c(-c6c(F)c(F)c(F)c(F)c6F)c6nc(c(-c7c(F)c(F)c(F)c(F)c7F)c7ccc4[nH]7)C=C6)C=C5)cc3)[C@H]3C=C[C@@H]2C3)c1
REMARK SMILES IDX 16 1 15 2 14 3 12 4 13 5 11 7 10 8 88 9 85 10 87 11 89 12
REMARK SMILES IDX 86 13 8 14 9 15 7 16 1 17 2 18 3 19 90 20 4 21 5 22 6 23
REMARK SMILES IDX 17 25 18 26 19 27 20 28 21 30 22 31 23 32 84 33 24 34 83 35
REMARK SMILES IDX 25 36 26 37 27 38 77 39 28 40 82 41 76 42 78 43 29 44 81 45
REMARK SMILES IDX 75 46 74 47 30 49 62 50 42 51 61 52 43 53 46 54 60 55 79 56
REMARK SMILES IDX 44 57 45 58 59 60 80 61 47 62 31 63 32 64 40 65 33 66 34 67
REMARK SMILES IDX 38 68 41 69 35 70 36 71 39 72 37 73 63 74 64 75 72 76 65 77
REMARK SMILES IDX 66 78 70 79 73 80 67 81 68 82 71 83 69 84 48 85 49 86 57 87
REMARK SMILES IDX 50 88 51 89 55 90 58 91 52 92 53 93 56 94 54 95
REMARK H PARENT 14 6 6 24 19 29 78 48 46 59
REMARK Flexibility Score: inf
ROOT
ATOM      1  C   UNL A   1      34.600  23.870  25.264  1.00  0.00     0.023 C 
ENDROOT
BRANCH   1   2
ATOM      2  C   UNL A   1      33.964  25.190  25.697  1.00  0.00     0.116 C 
BRANCH   2   3
ATOM      3  N   UNL A   1      32.612  25.009  26.184  1.00  0.00    -0.356 N 
ATOM      4  C   UNL A   1      31.508  25.791  26.202  1.00  0.00     0.224 C 
ATOM      5  O   UNL A   1      30.514  25.290  26.746  1.00  0.00    -0.275 OA
ATOM      6  H   UNL A   1      32.463  24.124  26.588  1.00  0.00     0.163 HD
BRANCH   4   7
ATOM      7  C   UNL A   1      31.394  27.219  25.678  1.00  0.00     0.097 C 
ATOM      8  C   UNL A   1      32.199  27.655  24.432  1.00  0.00     0.081 C 
ATOM      9  C   UNL A   1      32.762  29.040  24.873  1.00  0.00     0.024 C 
ATOM     10  C   UNL A   1      31.721  28.322  26.730  1.00  0.00     0.025 C 
ATOM     11  C   UNL A   1      33.826  28.787  25.932  1.00  0.00    -0.027 C 
ATOM     12  C   UNL A   1      31.720  29.584  25.862  1.00  0.00     0.017 C 
ATOM     13  C   UNL A   1      33.192  28.376  27.043  1.00  0.00    -0.027 C 
BRANCH   8  14
ATOM     14  C   UNL A   1      31.442  27.545  23.099  1.00  0.00     0.171 C 
ATOM     15  O   UNL A   1      31.934  26.915  22.157  1.00  0.00    -0.294 OA
BRANCH  14  16
ATOM     16  C   UNL A   1      30.169  28.250  22.818  1.00  0.00     0.060 A 
ATOM     17  C   UNL A   1      26.508  27.981  23.761  1.00  0.00     0.044 C 
ATOM     18  C   UNL A   1      27.775  28.489  23.140  1.00  0.00    -0.050 A 
ATOM     19  C   UNL A   1      27.822  29.743  22.525  1.00  0.00     0.007 A 
ATOM     20  C   UNL A   1      28.940  27.715  23.191  1.00  0.00     0.019 A 
ATOM     21  C   UNL A   1      29.024  30.223  22.002  1.00  0.00     0.047 A 
ATOM     22  C   UNL A   1      30.193  29.484  22.158  1.00  0.00     0.126 A 
BRANCH  22  23
ATOM     23  O   UNL A   1      31.338  30.017  21.630  1.00  0.00    -0.507 OA
ATOM     24  H   UNL A   1      31.404  30.941  21.492  1.00  0.00     0.293 HD
ENDBRANCH  22  23
ENDBRANCH  14  16
ENDBRANCH   8  14
ENDBRANCH   4   7
ENDBRANCH   2   3
ENDBRANCH   1   2
BRANCH   1  25
ATOM     25  C   UNL A   1      35.928  23.543  25.928  1.00  0.00     0.023 C 
BRANCH  25  26
ATOM     26  C   UNL A   1      37.144  23.612  25.016  1.00  0.00     0.116 C 
BRANCH  26  27
ATOM     27  N   UNL A   1      38.222  22.698  25.371  1.00  0.00    -0.352 N 
ATOM     28  C   UNL A   1      39.306  22.953  26.184  1.00  0.00     0.251 C 
ATOM     29  H   UNL A   1      38.169  21.793  24.987  1.00  0.00     0.163 HD
ATOM     30  O   UNL A   1      40.178  22.120  26.367  1.00  0.00    -0.269 OA
BRANCH  28  31
ATOM     31  C   UNL A   1      39.409  24.298  26.786  1.00  0.00     0.039 A 
ATOM     32  C   UNL A   1      38.938  24.492  28.084  1.00  0.00     0.014 A 
ATOM     33  C   UNL A   1      40.104  25.306  26.114  1.00  0.00     0.014 A 
ATOM     34  C   UNL A   1      39.247  25.679  28.750  1.00  0.00     0.010 A 
ATOM     35  C   UNL A   1      40.488  26.444  26.810  1.00  0.00     0.010 A 
ATOM     36  C   UNL A   1      40.067  26.640  28.134  1.00  0.00    -0.014 A 
BRANCH  36  37
ATOM     37  C   UNL A   1      40.497  27.864  28.853  1.00  0.00     0.031 A 
ATOM     38  C   UNL A   1      41.904  27.963  29.370  1.00  0.00     0.074 A 
ATOM     39  C   UNL A   1      39.605  28.839  29.115  1.00  0.00     0.049 A 
ATOM     40  N   UNL A   1      42.453  28.897  30.104  1.00  0.00    -0.248 NA
ATOM     41  C   UNL A   1      42.803  26.842  29.053  1.00  0.00     0.031 C 
ATOM     42  C   UNL A   1      38.194  28.826  28.725  1.00  0.00     0.029 A 
ATOM     43  N   UNL A   1      39.751  30.027  29.785  1.00  0.00    -0.354 N 
ATOM     44  C   UNL A   1      43.747  28.461  30.355  1.00  0.00     0.074 A 
ATOM     45  C   UNL A   1      43.884  27.155  29.749  1.00  0.00     0.031 C 
ATOM     46  C   UNL A   1      37.612  29.965  29.137  1.00  0.00     0.029 A 
ATOM     47  C   UNL A   1      38.599  30.771  29.849  1.00  0.00     0.049 A 
ATOM     48  H   UNL A   1      40.603  30.320  30.182  1.00  0.00     0.167 HD
ATOM     49  C   UNL A   1      44.742  29.106  31.007  1.00  0.00     0.037 A 
ATOM     50  C   UNL A   1      38.367  31.968  30.419  1.00  0.00     0.037 A 
ATOM     51  C   UNL A   1      44.616  30.424  31.567  1.00  0.00     0.049 A 
ATOM     52  C   UNL A   1      39.499  32.681  31.110  1.00  0.00     0.074 A 
ATOM     53  C   UNL A   1      45.583  31.199  32.181  1.00  0.00     0.029 A 
ATOM     54  N   UNL A   1      43.443  31.167  31.573  1.00  0.00    -0.354 N 
ATOM     55  N   UNL A   1      40.740  32.293  31.278  1.00  0.00    -0.248 NA
ATOM     56  C   UNL A   1      39.200  34.000  31.684  1.00  0.00     0.031 C 
ATOM     57  C   UNL A   1      44.987  32.397  32.590  1.00  0.00     0.029 A 
ATOM     58  C   UNL A   1      43.660  32.385  32.193  1.00  0.00     0.049 A 
ATOM     59  H   UNL A   1      42.585  30.870  31.193  1.00  0.00     0.167 HD
ATOM     60  C   UNL A   1      41.376  33.327  31.949  1.00  0.00     0.074 A 
ATOM     61  C   UNL A   1      40.387  34.367  32.148  1.00  0.00     0.031 C 
ATOM     62  C   UNL A   1      42.663  33.410  32.367  1.00  0.00     0.037 A 
BRANCH  49  63
ATOM     63  C   UNL A   1      46.058  28.397  31.132  1.00  0.00     0.064 A 
ATOM     64  C   UNL A   1      47.067  28.545  30.167  1.00  0.00     0.173 A 
ATOM     65  C   UNL A   1      46.322  27.572  32.235  1.00  0.00     0.173 A 
ATOM     66  F   UNL A   1      46.859  29.311  29.085  1.00  0.00    -0.203 F 
ATOM     67  C   UNL A   1      48.277  27.868  30.285  1.00  0.00     0.198 A 
ATOM     68  C   UNL A   1      47.545  26.921  32.366  1.00  0.00     0.198 A 
ATOM     69  F   UNL A   1      45.393  27.398  33.187  1.00  0.00    -0.203 F 
ATOM     70  F   UNL A   1      49.203  27.983  29.324  1.00  0.00    -0.200 F 
ATOM     71  C   UNL A   1      48.519  27.063  31.388  1.00  0.00     0.200 A 
ATOM     72  F   UNL A   1      47.782  26.151  33.437  1.00  0.00    -0.200 F 
ATOM     73  F   UNL A   1      49.685  26.415  31.503  1.00  0.00    -0.200 F 
ENDBRANCH  49  63
BRANCH  50  74
ATOM     74  C   UNL A   1      37.020  32.591  30.328  1.00  0.00     0.064 A 
ATOM     75  C   UNL A   1      36.652  33.340  29.202  1.00  0.00     0.173 A 
ATOM     76  C   UNL A   1      36.079  32.456  31.358  1.00  0.00     0.173 A 
ATOM     77  F   UNL A   1      37.526  33.514  28.200  1.00  0.00    -0.203 F 
ATOM     78  C   UNL A   1      35.401  33.949  29.118  1.00  0.00     0.198 A 
ATOM     79  C   UNL A   1      34.819  33.043  31.262  1.00  0.00     0.198 A 
ATOM     80  F   UNL A   1      36.380  31.744  32.454  1.00  0.00    -0.203 F 
ATOM     81  F   UNL A   1      35.091  34.695  28.050  1.00  0.00    -0.200 F 
ATOM     82  C   UNL A   1      34.484  33.795  30.146  1.00  0.00     0.200 A 
ATOM     83  F   UNL A   1      33.930  32.882  32.253  1.00  0.00    -0.200 F 
ATOM     84  F   UNL A   1      33.280  34.379  30.065  1.00  0.00    -0.200 F 
ENDBRANCH  50  74
BRANCH  62  85
ATOM     85  C   UNL A   1      43.084  34.678  33.047  1.00  0.00     0.064 A 
ATOM     86  C   UNL A   1      43.480  35.807  32.316  1.00  0.00     0.173 A 
ATOM     87  C   UNL A   1      43.043  34.778  34.446  1.00  0.00     0.173 A 
ATOM     88  F   UNL A   1      43.549  35.754  30.977  1.00  0.00    -0.203 F 
ATOM     89  C   UNL A   1      43.839  36.986  32.963  1.00  0.00     0.198 A 
ATOM     90  C   UNL A   1      43.377  35.967  35.088  1.00  0.00     0.198 A 
ATOM     91  F   UNL A   1      42.664  33.727  35.188  1.00  0.00    -0.203 F 
ATOM     92  F   UNL A   1      44.254  38.041  32.248  1.00  0.00    -0.200 F 
ATOM     93  C   UNL A   1      43.781  37.067  34.347  1.00  0.00     0.200 A 
ATOM     94  F   UNL A   1      43.308  36.047  36.424  1.00  0.00    -0.200 F 
ATOM     95  F   UNL A   1      44.119  38.205  34.967  1.00  0.00    -0.200 F 
ENDBRANCH  62  85
ENDBRANCH  36  37
ENDBRANCH  28  31
ENDBRANCH  26  27
ENDBRANCH  25  26
ENDBRANCH   1  25
TORSDOF 14
ENDMDL
