MODEL 1
REMARK VINA RESULT:     -11.9      0.000      0.000
REMARK SMILES NC(=O)CC[C@H](NC(=O)N[C@H]1CCOC1)C(=O)NCCCCNC(=O)c1ccc(-c2c3nc(c(-c4c(F)c(F)c(F)c(F)c4F)c4ccc([nH]4)c(-c4c(F)c(F)c(F)c(F)c4F)c4nc(c(-c5c(F)c(F)c(F)c(F)c5F)c5ccc2[nH]5)C=C4)C=C3)cc1
REMARK SMILES IDX 20 1 19 2 18 3 16 4 17 5 6 7 5 8 4 9 2 10 1 11 3 14 7 15
REMARK SMILES IDX 8 16 9 18 10 19 11 21 12 22 15 23 13 24 14 25 21 26 22 27
REMARK SMILES IDX 23 28 24 29 25 31 26 32 27 33 88 34 28 35 87 36 29 37 30 38
REMARK SMILES IDX 31 39 81 40 32 41 86 42 80 43 82 44 33 45 85 46 79 47 78 48
REMARK SMILES IDX 34 50 66 51 46 52 65 53 47 54 50 55 64 56 83 57 48 58 49 59
REMARK SMILES IDX 63 61 84 62 51 63 35 64 36 65 44 66 37 67 38 68 42 69 45 70
REMARK SMILES IDX 39 71 40 72 43 73 41 74 67 75 68 76 76 77 69 78 70 79 74 80
REMARK SMILES IDX 77 81 71 82 72 83 75 84 73 85 52 86 53 87 61 88 54 89 55 90
REMARK SMILES IDX 59 91 62 92 56 93 57 94 60 95 58 96
REMARK H PARENT 18 6 1 12 1 13 7 17 10 20 23 30 82 49 50 60
REMARK Flexibility Score: inf
ROOT
ATOM      1  C   UNL A   1      32.137  30.129  26.961  1.00  0.00     0.023 C 
ENDROOT
BRANCH   1   2
ATOM      2  C   UNL A   1      33.213  29.572  26.037  1.00  0.00     0.116 C 
BRANCH   2   3
ATOM      3  N   UNL A   1      33.647  28.207  26.251  1.00  0.00    -0.354 N 
ATOM      4  C   UNL A   1      33.089  27.058  25.739  1.00  0.00     0.242 C 
ATOM      5  O   UNL A   1      33.707  26.005  25.934  1.00  0.00    -0.273 OA
ATOM      6  H   UNL A   1      34.433  28.088  26.831  1.00  0.00     0.163 HD
BRANCH   4   7
ATOM      7  C   UNL A   1      31.677  27.030  25.041  1.00  0.00     0.173 C 
BRANCH   7   8
ATOM      8  C   UNL A   1      30.602  26.216  25.787  1.00  0.00     0.045 C 
BRANCH   8   9
ATOM      9  C   UNL A   1      30.602  24.697  25.546  1.00  0.00     0.102 C 
BRANCH   9  10
ATOM     10  C   UNL A   1      30.531  23.840  26.792  1.00  0.00     0.217 C 
ATOM     11  N   UNL A   1      29.294  23.351  27.093  1.00  0.00    -0.370 N 
ATOM     12  H   UNL A   1      29.168  22.785  27.889  1.00  0.00     0.159 HD
ATOM     13  H   UNL A   1      28.527  23.564  26.514  1.00  0.00     0.159 HD
ATOM     14  O   UNL A   1      31.503  23.566  27.487  1.00  0.00    -0.275 OA
ENDBRANCH   9  10
ENDBRANCH   8   9
ENDBRANCH   7   8
BRANCH   7  15
ATOM     15  N   UNL A   1      31.619  26.880  23.595  1.00  0.00    -0.326 N 
ATOM     16  C   UNL A   1      30.927  27.270  22.539  1.00  0.00     0.315 C 
ATOM     17  H   UNL A   1      32.344  26.281  23.303  1.00  0.00     0.166 HD
ATOM     18  O   UNL A   1      31.294  26.770  21.468  1.00  0.00    -0.249 OA
ATOM     19  N   UNL A   1      29.850  28.034  22.484  1.00  0.00    -0.333 N 
ATOM     20  H   UNL A   1      29.448  27.938  21.591  1.00  0.00     0.165 HD
BRANCH  19  21
ATOM     21  C   UNL A   1      29.035  28.969  23.253  1.00  0.00     0.112 C 
ATOM     22  C   UNL A   1      29.479  30.392  23.455  1.00  0.00     0.056 C 
ATOM     23  C   UNL A   1      27.579  29.067  22.842  1.00  0.00     0.185 C 
ATOM     24  C   UNL A   1      28.191  31.171  23.635  1.00  0.00     0.162 C 
ATOM     25  O   UNL A   1      27.086  30.304  23.369  1.00  0.00    -0.379 OA
ENDBRANCH  19  21
ENDBRANCH   7  15
ENDBRANCH   4   7
ENDBRANCH   2   3
ENDBRANCH   1   2
BRANCH   1  26
ATOM     26  C   UNL A   1      31.833  31.624  26.881  1.00  0.00     0.023 C 
BRANCH  26  27
ATOM     27  C   UNL A   1      32.929  32.595  27.311  1.00  0.00     0.116 C 
BRANCH  27  28
ATOM     28  N   UNL A   1      32.475  33.933  27.668  1.00  0.00    -0.352 N 
ATOM     29  C   UNL A   1      32.996  34.858  28.547  1.00  0.00     0.251 C 
ATOM     30  H   UNL A   1      31.658  34.226  27.202  1.00  0.00     0.163 HD
ATOM     31  O   UNL A   1      32.435  35.940  28.704  1.00  0.00    -0.269 OA
BRANCH  29  32
ATOM     32  C   UNL A   1      34.193  34.539  29.359  1.00  0.00     0.039 A 
ATOM     33  C   UNL A   1      34.012  34.067  30.663  1.00  0.00     0.014 A 
ATOM     34  C   UNL A   1      35.481  34.665  28.841  1.00  0.00     0.014 A 
ATOM     35  C   UNL A   1      35.109  33.593  31.389  1.00  0.00     0.010 A 
ATOM     36  C   UNL A   1      36.559  34.107  29.527  1.00  0.00     0.010 A 
ATOM     37  C   UNL A   1      36.381  33.540  30.799  1.00  0.00    -0.014 A 
BRANCH  37  38
ATOM     38  C   UNL A   1      37.518  32.850  31.467  1.00  0.00     0.031 A 
ATOM     39  C   UNL A   1      38.201  31.682  30.811  1.00  0.00     0.074 A 
ATOM     40  C   UNL A   1      37.879  33.220  32.713  1.00  0.00     0.049 A 
ATOM     41  N   UNL A   1      39.148  30.907  31.278  1.00  0.00    -0.248 NA
ATOM     42  C   UNL A   1      37.737  31.315  29.465  1.00  0.00     0.031 C 
ATOM     43  C   UNL A   1      37.256  34.291  33.493  1.00  0.00     0.029 A 
ATOM     44  N   UNL A   1      38.849  32.726  33.551  1.00  0.00    -0.354 N 
ATOM     45  C   UNL A   1      39.377  29.954  30.294  1.00  0.00     0.074 A 
ATOM     46  C   UNL A   1      38.434  30.214  29.229  1.00  0.00     0.031 C 
ATOM     47  C   UNL A   1      37.876  34.394  34.679  1.00  0.00     0.029 A 
ATOM     48  C   UNL A   1      38.913  33.371  34.764  1.00  0.00     0.049 A 
ATOM     49  H   UNL A   1      39.444  31.981  33.307  1.00  0.00     0.167 HD
ATOM     50  C   UNL A   1      40.306  28.968  30.270  1.00  0.00     0.037 A 
ATOM     51  C   UNL A   1      39.715  33.161  35.826  1.00  0.00     0.037 A 
ATOM     52  C   UNL A   1      41.266  28.727  31.315  1.00  0.00     0.049 A 
ATOM     53  C   UNL A   1      40.748  32.070  35.766  1.00  0.00     0.074 A 
ATOM     54  C   UNL A   1      42.290  27.797  31.349  1.00  0.00     0.029 A 
ATOM     55  N   UNL A   1      41.322  29.425  32.513  1.00  0.00    -0.354 N 
ATOM     56  N   UNL A   1      41.004  31.225  34.798  1.00  0.00    -0.248 NA
ATOM     57  C   UNL A   1      41.608  31.906  36.947  1.00  0.00     0.031 C 
ATOM     58  C   UNL A   1      42.941  27.904  32.583  1.00  0.00     0.029 A 
ATOM     59  C   UNL A   1      42.351  28.933  33.300  1.00  0.00     0.049 A 
ATOM     60  H   UNL A   1      40.719  30.161  32.766  1.00  0.00     0.167 HD
ATOM     61  C   UNL A   1      42.070  30.453  35.237  1.00  0.00     0.074 A 
ATOM     62  C   UNL A   1      42.423  30.937  36.555  1.00  0.00     0.031 C 
ATOM     63  C   UNL A   1      42.699  29.432  34.606  1.00  0.00     0.037 A 
BRANCH  50  64
ATOM     64  C   UNL A   1      40.336  28.075  29.063  1.00  0.00     0.064 A 
ATOM     65  C   UNL A   1      39.598  26.882  29.014  1.00  0.00     0.173 A 
ATOM     66  C   UNL A   1      41.083  28.430  27.930  1.00  0.00     0.173 A 
ATOM     67  F   UNL A   1      38.875  26.492  30.076  1.00  0.00    -0.203 F 
ATOM     68  C   UNL A   1      39.632  26.064  27.889  1.00  0.00     0.198 A 
ATOM     69  C   UNL A   1      41.089  27.625  26.795  1.00  0.00     0.198 A 
ATOM     70  F   UNL A   1      41.800  29.563  27.921  1.00  0.00    -0.203 F 
ATOM     71  F   UNL A   1      38.958  24.904  27.885  1.00  0.00    -0.200 F 
ATOM     72  C   UNL A   1      40.371  26.439  26.778  1.00  0.00     0.200 A 
ATOM     73  F   UNL A   1      41.794  27.995  25.716  1.00  0.00    -0.200 F 
ATOM     74  F   UNL A   1      40.398  25.653  25.693  1.00  0.00    -0.200 F 
ENDBRANCH  50  64
BRANCH  51  75
ATOM     75  C   UNL A   1      39.595  34.026  37.030  1.00  0.00     0.064 A 
ATOM     76  C   UNL A   1      38.821  33.624  38.127  1.00  0.00     0.173 A 
ATOM     77  C   UNL A   1      40.239  35.269  37.106  1.00  0.00     0.173 A 
ATOM     78  F   UNL A   1      38.168  32.453  38.092  1.00  0.00    -0.203 F 
ATOM     79  C   UNL A   1      38.678  34.441  39.246  1.00  0.00     0.198 A 
ATOM     80  C   UNL A   1      40.118  36.074  38.237  1.00  0.00     0.198 A 
ATOM     81  F   UNL A   1      40.996  35.698  36.085  1.00  0.00    -0.203 F 
ATOM     82  F   UNL A   1      37.894  34.052  40.261  1.00  0.00    -0.200 F 
ATOM     83  C   UNL A   1      39.331  35.664  39.302  1.00  0.00     0.200 A 
ATOM     84  F   UNL A   1      40.760  37.248  38.293  1.00  0.00    -0.200 F 
ATOM     85  F   UNL A   1      39.195  36.448  40.380  1.00  0.00    -0.200 F 
ENDBRANCH  51  75
BRANCH  63  86
ATOM     86  C   UNL A   1      43.858  28.793  35.314  1.00  0.00     0.064 A 
ATOM     87  C   UNL A   1      45.169  29.268  35.159  1.00  0.00     0.173 A 
ATOM     88  C   UNL A   1      43.648  27.716  36.189  1.00  0.00     0.173 A 
ATOM     89  F   UNL A   1      45.423  30.285  34.322  1.00  0.00    -0.203 F 
ATOM     90  C   UNL A   1      46.230  28.671  35.835  1.00  0.00     0.198 A 
ATOM     91  C   UNL A   1      44.707  27.141  36.884  1.00  0.00     0.198 A 
ATOM     92  F   UNL A   1      42.412  27.228  36.376  1.00  0.00    -0.203 F 
ATOM     93  F   UNL A   1      47.480  29.111  35.636  1.00  0.00    -0.200 F 
ATOM     94  C   UNL A   1      45.998  27.614  36.702  1.00  0.00     0.200 A 
ATOM     95  F   UNL A   1      44.479  26.127  37.732  1.00  0.00    -0.200 F 
ATOM     96  F   UNL A   1      47.020  27.046  37.356  1.00  0.00    -0.200 F 
ENDBRANCH  63  86
ENDBRANCH  37  38
ENDBRANCH  29  32
ENDBRANCH  27  28
ENDBRANCH  26  27
ENDBRANCH   1  26
TORSDOF 16
ENDMDL
MODEL 2
REMARK VINA RESULT:     -11.9      1.360      7.954
REMARK SMILES NC(=O)CC[C@H](NC(=O)N[C@H]1CCOC1)C(=O)NCCCCNC(=O)c1ccc(-c2c3nc(c(-c4c(F)c(F)c(F)c(F)c4F)c4ccc([nH]4)c(-c4c(F)c(F)c(F)c(F)c4F)c4nc(c(-c5c(F)c(F)c(F)c(F)c5F)c5ccc2[nH]5)C=C4)C=C3)cc1
REMARK SMILES IDX 20 1 19 2 18 3 16 4 17 5 6 7 5 8 4 9 2 10 1 11 3 14 7 15
REMARK SMILES IDX 8 16 9 18 10 19 11 21 12 22 15 23 13 24 14 25 21 26 22 27
REMARK SMILES IDX 23 28 24 29 25 31 26 32 27 33 88 34 28 35 87 36 29 37 30 38
REMARK SMILES IDX 31 39 81 40 32 41 86 42 80 43 82 44 33 45 85 46 79 47 78 48
REMARK SMILES IDX 34 50 66 51 46 52 65 53 47 54 50 55 64 56 83 57 48 58 49 59
REMARK SMILES IDX 63 61 84 62 51 63 35 64 36 65 44 66 37 67 38 68 42 69 45 70
REMARK SMILES IDX 39 71 40 72 43 73 41 74 67 75 68 76 76 77 69 78 70 79 74 80
REMARK SMILES IDX 77 81 71 82 72 83 75 84 73 85 52 86 53 87 61 88 54 89 55 90
REMARK SMILES IDX 59 91 62 92 56 93 57 94 60 95 58 96
REMARK H PARENT 18 6 1 12 1 13 7 17 10 20 23 30 82 49 50 60
REMARK Flexibility Score: inf
ROOT
ATOM      1  C   UNL A   1      31.835  30.543  26.552  1.00  0.00     0.023 C 
ENDROOT
BRANCH   1   2
ATOM      2  C   UNL A   1      31.298  29.948  25.256  1.00  0.00     0.116 C 
BRANCH   2   3
ATOM      3  N   UNL A   1      32.255  29.414  24.310  1.00  0.00    -0.354 N 
ATOM      4  C   UNL A   1      32.014  28.978  23.027  1.00  0.00     0.242 C 
ATOM      5  O   UNL A   1      33.004  28.694  22.341  1.00  0.00    -0.273 OA
ATOM      6  H   UNL A   1      33.187  29.356  24.621  1.00  0.00     0.163 HD
BRANCH   4   7
ATOM      7  C   UNL A   1      30.563  28.724  22.468  1.00  0.00     0.173 C 
BRANCH   7   8
ATOM      8  C   UNL A   1      29.857  29.975  21.909  1.00  0.00     0.045 C 
BRANCH   8   9
ATOM      9  C   UNL A   1      28.391  30.179  22.327  1.00  0.00     0.102 C 
BRANCH   9  10
ATOM     10  C   UNL A   1      28.129  31.372  23.221  1.00  0.00     0.217 C 
ATOM     11  N   UNL A   1      29.194  32.205  23.409  1.00  0.00    -0.370 N 
ATOM     12  H   UNL A   1      29.100  33.002  23.979  1.00  0.00     0.159 HD
ATOM     13  H   UNL A   1      30.055  32.007  22.975  1.00  0.00     0.159 HD
ATOM     14  O   UNL A   1      27.043  31.613  23.733  1.00  0.00    -0.275 OA
ENDBRANCH   9  10
ENDBRANCH   8   9
ENDBRANCH   7   8
BRANCH   7  15
ATOM     15  N   UNL A   1      29.677  27.841  23.210  1.00  0.00    -0.326 N 
ATOM     16  C   UNL A   1      29.592  26.604  23.668  1.00  0.00     0.315 C 
ATOM     17  H   UNL A   1      28.860  28.333  23.455  1.00  0.00     0.166 HD
ATOM     18  O   UNL A   1      28.522  26.335  24.230  1.00  0.00    -0.249 OA
ATOM     19  N   UNL A   1      30.441  25.601  23.525  1.00  0.00    -0.333 N 
ATOM     20  H   UNL A   1      29.980  24.768  23.774  1.00  0.00     0.165 HD
BRANCH  19  21
ATOM     21  C   UNL A   1      31.807  25.269  23.137  1.00  0.00     0.112 C 
ATOM     22  C   UNL A   1      32.413  23.943  23.510  1.00  0.00     0.056 C 
ATOM     23  C   UNL A   1      32.139  25.453  21.669  1.00  0.00     0.185 C 
ATOM     24  C   UNL A   1      33.444  23.678  22.430  1.00  0.00     0.162 C 
ATOM     25  O   UNL A   1      33.313  24.675  21.413  1.00  0.00    -0.379 OA
ENDBRANCH  19  21
ENDBRANCH   7  15
ENDBRANCH   4   7
ENDBRANCH   2   3
ENDBRANCH   1   2
BRANCH   1  26
ATOM     26  C   UNL A   1      31.573  32.025  26.817  1.00  0.00     0.023 C 
BRANCH  26  27
ATOM     27  C   UNL A   1      32.729  32.864  27.359  1.00  0.00     0.116 C 
BRANCH  27  28
ATOM     28  N   UNL A   1      32.381  34.219  27.766  1.00  0.00    -0.352 N 
ATOM     29  C   UNL A   1      32.987  35.076  28.659  1.00  0.00     0.251 C 
ATOM     30  H   UNL A   1      31.577  34.584  27.329  1.00  0.00     0.163 HD
ATOM     31  O   UNL A   1      32.509  36.189  28.862  1.00  0.00    -0.269 OA
BRANCH  29  32
ATOM     32  C   UNL A   1      34.175  34.646  29.432  1.00  0.00     0.039 A 
ATOM     33  C   UNL A   1      33.990  34.160  30.730  1.00  0.00     0.014 A 
ATOM     34  C   UNL A   1      35.456  34.684  28.882  1.00  0.00     0.014 A 
ATOM     35  C   UNL A   1      35.065  33.586  31.417  1.00  0.00     0.010 A 
ATOM     36  C   UNL A   1      36.504  34.028  29.527  1.00  0.00     0.010 A 
ATOM     37  C   UNL A   1      36.313  33.448  30.791  1.00  0.00    -0.014 A 
BRANCH  37  38
ATOM     38  C   UNL A   1      37.410  32.657  31.415  1.00  0.00     0.031 A 
ATOM     39  C   UNL A   1      37.925  33.003  32.785  1.00  0.00     0.074 A 
ATOM     40  C   UNL A   1      38.008  31.678  30.705  1.00  0.00     0.049 A 
ATOM     41  N   UNL A   1      38.926  32.483  33.449  1.00  0.00    -0.248 NA
ATOM     42  C   UNL A   1      37.245  34.101  33.488  1.00  0.00     0.031 C 
ATOM     43  C   UNL A   1      37.654  31.283  29.340  1.00  0.00     0.029 A 
ATOM     44  N   UNL A   1      39.050  30.843  31.028  1.00  0.00    -0.354 N 
ATOM     45  C   UNL A   1      39.008  33.200  34.635  1.00  0.00     0.074 A 
ATOM     46  C   UNL A   1      37.990  34.227  34.576  1.00  0.00     0.031 C 
ATOM     47  C   UNL A   1      38.442  30.267  28.954  1.00  0.00     0.029 A 
ATOM     48  C   UNL A   1      39.385  29.964  30.025  1.00  0.00     0.049 A 
ATOM     49  H   UNL A   1      39.515  30.871  31.895  1.00  0.00     0.167 HD
ATOM     50  C   UNL A   1      39.837  33.005  35.688  1.00  0.00     0.037 A 
ATOM     51  C   UNL A   1      40.345  29.020  29.973  1.00  0.00     0.037 A 
ATOM     52  C   UNL A   1      40.829  31.964  35.762  1.00  0.00     0.049 A 
ATOM     53  C   UNL A   1      41.243  28.814  31.162  1.00  0.00     0.074 A 
ATOM     54  C   UNL A   1      41.668  31.644  36.815  1.00  0.00     0.029 A 
ATOM     55  N   UNL A   1      41.113  31.070  34.740  1.00  0.00    -0.354 N 
ATOM     56  N   UNL A   1      41.257  29.450  32.308  1.00  0.00    -0.248 NA
ATOM     57  C   UNL A   1      42.254  27.753  31.053  1.00  0.00     0.031 C 
ATOM     58  C   UNL A   1      42.489  30.583  36.416  1.00  0.00     0.029 A 
ATOM     59  C   UNL A   1      42.129  30.212  35.131  1.00  0.00     0.049 A 
ATOM     60  H   UNL A   1      40.662  31.050  33.865  1.00  0.00     0.167 HD
ATOM     61  C   UNL A   1      42.254  28.850  33.064  1.00  0.00     0.074 A 
ATOM     62  C   UNL A   1      42.813  27.789  32.254  1.00  0.00     0.031 C 
ATOM     63  C   UNL A   1      42.669  29.152  34.319  1.00  0.00     0.037 A 
BRANCH  50  64
ATOM     64  C   UNL A   1      39.701  33.936  36.858  1.00  0.00     0.064 A 
ATOM     65  C   UNL A   1      38.916  33.603  37.973  1.00  0.00     0.173 A 
ATOM     66  C   UNL A   1      40.389  35.159  36.882  1.00  0.00     0.173 A 
ATOM     67  F   UNL A   1      38.230  32.450  37.995  1.00  0.00    -0.203 F 
ATOM     68  C   UNL A   1      38.799  34.473  39.053  1.00  0.00     0.198 A 
ATOM     69  C   UNL A   1      40.294  36.012  37.978  1.00  0.00     0.198 A 
ATOM     70  F   UNL A   1      41.158  35.523  35.846  1.00  0.00    -0.203 F 
ATOM     71  F   UNL A   1      38.004  34.155  40.084  1.00  0.00    -0.200 F 
ATOM     72  C   UNL A   1      39.494  35.673  39.058  1.00  0.00     0.200 A 
ATOM     73  F   UNL A   1      40.977  37.166  37.988  1.00  0.00    -0.200 F 
ATOM     74  F   UNL A   1      39.386  36.507  40.102  1.00  0.00    -0.200 F 
ENDBRANCH  50  64
BRANCH  51  75
ATOM     75  C   UNL A   1      40.489  28.172  28.760  1.00  0.00     0.064 A 
ATOM     76  C   UNL A   1      41.285  28.589  27.684  1.00  0.00     0.173 A 
ATOM     77  C   UNL A   1      39.830  26.939  28.645  1.00  0.00     0.173 A 
ATOM     78  F   UNL A   1      41.917  29.771  27.738  1.00  0.00    -0.203 F 
ATOM     79  C   UNL A   1      41.400  27.816  26.531  1.00  0.00     0.198 A 
ATOM     80  C   UNL A   1      39.968  26.154  27.503  1.00  0.00     0.198 A 
ATOM     81  F   UNL A   1      39.060  26.493  29.648  1.00  0.00    -0.203 F 
ATOM     82  F   UNL A   1      42.130  28.261  25.500  1.00  0.00    -0.200 F 
ATOM     83  C   UNL A   1      40.745  26.597  26.443  1.00  0.00     0.200 A 
ATOM     84  F   UNL A   1      39.344  24.971  27.426  1.00  0.00    -0.200 F 
ATOM     85  F   UNL A   1      40.858  25.852  25.335  1.00  0.00    -0.200 F 
ENDBRANCH  51  75
BRANCH  63  86
ATOM     86  C   UNL A   1      43.757  28.302  34.908  1.00  0.00     0.064 A 
ATOM     87  C   UNL A   1      43.472  27.115  35.598  1.00  0.00     0.173 A 
ATOM     88  C   UNL A   1      45.104  28.662  34.746  1.00  0.00     0.173 A 
ATOM     89  F   UNL A   1      42.200  26.737  35.793  1.00  0.00    -0.203 F 
ATOM     90  C   UNL A   1      44.495  26.332  36.126  1.00  0.00     0.198 A 
ATOM     91  C   UNL A   1      46.125  27.862  35.251  1.00  0.00     0.198 A 
ATOM     92  F   UNL A   1      45.429  29.785  34.089  1.00  0.00    -0.203 F 
ATOM     93  F   UNL A   1      44.197  25.226  36.823  1.00  0.00    -0.200 F 
ATOM     94  C   UNL A   1      45.820  26.701  35.946  1.00  0.00     0.200 A 
ATOM     95  F   UNL A   1      47.405  28.214  35.065  1.00  0.00    -0.200 F 
ATOM     96  F   UNL A   1      46.803  25.942  36.450  1.00  0.00    -0.200 F 
ENDBRANCH  63  86
ENDBRANCH  37  38
ENDBRANCH  29  32
ENDBRANCH  27  28
ENDBRANCH  26  27
ENDBRANCH   1  26
TORSDOF 16
ENDMDL
MODEL 3
REMARK VINA RESULT:     -11.9      2.099      7.938
REMARK SMILES NC(=O)CC[C@H](NC(=O)N[C@H]1CCOC1)C(=O)NCCCCNC(=O)c1ccc(-c2c3nc(c(-c4c(F)c(F)c(F)c(F)c4F)c4ccc([nH]4)c(-c4c(F)c(F)c(F)c(F)c4F)c4nc(c(-c5c(F)c(F)c(F)c(F)c5F)c5ccc2[nH]5)C=C4)C=C3)cc1
REMARK SMILES IDX 20 1 19 2 18 3 16 4 17 5 6 7 5 8 4 9 2 10 1 11 3 14 7 15
REMARK SMILES IDX 8 16 9 18 10 19 11 21 12 22 15 23 13 24 14 25 21 26 22 27
REMARK SMILES IDX 23 28 24 29 25 31 26 32 27 33 88 34 28 35 87 36 29 37 30 38
REMARK SMILES IDX 31 39 81 40 32 41 86 42 80 43 82 44 33 45 85 46 79 47 78 48
REMARK SMILES IDX 34 50 66 51 46 52 65 53 47 54 50 55 64 56 83 57 48 58 49 59
REMARK SMILES IDX 63 61 84 62 51 63 35 64 36 65 44 66 37 67 38 68 42 69 45 70
REMARK SMILES IDX 39 71 40 72 43 73 41 74 67 75 68 76 76 77 69 78 70 79 74 80
REMARK SMILES IDX 77 81 71 82 72 83 75 84 73 85 52 86 53 87 61 88 54 89 55 90
REMARK SMILES IDX 59 91 62 92 56 93 57 94 60 95 58 96
REMARK H PARENT 18 6 1 12 1 13 7 17 10 20 23 30 82 49 50 60
REMARK Flexibility Score: inf
ROOT
ATOM      1  C   UNL A   1      32.458  27.668  26.965  1.00  0.00     0.023 C 
ENDROOT
BRANCH   1   2
ATOM      2  C   UNL A   1      31.826  26.533  26.167  1.00  0.00     0.116 C 
BRANCH   2   3
ATOM      3  N   UNL A   1      30.411  26.619  25.874  1.00  0.00    -0.354 N 
ATOM      4  C   UNL A   1      29.790  26.408  24.664  1.00  0.00     0.242 C 
ATOM      5  O   UNL A   1      28.553  26.393  24.669  1.00  0.00    -0.273 OA
ATOM      6  H   UNL A   1      29.825  26.857  26.628  1.00  0.00     0.163 HD
BRANCH   4   7
ATOM      7  C   UNL A   1      30.578  26.309  23.304  1.00  0.00     0.173 C 
BRANCH   7   8
ATOM      8  C   UNL A   1      31.005  24.882  22.907  1.00  0.00     0.045 C 
BRANCH   8   9
ATOM      9  C   UNL A   1      32.510  24.652  22.689  1.00  0.00     0.102 C 
BRANCH   9  10
ATOM     10  C   UNL A   1      32.990  24.785  21.259  1.00  0.00     0.217 C 
ATOM     11  N   UNL A   1      33.059  23.616  20.557  1.00  0.00    -0.370 N 
ATOM     12  H   UNL A   1      33.362  23.622  19.621  1.00  0.00     0.159 HD
ATOM     13  H   UNL A   1      32.805  22.768  20.988  1.00  0.00     0.159 HD
ATOM     14  O   UNL A   1      33.278  25.853  20.734  1.00  0.00    -0.275 OA
ENDBRANCH   9  10
ENDBRANCH   8   9
ENDBRANCH   7   8
BRANCH   7  15
ATOM     15  N   UNL A   1      31.582  27.319  23.006  1.00  0.00    -0.326 N 
ATOM     16  C   UNL A   1      31.735  28.626  22.893  1.00  0.00     0.315 C 
ATOM     17  H   UNL A   1      32.444  26.876  22.828  1.00  0.00     0.166 HD
ATOM     18  O   UNL A   1      32.868  28.985  22.545  1.00  0.00    -0.249 OA
ATOM     19  N   UNL A   1      30.831  29.585  23.003  1.00  0.00    -0.333 N 
ATOM     20  H   UNL A   1      31.212  30.413  22.632  1.00  0.00     0.165 HD
BRANCH  19  21
ATOM     21  C   UNL A   1      29.480  29.872  23.471  1.00  0.00     0.112 C 
ATOM     22  C   UNL A   1      29.055  31.282  23.781  1.00  0.00     0.056 C 
ATOM     23  C   UNL A   1      28.355  29.300  22.629  1.00  0.00     0.185 C 
ATOM     24  C   UNL A   1      27.558  31.290  23.544  1.00  0.00     0.162 C 
ATOM     25  O   UNL A   1      27.176  30.041  22.962  1.00  0.00    -0.379 OA
ENDBRANCH  19  21
ENDBRANCH   7  15
ENDBRANCH   4   7
ENDBRANCH   2   3
ENDBRANCH   1   2
BRANCH   1  26
ATOM     26  C   UNL A   1      31.842  29.060  26.833  1.00  0.00     0.023 C 
BRANCH  26  27
ATOM     27  C   UNL A   1      32.668  30.138  26.136  1.00  0.00     0.116 C 
BRANCH  27  28
ATOM     28  N   UNL A   1      32.573  31.472  26.716  1.00  0.00    -0.352 N 
ATOM     29  C   UNL A   1      33.467  32.185  27.486  1.00  0.00     0.251 C 
ATOM     30  H   UNL A   1      31.729  31.942  26.526  1.00  0.00     0.163 HD
ATOM     31  O   UNL A   1      33.171  33.309  27.885  1.00  0.00    -0.269 OA
BRANCH  29  32
ATOM     32  C   UNL A   1      34.757  31.587  27.897  1.00  0.00     0.039 A 
ATOM     33  C   UNL A   1      35.860  32.430  28.072  1.00  0.00     0.014 A 
ATOM     34  C   UNL A   1      34.883  30.221  28.144  1.00  0.00     0.014 A 
ATOM     35  C   UNL A   1      37.040  31.923  28.626  1.00  0.00     0.010 A 
ATOM     36  C   UNL A   1      36.024  29.737  28.781  1.00  0.00     0.010 A 
ATOM     37  C   UNL A   1      37.106  30.588  29.055  1.00  0.00    -0.014 A 
BRANCH  37  38
ATOM     38  C   UNL A   1      38.269  30.081  29.836  1.00  0.00     0.031 A 
ATOM     39  C   UNL A   1      38.511  30.549  31.244  1.00  0.00     0.074 A 
ATOM     40  C   UNL A   1      39.162  29.264  29.241  1.00  0.00     0.049 A 
ATOM     41  N   UNL A   1      39.513  30.283  32.044  1.00  0.00    -0.248 NA
ATOM     42  C   UNL A   1      37.511  31.461  31.819  1.00  0.00     0.031 C 
ATOM     43  C   UNL A   1      39.085  28.787  27.858  1.00  0.00     0.029 A 
ATOM     44  N   UNL A   1      40.320  28.699  29.718  1.00  0.00    -0.354 N 
ATOM     45  C   UNL A   1      39.275  31.008  33.204  1.00  0.00     0.074 A 
ATOM     46  C   UNL A   1      38.063  31.767  32.984  1.00  0.00     0.031 C 
ATOM     47  C   UNL A   1      40.129  27.982  27.609  1.00  0.00     0.029 A 
ATOM     48  C   UNL A   1      40.973  27.916  28.797  1.00  0.00     0.049 A 
ATOM     49  H   UNL A   1      40.651  28.842  30.634  1.00  0.00     0.167 HD
ATOM     50  C   UNL A   1      39.987  31.021  34.356  1.00  0.00     0.037 A 
ATOM     51  C   UNL A   1      42.125  27.223  28.897  1.00  0.00     0.037 A 
ATOM     52  C   UNL A   1      41.175  30.242  34.589  1.00  0.00     0.049 A 
ATOM     53  C   UNL A   1      42.887  27.242  30.193  1.00  0.00     0.074 A 
ATOM     54  C   UNL A   1      41.925  30.136  35.747  1.00  0.00     0.029 A 
ATOM     55  N   UNL A   1      41.786  29.432  33.642  1.00  0.00    -0.354 N 
ATOM     56  N   UNL A   1      42.609  27.873  31.307  1.00  0.00    -0.248 NA
ATOM     57  C   UNL A   1      44.123  26.447  30.247  1.00  0.00     0.031 C 
ATOM     58  C   UNL A   1      43.013  29.294  35.491  1.00  0.00     0.029 A 
ATOM     59  C   UNL A   1      42.915  28.839  34.186  1.00  0.00     0.049 A 
ATOM     60  H   UNL A   1      41.466  29.300  32.721  1.00  0.00     0.167 HD
ATOM     61  C   UNL A   1      43.613  27.529  32.201  1.00  0.00     0.074 A 
ATOM     62  C   UNL A   1      44.501  26.622  31.505  1.00  0.00     0.031 C 
ATOM     63  C   UNL A   1      43.785  27.929  33.485  1.00  0.00     0.037 A 
BRANCH  50  64
ATOM     64  C   UNL A   1      39.491  31.903  35.466  1.00  0.00     0.064 A 
ATOM     65  C   UNL A   1      39.919  33.234  35.593  1.00  0.00     0.173 A 
ATOM     66  C   UNL A   1      38.553  31.425  36.394  1.00  0.00     0.173 A 
ATOM     67  F   UNL A   1      40.824  33.735  34.738  1.00  0.00    -0.203 F 
ATOM     68  C   UNL A   1      39.452  34.042  36.625  1.00  0.00     0.198 A 
ATOM     69  C   UNL A   1      38.064  32.247  37.405  1.00  0.00     0.198 A 
ATOM     70  F   UNL A   1      38.105  30.163  36.314  1.00  0.00    -0.203 F 
ATOM     71  F   UNL A   1      39.914  35.294  36.755  1.00  0.00    -0.200 F 
ATOM     72  C   UNL A   1      38.519  33.551  37.525  1.00  0.00     0.200 A 
ATOM     73  F   UNL A   1      37.152  31.775  38.268  1.00  0.00    -0.200 F 
ATOM     74  F   UNL A   1      38.065  34.332  38.514  1.00  0.00    -0.200 F 
ENDBRANCH  50  64
BRANCH  51  75
ATOM     75  C   UNL A   1      42.614  26.424  27.742  1.00  0.00     0.064 A 
ATOM     76  C   UNL A   1      43.536  26.963  26.835  1.00  0.00     0.173 A 
ATOM     77  C   UNL A   1      42.165  25.115  27.515  1.00  0.00     0.173 A 
ATOM     78  F   UNL A   1      43.978  28.220  26.999  1.00  0.00    -0.203 F 
ATOM     79  C   UNL A   1      43.976  26.233  25.734  1.00  0.00     0.198 A 
ATOM     80  C   UNL A   1      42.626  24.375  26.428  1.00  0.00     0.198 A 
ATOM     81  F   UNL A   1      41.285  24.550  28.355  1.00  0.00    -0.203 F 
ATOM     82  F   UNL A   1      44.822  26.791  24.858  1.00  0.00    -0.200 F 
ATOM     83  C   UNL A   1      43.524  24.938  25.533  1.00  0.00     0.200 A 
ATOM     84  F   UNL A   1      42.197  23.119  26.245  1.00  0.00    -0.200 F 
ATOM     85  F   UNL A   1      43.949  24.235  24.475  1.00  0.00    -0.200 F 
ENDBRANCH  51  75
BRANCH  63  86
ATOM     86  C   UNL A   1      44.956  27.363  34.233  1.00  0.00     0.064 A 
ATOM     87  C   UNL A   1      46.194  28.020  34.271  1.00  0.00     0.173 A 
ATOM     88  C   UNL A   1      44.825  26.165  34.952  1.00  0.00     0.173 A 
ATOM     89  F   UNL A   1      46.374  29.160  33.587  1.00  0.00    -0.203 F 
ATOM     90  C   UNL A   1      47.266  27.486  34.981  1.00  0.00     0.198 A 
ATOM     91  C   UNL A   1      45.890  25.648  35.684  1.00  0.00     0.198 A 
ATOM     92  F   UNL A   1      43.660  25.500  34.952  1.00  0.00    -0.203 F 
ATOM     93  F   UNL A   1      48.453  28.107  34.965  1.00  0.00    -0.200 F 
ATOM     94  C   UNL A   1      47.111  26.305  35.693  1.00  0.00     0.200 A 
ATOM     95  F   UNL A   1      45.735  24.513  36.382  1.00  0.00    -0.200 F 
ATOM     96  F   UNL A   1      48.142  25.796  36.381  1.00  0.00    -0.200 F 
ENDBRANCH  63  86
ENDBRANCH  37  38
ENDBRANCH  29  32
ENDBRANCH  27  28
ENDBRANCH  26  27
ENDBRANCH   1  26
TORSDOF 16
ENDMDL
