MODEL 1
REMARK VINA RESULT:     -11.5      0.000      0.000
REMARK SMILES CCc1ccsc1C(=O)N(CC(=O)NCCCCNC(=O)c1ccc(-c2c3nc(c(-c4c(F)c(F)c(F)c(F)c4F)c4ccc([nH]4)c(-c4c(F)c(F)c(F)c(F)c4F)c4nc(c(-c5c(F)c(F)c(F)c(F)c5F)c5ccc2[nH]5)C=C4)C=C3)cc1)C(C)(C)C
REMARK SMILES IDX 15 1 14 2 12 3 13 4 11 6 10 7 8 8 9 9 7 10 3 11 4 12 5 13
REMARK SMILES IDX 6 14 2 15 1 16 85 17 86 18 87 19 88 20 16 21 17 22 18 23
REMARK SMILES IDX 19 24 20 25 21 27 22 28 23 29 84 30 24 31 83 32 25 33 26 34
REMARK SMILES IDX 27 35 77 36 28 37 82 38 76 39 78 40 29 41 81 42 75 43 74 44
REMARK SMILES IDX 30 46 62 47 42 48 61 49 43 50 46 51 60 52 79 53 44 54 45 55
REMARK SMILES IDX 59 57 80 58 47 59 31 60 32 61 40 62 33 63 34 64 38 65 41 66
REMARK SMILES IDX 35 67 36 68 39 69 37 70 63 71 64 72 72 73 65 74 66 75 70 76
REMARK SMILES IDX 73 77 67 78 68 79 71 80 69 81 48 82 49 83 57 84 50 85 51 86
REMARK SMILES IDX 55 87 58 88 52 89 53 90 56 91 54 92
REMARK H PARENT 14 5 19 26 78 45 46 56
REMARK Flexibility Score: inf
ROOT
ATOM      1  C   UNL A   1      31.517  30.002  25.347  1.00  0.00     0.116 C 
ENDROOT
BRANCH   1   2
ATOM      2  N   UNL A   1      32.710  29.731  24.574  1.00  0.00    -0.355 N 
ATOM      3  C   UNL A   1      33.364  28.551  24.393  1.00  0.00     0.239 C 
ATOM      4  O   UNL A   1      34.306  28.531  23.597  1.00  0.00    -0.273 OA
ATOM      5  H   UNL A   1      33.102  30.508  24.115  1.00  0.00     0.163 HD
BRANCH   3   6
ATOM      6  C   UNL A   1      32.818  27.261  25.012  1.00  0.00     0.220 C 
BRANCH   6   7
ATOM      7  N   UNL A   1      32.530  26.073  24.214  1.00  0.00    -0.324 N 
BRANCH   7   8
ATOM      8  C   UNL A   1      33.484  25.034  23.988  1.00  0.00     0.265 C 
ATOM      9  O   UNL A   1      33.901  24.919  22.829  1.00  0.00    -0.268 OA
BRANCH   8  10
ATOM     10  C   UNL A   1      34.069  24.126  25.035  1.00  0.00     0.095 A 
ATOM     11  C   UNL A   1      35.299  23.550  25.405  1.00  0.00    -0.025 A 
ATOM     12  C   UNL A   1      35.173  22.730  26.596  1.00  0.00     0.016 A 
ATOM     13  C   UNL A   1      33.913  22.704  27.123  1.00  0.00     0.066 A 
ATOM     14  S   UNL A   1      32.841  23.628  26.205  1.00  0.00    -0.138 S 
BRANCH  11  15
ATOM     15  C   UNL A   1      36.681  23.648  24.799  1.00  0.00     0.034 C 
ATOM     16  C   UNL A   1      36.737  22.994  23.410  1.00  0.00     0.009 C 
ENDBRANCH  11  15
ENDBRANCH   8  10
ENDBRANCH   7   8
BRANCH   7  17
ATOM     17  C   UNL A   1      31.167  26.001  23.529  1.00  0.00     0.035 C 
ATOM     18  C   UNL A   1      30.085  26.679  24.394  1.00  0.00     0.034 C 
ATOM     19  C   UNL A   1      31.172  26.660  22.126  1.00  0.00     0.034 C 
ATOM     20  C   UNL A   1      30.681  24.548  23.279  1.00  0.00     0.034 C 
ENDBRANCH   7  17
ENDBRANCH   6   7
ENDBRANCH   3   6
ENDBRANCH   1   2
BRANCH   1  21
ATOM     21  C   UNL A   1      31.849  30.554  26.724  1.00  0.00     0.023 C 
BRANCH  21  22
ATOM     22  C   UNL A   1      31.593  32.053  26.852  1.00  0.00     0.023 C 
BRANCH  22  23
ATOM     23  C   UNL A   1      32.816  32.834  27.303  1.00  0.00     0.116 C 
BRANCH  23  24
ATOM     24  N   UNL A   1      32.493  34.214  27.630  1.00  0.00    -0.352 N 
ATOM     25  C   UNL A   1      33.003  34.992  28.641  1.00  0.00     0.251 C 
ATOM     26  H   UNL A   1      31.823  34.647  27.052  1.00  0.00     0.163 HD
ATOM     27  O   UNL A   1      32.508  36.069  28.922  1.00  0.00    -0.269 OA
BRANCH  25  28
ATOM     28  C   UNL A   1      34.157  34.473  29.400  1.00  0.00     0.039 A 
ATOM     29  C   UNL A   1      33.932  33.817  30.609  1.00  0.00     0.014 A 
ATOM     30  C   UNL A   1      35.447  34.591  28.876  1.00  0.00     0.014 A 
ATOM     31  C   UNL A   1      35.007  33.230  31.275  1.00  0.00     0.010 A 
ATOM     32  C   UNL A   1      36.498  33.925  29.490  1.00  0.00     0.010 A 
ATOM     33  C   UNL A   1      36.290  33.253  30.705  1.00  0.00    -0.014 A 
BRANCH  33  34
ATOM     34  C   UNL A   1      37.439  32.600  31.375  1.00  0.00     0.031 A 
ATOM     35  C   UNL A   1      38.126  31.439  30.717  1.00  0.00     0.074 A 
ATOM     36  C   UNL A   1      37.814  33.010  32.601  1.00  0.00     0.049 A 
ATOM     37  N   UNL A   1      39.110  30.698  31.160  1.00  0.00    -0.248 NA
ATOM     38  C   UNL A   1      37.616  31.032  29.398  1.00  0.00     0.031 C 
ATOM     39  C   UNL A   1      37.174  34.080  33.368  1.00  0.00     0.029 A 
ATOM     40  N   UNL A   1      38.817  32.563  33.424  1.00  0.00    -0.354 N 
ATOM     41  C   UNL A   1      39.322  29.734  30.185  1.00  0.00     0.074 A 
ATOM     42  C   UNL A   1      38.321  29.937  29.162  1.00  0.00     0.031 C 
ATOM     43  C   UNL A   1      37.812  34.220  34.541  1.00  0.00     0.029 A 
ATOM     44  C   UNL A   1      38.879  33.227  34.623  1.00  0.00     0.049 A 
ATOM     45  H   UNL A   1      39.431  31.835  33.178  1.00  0.00     0.167 HD
ATOM     46  C   UNL A   1      40.286  28.784  30.132  1.00  0.00     0.037 A 
ATOM     47  C   UNL A   1      39.702  33.049  35.674  1.00  0.00     0.037 A 
ATOM     48  C   UNL A   1      41.289  28.603  31.147  1.00  0.00     0.049 A 
ATOM     49  C   UNL A   1      40.774  31.998  35.590  1.00  0.00     0.074 A 
ATOM     50  C   UNL A   1      42.352  27.718  31.164  1.00  0.00     0.029 A 
ATOM     51  N   UNL A   1      41.346  29.320  32.335  1.00  0.00    -0.354 N 
ATOM     52  N   UNL A   1      41.025  31.147  34.624  1.00  0.00    -0.248 NA
ATOM     53  C   UNL A   1      41.687  31.891  36.736  1.00  0.00     0.031 C 
ATOM     54  C   UNL A   1      43.018  27.860  32.386  1.00  0.00     0.029 A 
ATOM     55  C   UNL A   1      42.410  28.877  33.105  1.00  0.00     0.049 A 
ATOM     56  H   UNL A   1      40.722  30.037  32.593  1.00  0.00     0.167 HD
ATOM     57  C   UNL A   1      42.133  30.417  35.034  1.00  0.00     0.074 A 
ATOM     58  C   UNL A   1      42.518  30.942  36.329  1.00  0.00     0.031 C 
ATOM     59  C   UNL A   1      42.774  29.407  34.396  1.00  0.00     0.037 A 
BRANCH  46  60
ATOM     60  C   UNL A   1      40.289  27.873  28.937  1.00  0.00     0.064 A 
ATOM     61  C   UNL A   1      39.580  26.662  28.928  1.00  0.00     0.173 A 
ATOM     62  C   UNL A   1      41.014  28.213  27.785  1.00  0.00     0.173 A 
ATOM     63  F   UNL A   1      38.881  26.280  30.008  1.00  0.00    -0.203 F 
ATOM     64  C   UNL A   1      39.636  25.804  27.832  1.00  0.00     0.198 A 
ATOM     65  C   UNL A   1      41.036  27.371  26.676  1.00  0.00     0.198 A 
ATOM     66  F   UNL A   1      41.706  29.362  27.733  1.00  0.00    -0.203 F 
ATOM     67  F   UNL A   1      39.010  24.619  27.879  1.00  0.00    -0.200 F 
ATOM     68  C   UNL A   1      40.359  26.162  26.706  1.00  0.00     0.200 A 
ATOM     69  F   UNL A   1      41.724  27.725  25.581  1.00  0.00    -0.200 F 
ATOM     70  F   UNL A   1      40.413  25.335  25.652  1.00  0.00    -0.200 F 
ENDBRANCH  46  60
BRANCH  47  71
ATOM     71  C   UNL A   1      39.550  33.907  36.877  1.00  0.00     0.064 A 
ATOM     72  C   UNL A   1      40.123  35.185  36.934  1.00  0.00     0.173 A 
ATOM     73  C   UNL A   1      38.804  33.477  37.985  1.00  0.00     0.173 A 
ATOM     74  F   UNL A   1      40.858  35.634  35.907  1.00  0.00    -0.203 F 
ATOM     75  C   UNL A   1      39.967  35.994  38.058  1.00  0.00     0.198 A 
ATOM     76  C   UNL A   1      38.625  34.297  39.095  1.00  0.00     0.198 A 
ATOM     77  F   UNL A   1      38.228  32.266  37.976  1.00  0.00    -0.203 F 
ATOM     78  F   UNL A   1      40.556  37.197  38.101  1.00  0.00    -0.200 F 
ATOM     79  C   UNL A   1      39.212  35.553  39.135  1.00  0.00     0.200 A 
ATOM     80  F   UNL A   1      37.879  33.874  40.125  1.00  0.00    -0.200 F 
ATOM     81  F   UNL A   1      39.053  36.336  40.210  1.00  0.00    -0.200 F 
ENDBRANCH  47  71
BRANCH  59  82
ATOM     82  C   UNL A   1      43.975  28.816  35.078  1.00  0.00     0.064 A 
ATOM     83  C   UNL A   1      45.267  29.322  34.867  1.00  0.00     0.173 A 
ATOM     84  C   UNL A   1      43.826  27.754  35.983  1.00  0.00     0.173 A 
ATOM     85  F   UNL A   1      45.465  30.327  34.001  1.00  0.00    -0.203 F 
ATOM     86  C   UNL A   1      46.367  28.767  35.517  1.00  0.00     0.198 A 
ATOM     87  C   UNL A   1      44.923  27.225  36.656  1.00  0.00     0.198 A 
ATOM     88  F   UNL A   1      42.611  27.238  36.226  1.00  0.00    -0.203 F 
ATOM     89  F   UNL A   1      47.597  29.234  35.261  1.00  0.00    -0.200 F 
ATOM     90  C   UNL A   1      46.193  27.726  36.416  1.00  0.00     0.200 A 
ATOM     91  F   UNL A   1      44.751  26.229  37.536  1.00  0.00    -0.200 F 
ATOM     92  F   UNL A   1      47.251  27.200  37.046  1.00  0.00    -0.200 F 
ENDBRANCH  59  82
ENDBRANCH  33  34
ENDBRANCH  25  28
ENDBRANCH  23  24
ENDBRANCH  22  23
ENDBRANCH  21  22
ENDBRANCH   1  21
TORSDOF 16
ENDMDL
MODEL 2
REMARK VINA RESULT:     -11.4      0.652      1.906
REMARK SMILES CCc1ccsc1C(=O)N(CC(=O)NCCCCNC(=O)c1ccc(-c2c3nc(c(-c4c(F)c(F)c(F)c(F)c4F)c4ccc([nH]4)c(-c4c(F)c(F)c(F)c(F)c4F)c4nc(c(-c5c(F)c(F)c(F)c(F)c5F)c5ccc2[nH]5)C=C4)C=C3)cc1)C(C)(C)C
REMARK SMILES IDX 15 1 14 2 12 3 13 4 11 6 10 7 8 8 9 9 7 10 3 11 4 12 5 13
REMARK SMILES IDX 6 14 2 15 1 16 85 17 86 18 87 19 88 20 16 21 17 22 18 23
REMARK SMILES IDX 19 24 20 25 21 27 22 28 23 29 84 30 24 31 83 32 25 33 26 34
REMARK SMILES IDX 27 35 77 36 28 37 82 38 76 39 78 40 29 41 81 42 75 43 74 44
REMARK SMILES IDX 30 46 62 47 42 48 61 49 43 50 46 51 60 52 79 53 44 54 45 55
REMARK SMILES IDX 59 57 80 58 47 59 31 60 32 61 40 62 33 63 34 64 38 65 41 66
REMARK SMILES IDX 35 67 36 68 39 69 37 70 63 71 64 72 72 73 65 74 66 75 70 76
REMARK SMILES IDX 73 77 67 78 68 79 71 80 69 81 48 82 49 83 57 84 50 85 51 86
REMARK SMILES IDX 55 87 58 88 52 89 53 90 56 91 54 92
REMARK H PARENT 14 5 19 26 78 45 46 56
REMARK Flexibility Score: inf
ROOT
ATOM      1  C   UNL A   1      31.624  29.888  25.396  1.00  0.00     0.116 C 
ENDROOT
BRANCH   1   2
ATOM      2  N   UNL A   1      32.807  29.691  24.586  1.00  0.00    -0.355 N 
ATOM      3  C   UNL A   1      33.485  28.541  24.325  1.00  0.00     0.239 C 
ATOM      4  O   UNL A   1      34.410  28.590  23.511  1.00  0.00    -0.273 OA
ATOM      5  H   UNL A   1      33.171  30.503  24.166  1.00  0.00     0.163 HD
BRANCH   3   6
ATOM      6  C   UNL A   1      32.982  27.204  24.878  1.00  0.00     0.220 C 
BRANCH   6   7
ATOM      7  N   UNL A   1      32.531  26.120  24.011  1.00  0.00    -0.324 N 
BRANCH   7   8
ATOM      8  C   UNL A   1      33.414  25.141  23.461  1.00  0.00     0.265 C 
ATOM      9  O   UNL A   1      33.926  25.419  22.370  1.00  0.00    -0.268 OA
BRANCH   8  10
ATOM     10  C   UNL A   1      33.822  23.850  24.116  1.00  0.00     0.095 A 
ATOM     11  C   UNL A   1      33.341  22.904  25.042  1.00  0.00    -0.025 A 
ATOM     12  C   UNL A   1      34.282  21.817  25.240  1.00  0.00     0.016 A 
ATOM     13  C   UNL A   1      35.414  21.916  24.482  1.00  0.00     0.066 A 
ATOM     14  S   UNL A   1      35.404  23.314  23.538  1.00  0.00    -0.138 S 
BRANCH  11  15
ATOM     15  C   UNL A   1      32.050  22.829  25.827  1.00  0.00     0.034 C 
ATOM     16  C   UNL A   1      31.938  23.976  26.843  1.00  0.00     0.009 C 
ENDBRANCH  11  15
ENDBRANCH   8  10
ENDBRANCH   7   8
BRANCH   7  17
ATOM     17  C   UNL A   1      31.055  26.104  23.619  1.00  0.00     0.035 C 
ATOM     18  C   UNL A   1      30.165  26.467  24.825  1.00  0.00     0.034 C 
ATOM     19  C   UNL A   1      30.740  27.074  22.452  1.00  0.00     0.034 C 
ATOM     20  C   UNL A   1      30.568  24.717  23.119  1.00  0.00     0.034 C 
ENDBRANCH   7  17
ENDBRANCH   6   7
ENDBRANCH   3   6
ENDBRANCH   1   2
BRANCH   1  21
ATOM     21  C   UNL A   1      31.962  30.475  26.757  1.00  0.00     0.023 C 
BRANCH  21  22
ATOM     22  C   UNL A   1      31.682  31.971  26.858  1.00  0.00     0.023 C 
BRANCH  22  23
ATOM     23  C   UNL A   1      32.895  32.781  27.283  1.00  0.00     0.116 C 
BRANCH  23  24
ATOM     24  N   UNL A   1      32.547  34.153  27.615  1.00  0.00    -0.352 N 
ATOM     25  C   UNL A   1      33.037  34.934  28.634  1.00  0.00     0.251 C 
ATOM     26  H   UNL A   1      31.875  34.578  27.034  1.00  0.00     0.163 HD
ATOM     27  O   UNL A   1      32.522  36.001  28.917  1.00  0.00    -0.269 OA
BRANCH  25  28
ATOM     28  C   UNL A   1      34.193  34.430  29.399  1.00  0.00     0.039 A 
ATOM     29  C   UNL A   1      33.970  33.780  30.612  1.00  0.00     0.014 A 
ATOM     30  C   UNL A   1      35.484  34.555  28.878  1.00  0.00     0.014 A 
ATOM     31  C   UNL A   1      35.049  33.206  31.285  1.00  0.00     0.010 A 
ATOM     32  C   UNL A   1      36.539  33.903  29.499  1.00  0.00     0.010 A 
ATOM     33  C   UNL A   1      36.333  33.237  30.717  1.00  0.00    -0.014 A 
BRANCH  33  34
ATOM     34  C   UNL A   1      37.485  32.598  31.395  1.00  0.00     0.031 A 
ATOM     35  C   UNL A   1      38.188  31.442  30.744  1.00  0.00     0.074 A 
ATOM     36  C   UNL A   1      37.851  33.016  32.621  1.00  0.00     0.049 A 
ATOM     37  N   UNL A   1      39.177  30.712  31.194  1.00  0.00    -0.248 NA
ATOM     38  C   UNL A   1      37.687  31.025  29.425  1.00  0.00     0.031 C 
ATOM     39  C   UNL A   1      37.198  34.083  33.382  1.00  0.00     0.029 A 
ATOM     40  N   UNL A   1      38.855  32.582  33.450  1.00  0.00    -0.354 N 
ATOM     41  C   UNL A   1      39.404  29.747  30.223  1.00  0.00     0.074 A 
ATOM     42  C   UNL A   1      38.404  29.936  29.195  1.00  0.00     0.031 C 
ATOM     43  C   UNL A   1      37.829  34.233  34.557  1.00  0.00     0.029 A 
ATOM     44  C   UNL A   1      38.906  33.251  34.647  1.00  0.00     0.049 A 
ATOM     45  H   UNL A   1      39.478  31.859  33.209  1.00  0.00     0.167 HD
ATOM     46  C   UNL A   1      40.377  28.807  30.177  1.00  0.00     0.037 A 
ATOM     47  C   UNL A   1      39.726  33.085  35.702  1.00  0.00     0.037 A 
ATOM     48  C   UNL A   1      41.377  28.640  31.198  1.00  0.00     0.049 A 
ATOM     49  C   UNL A   1      40.809  32.045  35.627  1.00  0.00     0.074 A 
ATOM     50  C   UNL A   1      42.449  27.766  31.222  1.00  0.00     0.029 A 
ATOM     51  N   UNL A   1      41.422  29.361  32.384  1.00  0.00    -0.354 N 
ATOM     52  N   UNL A   1      41.072  31.193  34.665  1.00  0.00    -0.248 NA
ATOM     53  C   UNL A   1      41.718  31.951  36.776  1.00  0.00     0.031 C 
ATOM     54  C   UNL A   1      43.109  27.919  32.446  1.00  0.00     0.029 A 
ATOM     55  C   UNL A   1      42.487  28.932  33.159  1.00  0.00     0.049 A 
ATOM     56  H   UNL A   1      40.790  30.073  32.636  1.00  0.00     0.167 HD
ATOM     57  C   UNL A   1      42.186  30.476  35.082  1.00  0.00     0.074 A 
ATOM     58  C   UNL A   1      42.560  31.009  36.376  1.00  0.00     0.031 C 
ATOM     59  C   UNL A   1      42.841  29.471  34.450  1.00  0.00     0.037 A 
BRANCH  46  60
ATOM     60  C   UNL A   1      40.395  27.892  28.986  1.00  0.00     0.064 A 
ATOM     61  C   UNL A   1      41.152  28.183  27.840  1.00  0.00     0.173 A 
ATOM     62  C   UNL A   1      39.641  26.709  28.986  1.00  0.00     0.173 A 
ATOM     63  F   UNL A   1      41.881  29.309  27.780  1.00  0.00    -0.203 F 
ATOM     64  C   UNL A   1      41.117  27.351  26.724  1.00  0.00     0.198 A 
ATOM     65  C   UNL A   1      39.638  25.859  27.883  1.00  0.00     0.198 A 
ATOM     66  F   UNL A   1      38.902  26.375  30.055  1.00  0.00    -0.203 F 
ATOM     67  F   UNL A   1      41.790  27.691  25.616  1.00  0.00    -0.200 F 
ATOM     68  C   UNL A   1      40.364  26.188  26.748  1.00  0.00     0.200 A 
ATOM     69  F   UNL A   1      38.921  24.727  27.912  1.00  0.00    -0.200 F 
ATOM     70  F   UNL A   1      40.329  25.389  25.673  1.00  0.00    -0.200 F 
ENDBRANCH  46  60
BRANCH  47  71
ATOM     71  C   UNL A   1      39.559  33.946  36.902  1.00  0.00     0.064 A 
ATOM     72  C   UNL A   1      40.140  35.220  36.966  1.00  0.00     0.173 A 
ATOM     73  C   UNL A   1      38.794  33.522  37.997  1.00  0.00     0.173 A 
ATOM     74  F   UNL A   1      40.894  35.664  35.950  1.00  0.00    -0.203 F 
ATOM     75  C   UNL A   1      39.971  36.031  38.086  1.00  0.00     0.198 A 
ATOM     76  C   UNL A   1      38.602  34.345  39.104  1.00  0.00     0.198 A 
ATOM     77  F   UNL A   1      38.210  32.314  37.981  1.00  0.00    -0.203 F 
ATOM     78  F   UNL A   1      40.567  37.231  38.137  1.00  0.00    -0.200 F 
ATOM     79  C   UNL A   1      39.196  35.597  39.151  1.00  0.00     0.200 A 
ATOM     80  F   UNL A   1      37.837  33.928  40.122  1.00  0.00    -0.200 F 
ATOM     81  F   UNL A   1      39.025  36.383  40.222  1.00  0.00    -0.200 F 
ENDBRANCH  47  71
BRANCH  59  82
ATOM     82  C   UNL A   1      44.045  28.894  35.139  1.00  0.00     0.064 A 
ATOM     83  C   UNL A   1      43.944  27.793  36.002  1.00  0.00     0.173 A 
ATOM     84  C   UNL A   1      45.321  29.427  34.901  1.00  0.00     0.173 A 
ATOM     85  F   UNL A   1      42.745  27.256  36.275  1.00  0.00    -0.203 F 
ATOM     86  C   UNL A   1      45.073  27.266  36.624  1.00  0.00     0.198 A 
ATOM     87  C   UNL A   1      46.451  28.876  35.497  1.00  0.00     0.198 A 
ATOM     88  F   UNL A   1      45.474  30.476  34.078  1.00  0.00    -0.203 F 
ATOM     89  F   UNL A   1      44.946  26.246  37.485  1.00  0.00    -0.200 F 
ATOM     90  C   UNL A   1      46.326  27.802  36.364  1.00  0.00     0.200 A 
ATOM     91  F   UNL A   1      47.662  29.385  35.232  1.00  0.00    -0.200 F 
ATOM     92  F   UNL A   1      47.411  27.287  36.956  1.00  0.00    -0.200 F 
ENDBRANCH  59  82
ENDBRANCH  33  34
ENDBRANCH  25  28
ENDBRANCH  23  24
ENDBRANCH  22  23
ENDBRANCH  21  22
ENDBRANCH   1  21
TORSDOF 16
ENDMDL
MODEL 3
REMARK VINA RESULT:     -11.3      0.909      7.535
REMARK SMILES CCc1ccsc1C(=O)N(CC(=O)NCCCCNC(=O)c1ccc(-c2c3nc(c(-c4c(F)c(F)c(F)c(F)c4F)c4ccc([nH]4)c(-c4c(F)c(F)c(F)c(F)c4F)c4nc(c(-c5c(F)c(F)c(F)c(F)c5F)c5ccc2[nH]5)C=C4)C=C3)cc1)C(C)(C)C
REMARK SMILES IDX 15 1 14 2 12 3 13 4 11 6 10 7 8 8 9 9 7 10 3 11 4 12 5 13
REMARK SMILES IDX 6 14 2 15 1 16 85 17 86 18 87 19 88 20 16 21 17 22 18 23
REMARK SMILES IDX 19 24 20 25 21 27 22 28 23 29 84 30 24 31 83 32 25 33 26 34
REMARK SMILES IDX 27 35 77 36 28 37 82 38 76 39 78 40 29 41 81 42 75 43 74 44
REMARK SMILES IDX 30 46 62 47 42 48 61 49 43 50 46 51 60 52 79 53 44 54 45 55
REMARK SMILES IDX 59 57 80 58 47 59 31 60 32 61 40 62 33 63 34 64 38 65 41 66
REMARK SMILES IDX 35 67 36 68 39 69 37 70 63 71 64 72 72 73 65 74 66 75 70 76
REMARK SMILES IDX 73 77 67 78 68 79 71 80 69 81 48 82 49 83 57 84 50 85 51 86
REMARK SMILES IDX 55 87 58 88 52 89 53 90 56 91 54 92
REMARK H PARENT 14 5 19 26 78 45 46 56
REMARK Flexibility Score: inf
ROOT
ATOM      1  C   UNL A   1      32.945  29.914  26.184  1.00  0.00     0.116 C 
ENDROOT
BRANCH   1   2
ATOM      2  N   UNL A   1      33.646  29.612  24.955  1.00  0.00    -0.355 N 
ATOM      3  C   UNL A   1      33.844  28.406  24.356  1.00  0.00     0.239 C 
ATOM      4  O   UNL A   1      34.380  28.397  23.245  1.00  0.00    -0.273 OA
ATOM      5  H   UNL A   1      34.032  30.387  24.487  1.00  0.00     0.163 HD
BRANCH   3   6
ATOM      6  C   UNL A   1      33.242  27.134  24.959  1.00  0.00     0.220 C 
BRANCH   6   7
ATOM      7  N   UNL A   1      32.757  26.032  24.135  1.00  0.00    -0.324 N 
BRANCH   7   8
ATOM      8  C   UNL A   1      33.614  25.024  23.596  1.00  0.00     0.265 C 
ATOM      9  O   UNL A   1      34.029  25.218  22.447  1.00  0.00    -0.268 OA
BRANCH   8  10
ATOM     10  C   UNL A   1      34.102  23.799  24.319  1.00  0.00     0.095 A 
ATOM     11  C   UNL A   1      33.800  23.013  25.447  1.00  0.00    -0.025 A 
ATOM     12  C   UNL A   1      34.713  21.894  25.585  1.00  0.00     0.016 A 
ATOM     13  C   UNL A   1      35.651  21.815  24.595  1.00  0.00     0.066 A 
ATOM     14  S   UNL A   1      35.491  23.082  23.492  1.00  0.00    -0.138 S 
BRANCH  11  15
ATOM     15  C   UNL A   1      32.714  23.129  26.494  1.00  0.00     0.034 C 
ATOM     16  C   UNL A   1      33.111  22.425  27.800  1.00  0.00     0.009 C 
ENDBRANCH  11  15
ENDBRANCH   8  10
ENDBRANCH   7   8
BRANCH   7  17
ATOM     17  C   UNL A   1      31.273  26.026  23.775  1.00  0.00     0.035 C 
ATOM     18  C   UNL A   1      30.423  26.546  24.952  1.00  0.00     0.034 C 
ATOM     19  C   UNL A   1      30.963  26.879  22.518  1.00  0.00     0.034 C 
ATOM     20  C   UNL A   1      30.729  24.612  23.434  1.00  0.00     0.034 C 
ENDBRANCH   7  17
ENDBRANCH   6   7
ENDBRANCH   3   6
ENDBRANCH   1   2
BRANCH   1  21
ATOM     21  C   UNL A   1      31.617  30.608  25.922  1.00  0.00     0.023 C 
BRANCH  21  22
ATOM     22  C   UNL A   1      31.391  31.834  26.801  1.00  0.00     0.023 C 
BRANCH  22  23
ATOM     23  C   UNL A   1      32.677  32.553  27.172  1.00  0.00     0.116 C 
BRANCH  23  24
ATOM     24  N   UNL A   1      32.446  33.950  27.502  1.00  0.00    -0.352 N 
ATOM     25  C   UNL A   1      33.042  34.703  28.485  1.00  0.00     0.251 C 
ATOM     26  H   UNL A   1      31.777  34.417  26.950  1.00  0.00     0.163 HD
ATOM     27  O   UNL A   1      32.622  35.807  28.778  1.00  0.00    -0.269 OA
BRANCH  25  28
ATOM     28  C   UNL A   1      34.197  34.123  29.196  1.00  0.00     0.039 A 
ATOM     29  C   UNL A   1      33.970  33.317  30.311  1.00  0.00     0.014 A 
ATOM     30  C   UNL A   1      35.493  34.338  28.718  1.00  0.00     0.014 A 
ATOM     31  C   UNL A   1      35.049  32.679  30.921  1.00  0.00     0.010 A 
ATOM     32  C   UNL A   1      36.551  33.628  29.267  1.00  0.00     0.010 A 
ATOM     33  C   UNL A   1      36.341  32.806  30.384  1.00  0.00    -0.014 A 
BRANCH  33  34
ATOM     34  C   UNL A   1      37.495  32.104  30.993  1.00  0.00     0.031 A 
ATOM     35  C   UNL A   1      37.975  32.501  32.359  1.00  0.00     0.074 A 
ATOM     36  C   UNL A   1      38.147  31.161  30.288  1.00  0.00     0.049 A 
ATOM     37  N   UNL A   1      38.996  32.051  33.042  1.00  0.00    -0.248 NA
ATOM     38  C   UNL A   1      37.227  33.574  33.034  1.00  0.00     0.031 C 
ATOM     39  C   UNL A   1      37.816  30.743  28.924  1.00  0.00     0.029 A 
ATOM     40  N   UNL A   1      39.236  30.394  30.617  1.00  0.00    -0.354 N 
ATOM     41  C   UNL A   1      39.020  32.794  34.214  1.00  0.00     0.074 A 
ATOM     42  C   UNL A   1      37.959  33.772  34.119  1.00  0.00     0.031 C 
ATOM     43  C   UNL A   1      38.671  29.782  28.541  1.00  0.00     0.029 A 
ATOM     44  C   UNL A   1      39.630  29.543  29.615  1.00  0.00     0.049 A 
ATOM     45  H   UNL A   1      39.691  30.450  31.487  1.00  0.00     0.167 HD
ATOM     46  C   UNL A   1      39.835  32.654  35.287  1.00  0.00     0.037 A 
ATOM     47  C   UNL A   1      40.657  28.673  29.567  1.00  0.00     0.037 A 
ATOM     48  C   UNL A   1      40.876  31.665  35.378  1.00  0.00     0.049 A 
ATOM     49  C   UNL A   1      41.542  28.522  30.773  1.00  0.00     0.074 A 
ATOM     50  C   UNL A   1      41.715  31.389  36.443  1.00  0.00     0.029 A 
ATOM     51  N   UNL A   1      41.225  30.792  34.357  1.00  0.00    -0.354 N 
ATOM     52  N   UNL A   1      41.503  29.169  31.913  1.00  0.00    -0.248 NA
ATOM     53  C   UNL A   1      42.604  27.511  30.692  1.00  0.00     0.031 C 
ATOM     54  C   UNL A   1      42.609  30.389  36.046  1.00  0.00     0.029 A 
ATOM     55  C   UNL A   1      42.287  29.995  34.757  1.00  0.00     0.049 A 
ATOM     56  H   UNL A   1      40.784  30.745  33.478  1.00  0.00     0.167 HD
ATOM     57  C   UNL A   1      42.520  28.632  32.693  1.00  0.00     0.074 A 
ATOM     58  C   UNL A   1      43.143  27.592  31.901  1.00  0.00     0.031 C 
ATOM     59  C   UNL A   1      42.900  28.968  33.950  1.00  0.00     0.037 A 
BRANCH  46  60
ATOM     60  C   UNL A   1      39.626  33.597  36.437  1.00  0.00     0.064 A 
ATOM     61  C   UNL A   1      40.259  34.849  36.492  1.00  0.00     0.173 A 
ATOM     62  C   UNL A   1      38.784  33.245  37.503  1.00  0.00     0.173 A 
ATOM     63  F   UNL A   1      41.086  35.232  35.506  1.00  0.00    -0.203 F 
ATOM     64  C   UNL A   1      40.096  35.690  37.590  1.00  0.00     0.198 A 
ATOM     65  C   UNL A   1      38.594  34.104  38.582  1.00  0.00     0.198 A 
ATOM     66  F   UNL A   1      38.148  32.063  37.503  1.00  0.00    -0.203 F 
ATOM     67  F   UNL A   1      40.771  36.847  37.651  1.00  0.00    -0.200 F 
ATOM     68  C   UNL A   1      39.260  35.319  38.631  1.00  0.00     0.200 A 
ATOM     69  F   UNL A   1      37.773  33.751  39.582  1.00  0.00    -0.200 F 
ATOM     70  F   UNL A   1      39.105  36.128  39.689  1.00  0.00    -0.200 F 
ENDBRANCH  46  60
BRANCH  47  71
ATOM     71  C   UNL A   1      40.877  27.867  28.338  1.00  0.00     0.064 A 
ATOM     72  C   UNL A   1      41.674  28.347  27.290  1.00  0.00     0.173 A 
ATOM     73  C   UNL A   1      40.315  26.590  28.198  1.00  0.00     0.173 A 
ATOM     74  F   UNL A   1      42.220  29.570  27.370  1.00  0.00    -0.203 F 
ATOM     75  C   UNL A   1      41.891  27.585  26.144  1.00  0.00     0.198 A 
ATOM     76  C   UNL A   1      40.556  25.817  27.065  1.00  0.00     0.198 A 
ATOM     77  F   UNL A   1      39.552  26.081  29.176  1.00  0.00    -0.203 F 
ATOM     78  F   UNL A   1      42.628  28.082  25.141  1.00  0.00    -0.200 F 
ATOM     79  C   UNL A   1      41.339  26.317  26.035  1.00  0.00     0.200 A 
ATOM     80  F   UNL A   1      40.035  24.586  26.973  1.00  0.00    -0.200 F 
ATOM     81  F   UNL A   1      41.558  25.580  24.938  1.00  0.00    -0.200 F 
ENDBRANCH  47  71
BRANCH  59  82
ATOM     82  C   UNL A   1      44.030  28.188  34.558  1.00  0.00     0.064 A 
ATOM     83  C   UNL A   1      43.809  26.991  35.255  1.00  0.00     0.173 A 
ATOM     84  C   UNL A   1      45.355  28.625  34.409  1.00  0.00     0.173 A 
ATOM     85  F   UNL A   1      42.560  26.536  35.438  1.00  0.00    -0.203 F 
ATOM     86  C   UNL A   1      44.872  26.275  35.802  1.00  0.00     0.198 A 
ATOM     87  C   UNL A   1      46.417  27.890  34.928  1.00  0.00     0.198 A 
ATOM     88  F   UNL A   1      45.622  29.761  33.745  1.00  0.00    -0.203 F 
ATOM     89  F   UNL A   1      44.632  25.161  36.508  1.00  0.00    -0.200 F 
ATOM     90  C   UNL A   1      46.174  26.721  35.632  1.00  0.00     0.200 A 
ATOM     91  F   UNL A   1      47.675  28.314  34.748  1.00  0.00    -0.200 F 
ATOM     92  F   UNL A   1      47.194  26.027  36.152  1.00  0.00    -0.200 F 
ENDBRANCH  59  82
ENDBRANCH  33  34
ENDBRANCH  25  28
ENDBRANCH  23  24
ENDBRANCH  22  23
ENDBRANCH  21  22
ENDBRANCH   1  21
TORSDOF 16
ENDMDL
