MODEL 1
REMARK VINA RESULT:     -13.5      0.000      0.000
REMARK SMILES CC[NH+]1CCC2(CC1)OC[C@@H](C(=O)NCCCCNC(=O)c1ccc(-c3c4nc(c(-c5c(F)c(F)c(F)c(F)c5F)c5ccc([nH]5)c(-c5c(F)c(F)c(F)c(F)c5F)c5nc(c(-c6c(F)c(F)c(F)c(F)c6F)c6ccc3[nH]6)C=C5)C=C4)cc1)N2C(=O)c1ccc(Cl)c([N+](=O)[O-])c1
REMARK SMILES IDX 16 1 15 2 14 3 12 4 13 5 11 7 3 8 4 9 8 10 5 12 7 13 6 14
REMARK SMILES IDX 9 15 85 16 10 17 2 18 1 19 86 20 87 21 88 22 89 23 97 24
REMARK SMILES IDX 90 25 93 26 91 27 92 28 94 29 95 30 96 31 17 32 18 33 19 34
REMARK SMILES IDX 20 35 21 37 22 38 23 39 84 40 24 41 83 42 25 43 26 44 27 45
REMARK SMILES IDX 77 46 28 47 82 48 76 49 78 50 29 51 81 52 75 53 74 54 30 56
REMARK SMILES IDX 62 57 42 58 61 59 43 60 46 61 60 62 79 63 44 64 45 65 59 67
REMARK SMILES IDX 80 68 47 69 31 70 32 71 40 72 33 73 34 74 38 75 41 76 35 77
REMARK SMILES IDX 36 78 39 79 37 80 63 81 64 82 72 83 65 84 66 85 70 86 73 87
REMARK SMILES IDX 67 88 68 89 71 90 69 91 48 92 49 93 57 94 50 95 51 96 55 97
REMARK SMILES IDX 58 98 52 99 53 100 56 101 54 102
REMARK H PARENT 14 6 3 11 19 36 78 55 46 66
REMARK Flexibility Score: inf
ROOT
ATOM      1  C   UNL A   1      37.266  21.165  24.937  1.00  0.00     0.023 C 
ENDROOT
BRANCH   1   2
ATOM      2  C   UNL A   1      35.835  20.794  25.288  1.00  0.00     0.116 C 
BRANCH   2   3
ATOM      3  N   UNL A   1      35.407  21.467  26.490  1.00  0.00    -0.354 N 
ATOM      4  C   UNL A   1      34.779  22.665  26.645  1.00  0.00     0.245 C 
ATOM      5  O   UNL A   1      34.415  22.945  27.794  1.00  0.00    -0.273 OA
ATOM      6  H   UNL A   1      35.599  20.986  27.327  1.00  0.00     0.163 HD
BRANCH   4   7
ATOM      7  C   UNL A   1      34.293  23.519  25.453  1.00  0.00     0.203 C 
ATOM      8  N   UNL A   1      30.604  26.772  23.652  1.00  0.00    -0.335 N 
ATOM      9  C   UNL A   1      31.547  25.952  22.890  1.00  0.00     0.267 C 
ATOM     10  C   UNL A   1      30.610  26.558  25.092  1.00  0.00     0.267 C 
ATOM     11  H   UNL A   1      29.672  26.425  23.424  1.00  0.00     0.348 HD
ATOM     12  C   UNL A   1      32.922  25.757  23.511  1.00  0.00     0.120 C 
ATOM     13  C   UNL A   1      31.959  26.372  25.751  1.00  0.00     0.120 C 
ATOM     14  C   UNL A   1      32.913  25.436  25.015  1.00  0.00     0.155 C 
ATOM     15  O   UNL A   1      34.222  25.874  25.493  1.00  0.00    -0.352 OA
ATOM     16  N   UNL A   1      32.908  23.995  25.355  1.00  0.00    -0.295 N 
ATOM     17  C   UNL A   1      35.137  24.777  25.429  1.00  0.00     0.198 C 
BRANCH   8  18
ATOM     18  C   UNL A   1      30.611  28.166  23.200  1.00  0.00     0.258 C 
ATOM     19  C   UNL A   1      29.236  28.791  22.979  1.00  0.00     0.071 C 
ENDBRANCH   8  18
BRANCH  16  20
ATOM     20  C   UNL A   1      31.946  22.988  25.302  1.00  0.00     0.257 C 
ATOM     21  O   UNL A   1      30.909  23.035  25.964  1.00  0.00    -0.269 OA
BRANCH  20  22
ATOM     22  C   UNL A   1      32.044  21.815  24.417  1.00  0.00     0.047 A 
ATOM     23  C   UNL A   1      31.838  21.936  23.040  1.00  0.00     0.016 A 
ATOM     24  C   UNL A   1      32.208  20.546  24.967  1.00  0.00     0.101 A 
ATOM     25  C   UNL A   1      31.944  20.817  22.208  1.00  0.00     0.028 A 
ATOM     26  C   UNL A   1      32.409  19.432  24.123  1.00  0.00     0.288 A 
ATOM     27  C   UNL A   1      32.269  19.561  22.736  1.00  0.00     0.118 A 
ATOM     28  Cl  UNL A   1      32.417  18.283  21.585  1.00  0.00    -0.077 Cl
BRANCH  26  29
ATOM     29  N   UNL A   1      32.852  18.188  24.760  1.00  0.00     0.064 N 
ATOM     30  O   UNL A   1      33.993  17.771  24.532  1.00  0.00    -0.258 OA
ATOM     31  O   UNL A   1      32.063  17.652  25.552  1.00  0.00    -0.258 OA
ENDBRANCH  26  29
ENDBRANCH  20  22
ENDBRANCH  16  20
ENDBRANCH   4   7
ENDBRANCH   2   3
ENDBRANCH   1   2
BRANCH   1  32
ATOM     32  C   UNL A   1      38.275  20.023  24.972  1.00  0.00     0.023 C 
BRANCH  32  33
ATOM     33  C   UNL A   1      39.465  20.248  25.886  1.00  0.00     0.116 C 
BRANCH  33  34
ATOM     34  N   UNL A   1      40.377  19.115  25.925  1.00  0.00    -0.352 N 
ATOM     35  C   UNL A   1      41.744  19.123  26.109  1.00  0.00     0.251 C 
ATOM     36  H   UNL A   1      39.966  18.229  25.804  1.00  0.00     0.163 HD
ATOM     37  O   UNL A   1      42.395  18.102  25.998  1.00  0.00    -0.269 OA
BRANCH  35  38
ATOM     38  C   UNL A   1      42.407  20.411  26.406  1.00  0.00     0.039 A 
ATOM     39  C   UNL A   1      42.954  21.149  25.354  1.00  0.00     0.014 A 
ATOM     40  C   UNL A   1      42.419  20.915  27.709  1.00  0.00     0.014 A 
ATOM     41  C   UNL A   1      43.446  22.432  25.600  1.00  0.00     0.010 A 
ATOM     42  C   UNL A   1      42.823  22.224  27.934  1.00  0.00     0.010 A 
ATOM     43  C   UNL A   1      43.346  22.994  26.883  1.00  0.00    -0.014 A 
BRANCH  43  44
ATOM     44  C   UNL A   1      43.797  24.379  27.164  1.00  0.00     0.031 A 
ATOM     45  C   UNL A   1      42.813  25.389  27.685  1.00  0.00     0.074 A 
ATOM     46  C   UNL A   1      45.060  24.748  26.879  1.00  0.00     0.049 A 
ATOM     47  N   UNL A   1      42.972  26.669  27.898  1.00  0.00    -0.248 NA
ATOM     48  C   UNL A   1      41.456  24.895  27.970  1.00  0.00     0.031 C 
ATOM     49  C   UNL A   1      46.096  23.872  26.331  1.00  0.00     0.029 A 
ATOM     50  N   UNL A   1      45.684  25.963  27.002  1.00  0.00    -0.354 N 
ATOM     51  C   UNL A   1      41.735  27.135  28.324  1.00  0.00     0.074 A 
ATOM     52  C   UNL A   1      40.820  26.015  28.275  1.00  0.00     0.031 C 
ATOM     53  C   UNL A   1      47.235  24.570  26.194  1.00  0.00     0.029 A 
ATOM     54  C   UNL A   1      46.999  25.951  26.605  1.00  0.00     0.049 A 
ATOM     55  H   UNL A   1      45.232  26.769  27.343  1.00  0.00     0.167 HD
ATOM     56  C   UNL A   1      41.398  28.377  28.746  1.00  0.00     0.037 A 
ATOM     57  C   UNL A   1      47.906  26.944  26.574  1.00  0.00     0.037 A 
ATOM     58  C   UNL A   1      42.317  29.480  28.816  1.00  0.00     0.049 A 
ATOM     59  C   UNL A   1      47.504  28.321  27.029  1.00  0.00     0.074 A 
ATOM     60  C   UNL A   1      42.091  30.765  29.275  1.00  0.00     0.029 A 
ATOM     61  N   UNL A   1      43.645  29.426  28.415  1.00  0.00    -0.354 N 
ATOM     62  N   UNL A   1      46.348  28.738  27.483  1.00  0.00    -0.248 NA
ATOM     63  C   UNL A   1      48.536  29.366  26.965  1.00  0.00     0.031 C 
ATOM     64  C   UNL A   1      43.270  31.501  29.113  1.00  0.00     0.029 A 
ATOM     65  C   UNL A   1      44.245  30.660  28.599  1.00  0.00     0.049 A 
ATOM     66  H   UNL A   1      44.093  28.628  28.053  1.00  0.00     0.167 HD
ATOM     67  C   UNL A   1      46.521  30.080  27.794  1.00  0.00     0.074 A 
ATOM     68  C   UNL A   1      47.897  30.406  27.481  1.00  0.00     0.031 C 
ATOM     69  C   UNL A   1      45.622  30.961  28.296  1.00  0.00     0.037 A 
BRANCH  56  70
ATOM     70  C   UNL A   1      39.973  28.595  29.167  1.00  0.00     0.064 A 
ATOM     71  C   UNL A   1      39.003  29.056  28.263  1.00  0.00     0.173 A 
ATOM     72  C   UNL A   1      39.571  28.341  30.486  1.00  0.00     0.173 A 
ATOM     73  F   UNL A   1      39.338  29.329  26.993  1.00  0.00    -0.203 F 
ATOM     74  C   UNL A   1      37.695  29.295  28.676  1.00  0.00     0.198 A 
ATOM     75  C   UNL A   1      38.253  28.549  30.887  1.00  0.00     0.198 A 
ATOM     76  F   UNL A   1      40.457  27.896  31.390  1.00  0.00    -0.203 F 
ATOM     77  F   UNL A   1      36.803  29.800  27.810  1.00  0.00    -0.200 F 
ATOM     78  C   UNL A   1      37.320  29.037  29.985  1.00  0.00     0.200 A 
ATOM     79  F   UNL A   1      37.890  28.288  32.150  1.00  0.00    -0.200 F 
ATOM     80  F   UNL A   1      36.061  29.269  30.381  1.00  0.00    -0.200 F 
ENDBRANCH  56  70
BRANCH  57  81
ATOM     81  C   UNL A   1      49.300  26.663  26.137  1.00  0.00     0.064 A 
ATOM     82  C   UNL A   1      49.690  26.893  24.811  1.00  0.00     0.173 A 
ATOM     83  C   UNL A   1      50.265  26.168  27.025  1.00  0.00     0.173 A 
ATOM     84  F   UNL A   1      48.797  27.348  23.919  1.00  0.00    -0.203 F 
ATOM     85  C   UNL A   1      50.989  26.623  24.384  1.00  0.00     0.198 A 
ATOM     86  C   UNL A   1      51.570  25.923  26.605  1.00  0.00     0.198 A 
ATOM     87  F   UNL A   1      49.941  25.936  28.306  1.00  0.00    -0.203 F 
ATOM     88  F   UNL A   1      51.325  26.816  23.102  1.00  0.00    -0.200 F 
ATOM     89  C   UNL A   1      51.929  26.145  25.284  1.00  0.00     0.200 A 
ATOM     90  F   UNL A   1      52.480  25.473  27.479  1.00  0.00    -0.200 F 
ATOM     91  F   UNL A   1      53.180  25.891  24.876  1.00  0.00    -0.200 F 
ENDBRANCH  57  81
BRANCH  69  92
ATOM     92  C   UNL A   1      46.108  32.352  28.584  1.00  0.00     0.064 A 
ATOM     93  C   UNL A   1      46.681  32.693  29.816  1.00  0.00     0.173 A 
ATOM     94  C   UNL A   1      46.039  33.343  27.592  1.00  0.00     0.173 A 
ATOM     95  F   UNL A   1      46.754  31.786  30.801  1.00  0.00    -0.203 F 
ATOM     96  C   UNL A   1      47.151  33.983  30.053  1.00  0.00     0.198 A 
ATOM     97  C   UNL A   1      46.536  34.622  27.822  1.00  0.00     0.198 A 
ATOM     98  F   UNL A   1      45.505  33.065  26.393  1.00  0.00    -0.203 F 
ATOM     99  F   UNL A   1      47.657  34.299  31.253  1.00  0.00    -0.200 F 
ATOM    100  C   UNL A   1      47.086  34.943  29.054  1.00  0.00     0.200 A 
ATOM    101  F   UNL A   1      46.486  35.544  26.851  1.00  0.00    -0.200 F 
ATOM    102  F   UNL A   1      47.547  36.181  29.281  1.00  0.00    -0.200 F 
ENDBRANCH  69  92
ENDBRANCH  43  44
ENDBRANCH  35  38
ENDBRANCH  33  34
ENDBRANCH  32  33
ENDBRANCH   1  32
TORSDOF 15
ENDMDL
MODEL 2
REMARK VINA RESULT:     -13.5      0.561      7.028
REMARK SMILES CC[NH+]1CCC2(CC1)OC[C@@H](C(=O)NCCCCNC(=O)c1ccc(-c3c4nc(c(-c5c(F)c(F)c(F)c(F)c5F)c5ccc([nH]5)c(-c5c(F)c(F)c(F)c(F)c5F)c5nc(c(-c6c(F)c(F)c(F)c(F)c6F)c6ccc3[nH]6)C=C5)C=C4)cc1)N2C(=O)c1ccc(Cl)c([N+](=O)[O-])c1
REMARK SMILES IDX 16 1 15 2 14 3 12 4 13 5 11 7 3 8 4 9 8 10 5 12 7 13 6 14
REMARK SMILES IDX 9 15 85 16 10 17 2 18 1 19 86 20 87 21 88 22 89 23 97 24
REMARK SMILES IDX 90 25 93 26 91 27 92 28 94 29 95 30 96 31 17 32 18 33 19 34
REMARK SMILES IDX 20 35 21 37 22 38 23 39 84 40 24 41 83 42 25 43 26 44 27 45
REMARK SMILES IDX 77 46 28 47 82 48 76 49 78 50 29 51 81 52 75 53 74 54 30 56
REMARK SMILES IDX 62 57 42 58 61 59 43 60 46 61 60 62 79 63 44 64 45 65 59 67
REMARK SMILES IDX 80 68 47 69 31 70 32 71 40 72 33 73 34 74 38 75 41 76 35 77
REMARK SMILES IDX 36 78 39 79 37 80 63 81 64 82 72 83 65 84 66 85 70 86 73 87
REMARK SMILES IDX 67 88 68 89 71 90 69 91 48 92 49 93 57 94 50 95 51 96 55 97
REMARK SMILES IDX 58 98 52 99 53 100 56 101 54 102
REMARK H PARENT 14 6 3 11 19 36 78 55 46 66
REMARK Flexibility Score: inf
ROOT
ATOM      1  C   UNL A   1      37.270  21.072  24.858  1.00  0.00     0.023 C 
ENDROOT
BRANCH   1   2
ATOM      2  C   UNL A   1      35.841  20.736  25.251  1.00  0.00     0.116 C 
BRANCH   2   3
ATOM      3  N   UNL A   1      35.458  21.434  26.455  1.00  0.00    -0.354 N 
ATOM      4  C   UNL A   1      34.847  22.640  26.609  1.00  0.00     0.245 C 
ATOM      5  O   UNL A   1      34.523  22.943  27.764  1.00  0.00    -0.273 OA
ATOM      6  H   UNL A   1      35.673  20.964  27.294  1.00  0.00     0.163 HD
BRANCH   4   7
ATOM      7  C   UNL A   1      34.331  23.478  25.419  1.00  0.00     0.203 C 
ATOM      8  N   UNL A   1      30.582  26.686  23.660  1.00  0.00    -0.335 N 
ATOM      9  C   UNL A   1      31.517  25.866  22.888  1.00  0.00     0.267 C 
ATOM     10  C   UNL A   1      30.618  26.486  25.102  1.00  0.00     0.267 C 
ATOM     11  H   UNL A   1      29.649  26.331  23.455  1.00  0.00     0.348 HD
ATOM     12  C   UNL A   1      32.904  25.687  23.483  1.00  0.00     0.120 C 
ATOM     13  C   UNL A   1      31.982  26.317  25.736  1.00  0.00     0.120 C 
ATOM     14  C   UNL A   1      32.928  25.381  24.990  1.00  0.00     0.155 C 
ATOM     15  O   UNL A   1      34.243  25.833  25.438  1.00  0.00    -0.352 OA
ATOM     16  N   UNL A   1      32.941  23.943  25.345  1.00  0.00    -0.295 N 
ATOM     17  C   UNL A   1      35.165  24.743  25.366  1.00  0.00     0.198 C 
BRANCH   8  18
ATOM     18  C   UNL A   1      30.569  28.076  23.195  1.00  0.00     0.258 C 
ATOM     19  C   UNL A   1      29.186  28.684  22.984  1.00  0.00     0.071 C 
ENDBRANCH   8  18
BRANCH  16  20
ATOM     20  C   UNL A   1      31.985  22.928  25.320  1.00  0.00     0.257 C 
ATOM     21  O   UNL A   1      30.962  22.973  26.004  1.00  0.00    -0.269 OA
BRANCH  20  22
ATOM     22  C   UNL A   1      32.074  21.749  24.444  1.00  0.00     0.047 A 
ATOM     23  C   UNL A   1      31.857  21.859  23.067  1.00  0.00     0.016 A 
ATOM     24  C   UNL A   1      32.240  20.483  25.001  1.00  0.00     0.101 A 
ATOM     25  C   UNL A   1      31.953  20.734  22.243  1.00  0.00     0.028 A 
ATOM     26  C   UNL A   1      32.432  19.362  24.165  1.00  0.00     0.288 A 
ATOM     27  C   UNL A   1      32.280  19.482  22.778  1.00  0.00     0.118 A 
ATOM     28  Cl  UNL A   1      32.416  18.195  21.635  1.00  0.00    -0.077 Cl
BRANCH  26  29
ATOM     29  N   UNL A   1      32.877  18.123  24.807  1.00  0.00     0.064 N 
ATOM     30  O   UNL A   1      33.962  17.632  24.475  1.00  0.00    -0.258 OA
ATOM     31  O   UNL A   1      32.155  17.666  25.706  1.00  0.00    -0.258 OA
ENDBRANCH  26  29
ENDBRANCH  20  22
ENDBRANCH  16  20
ENDBRANCH   4   7
ENDBRANCH   2   3
ENDBRANCH   1   2
BRANCH   1  32
ATOM     32  C   UNL A   1      38.276  19.933  24.979  1.00  0.00     0.023 C 
BRANCH  32  33
ATOM     33  C   UNL A   1      39.365  20.147  26.013  1.00  0.00     0.116 C 
BRANCH  33  34
ATOM     34  N   UNL A   1      40.388  19.113  25.987  1.00  0.00    -0.352 N 
ATOM     35  C   UNL A   1      41.755  19.259  26.103  1.00  0.00     0.251 C 
ATOM     36  H   UNL A   1      40.063  18.191  25.873  1.00  0.00     0.163 HD
ATOM     37  O   UNL A   1      42.500  18.311  25.942  1.00  0.00    -0.269 OA
BRANCH  35  38
ATOM     38  C   UNL A   1      42.298  20.605  26.387  1.00  0.00     0.039 A 
ATOM     39  C   UNL A   1      42.641  21.436  25.318  1.00  0.00     0.014 A 
ATOM     40  C   UNL A   1      42.397  21.062  27.703  1.00  0.00     0.014 A 
ATOM     41  C   UNL A   1      43.010  22.759  25.569  1.00  0.00     0.010 A 
ATOM     42  C   UNL A   1      42.674  22.401  27.943  1.00  0.00     0.010 A 
ATOM     43  C   UNL A   1      42.989  23.262  26.880  1.00  0.00    -0.014 A 
BRANCH  43  44
ATOM     44  C   UNL A   1      43.310  24.680  27.175  1.00  0.00     0.031 A 
ATOM     45  C   UNL A   1      44.706  25.187  26.946  1.00  0.00     0.074 A 
ATOM     46  C   UNL A   1      42.377  25.484  27.717  1.00  0.00     0.049 A 
ATOM     47  N   UNL A   1      45.222  26.355  27.232  1.00  0.00    -0.248 NA
ATOM     48  C   UNL A   1      45.659  24.238  26.347  1.00  0.00     0.031 C 
ATOM     49  C   UNL A   1      40.999  25.098  28.025  1.00  0.00     0.029 A 
ATOM     50  N   UNL A   1      42.450  26.795  28.116  1.00  0.00    -0.354 N 
ATOM     51  C   UNL A   1      46.559  26.273  26.865  1.00  0.00     0.074 A 
ATOM     52  C   UNL A   1      46.791  24.923  26.399  1.00  0.00     0.031 C 
ATOM     53  C   UNL A   1      40.349  26.156  28.535  1.00  0.00     0.029 A 
ATOM     54  C   UNL A   1      41.274  27.282  28.631  1.00  0.00     0.049 A 
ATOM     55  H   UNL A   1      43.271  27.335  28.042  1.00  0.00     0.167 HD
ATOM     56  C   UNL A   1      47.503  27.244  26.888  1.00  0.00     0.037 A 
ATOM     57  C   UNL A   1      40.979  28.499  29.124  1.00  0.00     0.037 A 
ATOM     58  C   UNL A   1      47.262  28.591  27.329  1.00  0.00     0.049 A 
ATOM     59  C   UNL A   1      42.049  29.556  29.157  1.00  0.00     0.074 A 
ATOM     60  C   UNL A   1      48.135  29.664  27.346  1.00  0.00     0.029 A 
ATOM     61  N   UNL A   1      46.053  29.050  27.833  1.00  0.00    -0.354 N 
ATOM     62  N   UNL A   1      43.295  29.487  28.756  1.00  0.00    -0.248 NA
ATOM     63  C   UNL A   1      41.670  30.863  29.714  1.00  0.00     0.031 C 
ATOM     64  C   UNL A   1      47.467  30.762  27.899  1.00  0.00     0.029 A 
ATOM     65  C   UNL A   1      46.162  30.386  28.181  1.00  0.00     0.049 A 
ATOM     66  H   UNL A   1      45.238  28.506  27.930  1.00  0.00     0.167 HD
ATOM     67  C   UNL A   1      43.838  30.746  28.976  1.00  0.00     0.074 A 
ATOM     68  C   UNL A   1      42.783  31.562  29.542  1.00  0.00     0.031 C 
ATOM     69  C   UNL A   1      45.096  31.186  28.728  1.00  0.00     0.037 A 
BRANCH  56  70
ATOM     70  C   UNL A   1      48.879  26.874  26.414  1.00  0.00     0.064 A 
ATOM     71  C   UNL A   1      49.264  27.037  25.074  1.00  0.00     0.173 A 
ATOM     72  C   UNL A   1      49.825  26.351  27.308  1.00  0.00     0.173 A 
ATOM     73  F   UNL A   1      48.392  27.519  24.175  1.00  0.00    -0.203 F 
ATOM     74  C   UNL A   1      50.529  26.651  24.639  1.00  0.00     0.198 A 
ATOM     75  C   UNL A   1      51.101  25.997  26.876  1.00  0.00     0.198 A 
ATOM     76  F   UNL A   1      49.511  26.178  28.601  1.00  0.00    -0.203 F 
ATOM     77  F   UNL A   1      50.849  26.753  23.341  1.00  0.00    -0.200 F 
ATOM     78  C   UNL A   1      51.447  26.136  25.541  1.00  0.00     0.200 A 
ATOM     79  F   UNL A   1      51.992  25.511  27.751  1.00  0.00    -0.200 F 
ATOM     80  F   UNL A   1      52.663  25.763  25.120  1.00  0.00    -0.200 F 
ENDBRANCH  56  70
BRANCH  57  81
ATOM     81  C   UNL A   1      39.598  28.798  29.586  1.00  0.00     0.064 A 
ATOM     82  C   UNL A   1      39.215  28.528  30.907  1.00  0.00     0.173 A 
ATOM     83  C   UNL A   1      38.640  29.359  28.730  1.00  0.00     0.173 A 
ATOM     84  F   UNL A   1      40.091  27.973  31.758  1.00  0.00    -0.203 F 
ATOM     85  C   UNL A   1      37.921  28.792  31.350  1.00  0.00     0.198 A 
ATOM     86  C   UNL A   1      37.354  29.648  29.181  1.00  0.00     0.198 A 
ATOM     87  F   UNL A   1      38.959  29.639  27.458  1.00  0.00    -0.203 F 
ATOM     88  F   UNL A   1      37.570  28.489  32.607  1.00  0.00    -0.200 F 
ATOM     89  C   UNL A   1      36.994  29.358  30.489  1.00  0.00     0.200 A 
ATOM     90  F   UNL A   1      36.464  30.205  28.350  1.00  0.00    -0.200 F 
ATOM     91  F   UNL A   1      35.751  29.618  30.916  1.00  0.00    -0.200 F 
ENDBRANCH  57  81
BRANCH  69  92
ATOM     92  C   UNL A   1      45.391  32.628  29.023  1.00  0.00     0.064 A 
ATOM     93  C   UNL A   1      45.928  33.035  30.252  1.00  0.00     0.173 A 
ATOM     94  C   UNL A   1      45.176  33.608  28.041  1.00  0.00     0.173 A 
ATOM     95  F   UNL A   1      46.136  32.139  31.228  1.00  0.00    -0.203 F 
ATOM     96  C   UNL A   1      46.220  34.375  30.495  1.00  0.00     0.198 A 
ATOM     97  C   UNL A   1      45.497  34.941  28.277  1.00  0.00     0.198 A 
ATOM     98  F   UNL A   1      44.669  33.268  26.846  1.00  0.00    -0.203 F 
ATOM     99  F   UNL A   1      46.693  34.748  31.692  1.00  0.00    -0.200 F 
ATOM    100  C   UNL A   1      46.013  35.325  29.505  1.00  0.00     0.200 A 
ATOM    101  F   UNL A   1      45.309  35.855  27.315  1.00  0.00    -0.200 F 
ATOM    102  F   UNL A   1      46.304  36.612  29.738  1.00  0.00    -0.200 F 
ENDBRANCH  69  92
ENDBRANCH  43  44
ENDBRANCH  35  38
ENDBRANCH  33  34
ENDBRANCH  32  33
ENDBRANCH   1  32
TORSDOF 15
ENDMDL
MODEL 3
REMARK VINA RESULT:     -12.8      5.620     11.096
REMARK SMILES CC[NH+]1CCC2(CC1)OC[C@@H](C(=O)NCCCCNC(=O)c1ccc(-c3c4nc(c(-c5c(F)c(F)c(F)c(F)c5F)c5ccc([nH]5)c(-c5c(F)c(F)c(F)c(F)c5F)c5nc(c(-c6c(F)c(F)c(F)c(F)c6F)c6ccc3[nH]6)C=C5)C=C4)cc1)N2C(=O)c1ccc(Cl)c([N+](=O)[O-])c1
REMARK SMILES IDX 16 1 15 2 14 3 12 4 13 5 11 7 3 8 4 9 8 10 5 12 7 13 6 14
REMARK SMILES IDX 9 15 85 16 10 17 2 18 1 19 86 20 87 21 88 22 89 23 97 24
REMARK SMILES IDX 90 25 93 26 91 27 92 28 94 29 95 30 96 31 17 32 18 33 19 34
REMARK SMILES IDX 20 35 21 37 22 38 23 39 84 40 24 41 83 42 25 43 26 44 27 45
REMARK SMILES IDX 77 46 28 47 82 48 76 49 78 50 29 51 81 52 75 53 74 54 30 56
REMARK SMILES IDX 62 57 42 58 61 59 43 60 46 61 60 62 79 63 44 64 45 65 59 67
REMARK SMILES IDX 80 68 47 69 31 70 32 71 40 72 33 73 34 74 38 75 41 76 35 77
REMARK SMILES IDX 36 78 39 79 37 80 63 81 64 82 72 83 65 84 66 85 70 86 73 87
REMARK SMILES IDX 67 88 68 89 71 90 69 91 48 92 49 93 57 94 50 95 51 96 55 97
REMARK SMILES IDX 58 98 52 99 53 100 56 101 54 102
REMARK H PARENT 14 6 3 11 19 36 78 55 46 66
REMARK Flexibility Score: inf
ROOT
ATOM      1  C   UNL A   1      34.345  30.562  27.461  1.00  0.00     0.023 C 
ENDROOT
BRANCH   1   2
ATOM      2  C   UNL A   1      33.439  29.621  26.686  1.00  0.00     0.116 C 
BRANCH   2   3
ATOM      3  N   UNL A   1      33.920  29.432  25.339  1.00  0.00    -0.354 N 
ATOM      4  C   UNL A   1      33.898  28.322  24.551  1.00  0.00     0.245 C 
ATOM      5  O   UNL A   1      34.272  28.477  23.382  1.00  0.00    -0.273 OA
ATOM      6  H   UNL A   1      34.328  30.228  24.927  1.00  0.00     0.163 HD
BRANCH   4   7
ATOM      7  C   UNL A   1      33.204  27.008  24.971  1.00  0.00     0.203 C 
ATOM      8  N   UNL A   1      32.312  21.987  23.775  1.00  0.00    -0.335 N 
ATOM      9  C   UNL A   1      31.539  22.866  24.654  1.00  0.00     0.267 C 
ATOM     10  C   UNL A   1      33.395  22.629  23.043  1.00  0.00     0.267 C 
ATOM     11  H   UNL A   1      31.697  21.739  23.001  1.00  0.00     0.348 HD
ATOM     12  C   UNL A   1      32.334  23.897  25.441  1.00  0.00     0.120 C 
ATOM     13  C   UNL A   1      34.219  23.652  23.795  1.00  0.00     0.120 C 
ATOM     14  C   UNL A   1      33.412  24.638  24.634  1.00  0.00     0.155 C 
ATOM     15  O   UNL A   1      34.383  25.077  25.631  1.00  0.00    -0.352 OA
ATOM     16  N   UNL A   1      32.978  25.914  24.019  1.00  0.00    -0.295 N 
ATOM     17  C   UNL A   1      34.040  26.392  26.076  1.00  0.00     0.198 C 
BRANCH   8  18
ATOM     18  C   UNL A   1      32.632  20.714  24.428  1.00  0.00     0.258 C 
ATOM     19  C   UNL A   1      32.440  19.469  23.567  1.00  0.00     0.071 C 
ENDBRANCH   8  18
BRANCH  16  20
ATOM     20  C   UNL A   1      32.170  26.243  22.932  1.00  0.00     0.257 C 
ATOM     21  O   UNL A   1      32.518  26.036  21.769  1.00  0.00    -0.269 OA
BRANCH  20  22
ATOM     22  C   UNL A   1      30.816  26.806  23.066  1.00  0.00     0.047 A 
ATOM     23  C   UNL A   1      29.784  26.065  23.648  1.00  0.00     0.016 A 
ATOM     24  C   UNL A   1      30.519  28.037  22.485  1.00  0.00     0.101 A 
ATOM     25  C   UNL A   1      28.505  26.614  23.779  1.00  0.00     0.028 A 
ATOM     26  C   UNL A   1      29.256  28.632  22.699  1.00  0.00     0.288 A 
ATOM     27  C   UNL A   1      28.238  27.917  23.341  1.00  0.00     0.118 A 
ATOM     28  Cl  UNL A   1      26.629  28.481  23.614  1.00  0.00    -0.077 Cl
BRANCH  26  29
ATOM     29  N   UNL A   1      29.108  30.035  22.302  1.00  0.00     0.064 N 
ATOM     30  O   UNL A   1      29.038  30.901  23.181  1.00  0.00    -0.258 OA
ATOM     31  O   UNL A   1      29.124  30.279  21.087  1.00  0.00    -0.258 OA
ENDBRANCH  26  29
ENDBRANCH  20  22
ENDBRANCH  16  20
ENDBRANCH   4   7
ENDBRANCH   2   3
ENDBRANCH   1   2
BRANCH   1  32
ATOM     32  C   UNL A   1      34.029  32.047  27.329  1.00  0.00     0.023 C 
BRANCH  32  33
ATOM     33  C   UNL A   1      32.619  32.440  27.730  1.00  0.00     0.116 C 
BRANCH  33  34
ATOM     34  N   UNL A   1      32.417  33.880  27.771  1.00  0.00    -0.352 N 
ATOM     35  C   UNL A   1      33.098  34.819  28.518  1.00  0.00     0.251 C 
ATOM     36  H   UNL A   1      31.703  34.230  27.191  1.00  0.00     0.163 HD
ATOM     37  O   UNL A   1      32.738  35.980  28.541  1.00  0.00    -0.269 OA
BRANCH  35  38
ATOM     38  C   UNL A   1      34.255  34.373  29.325  1.00  0.00     0.039 A 
ATOM     39  C   UNL A   1      34.022  33.671  30.510  1.00  0.00     0.014 A 
ATOM     40  C   UNL A   1      35.558  34.586  28.869  1.00  0.00     0.014 A 
ATOM     41  C   UNL A   1      35.101  33.115  31.200  1.00  0.00     0.010 A 
ATOM     42  C   UNL A   1      36.618  33.954  29.505  1.00  0.00     0.010 A 
ATOM     43  C   UNL A   1      36.402  33.217  30.680  1.00  0.00    -0.014 A 
BRANCH  43  44
ATOM     44  C   UNL A   1      37.561  32.580  31.351  1.00  0.00     0.031 A 
ATOM     45  C   UNL A   1      38.285  31.452  30.671  1.00  0.00     0.074 A 
ATOM     46  C   UNL A   1      37.911  32.959  32.595  1.00  0.00     0.049 A 
ATOM     47  N   UNL A   1      39.251  30.695  31.122  1.00  0.00    -0.248 NA
ATOM     48  C   UNL A   1      37.835  31.109  29.313  1.00  0.00     0.031 C 
ATOM     49  C   UNL A   1      37.261  34.012  33.376  1.00  0.00     0.029 A 
ATOM     50  N   UNL A   1      38.899  32.492  33.425  1.00  0.00    -0.354 N 
ATOM     51  C   UNL A   1      39.510  29.777  30.112  1.00  0.00     0.074 A 
ATOM     52  C   UNL A   1      38.556  30.029  29.054  1.00  0.00     0.031 C 
ATOM     53  C   UNL A   1      37.886  34.132  34.558  1.00  0.00     0.029 A 
ATOM     54  C   UNL A   1      38.952  33.137  34.636  1.00  0.00     0.049 A 
ATOM     55  H   UNL A   1      39.511  31.762  33.176  1.00  0.00     0.167 HD
ATOM     56  C   UNL A   1      40.475  28.828  30.059  1.00  0.00     0.037 A 
ATOM     57  C   UNL A   1      39.768  32.944  35.688  1.00  0.00     0.037 A 
ATOM     58  C   UNL A   1      41.436  28.597  31.103  1.00  0.00     0.049 A 
ATOM     59  C   UNL A   1      40.820  31.871  35.615  1.00  0.00     0.074 A 
ATOM     60  C   UNL A   1      42.485  27.695  31.128  1.00  0.00     0.029 A 
ATOM     61  N   UNL A   1      41.465  29.280  32.312  1.00  0.00    -0.354 N 
ATOM     62  N   UNL A   1      41.095  31.046  34.634  1.00  0.00    -0.248 NA
ATOM     63  C   UNL A   1      41.677  31.701  36.797  1.00  0.00     0.031 C 
ATOM     64  C   UNL A   1      43.123  27.803  32.369  1.00  0.00     0.029 A 
ATOM     65  C   UNL A   1      42.503  28.806  33.097  1.00  0.00     0.049 A 
ATOM     66  H   UNL A   1      40.840  29.994  32.572  1.00  0.00     0.167 HD
ATOM     67  C   UNL A   1      42.174  30.286  35.062  1.00  0.00     0.074 A 
ATOM     68  C   UNL A   1      42.510  30.753  36.392  1.00  0.00     0.031 C 
ATOM     69  C   UNL A   1      42.831  29.295  34.413  1.00  0.00     0.037 A 
BRANCH  56  70
ATOM     70  C   UNL A   1      40.531  27.976  28.823  1.00  0.00     0.064 A 
ATOM     71  C   UNL A   1      39.833  26.761  28.736  1.00  0.00     0.173 A 
ATOM     72  C   UNL A   1      41.290  28.377  27.714  1.00  0.00     0.173 A 
ATOM     73  F   UNL A   1      39.104  26.325  29.774  1.00  0.00    -0.203 F 
ATOM     74  C   UNL A   1      39.927  25.961  27.601  1.00  0.00     0.198 A 
ATOM     75  C   UNL A   1      41.355  27.589  26.568  1.00  0.00     0.198 A 
ATOM     76  F   UNL A   1      41.974  29.530  27.743  1.00  0.00    -0.203 F 
ATOM     77  F   UNL A   1      39.305  24.773  27.568  1.00  0.00    -0.200 F 
ATOM     78  C   UNL A   1      40.683  26.377  26.517  1.00  0.00     0.200 A 
ATOM     79  F   UNL A   1      42.077  27.998  25.515  1.00  0.00    -0.200 F 
ATOM     80  F   UNL A   1      40.774  25.603  25.426  1.00  0.00    -0.200 F 
ENDBRANCH  56  70
BRANCH  57  81
ATOM     81  C   UNL A   1      39.654  33.816  36.887  1.00  0.00     0.064 A 
ATOM     82  C   UNL A   1      40.320  35.048  36.937  1.00  0.00     0.173 A 
ATOM     83  C   UNL A   1      38.881  33.445  37.997  1.00  0.00     0.173 A 
ATOM     84  F   UNL A   1      41.087  35.438  35.908  1.00  0.00    -0.203 F 
ATOM     85  C   UNL A   1      40.231  35.871  38.059  1.00  0.00     0.198 A 
ATOM     86  C   UNL A   1      38.771  34.280  39.107  1.00  0.00     0.198 A 
ATOM     87  F   UNL A   1      38.222  32.278  37.995  1.00  0.00    -0.203 F 
ATOM     88  F   UNL A   1      40.909  37.026  38.096  1.00  0.00    -0.200 F 
ATOM     89  C   UNL A   1      39.452  35.488  39.140  1.00  0.00     0.200 A 
ATOM     90  F   UNL A   1      38.008  33.914  40.145  1.00  0.00    -0.200 F 
ATOM     91  F   UNL A   1      39.361  36.281  40.216  1.00  0.00    -0.200 F 
ENDBRANCH  57  81
BRANCH  69  92
ATOM     92  C   UNL A   1      44.008  28.677  35.109  1.00  0.00     0.064 A 
ATOM     93  C   UNL A   1      45.299  29.209  34.989  1.00  0.00     0.173 A 
ATOM     94  C   UNL A   1      43.830  27.564  35.945  1.00  0.00     0.173 A 
ATOM     95  F   UNL A   1      45.524  30.262  34.189  1.00  0.00    -0.203 F 
ATOM     96  C   UNL A   1      46.373  28.637  35.665  1.00  0.00     0.198 A 
ATOM     97  C   UNL A   1      44.900  27.013  36.643  1.00  0.00     0.198 A 
ATOM     98  F   UNL A   1      42.612  27.021  36.098  1.00  0.00    -0.203 F 
ATOM     99  F   UNL A   1      47.607  29.136  35.502  1.00  0.00    -0.200 F 
ATOM    100  C   UNL A   1      46.172  27.546  36.497  1.00  0.00     0.200 A 
ATOM    101  F   UNL A   1      44.701  25.967  37.457  1.00  0.00    -0.200 F 
ATOM    102  F   UNL A   1      47.206  27.002  37.155  1.00  0.00    -0.200 F 
ENDBRANCH  69  92
ENDBRANCH  43  44
ENDBRANCH  35  38
ENDBRANCH  33  34
ENDBRANCH  32  33
ENDBRANCH   1  32
TORSDOF 15
ENDMDL
