MODEL 1
REMARK VINA RESULT:     -11.8      0.000      0.000
REMARK SMILES COC[C@@H](C)CNc1cc(C)c(N)c(C(=O)NCCCCNC(=O)c2ccc(-c3c4nc(c(-c5c(F)c(F)c(F)c(F)c5F)c5ccc([nH]5)c(-c5c(F)c(F)c(F)c(F)c5F)c5nc(c(-c6c(F)c(F)c(F)c(F)c6F)c6ccc3[nH]6)C=C5)C=C4)cc2)c1
REMARK SMILES IDX 18 1 17 2 15 3 16 4 14 6 8 7 9 8 88 9 10 10 11 11 12 12 7 13
REMARK SMILES IDX 6 15 4 16 5 17 3 18 2 19 1 20 13 21 19 24 20 25 21 26 22 27
REMARK SMILES IDX 23 28 24 30 25 31 26 32 87 33 27 34 86 35 28 36 29 37 30 38
REMARK SMILES IDX 80 39 31 40 85 41 79 42 81 43 32 44 84 45 78 46 77 47 33 49
REMARK SMILES IDX 65 50 45 51 64 52 46 53 49 54 63 55 82 56 47 57 48 58 62 60
REMARK SMILES IDX 83 61 50 62 34 63 35 64 43 65 36 66 37 67 41 68 44 69 38 70
REMARK SMILES IDX 39 71 42 72 40 73 66 74 67 75 75 76 68 77 69 78 73 79 76 80
REMARK SMILES IDX 70 81 71 82 74 83 72 84 51 85 52 86 60 87 53 88 54 89 58 90
REMARK SMILES IDX 61 91 55 92 56 93 59 94 57 95
REMARK H PARENT 17 5 7 14 13 22 13 23 22 29 81 48 49 59
REMARK Flexibility Score: inf
ROOT
ATOM      1  C   UNL A   1      33.001  30.090  26.515  1.00  0.00     0.116 C 
ENDROOT
BRANCH   1   2
ATOM      2  N   UNL A   1      33.633  29.778  25.249  1.00  0.00    -0.352 N 
ATOM      3  C   UNL A   1      33.275  29.000  24.173  1.00  0.00     0.253 C 
ATOM      4  O   UNL A   1      34.113  28.941  23.267  1.00  0.00    -0.269 OA
ATOM      5  H   UNL A   1      34.506  30.217  25.133  1.00  0.00     0.163 HD
BRANCH   3   6
ATOM      6  C   UNL A   1      31.967  28.265  24.032  1.00  0.00     0.065 A 
ATOM      7  C   UNL A   1      29.629  28.183  23.281  1.00  0.00     0.035 A 
ATOM      8  C   UNL A   1      29.524  26.888  23.772  1.00  0.00     0.031 A 
ATOM      9  C   UNL A   1      30.832  28.866  23.479  1.00  0.00     0.041 A 
ATOM     10  C   UNL A   1      30.621  26.252  24.381  1.00  0.00    -0.025 A 
ATOM     11  C   UNL A   1      30.455  24.833  24.860  1.00  0.00     0.046 C 
ATOM     12  C   UNL A   1      31.850  26.938  24.522  1.00  0.00     0.047 A 
BRANCH   7  13
ATOM     13  N   UNL A   1      28.602  28.844  22.638  1.00  0.00    -0.385 N 
ATOM     14  H   UNL A   1      27.694  28.474  22.722  1.00  0.00     0.160 HD
BRANCH  13  15
ATOM     15  C   UNL A   1      28.775  30.048  21.846  1.00  0.00     0.118 C 
BRANCH  15  16
ATOM     16  C   UNL A   1      28.491  31.289  22.719  1.00  0.00     0.031 C 
ATOM     17  C   UNL A   1      27.333  30.989  23.673  1.00  0.00     0.012 C 
BRANCH  16  18
ATOM     18  C   UNL A   1      28.198  32.523  21.846  1.00  0.00     0.164 C 
BRANCH  18  19
ATOM     19  O   UNL A   1      28.284  33.748  22.574  1.00  0.00    -0.384 OA
ATOM     20  C   UNL A   1      29.448  33.880  23.375  1.00  0.00     0.194 C 
ENDBRANCH  18  19
ENDBRANCH  16  18
ENDBRANCH  15  16
ENDBRANCH  13  15
ENDBRANCH   7  13
BRANCH  12  21
ATOM     21  N   UNL A   1      32.967  26.241  25.004  1.00  0.00    -0.398 N 
ATOM     22  H   UNL A   1      33.874  26.543  24.770  1.00  0.00     0.156 HD
ATOM     23  H   UNL A   1      32.843  25.450  25.579  1.00  0.00     0.156 HD
ENDBRANCH  12  21
ENDBRANCH   3   6
ENDBRANCH   1   2
BRANCH   1  24
ATOM     24  C   UNL A   1      31.587  30.640  26.292  1.00  0.00     0.023 C 
BRANCH  24  25
ATOM     25  C   UNL A   1      31.455  32.149  26.521  1.00  0.00     0.023 C 
BRANCH  25  26
ATOM     26  C   UNL A   1      32.608  32.783  27.292  1.00  0.00     0.116 C 
BRANCH  26  27
ATOM     27  N   UNL A   1      32.366  34.170  27.655  1.00  0.00    -0.352 N 
ATOM     28  C   UNL A   1      33.037  34.941  28.577  1.00  0.00     0.251 C 
ATOM     29  H   UNL A   1      31.628  34.614  27.181  1.00  0.00     0.163 HD
ATOM     30  O   UNL A   1      32.659  36.072  28.837  1.00  0.00    -0.269 OA
BRANCH  28  31
ATOM     31  C   UNL A   1      34.197  34.363  29.287  1.00  0.00     0.039 A 
ATOM     32  C   UNL A   1      33.963  33.615  30.444  1.00  0.00     0.014 A 
ATOM     33  C   UNL A   1      35.495  34.528  28.798  1.00  0.00     0.014 A 
ATOM     34  C   UNL A   1      35.029  32.975  31.076  1.00  0.00     0.010 A 
ATOM     35  C   UNL A   1      36.545  33.839  29.392  1.00  0.00     0.010 A 
ATOM     36  C   UNL A   1      36.322  33.053  30.534  1.00  0.00    -0.014 A 
BRANCH  36  37
ATOM     37  C   UNL A   1      37.454  32.313  31.141  1.00  0.00     0.031 A 
ATOM     38  C   UNL A   1      37.943  32.678  32.512  1.00  0.00     0.074 A 
ATOM     39  C   UNL A   1      38.085  31.362  30.426  1.00  0.00     0.049 A 
ATOM     40  N   UNL A   1      38.961  32.201  33.182  1.00  0.00    -0.248 NA
ATOM     41  C   UNL A   1      37.206  33.740  33.214  1.00  0.00     0.031 C 
ATOM     42  C   UNL A   1      37.736  30.958  29.062  1.00  0.00     0.029 A 
ATOM     43  N   UNL A   1      39.163  30.573  30.740  1.00  0.00    -0.354 N 
ATOM     44  C   UNL A   1      38.998  32.916  34.371  1.00  0.00     0.074 A 
ATOM     45  C   UNL A   1      37.930  33.891  34.313  1.00  0.00     0.031 C 
ATOM     46  C   UNL A   1      38.573  29.986  28.664  1.00  0.00     0.029 A 
ATOM     47  C   UNL A   1      39.534  29.721  29.730  1.00  0.00     0.049 A 
ATOM     48  H   UNL A   1      39.627  30.615  31.608  1.00  0.00     0.167 HD
ATOM     49  C   UNL A   1      39.835  32.759  35.424  1.00  0.00     0.037 A 
ATOM     50  C   UNL A   1      40.542  28.830  29.669  1.00  0.00     0.037 A 
ATOM     51  C   UNL A   1      40.875  31.767  35.490  1.00  0.00     0.049 A 
ATOM     52  C   UNL A   1      41.445  28.663  30.860  1.00  0.00     0.074 A 
ATOM     53  C   UNL A   1      41.731  31.481  36.540  1.00  0.00     0.029 A 
ATOM     54  N   UNL A   1      41.201  30.898  34.459  1.00  0.00    -0.354 N 
ATOM     55  N   UNL A   1      41.426  29.295  32.008  1.00  0.00    -0.248 NA
ATOM     56  C   UNL A   1      42.508  27.654  30.748  1.00  0.00     0.031 C 
ATOM     57  C   UNL A   1      42.599  30.464  36.131  1.00  0.00     0.029 A 
ATOM     58  C   UNL A   1      42.257  30.086  34.842  1.00  0.00     0.049 A 
ATOM     59  H   UNL A   1      40.750  30.862  33.585  1.00  0.00     0.167 HD
ATOM     60  C   UNL A   1      42.452  28.744  32.764  1.00  0.00     0.074 A 
ATOM     61  C   UNL A   1      43.067  27.717  31.949  1.00  0.00     0.031 C 
ATOM     62  C   UNL A   1      42.849  29.062  34.020  1.00  0.00     0.037 A 
BRANCH  49  63
ATOM     63  C   UNL A   1      39.653  33.679  36.596  1.00  0.00     0.064 A 
ATOM     64  C   UNL A   1      40.273  34.936  36.647  1.00  0.00     0.173 A 
ATOM     65  C   UNL A   1      38.824  33.312  37.666  1.00  0.00     0.173 A 
ATOM     66  F   UNL A   1      41.086  35.328  35.654  1.00  0.00    -0.203 F 
ATOM     67  C   UNL A   1      40.093  35.780  37.739  1.00  0.00     0.198 A 
ATOM     68  C   UNL A   1      38.622  34.171  38.743  1.00  0.00     0.198 A 
ATOM     69  F   UNL A   1      38.203  32.122  37.665  1.00  0.00    -0.203 F 
ATOM     70  F   UNL A   1      40.733  36.956  37.787  1.00  0.00    -0.200 F 
ATOM     71  C   UNL A   1      39.262  35.400  38.782  1.00  0.00     0.200 A 
ATOM     72  F   UNL A   1      37.811  33.807  39.746  1.00  0.00    -0.200 F 
ATOM     73  F   UNL A   1      39.085  36.217  39.830  1.00  0.00    -0.200 F 
ENDBRANCH  49  63
BRANCH  50  74
ATOM     74  C   UNL A   1      40.730  28.006  28.448  1.00  0.00     0.064 A 
ATOM     75  C   UNL A   1      40.127  26.746  28.333  1.00  0.00     0.173 A 
ATOM     76  C   UNL A   1      41.511  28.457  27.375  1.00  0.00     0.173 A 
ATOM     77  F   UNL A   1      39.387  26.264  29.344  1.00  0.00    -0.203 F 
ATOM     78  C   UNL A   1      40.313  25.959  27.200  1.00  0.00     0.198 A 
ATOM     79  C   UNL A   1      41.676  27.680  26.230  1.00  0.00     0.198 A 
ATOM     80  F   UNL A   1      42.105  29.657  27.435  1.00  0.00    -0.203 F 
ATOM     81  F   UNL A   1      39.759  24.741  27.133  1.00  0.00    -0.200 F 
ATOM     82  C   UNL A   1      41.083  26.429  26.146  1.00  0.00     0.200 A 
ATOM     83  F   UNL A   1      42.410  28.142  25.210  1.00  0.00    -0.200 F 
ATOM     84  F   UNL A   1      41.260  25.674  25.053  1.00  0.00    -0.200 F 
ENDBRANCH  50  74
BRANCH  62  85
ATOM     85  C   UNL A   1      43.981  28.269  34.603  1.00  0.00     0.064 A 
ATOM     86  C   UNL A   1      43.767  27.033  35.228  1.00  0.00     0.173 A 
ATOM     87  C   UNL A   1      45.300  28.734  34.495  1.00  0.00     0.173 A 
ATOM     88  F   UNL A   1      42.521  26.556  35.369  1.00  0.00    -0.203 F 
ATOM     89  C   UNL A   1      44.832  26.300  35.745  1.00  0.00     0.198 A 
ATOM     90  C   UNL A   1      46.366  27.984  34.988  1.00  0.00     0.198 A 
ATOM     91  F   UNL A   1      45.558  29.908  33.900  1.00  0.00    -0.203 F 
ATOM     92  F   UNL A   1      44.600  25.140  36.376  1.00  0.00    -0.200 F 
ATOM     93  C   UNL A   1      46.129  26.772  35.618  1.00  0.00     0.200 A 
ATOM     94  F   UNL A   1      47.619  28.438  34.854  1.00  0.00    -0.200 F 
ATOM     95  F   UNL A   1      47.154  26.061  36.108  1.00  0.00    -0.200 F 
ENDBRANCH  62  85
ENDBRANCH  36  37
ENDBRANCH  28  31
ENDBRANCH  26  27
ENDBRANCH  25  26
ENDBRANCH  24  25
ENDBRANCH   1  24
TORSDOF 17
ENDMDL
MODEL 2
REMARK VINA RESULT:     -11.8      0.653      7.296
REMARK SMILES COC[C@@H](C)CNc1cc(C)c(N)c(C(=O)NCCCCNC(=O)c2ccc(-c3c4nc(c(-c5c(F)c(F)c(F)c(F)c5F)c5ccc([nH]5)c(-c5c(F)c(F)c(F)c(F)c5F)c5nc(c(-c6c(F)c(F)c(F)c(F)c6F)c6ccc3[nH]6)C=C5)C=C4)cc2)c1
REMARK SMILES IDX 18 1 17 2 15 3 16 4 14 6 8 7 9 8 88 9 10 10 11 11 12 12 7 13
REMARK SMILES IDX 6 15 4 16 5 17 3 18 2 19 1 20 13 21 19 24 20 25 21 26 22 27
REMARK SMILES IDX 23 28 24 30 25 31 26 32 87 33 27 34 86 35 28 36 29 37 30 38
REMARK SMILES IDX 80 39 31 40 85 41 79 42 81 43 32 44 84 45 78 46 77 47 33 49
REMARK SMILES IDX 65 50 45 51 64 52 46 53 49 54 63 55 82 56 47 57 48 58 62 60
REMARK SMILES IDX 83 61 50 62 34 63 35 64 43 65 36 66 37 67 41 68 44 69 38 70
REMARK SMILES IDX 39 71 42 72 40 73 66 74 67 75 75 76 68 77 69 78 73 79 76 80
REMARK SMILES IDX 70 81 71 82 74 83 72 84 51 85 52 86 60 87 53 88 54 89 58 90
REMARK SMILES IDX 61 91 55 92 56 93 59 94 57 95
REMARK H PARENT 17 5 7 14 13 22 13 23 22 29 81 48 49 59
REMARK Flexibility Score: inf
ROOT
ATOM      1  C   UNL A   1      33.084  30.026  26.824  1.00  0.00     0.116 C 
ENDROOT
BRANCH   1   2
ATOM      2  N   UNL A   1      33.705  29.717  25.551  1.00  0.00    -0.352 N 
ATOM      3  C   UNL A   1      33.300  29.016  24.439  1.00  0.00     0.253 C 
ATOM      4  O   UNL A   1      34.142  28.928  23.540  1.00  0.00    -0.269 OA
ATOM      5  H   UNL A   1      34.611  30.090  25.463  1.00  0.00     0.163 HD
BRANCH   3   6
ATOM      6  C   UNL A   1      31.940  28.394  24.255  1.00  0.00     0.065 A 
ATOM      7  C   UNL A   1      29.704  28.401  23.236  1.00  0.00     0.035 A 
ATOM      8  C   UNL A   1      29.398  27.229  23.915  1.00  0.00     0.031 A 
ATOM      9  C   UNL A   1      30.948  28.993  23.472  1.00  0.00     0.041 A 
ATOM     10  C   UNL A   1      30.343  26.609  24.754  1.00  0.00    -0.025 A 
ATOM     11  C   UNL A   1      29.964  25.318  25.433  1.00  0.00     0.046 C 
ATOM     12  C   UNL A   1      31.619  27.190  24.937  1.00  0.00     0.047 A 
BRANCH   7  13
ATOM     13  N   UNL A   1      28.836  29.033  22.370  1.00  0.00    -0.385 N 
ATOM     14  H   UNL A   1      27.936  28.648  22.259  1.00  0.00     0.160 HD
BRANCH  13  15
ATOM     15  C   UNL A   1      29.163  30.226  21.610  1.00  0.00     0.118 C 
BRANCH  15  16
ATOM     16  C   UNL A   1      27.972  31.207  21.646  1.00  0.00     0.031 C 
ATOM     17  C   UNL A   1      27.991  32.080  20.389  1.00  0.00     0.012 C 
BRANCH  16  18
ATOM     18  C   UNL A   1      28.000  32.061  22.927  1.00  0.00     0.164 C 
BRANCH  18  19
ATOM     19  O   UNL A   1      28.344  33.423  22.674  1.00  0.00    -0.384 OA
ATOM     20  C   UNL A   1      29.472  33.893  23.396  1.00  0.00     0.194 C 
ENDBRANCH  18  19
ENDBRANCH  16  18
ENDBRANCH  15  16
ENDBRANCH  13  15
ENDBRANCH   7  13
BRANCH  12  21
ATOM     21  N   UNL A   1      32.589  26.488  25.664  1.00  0.00    -0.398 N 
ATOM     22  H   UNL A   1      33.539  26.559  25.415  1.00  0.00     0.156 HD
ATOM     23  H   UNL A   1      32.321  25.923  26.425  1.00  0.00     0.156 HD
ENDBRANCH  12  21
ENDBRANCH   3   6
ENDBRANCH   1   2
BRANCH   1  24
ATOM     24  C   UNL A   1      31.670  30.581  26.614  1.00  0.00     0.023 C 
BRANCH  24  25
ATOM     25  C   UNL A   1      31.593  32.111  26.581  1.00  0.00     0.023 C 
BRANCH  25  26
ATOM     26  C   UNL A   1      32.683  32.823  27.375  1.00  0.00     0.116 C 
BRANCH  26  27
ATOM     27  N   UNL A   1      32.355  34.204  27.693  1.00  0.00    -0.352 N 
ATOM     28  C   UNL A   1      32.961  35.038  28.604  1.00  0.00     0.251 C 
ATOM     29  H   UNL A   1      31.603  34.593  27.191  1.00  0.00     0.163 HD
ATOM     30  O   UNL A   1      32.515  36.153  28.824  1.00  0.00    -0.269 OA
BRANCH  28  31
ATOM     31  C   UNL A   1      34.136  34.547  29.354  1.00  0.00     0.039 A 
ATOM     32  C   UNL A   1      33.931  33.972  30.611  1.00  0.00     0.014 A 
ATOM     33  C   UNL A   1      35.420  34.622  28.808  1.00  0.00     0.014 A 
ATOM     34  C   UNL A   1      35.010  33.410  31.295  1.00  0.00     0.010 A 
ATOM     35  C   UNL A   1      36.481  34.007  29.462  1.00  0.00     0.010 A 
ATOM     36  C   UNL A   1      36.285  33.392  30.709  1.00  0.00    -0.014 A 
BRANCH  36  37
ATOM     37  C   UNL A   1      37.427  32.726  31.380  1.00  0.00     0.031 A 
ATOM     38  C   UNL A   1      38.116  31.567  30.720  1.00  0.00     0.074 A 
ATOM     39  C   UNL A   1      37.794  33.122  32.614  1.00  0.00     0.049 A 
ATOM     40  N   UNL A   1      39.080  30.809  31.176  1.00  0.00    -0.248 NA
ATOM     41  C   UNL A   1      37.639  31.192  29.380  1.00  0.00     0.031 C 
ATOM     42  C   UNL A   1      37.165  34.200  33.379  1.00  0.00     0.029 A 
ATOM     43  N   UNL A   1      38.776  32.651  33.449  1.00  0.00    -0.354 N 
ATOM     44  C   UNL A   1      39.311  29.859  30.191  1.00  0.00     0.074 A 
ATOM     45  C   UNL A   1      38.355  30.106  29.132  1.00  0.00     0.031 C 
ATOM     46  C   UNL A   1      37.786  34.319  34.563  1.00  0.00     0.029 A 
ATOM     47  C   UNL A   1      38.835  33.308  34.654  1.00  0.00     0.049 A 
ATOM     48  H   UNL A   1      39.381  31.912  33.208  1.00  0.00     0.167 HD
ATOM     49  C   UNL A   1      40.248  28.882  30.164  1.00  0.00     0.037 A 
ATOM     50  C   UNL A   1      39.641  33.112  35.713  1.00  0.00     0.037 A 
ATOM     51  C   UNL A   1      41.217  28.661  31.204  1.00  0.00     0.049 A 
ATOM     52  C   UNL A   1      40.686  32.032  35.650  1.00  0.00     0.074 A 
ATOM     53  C   UNL A   1      42.253  27.744  31.240  1.00  0.00     0.029 A 
ATOM     54  N   UNL A   1      41.268  29.369  32.397  1.00  0.00    -0.354 N 
ATOM     55  N   UNL A   1      40.942  31.185  34.683  1.00  0.00    -0.248 NA
ATOM     56  C   UNL A   1      41.558  31.884  36.823  1.00  0.00     0.031 C 
ATOM     57  C   UNL A   1      42.907  27.871  32.470  1.00  0.00     0.029 A 
ATOM     58  C   UNL A   1      42.306  28.896  33.183  1.00  0.00     0.049 A 
ATOM     59  H   UNL A   1      40.656  30.099  32.648  1.00  0.00     0.167 HD
ATOM     60  C   UNL A   1      42.019  30.423  35.117  1.00  0.00     0.074 A 
ATOM     61  C   UNL A   1      42.376  30.917  36.431  1.00  0.00     0.031 C 
ATOM     62  C   UNL A   1      42.653  29.407  34.484  1.00  0.00     0.037 A 
BRANCH  49  63
ATOM     63  C   UNL A   1      40.276  27.983  28.963  1.00  0.00     0.064 A 
ATOM     64  C   UNL A   1      41.012  28.312  27.815  1.00  0.00     0.173 A 
ATOM     65  C   UNL A   1      39.585  26.762  28.973  1.00  0.00     0.173 A 
ATOM     66  F   UNL A   1      41.681  29.473  27.752  1.00  0.00    -0.203 F 
ATOM     67  C   UNL A   1      41.032  27.466  26.710  1.00  0.00     0.198 A 
ATOM     68  C   UNL A   1      39.630  25.905  27.876  1.00  0.00     0.198 A 
ATOM     69  F   UNL A   1      38.869  26.397  30.047  1.00  0.00    -0.203 F 
ATOM     70  F   UNL A   1      41.703  27.824  25.607  1.00  0.00    -0.200 F 
ATOM     71  C   UNL A   1      40.347  26.261  26.743  1.00  0.00     0.200 A 
ATOM     72  F   UNL A   1      38.976  24.736  27.914  1.00  0.00    -0.200 F 
ATOM     73  F   UNL A   1      40.371  25.445  25.681  1.00  0.00    -0.200 F 
ENDBRANCH  49  63
BRANCH  50  74
ATOM     74  C   UNL A   1      39.512  33.977  36.913  1.00  0.00     0.064 A 
ATOM     75  C   UNL A   1      38.755  33.564  38.018  1.00  0.00     0.173 A 
ATOM     76  C   UNL A   1      40.140  35.229  36.983  1.00  0.00     0.173 A 
ATOM     77  F   UNL A   1      38.119  32.383  37.989  1.00  0.00    -0.203 F 
ATOM     78  C   UNL A   1      38.614  34.377  39.140  1.00  0.00     0.198 A 
ATOM     79  C   UNL A   1      40.020  36.031  38.116  1.00  0.00     0.198 A 
ATOM     80  F   UNL A   1      40.880  35.666  35.954  1.00  0.00    -0.203 F 
ATOM     81  F   UNL A   1      37.850  33.976  40.165  1.00  0.00    -0.200 F 
ATOM     82  C   UNL A   1      39.252  35.608  39.190  1.00  0.00     0.200 A 
ATOM     83  F   UNL A   1      40.648  37.213  38.166  1.00  0.00    -0.200 F 
ATOM     84  F   UNL A   1      39.120  36.390  40.270  1.00  0.00    -0.200 F 
ENDBRANCH  50  74
BRANCH  62  85
ATOM     85  C   UNL A   1      43.818  28.780  35.191  1.00  0.00     0.064 A 
ATOM     86  C   UNL A   1      43.648  27.712  36.083  1.00  0.00     0.173 A 
ATOM     87  C   UNL A   1      45.124  29.227  34.938  1.00  0.00     0.173 A 
ATOM     88  F   UNL A   1      42.418  27.261  36.369  1.00  0.00    -0.203 F 
ATOM     89  C   UNL A   1      44.743  27.128  36.714  1.00  0.00     0.198 A 
ATOM     90  C   UNL A   1      46.218  28.622  35.550  1.00  0.00     0.198 A 
ATOM     91  F   UNL A   1      45.339  30.241  34.088  1.00  0.00    -0.203 F 
ATOM     92  F   UNL A   1      44.555  26.136  37.596  1.00  0.00    -0.200 F 
ATOM     93  C   UNL A   1      46.026  27.578  36.442  1.00  0.00     0.200 A 
ATOM     94  F   UNL A   1      47.458  29.051  35.277  1.00  0.00    -0.200 F 
ATOM     95  F   UNL A   1      47.079  27.009  37.044  1.00  0.00    -0.200 F 
ENDBRANCH  62  85
ENDBRANCH  36  37
ENDBRANCH  28  31
ENDBRANCH  26  27
ENDBRANCH  25  26
ENDBRANCH  24  25
ENDBRANCH   1  24
TORSDOF 17
ENDMDL
MODEL 3
REMARK VINA RESULT:     -11.8      5.966     10.047
REMARK SMILES COC[C@@H](C)CNc1cc(C)c(N)c(C(=O)NCCCCNC(=O)c2ccc(-c3c4nc(c(-c5c(F)c(F)c(F)c(F)c5F)c5ccc([nH]5)c(-c5c(F)c(F)c(F)c(F)c5F)c5nc(c(-c6c(F)c(F)c(F)c(F)c6F)c6ccc3[nH]6)C=C5)C=C4)cc2)c1
REMARK SMILES IDX 18 1 17 2 15 3 16 4 14 6 8 7 9 8 88 9 10 10 11 11 12 12 7 13
REMARK SMILES IDX 6 15 4 16 5 17 3 18 2 19 1 20 13 21 19 24 20 25 21 26 22 27
REMARK SMILES IDX 23 28 24 30 25 31 26 32 87 33 27 34 86 35 28 36 29 37 30 38
REMARK SMILES IDX 80 39 31 40 85 41 79 42 81 43 32 44 84 45 78 46 77 47 33 49
REMARK SMILES IDX 65 50 45 51 64 52 46 53 49 54 63 55 82 56 47 57 48 58 62 60
REMARK SMILES IDX 83 61 50 62 34 63 35 64 43 65 36 66 37 67 41 68 44 69 38 70
REMARK SMILES IDX 39 71 42 72 40 73 66 74 67 75 75 76 68 77 69 78 73 79 76 80
REMARK SMILES IDX 70 81 71 82 74 83 72 84 51 85 52 86 60 87 53 88 54 89 58 90
REMARK SMILES IDX 61 91 55 92 56 93 59 94 57 95
REMARK H PARENT 17 5 7 14 13 22 13 23 22 29 81 48 49 59
REMARK Flexibility Score: inf
ROOT
ATOM      1  C   UNL A   1      36.990  22.315  25.476  1.00  0.00     0.116 C 
ENDROOT
BRANCH   1   2
ATOM      2  N   UNL A   1      36.032  21.971  26.509  1.00  0.00    -0.352 N 
ATOM      3  C   UNL A   1      34.696  21.644  26.498  1.00  0.00     0.253 C 
ATOM      4  O   UNL A   1      34.195  21.450  27.610  1.00  0.00    -0.269 OA
ATOM      5  H   UNL A   1      36.422  21.972  27.413  1.00  0.00     0.163 HD
BRANCH   3   6
ATOM      6  C   UNL A   1      33.852  21.493  25.259  1.00  0.00     0.065 A 
ATOM      7  C   UNL A   1      32.638  22.479  23.364  1.00  0.00     0.035 A 
ATOM      8  C   UNL A   1      32.272  21.206  22.945  1.00  0.00     0.031 A 
ATOM      9  C   UNL A   1      33.368  22.597  24.550  1.00  0.00     0.041 A 
ATOM     10  C   UNL A   1      32.692  20.063  23.649  1.00  0.00    -0.025 A 
ATOM     11  C   UNL A   1      32.294  18.708  23.123  1.00  0.00     0.046 C 
ATOM     12  C   UNL A   1      33.480  20.196  24.816  1.00  0.00     0.047 A 
BRANCH   7  13
ATOM     13  N   UNL A   1      32.293  23.635  22.694  1.00  0.00    -0.385 N 
ATOM     14  H   UNL A   1      32.237  23.598  21.712  1.00  0.00     0.160 HD
BRANCH  13  15
ATOM     15  C   UNL A   1      32.008  24.902  23.343  1.00  0.00     0.118 C 
BRANCH  15  16
ATOM     16  C   UNL A   1      33.179  25.880  23.108  1.00  0.00     0.031 C 
ATOM     17  C   UNL A   1      33.111  27.014  24.133  1.00  0.00     0.012 C 
BRANCH  16  18
ATOM     18  C   UNL A   1      33.165  26.420  21.666  1.00  0.00     0.164 C 
BRANCH  18  19
ATOM     19  O   UNL A   1      33.258  25.385  20.688  1.00  0.00    -0.384 OA
ATOM     20  C   UNL A   1      32.420  25.562  19.556  1.00  0.00     0.194 C 
ENDBRANCH  18  19
ENDBRANCH  16  18
ENDBRANCH  15  16
ENDBRANCH  13  15
ENDBRANCH   7  13
BRANCH  12  21
ATOM     21  N   UNL A   1      34.001  19.045  25.421  1.00  0.00    -0.398 N 
ATOM     22  H   UNL A   1      33.536  18.183  25.321  1.00  0.00     0.156 HD
ATOM     23  H   UNL A   1      34.832  19.098  25.946  1.00  0.00     0.156 HD
ENDBRANCH  12  21
ENDBRANCH   3   6
ENDBRANCH   1   2
BRANCH   1  24
ATOM     24  C   UNL A   1      37.109  21.180  24.452  1.00  0.00     0.023 C 
BRANCH  24  25
ATOM     25  C   UNL A   1      37.902  19.966  24.948  1.00  0.00     0.023 C 
BRANCH  25  26
ATOM     26  C   UNL A   1      39.175  20.304  25.718  1.00  0.00     0.116 C 
BRANCH  26  27
ATOM     27  N   UNL A   1      40.104  19.189  25.814  1.00  0.00    -0.352 N 
ATOM     28  C   UNL A   1      41.451  19.221  26.096  1.00  0.00     0.251 C 
ATOM     29  H   UNL A   1      39.720  18.297  25.657  1.00  0.00     0.163 HD
ATOM     30  O   UNL A   1      42.121  18.203  26.055  1.00  0.00    -0.269 OA
BRANCH  28  31
ATOM     31  C   UNL A   1      42.088  20.519  26.402  1.00  0.00     0.039 A 
ATOM     32  C   UNL A   1      42.507  21.322  25.338  1.00  0.00     0.014 A 
ATOM     33  C   UNL A   1      42.239  20.952  27.722  1.00  0.00     0.014 A 
ATOM     34  C   UNL A   1      43.019  22.594  25.597  1.00  0.00     0.010 A 
ATOM     35  C   UNL A   1      42.690  22.242  27.973  1.00  0.00     0.010 A 
ATOM     36  C   UNL A   1      43.080  23.076  26.914  1.00  0.00    -0.014 A 
BRANCH  36  37
ATOM     37  C   UNL A   1      43.542  24.455  27.204  1.00  0.00     0.031 A 
ATOM     38  C   UNL A   1      42.578  25.474  27.740  1.00  0.00     0.074 A 
ATOM     39  C   UNL A   1      44.810  24.805  26.916  1.00  0.00     0.049 A 
ATOM     40  N   UNL A   1      42.769  26.745  27.985  1.00  0.00    -0.248 NA
ATOM     41  C   UNL A   1      41.208  25.010  28.008  1.00  0.00     0.031 C 
ATOM     42  C   UNL A   1      45.823  23.917  26.342  1.00  0.00     0.029 A 
ATOM     43  N   UNL A   1      45.460  26.006  27.053  1.00  0.00    -0.354 N 
ATOM     44  C   UNL A   1      41.545  27.234  28.417  1.00  0.00     0.074 A 
ATOM     45  C   UNL A   1      40.604  26.136  28.357  1.00  0.00     0.031 C 
ATOM     46  C   UNL A   1      46.970  24.598  26.191  1.00  0.00     0.029 A 
ATOM     47  C   UNL A   1      46.765  25.976  26.627  1.00  0.00     0.049 A 
ATOM     48  H   UNL A   1      45.031  26.812  27.420  1.00  0.00     0.167 HD
ATOM     49  C   UNL A   1      41.238  28.482  28.846  1.00  0.00     0.037 A 
ATOM     50  C   UNL A   1      47.690  26.954  26.589  1.00  0.00     0.037 A 
ATOM     51  C   UNL A   1      42.184  29.562  28.935  1.00  0.00     0.049 A 
ATOM     52  C   UNL A   1      47.328  28.325  27.088  1.00  0.00     0.074 A 
ATOM     53  C   UNL A   1      41.989  30.843  29.421  1.00  0.00     0.029 A 
ATOM     54  N   UNL A   1      43.507  29.486  28.526  1.00  0.00    -0.354 N 
ATOM     55  N   UNL A   1      46.186  28.758  27.562  1.00  0.00    -0.248 NA
ATOM     56  C   UNL A   1      48.387  29.344  27.052  1.00  0.00     0.031 C 
ATOM     57  C   UNL A   1      43.185  31.553  29.273  1.00  0.00     0.029 A 
ATOM     58  C   UNL A   1      44.137  30.703  28.733  1.00  0.00     0.049 A 
ATOM     59  H   UNL A   1      43.937  28.686  28.145  1.00  0.00     0.167 HD
ATOM     60  C   UNL A   1      46.393  30.088  27.905  1.00  0.00     0.074 A 
ATOM     61  C   UNL A   1      47.776  30.387  27.596  1.00  0.00     0.031 C 
ATOM     62  C   UNL A   1      45.517  30.979  28.428  1.00  0.00     0.037 A 
BRANCH  49  63
ATOM     63  C   UNL A   1      39.819  28.742  29.259  1.00  0.00     0.064 A 
ATOM     64  C   UNL A   1      38.866  29.227  28.351  1.00  0.00     0.173 A 
ATOM     65  C   UNL A   1      39.400  28.474  30.570  1.00  0.00     0.173 A 
ATOM     66  F   UNL A   1      39.220  29.510  27.088  1.00  0.00    -0.203 F 
ATOM     67  C   UNL A   1      37.552  29.461  28.747  1.00  0.00     0.198 A 
ATOM     68  C   UNL A   1      38.078  28.682  30.956  1.00  0.00     0.198 A 
ATOM     69  F   UNL A   1      40.270  28.005  31.477  1.00  0.00    -0.203 F 
ATOM     70  F   UNL A   1      36.672  29.969  27.874  1.00  0.00    -0.200 F 
ATOM     71  C   UNL A   1      37.158  29.182  30.047  1.00  0.00     0.200 A 
ATOM     72  F   UNL A   1      37.695  28.402  32.209  1.00  0.00    -0.200 F 
ATOM     73  F   UNL A   1      35.891  29.402  30.426  1.00  0.00    -0.200 F 
ENDBRANCH  49  63
BRANCH  50  74
ATOM     74  C   UNL A   1      49.057  26.661  26.088  1.00  0.00     0.064 A 
ATOM     75  C   UNL A   1      50.022  26.088  26.927  1.00  0.00     0.173 A 
ATOM     76  C   UNL A   1      49.427  26.946  24.765  1.00  0.00     0.173 A 
ATOM     77  F   UNL A   1      49.720  25.817  28.206  1.00  0.00    -0.203 F 
ATOM     78  C   UNL A   1      51.311  25.827  26.469  1.00  0.00     0.198 A 
ATOM     79  C   UNL A   1      50.709  26.661  24.301  1.00  0.00     0.198 A 
ATOM     80  F   UNL A   1      48.538  27.489  23.922  1.00  0.00    -0.203 F 
ATOM     81  F   UNL A   1      52.226  25.318  27.305  1.00  0.00    -0.200 F 
ATOM     82  C   UNL A   1      51.652  26.109  25.154  1.00  0.00     0.200 A 
ATOM     83  F   UNL A   1      51.031  26.923  23.027  1.00  0.00    -0.200 F 
ATOM     84  F   UNL A   1      52.892  25.855  24.713  1.00  0.00    -0.200 F 
ENDBRANCH  50  74
BRANCH  62  85
ATOM     85  C   UNL A   1      46.035  32.354  28.729  1.00  0.00     0.064 A 
ATOM     86  C   UNL A   1      45.957  33.390  27.787  1.00  0.00     0.173 A 
ATOM     87  C   UNL A   1      46.576  32.647  29.989  1.00  0.00     0.173 A 
ATOM     88  F   UNL A   1      45.462  33.154  26.563  1.00  0.00    -0.203 F 
ATOM     89  C   UNL A   1      46.424  34.667  28.090  1.00  0.00     0.198 A 
ATOM     90  C   UNL A   1      47.016  33.932  30.297  1.00  0.00     0.198 A 
ATOM     91  F   UNL A   1      46.667  31.692  30.925  1.00  0.00    -0.203 F 
ATOM     92  F   UNL A   1      46.378  35.632  27.161  1.00  0.00    -0.200 F 
ATOM     93  C   UNL A   1      46.945  34.938  29.346  1.00  0.00     0.200 A 
ATOM     94  F   UNL A   1      47.510  34.195  31.515  1.00  0.00    -0.200 F 
ATOM     95  F   UNL A   1      47.386  36.169  29.638  1.00  0.00    -0.200 F 
ENDBRANCH  62  85
ENDBRANCH  36  37
ENDBRANCH  28  31
ENDBRANCH  26  27
ENDBRANCH  25  26
ENDBRANCH  24  25
ENDBRANCH   1  24
TORSDOF 17
ENDMDL
