MODEL 1
REMARK VINA RESULT:     -12.2      0.000      0.000
REMARK SMILES CC(=O)[C@]1(C)CC[C@@H](C(=O)NCCCCNC(=O)c2ccc(-c3c4nc(c(-c5c(F)c(F)c(F)c(F)c5F)c5ccc([nH]5)c(-c5c(F)c(F)c(F)c(F)c5F)c5nc(c(-c6c(F)c(F)c(F)c(F)c6F)c6ccc3[nH]6)C=C5)C=C4)cc2)C1(C)C
REMARK SMILES IDX 14 1 13 2 12 3 11 4 9 5 10 6 8 8 4 9 6 10 82 11 5 12 7 13
REMARK SMILES IDX 83 14 84 15 2 16 1 17 3 18 15 19 16 20 17 21 18 23 19 24
REMARK SMILES IDX 20 25 81 26 21 27 80 28 22 29 23 30 24 31 74 32 25 33 79 34
REMARK SMILES IDX 73 35 75 36 26 37 78 38 72 39 71 40 27 42 59 43 39 44 58 45
REMARK SMILES IDX 40 46 43 47 57 48 76 49 41 50 42 51 56 53 77 54 44 55 28 56
REMARK SMILES IDX 29 57 37 58 30 59 31 60 35 61 38 62 32 63 33 64 36 65 34 66
REMARK SMILES IDX 60 67 61 68 69 69 62 70 63 71 67 72 70 73 64 74 65 75 68 76
REMARK SMILES IDX 66 77 45 78 46 79 54 80 47 81 48 82 52 83 55 84 49 85 50 86
REMARK SMILES IDX 53 87 51 88
REMARK H PARENT 11 7 16 22 75 41 43 52
REMARK Flexibility Score: inf
ROOT
ATOM      1  C   UNL A   1      31.476  32.114  26.723  1.00  0.00     0.023 C 
ENDROOT
BRANCH   1   2
ATOM      2  C   UNL A   1      31.767  30.749  26.126  1.00  0.00     0.023 C 
BRANCH   2   3
ATOM      3  C   UNL A   1      32.533  29.804  27.045  1.00  0.00     0.116 C 
BRANCH   3   4
ATOM      4  N   UNL A   1      31.792  28.631  27.414  1.00  0.00    -0.356 N 
ATOM      5  C   UNL A   1      31.377  27.585  26.655  1.00  0.00     0.223 C 
ATOM      6  O   UNL A   1      30.755  26.697  27.251  1.00  0.00    -0.275 OA
ATOM      7  H   UNL A   1      31.546  28.576  28.365  1.00  0.00     0.163 HD
BRANCH   5   8
ATOM      8  C   UNL A   1      31.656  27.435  25.148  1.00  0.00     0.085 C 
ATOM      9  C   UNL A   1      32.391  25.477  23.715  1.00  0.00     0.032 C 
ATOM     10  C   UNL A   1      30.842  25.555  23.807  1.00  0.00     0.016 C 
ATOM     11  C   UNL A   1      32.930  26.688  24.624  1.00  0.00    -0.012 C 
ATOM     12  C   UNL A   1      32.845  24.068  24.177  1.00  0.00     0.020 C 
ATOM     13  C   UNL A   1      30.485  26.941  24.310  1.00  0.00     0.015 C 
ATOM     14  C   UNL A   1      33.890  26.269  25.752  1.00  0.00     0.013 C 
ATOM     15  C   UNL A   1      33.742  27.739  23.813  1.00  0.00     0.013 C 
BRANCH   9  16
ATOM     16  C   UNL A   1      32.914  25.511  22.250  1.00  0.00     0.136 C 
ATOM     17  C   UNL A   1      32.000  25.954  21.135  1.00  0.00     0.088 C 
ATOM     18  O   UNL A   1      34.029  25.065  21.962  1.00  0.00    -0.299 OA
ENDBRANCH   9  16
ENDBRANCH   5   8
ENDBRANCH   3   4
ENDBRANCH   2   3
ENDBRANCH   1   2
BRANCH   1  19
ATOM     19  C   UNL A   1      32.703  32.834  27.252  1.00  0.00     0.116 C 
BRANCH  19  20
ATOM     20  N   UNL A   1      32.437  34.216  27.636  1.00  0.00    -0.352 N 
ATOM     21  C   UNL A   1      33.017  34.967  28.633  1.00  0.00     0.251 C 
ATOM     22  H   UNL A   1      31.744  34.676  27.108  1.00  0.00     0.163 HD
ATOM     23  O   UNL A   1      32.581  36.069  28.923  1.00  0.00    -0.269 OA
BRANCH  21  24
ATOM     24  C   UNL A   1      34.162  34.395  29.368  1.00  0.00     0.039 A 
ATOM     25  C   UNL A   1      33.925  33.600  30.489  1.00  0.00     0.014 A 
ATOM     26  C   UNL A   1      35.460  34.586  28.889  1.00  0.00     0.014 A 
ATOM     27  C   UNL A   1      34.992  32.928  31.085  1.00  0.00     0.010 A 
ATOM     28  C   UNL A   1      36.496  33.824  29.406  1.00  0.00     0.010 A 
ATOM     29  C   UNL A   1      36.277  33.002  30.521  1.00  0.00    -0.014 A 
BRANCH  29  30
ATOM     30  C   UNL A   1      37.421  32.257  31.098  1.00  0.00     0.031 A 
ATOM     31  C   UNL A   1      37.912  32.608  32.477  1.00  0.00     0.074 A 
ATOM     32  C   UNL A   1      38.059  31.327  30.363  1.00  0.00     0.049 A 
ATOM     33  N   UNL A   1      38.939  32.135  33.136  1.00  0.00    -0.248 NA
ATOM     34  C   UNL A   1      37.176  33.664  33.193  1.00  0.00     0.031 C 
ATOM     35  C   UNL A   1      37.721  30.952  28.988  1.00  0.00     0.029 A 
ATOM     36  N   UNL A   1      39.134  30.529  30.667  1.00  0.00    -0.354 N 
ATOM     37  C   UNL A   1      38.981  32.852  34.326  1.00  0.00     0.074 A 
ATOM     38  C   UNL A   1      37.928  33.839  34.267  1.00  0.00     0.031 C 
ATOM     39  C   UNL A   1      38.546  29.974  28.582  1.00  0.00     0.029 A 
ATOM     40  C   UNL A   1      39.493  29.677  29.651  1.00  0.00     0.049 A 
ATOM     41  H   UNL A   1      39.602  30.566  31.532  1.00  0.00     0.167 HD
ATOM     42  C   UNL A   1      39.802  32.677  35.387  1.00  0.00     0.037 A 
ATOM     43  C   UNL A   1      40.476  28.759  29.597  1.00  0.00     0.037 A 
ATOM     44  C   UNL A   1      40.816  31.661  35.457  1.00  0.00     0.049 A 
ATOM     45  C   UNL A   1      41.356  28.563  30.802  1.00  0.00     0.074 A 
ATOM     46  C   UNL A   1      41.652  31.346  36.512  1.00  0.00     0.029 A 
ATOM     47  N   UNL A   1      41.126  30.790  34.422  1.00  0.00    -0.354 N 
ATOM     48  N   UNL A   1      41.335  29.190  31.954  1.00  0.00    -0.248 NA
ATOM     49  C   UNL A   1      42.391  27.525  30.703  1.00  0.00     0.031 C 
ATOM     50  C   UNL A   1      42.496  30.309  36.102  1.00  0.00     0.029 A 
ATOM     51  C   UNL A   1      42.154  29.947  34.808  1.00  0.00     0.049 A 
ATOM     52  H   UNL A   1      40.681  30.773  33.544  1.00  0.00     0.167 HD
ATOM     53  C   UNL A   1      42.332  28.607  32.724  1.00  0.00     0.074 A 
ATOM     54  C   UNL A   1      42.926  27.563  31.915  1.00  0.00     0.031 C 
ATOM     55  C   UNL A   1      42.723  28.909  33.988  1.00  0.00     0.037 A 
BRANCH  42  56
ATOM     56  C   UNL A   1      39.621  33.595  36.561  1.00  0.00     0.064 A 
ATOM     57  C   UNL A   1      40.262  34.843  36.626  1.00  0.00     0.173 A 
ATOM     58  C   UNL A   1      38.782  33.234  37.626  1.00  0.00     0.173 A 
ATOM     59  F   UNL A   1      41.088  35.229  35.642  1.00  0.00    -0.203 F 
ATOM     60  C   UNL A   1      40.099  35.678  37.728  1.00  0.00     0.198 A 
ATOM     61  C   UNL A   1      38.595  34.086  38.712  1.00  0.00     0.198 A 
ATOM     62  F   UNL A   1      38.144  32.055  37.613  1.00  0.00    -0.203 F 
ATOM     63  F   UNL A   1      40.769  36.836  37.795  1.00  0.00    -0.200 F 
ATOM     64  C   UNL A   1      39.260  35.302  38.766  1.00  0.00     0.200 A 
ATOM     65  F   UNL A   1      37.775  33.727  39.709  1.00  0.00    -0.200 F 
ATOM     66  F   UNL A   1      39.100  36.108  39.825  1.00  0.00    -0.200 F 
ENDBRANCH  42  56
BRANCH  43  67
ATOM     67  C   UNL A   1      40.652  27.926  28.379  1.00  0.00     0.064 A 
ATOM     68  C   UNL A   1      40.029  26.674  28.269  1.00  0.00     0.173 A 
ATOM     69  C   UNL A   1      41.440  28.358  27.303  1.00  0.00     0.173 A 
ATOM     70  F   UNL A   1      39.279  26.209  29.279  1.00  0.00    -0.203 F 
ATOM     71  C   UNL A   1      40.209  25.876  27.141  1.00  0.00     0.198 A 
ATOM     72  C   UNL A   1      41.596  27.572  26.163  1.00  0.00     0.198 A 
ATOM     73  F   UNL A   1      42.049  29.552  27.354  1.00  0.00    -0.203 F 
ATOM     74  F   UNL A   1      39.641  24.664  27.084  1.00  0.00    -0.200 F 
ATOM     75  C   UNL A   1      40.988  26.327  26.087  1.00  0.00     0.200 A 
ATOM     76  F   UNL A   1      42.338  28.017  25.140  1.00  0.00    -0.200 F 
ATOM     77  F   UNL A   1      41.158  25.562  25.001  1.00  0.00    -0.200 F 
ENDBRANCH  43  67
BRANCH  55  78
ATOM     78  C   UNL A   1      43.823  28.080  34.580  1.00  0.00     0.064 A 
ATOM     79  C   UNL A   1      45.165  28.481  34.510  1.00  0.00     0.173 A 
ATOM     80  C   UNL A   1      43.524  26.892  35.265  1.00  0.00     0.173 A 
ATOM     81  F   UNL A   1      45.501  29.602  33.854  1.00  0.00    -0.203 F 
ATOM     82  C   UNL A   1      46.171  27.707  35.081  1.00  0.00     0.198 A 
ATOM     83  C   UNL A   1      44.530  26.138  35.862  1.00  0.00     0.198 A 
ATOM     84  F   UNL A   1      42.255  26.471  35.367  1.00  0.00    -0.203 F 
ATOM     85  F   UNL A   1      47.452  28.084  34.960  1.00  0.00    -0.200 F 
ATOM     86  C   UNL A   1      45.853  26.542  35.763  1.00  0.00     0.200 A 
ATOM     87  F   UNL A   1      44.219  25.021  36.533  1.00  0.00    -0.200 F 
ATOM     88  F   UNL A   1      46.824  25.804  36.318  1.00  0.00    -0.200 F 
ENDBRANCH  55  78
ENDBRANCH  29  30
ENDBRANCH  21  24
ENDBRANCH  19  20
ENDBRANCH   1  19
TORSDOF 12
ENDMDL
MODEL 2
REMARK VINA RESULT:     -12.1      0.110      1.642
REMARK SMILES CC(=O)[C@]1(C)CC[C@@H](C(=O)NCCCCNC(=O)c2ccc(-c3c4nc(c(-c5c(F)c(F)c(F)c(F)c5F)c5ccc([nH]5)c(-c5c(F)c(F)c(F)c(F)c5F)c5nc(c(-c6c(F)c(F)c(F)c(F)c6F)c6ccc3[nH]6)C=C5)C=C4)cc2)C1(C)C
REMARK SMILES IDX 14 1 13 2 12 3 11 4 9 5 10 6 8 8 4 9 6 10 82 11 5 12 7 13
REMARK SMILES IDX 83 14 84 15 2 16 1 17 3 18 15 19 16 20 17 21 18 23 19 24
REMARK SMILES IDX 20 25 81 26 21 27 80 28 22 29 23 30 24 31 74 32 25 33 79 34
REMARK SMILES IDX 73 35 75 36 26 37 78 38 72 39 71 40 27 42 59 43 39 44 58 45
REMARK SMILES IDX 40 46 43 47 57 48 76 49 41 50 42 51 56 53 77 54 44 55 28 56
REMARK SMILES IDX 29 57 37 58 30 59 31 60 35 61 38 62 32 63 33 64 36 65 34 66
REMARK SMILES IDX 60 67 61 68 69 69 62 70 63 71 67 72 70 73 64 74 65 75 68 76
REMARK SMILES IDX 66 77 45 78 46 79 54 80 47 81 48 82 52 83 55 84 49 85 50 86
REMARK SMILES IDX 53 87 51 88
REMARK H PARENT 11 7 16 22 75 41 43 52
REMARK Flexibility Score: inf
ROOT
ATOM      1  C   UNL A   1      31.437  32.213  26.556  1.00  0.00     0.023 C 
ENDROOT
BRANCH   1   2
ATOM      2  C   UNL A   1      31.724  30.827  26.009  1.00  0.00     0.023 C 
BRANCH   2   3
ATOM      3  C   UNL A   1      32.521  29.927  26.947  1.00  0.00     0.116 C 
BRANCH   3   4
ATOM      4  N   UNL A   1      31.807  28.755  27.367  1.00  0.00    -0.356 N 
ATOM      5  C   UNL A   1      31.399  27.676  26.651  1.00  0.00     0.223 C 
ATOM      6  O   UNL A   1      30.802  26.799  27.287  1.00  0.00    -0.275 OA
ATOM      7  H   UNL A   1      31.577  28.729  28.324  1.00  0.00     0.163 HD
BRANCH   5   8
ATOM      8  C   UNL A   1      31.657  27.479  25.146  1.00  0.00     0.085 C 
ATOM      9  C   UNL A   1      32.438  25.497  23.773  1.00  0.00     0.032 C 
ATOM     10  C   UNL A   1      30.888  25.523  23.890  1.00  0.00     0.016 C 
ATOM     11  C   UNL A   1      32.948  26.759  24.626  1.00  0.00    -0.012 C 
ATOM     12  C   UNL A   1      32.950  24.123  24.279  1.00  0.00     0.020 C 
ATOM     13  C   UNL A   1      30.490  26.914  24.348  1.00  0.00     0.015 C 
ATOM     14  C   UNL A   1      33.941  26.417  25.751  1.00  0.00     0.013 C 
ATOM     15  C   UNL A   1      33.708  27.806  23.762  1.00  0.00     0.013 C 
BRANCH   9  16
ATOM     16  C   UNL A   1      32.933  25.493  22.299  1.00  0.00     0.136 C 
ATOM     17  C   UNL A   1      32.015  25.954  21.195  1.00  0.00     0.088 C 
ATOM     18  O   UNL A   1      34.026  25.005  21.996  1.00  0.00    -0.299 OA
ENDBRANCH   9  16
ENDBRANCH   5   8
ENDBRANCH   3   4
ENDBRANCH   2   3
ENDBRANCH   1   2
BRANCH   1  19
ATOM     19  C   UNL A   1      32.592  32.830  27.324  1.00  0.00     0.116 C 
BRANCH  19  20
ATOM     20  N   UNL A   1      32.392  34.243  27.626  1.00  0.00    -0.352 N 
ATOM     21  C   UNL A   1      33.029  35.029  28.560  1.00  0.00     0.251 C 
ATOM     22  H   UNL A   1      31.705  34.697  27.088  1.00  0.00     0.163 HD
ATOM     23  O   UNL A   1      32.646  36.164  28.791  1.00  0.00    -0.269 OA
BRANCH  21  24
ATOM     24  C   UNL A   1      34.170  34.456  29.301  1.00  0.00     0.039 A 
ATOM     25  C   UNL A   1      33.930  33.733  30.469  1.00  0.00     0.014 A 
ATOM     26  C   UNL A   1      35.462  34.572  28.785  1.00  0.00     0.014 A 
ATOM     27  C   UNL A   1      34.986  33.055  31.080  1.00  0.00     0.010 A 
ATOM     28  C   UNL A   1      36.481  33.802  29.322  1.00  0.00     0.010 A 
ATOM     29  C   UNL A   1      36.259  33.050  30.485  1.00  0.00    -0.014 A 
BRANCH  29  30
ATOM     30  C   UNL A   1      37.389  32.297  31.079  1.00  0.00     0.031 A 
ATOM     31  C   UNL A   1      37.869  32.649  32.460  1.00  0.00     0.074 A 
ATOM     32  C   UNL A   1      38.025  31.356  30.355  1.00  0.00     0.049 A 
ATOM     33  N   UNL A   1      38.882  32.169  33.134  1.00  0.00    -0.248 NA
ATOM     34  C   UNL A   1      37.136  33.717  33.164  1.00  0.00     0.031 C 
ATOM     35  C   UNL A   1      37.697  30.978  28.978  1.00  0.00     0.029 A 
ATOM     36  N   UNL A   1      39.087  30.549  30.675  1.00  0.00    -0.354 N 
ATOM     37  C   UNL A   1      38.920  32.891  34.320  1.00  0.00     0.074 A 
ATOM     38  C   UNL A   1      37.878  33.889  34.245  1.00  0.00     0.031 C 
ATOM     39  C   UNL A   1      38.517  29.989  28.587  1.00  0.00     0.029 A 
ATOM     40  C   UNL A   1      39.449  29.687  29.667  1.00  0.00     0.049 A 
ATOM     41  H   UNL A   1      39.547  30.584  31.545  1.00  0.00     0.167 HD
ATOM     42  C   UNL A   1      39.727  32.713  35.391  1.00  0.00     0.037 A 
ATOM     43  C   UNL A   1      40.422  28.758  29.628  1.00  0.00     0.037 A 
ATOM     44  C   UNL A   1      40.729  31.687  35.477  1.00  0.00     0.049 A 
ATOM     45  C   UNL A   1      41.287  28.559  30.844  1.00  0.00     0.074 A 
ATOM     46  C   UNL A   1      41.550  31.368  36.543  1.00  0.00     0.029 A 
ATOM     47  N   UNL A   1      41.041  30.807  34.450  1.00  0.00    -0.354 N 
ATOM     48  N   UNL A   1      41.260  29.192  31.992  1.00  0.00    -0.248 NA
ATOM     49  C   UNL A   1      42.311  27.510  30.762  1.00  0.00     0.031 C 
ATOM     50  C   UNL A   1      42.388  30.320  36.148  1.00  0.00     0.029 A 
ATOM     51  C   UNL A   1      42.056  29.955  34.852  1.00  0.00     0.049 A 
ATOM     52  H   UNL A   1      40.606  30.790  33.567  1.00  0.00     0.167 HD
ATOM     53  C   UNL A   1      42.242  28.602  32.776  1.00  0.00     0.074 A 
ATOM     54  C   UNL A   1      42.834  27.548  31.979  1.00  0.00     0.031 C 
ATOM     55  C   UNL A   1      42.622  28.907  34.043  1.00  0.00     0.037 A 
BRANCH  42  56
ATOM     56  C   UNL A   1      39.543  33.639  36.558  1.00  0.00     0.064 A 
ATOM     57  C   UNL A   1      38.733  33.294  37.652  1.00  0.00     0.173 A 
ATOM     58  C   UNL A   1      40.196  34.880  36.594  1.00  0.00     0.173 A 
ATOM     59  F   UNL A   1      38.072  32.126  37.659  1.00  0.00    -0.203 F 
ATOM     60  C   UNL A   1      38.556  34.169  38.720  1.00  0.00     0.198 A 
ATOM     61  C   UNL A   1      40.044  35.739  37.680  1.00  0.00     0.198 A 
ATOM     62  F   UNL A   1      40.983  35.259  35.577  1.00  0.00    -0.203 F 
ATOM     63  F   UNL A   1      37.731  33.841  39.723  1.00  0.00    -0.200 F 
ATOM     64  C   UNL A   1      39.218  35.387  38.737  1.00  0.00     0.200 A 
ATOM     65  F   UNL A   1      40.692  36.912  37.700  1.00  0.00    -0.200 F 
ATOM     66  F   UNL A   1      39.051  36.227  39.767  1.00  0.00    -0.200 F 
ENDBRANCH  42  56
BRANCH  43  67
ATOM     67  C   UNL A   1      40.602  27.918  28.416  1.00  0.00     0.064 A 
ATOM     68  C   UNL A   1      41.392  28.361  27.346  1.00  0.00     0.173 A 
ATOM     69  C   UNL A   1      39.993  26.660  28.299  1.00  0.00     0.173 A 
ATOM     70  F   UNL A   1      41.981  29.565  27.402  1.00  0.00    -0.203 F 
ATOM     71  C   UNL A   1      41.546  27.590  26.195  1.00  0.00     0.198 A 
ATOM     72  C   UNL A   1      40.171  25.877  27.160  1.00  0.00     0.198 A 
ATOM     73  F   UNL A   1      39.235  26.186  29.299  1.00  0.00    -0.203 F 
ATOM     74  F   UNL A   1      42.268  28.060  25.169  1.00  0.00    -0.200 F 
ATOM     75  C   UNL A   1      40.940  26.347  26.105  1.00  0.00     0.200 A 
ATOM     76  F   UNL A   1      39.596  24.670  27.082  1.00  0.00    -0.200 F 
ATOM     77  F   UNL A   1      41.091  25.604  25.001  1.00  0.00    -0.200 F 
ENDBRANCH  43  67
BRANCH  55  78
ATOM     78  C   UNL A   1      43.707  28.069  34.651  1.00  0.00     0.064 A 
ATOM     79  C   UNL A   1      45.058  28.438  34.564  1.00  0.00     0.173 A 
ATOM     80  C   UNL A   1      43.386  26.907  35.368  1.00  0.00     0.173 A 
ATOM     81  F   UNL A   1      45.415  29.533  33.878  1.00  0.00    -0.203 F 
ATOM     82  C   UNL A   1      46.049  27.658  35.150  1.00  0.00     0.198 A 
ATOM     83  C   UNL A   1      44.378  26.146  35.980  1.00  0.00     0.198 A 
ATOM     84  F   UNL A   1      42.108  26.517  35.488  1.00  0.00    -0.203 F 
ATOM     85  F   UNL A   1      47.337  28.002  35.013  1.00  0.00    -0.200 F 
ATOM     86  C   UNL A   1      45.709  26.518  35.864  1.00  0.00     0.200 A 
ATOM     87  F   UNL A   1      44.046  25.054  36.682  1.00  0.00    -0.200 F 
ATOM     88  F   UNL A   1      46.666  25.773  36.434  1.00  0.00    -0.200 F 
ENDBRANCH  55  78
ENDBRANCH  29  30
ENDBRANCH  21  24
ENDBRANCH  19  20
ENDBRANCH   1  19
TORSDOF 12
ENDMDL
MODEL 3
REMARK VINA RESULT:     -12.0      0.749      7.481
REMARK SMILES CC(=O)[C@]1(C)CC[C@@H](C(=O)NCCCCNC(=O)c2ccc(-c3c4nc(c(-c5c(F)c(F)c(F)c(F)c5F)c5ccc([nH]5)c(-c5c(F)c(F)c(F)c(F)c5F)c5nc(c(-c6c(F)c(F)c(F)c(F)c6F)c6ccc3[nH]6)C=C5)C=C4)cc2)C1(C)C
REMARK SMILES IDX 14 1 13 2 12 3 11 4 9 5 10 6 8 8 4 9 6 10 82 11 5 12 7 13
REMARK SMILES IDX 83 14 84 15 2 16 1 17 3 18 15 19 16 20 17 21 18 23 19 24
REMARK SMILES IDX 20 25 81 26 21 27 80 28 22 29 23 30 24 31 74 32 25 33 79 34
REMARK SMILES IDX 73 35 75 36 26 37 78 38 72 39 71 40 27 42 59 43 39 44 58 45
REMARK SMILES IDX 40 46 43 47 57 48 76 49 41 50 42 51 56 53 77 54 44 55 28 56
REMARK SMILES IDX 29 57 37 58 30 59 31 60 35 61 38 62 32 63 33 64 36 65 34 66
REMARK SMILES IDX 60 67 61 68 69 69 62 70 63 71 67 72 70 73 64 74 65 75 68 76
REMARK SMILES IDX 66 77 45 78 46 79 54 80 47 81 48 82 52 83 55 84 49 85 50 86
REMARK SMILES IDX 53 87 51 88
REMARK H PARENT 11 7 16 22 75 41 43 52
REMARK Flexibility Score: inf
ROOT
ATOM      1  C   UNL A   1      31.619  32.013  26.880  1.00  0.00     0.023 C 
ENDROOT
BRANCH   1   2
ATOM      2  C   UNL A   1      32.023  30.740  26.160  1.00  0.00     0.023 C 
BRANCH   2   3
ATOM      3  C   UNL A   1      32.725  29.710  27.036  1.00  0.00     0.116 C 
BRANCH   3   4
ATOM      4  N   UNL A   1      31.892  28.598  27.400  1.00  0.00    -0.356 N 
ATOM      5  C   UNL A   1      31.396  27.591  26.638  1.00  0.00     0.223 C 
ATOM      6  O   UNL A   1      30.704  26.754  27.231  1.00  0.00    -0.275 OA
ATOM      7  H   UNL A   1      31.641  28.561  28.351  1.00  0.00     0.163 HD
BRANCH   5   8
ATOM      8  C   UNL A   1      31.665  27.424  25.131  1.00  0.00     0.085 C 
ATOM      9  C   UNL A   1      32.346  25.440  23.708  1.00  0.00     0.032 C 
ATOM     10  C   UNL A   1      30.799  25.555  23.806  1.00  0.00     0.016 C 
ATOM     11  C   UNL A   1      32.917  26.643  24.606  1.00  0.00    -0.012 C 
ATOM     12  C   UNL A   1      32.767  24.023  24.178  1.00  0.00     0.020 C 
ATOM     13  C   UNL A   1      30.477  26.953  24.301  1.00  0.00     0.015 C 
ATOM     14  C   UNL A   1      33.872  26.209  25.733  1.00  0.00     0.013 C 
ATOM     15  C   UNL A   1      33.751  27.668  23.784  1.00  0.00     0.013 C 
BRANCH   9  16
ATOM     16  C   UNL A   1      32.862  25.450  22.241  1.00  0.00     0.136 C 
ATOM     17  C   UNL A   1      31.993  26.007  21.141  1.00  0.00     0.088 C 
ATOM     18  O   UNL A   1      33.924  24.900  21.936  1.00  0.00    -0.299 OA
ENDBRANCH   9  16
ENDBRANCH   5   8
ENDBRANCH   3   4
ENDBRANCH   2   3
ENDBRANCH   1   2
BRANCH   1  19
ATOM     19  C   UNL A   1      32.786  32.809  27.436  1.00  0.00     0.116 C 
BRANCH  19  20
ATOM     20  N   UNL A   1      32.459  34.208  27.689  1.00  0.00    -0.352 N 
ATOM     21  C   UNL A   1      32.986  35.066  28.628  1.00  0.00     0.251 C 
ATOM     22  H   UNL A   1      31.764  34.592  27.107  1.00  0.00     0.163 HD
ATOM     23  O   UNL A   1      32.502  36.171  28.810  1.00  0.00    -0.269 OA
BRANCH  21  24
ATOM     24  C   UNL A   1      34.133  34.606  29.436  1.00  0.00     0.039 A 
ATOM     25  C   UNL A   1      33.907  34.107  30.718  1.00  0.00     0.014 A 
ATOM     26  C   UNL A   1      35.414  34.598  28.882  1.00  0.00     0.014 A 
ATOM     27  C   UNL A   1      34.963  33.523  31.418  1.00  0.00     0.010 A 
ATOM     28  C   UNL A   1      36.430  33.910  29.526  1.00  0.00     0.010 A 
ATOM     29  C   UNL A   1      36.222  33.382  30.808  1.00  0.00    -0.014 A 
BRANCH  29  30
ATOM     30  C   UNL A   1      37.350  32.719  31.503  1.00  0.00     0.031 A 
ATOM     31  C   UNL A   1      38.056  31.569  30.837  1.00  0.00     0.074 A 
ATOM     32  C   UNL A   1      37.688  33.097  32.750  1.00  0.00     0.049 A 
ATOM     33  N   UNL A   1      39.013  30.805  31.298  1.00  0.00    -0.248 NA
ATOM     34  C   UNL A   1      37.595  31.200  29.487  1.00  0.00     0.031 C 
ATOM     35  C   UNL A   1      37.029  34.150  33.526  1.00  0.00     0.029 A 
ATOM     36  N   UNL A   1      38.669  32.633  33.590  1.00  0.00    -0.354 N 
ATOM     37  C   UNL A   1      39.245  29.858  30.308  1.00  0.00     0.074 A 
ATOM     38  C   UNL A   1      38.284  30.095  29.257  1.00  0.00     0.031 C 
ATOM     39  C   UNL A   1      37.647  34.274  34.712  1.00  0.00     0.029 A 
ATOM     40  C   UNL A   1      38.721  33.290  34.795  1.00  0.00     0.049 A 
ATOM     41  H   UNL A   1      39.278  31.897  33.351  1.00  0.00     0.167 HD
ATOM     42  C   UNL A   1      40.199  28.900  30.264  1.00  0.00     0.037 A 
ATOM     43  C   UNL A   1      39.546  33.116  35.844  1.00  0.00     0.037 A 
ATOM     44  C   UNL A   1      41.183  28.702  31.292  1.00  0.00     0.049 A 
ATOM     45  C   UNL A   1      40.619  32.064  35.757  1.00  0.00     0.074 A 
ATOM     46  C   UNL A   1      42.242  27.813  31.316  1.00  0.00     0.029 A 
ATOM     47  N   UNL A   1      41.228  29.413  32.483  1.00  0.00    -0.354 N 
ATOM     48  N   UNL A   1      40.883  31.227  34.782  1.00  0.00    -0.248 NA
ATOM     49  C   UNL A   1      41.515  31.937  36.915  1.00  0.00     0.031 C 
ATOM     50  C   UNL A   1      42.904  27.958  32.539  1.00  0.00     0.029 A 
ATOM     51  C   UNL A   1      42.287  28.970  33.257  1.00  0.00     0.049 A 
ATOM     52  H   UNL A   1      40.600  30.127  32.740  1.00  0.00     0.167 HD
ATOM     53  C   UNL A   1      41.988  30.496  35.195  1.00  0.00     0.074 A 
ATOM     54  C   UNL A   1      42.356  30.999  36.502  1.00  0.00     0.031 C 
ATOM     55  C   UNL A   1      42.639  29.495  34.552  1.00  0.00     0.037 A 
BRANCH  42  56
ATOM     56  C   UNL A   1      40.231  28.010  29.056  1.00  0.00     0.064 A 
ATOM     57  C   UNL A   1      40.958  28.356  27.905  1.00  0.00     0.173 A 
ATOM     58  C   UNL A   1      39.543  26.787  29.052  1.00  0.00     0.173 A 
ATOM     59  F   UNL A   1      41.620  29.521  27.850  1.00  0.00    -0.203 F 
ATOM     60  C   UNL A   1      40.965  27.529  26.785  1.00  0.00     0.198 A 
ATOM     61  C   UNL A   1      39.579  25.948  27.941  1.00  0.00     0.198 A 
ATOM     62  F   UNL A   1      38.835  26.407  30.125  1.00  0.00    -0.203 F 
ATOM     63  F   UNL A   1      41.617  27.910  25.677  1.00  0.00    -0.200 F 
ATOM     64  C   UNL A   1      40.283  26.323  26.806  1.00  0.00     0.200 A 
ATOM     65  F   UNL A   1      38.928  24.776  27.968  1.00  0.00    -0.200 F 
ATOM     66  F   UNL A   1      40.293  25.526  25.729  1.00  0.00    -0.200 F 
ENDBRANCH  42  56
BRANCH  43  67
ATOM     67  C   UNL A   1      39.421  33.983  37.044  1.00  0.00     0.064 A 
ATOM     68  C   UNL A   1      38.735  33.537  38.183  1.00  0.00     0.173 A 
ATOM     69  C   UNL A   1      39.980  35.268  37.081  1.00  0.00     0.173 A 
ATOM     70  F   UNL A   1      38.167  32.322  38.190  1.00  0.00    -0.203 F 
ATOM     71  C   UNL A   1      38.591  34.354  39.303  1.00  0.00     0.198 A 
ATOM     72  C   UNL A   1      39.860  36.073  38.213  1.00  0.00     0.198 A 
ATOM     73  F   UNL A   1      40.654  35.738  36.021  1.00  0.00    -0.203 F 
ATOM     74  F   UNL A   1      37.889  33.920  40.359  1.00  0.00    -0.200 F 
ATOM     75  C   UNL A   1      39.158  35.618  39.319  1.00  0.00     0.200 A 
ATOM     76  F   UNL A   1      40.422  37.289  38.230  1.00  0.00    -0.200 F 
ATOM     77  F   UNL A   1      39.023  36.402  40.398  1.00  0.00    -0.200 F 
ENDBRANCH  43  67
BRANCH  55  78
ATOM     78  C   UNL A   1      43.833  28.902  35.239  1.00  0.00     0.064 A 
ATOM     79  C   UNL A   1      45.124  29.415  35.044  1.00  0.00     0.173 A 
ATOM     80  C   UNL A   1      43.675  27.836  36.138  1.00  0.00     0.173 A 
ATOM     81  F   UNL A   1      45.326  30.425  34.185  1.00  0.00    -0.203 F 
ATOM     82  C   UNL A   1      46.217  28.864  35.705  1.00  0.00     0.198 A 
ATOM     83  C   UNL A   1      44.767  27.309  36.821  1.00  0.00     0.198 A 
ATOM     84  F   UNL A   1      42.460  27.317  36.366  1.00  0.00    -0.203 F 
ATOM     85  F   UNL A   1      47.448  29.338  35.467  1.00  0.00    -0.200 F 
ATOM     86  C   UNL A   1      46.038  27.818  36.597  1.00  0.00     0.200 A 
ATOM     87  F   UNL A   1      44.590  26.308  37.694  1.00  0.00    -0.200 F 
ATOM     88  F   UNL A   1      47.093  27.294  37.238  1.00  0.00    -0.200 F 
ENDBRANCH  55  78
ENDBRANCH  29  30
ENDBRANCH  21  24
ENDBRANCH  19  20
ENDBRANCH   1  19
TORSDOF 12
ENDMDL
