MODEL 1
REMARK VINA RESULT:     -10.4      0.000      0.000
REMARK SMILES O=C(NCCCCNC(=O)c1ccc(-c2ccc(OCc3ccccc3)cc2)nc1)c1ccc(-c2c3nc(c(-c4c(F)c(F)c(F)c(F)c4F)c4ccc([nH]4)c(-c4c(F)c(F)c(F)c(F)c4F)c4nc(c(-c5c(F)c(F)c(F)c(F)c5F)c5ccc2[nH]5)C=C4)C=C3)cc1
REMARK SMILES IDX 6 1 5 2 4 3 3 4 1 5 2 6 31 8 32 9 93 10 33 11 92 12 34 13
REMARK SMILES IDX 35 14 36 15 86 16 37 17 91 18 85 19 87 20 38 21 90 22 84 23
REMARK SMILES IDX 83 24 39 26 71 27 51 28 70 29 52 30 55 31 69 32 88 33 53 34
REMARK SMILES IDX 54 35 68 37 89 38 56 39 40 40 41 41 49 42 42 43 43 44 47 45
REMARK SMILES IDX 50 46 44 47 45 48 48 49 46 50 72 51 73 52 81 53 74 54 75 55
REMARK SMILES IDX 79 56 82 57 76 58 77 59 80 60 78 61 57 62 58 63 66 64 59 65
REMARK SMILES IDX 60 66 64 67 67 68 61 69 62 70 65 71 63 72 7 73 8 74 9 75
REMARK SMILES IDX 10 77 11 78 12 79 30 80 13 81 29 82 14 83 15 84 16 85 28 86
REMARK SMILES IDX 17 87 27 88 18 89 19 90 20 91 21 92 22 93 26 94 23 95 25 96
REMARK SMILES IDX 24 97
REMARK H PARENT 3 7 87 25 55 36 8 76
REMARK Flexibility Score: inf
ROOT
ATOM      1  C   UNL A   1      42.280  19.887  27.209  1.00  0.00     0.023 C 
ENDROOT
BRANCH   1   2
ATOM      2  C   UNL A   1      41.163  20.915  27.377  1.00  0.00     0.023 C 
BRANCH   2   3
ATOM      3  C   UNL A   1      41.040  21.930  26.249  1.00  0.00     0.116 C 
BRANCH   3   4
ATOM      4  N   UNL A   1      39.669  22.136  25.812  1.00  0.00    -0.352 N 
ATOM      5  O   UNL A   1      37.646  23.138  25.736  1.00  0.00    -0.269 OA
ATOM      6  C   UNL A   1      38.821  23.184  26.084  1.00  0.00     0.251 C 
ATOM      7  H   UNL A   1      39.294  21.425  25.242  1.00  0.00     0.163 HD
BRANCH   6   8
ATOM      8  C   UNL A   1      39.328  24.358  26.824  1.00  0.00     0.039 A 
ATOM      9  C   UNL A   1      39.127  24.472  28.201  1.00  0.00     0.014 A 
ATOM     10  C   UNL A   1      40.003  25.365  26.126  1.00  0.00     0.014 A 
ATOM     11  C   UNL A   1      39.464  25.651  28.852  1.00  0.00     0.010 A 
ATOM     12  C   UNL A   1      40.424  26.514  26.801  1.00  0.00     0.010 A 
ATOM     13  C   UNL A   1      40.130  26.679  28.164  1.00  0.00    -0.014 A 
BRANCH  13  14
ATOM     14  C   UNL A   1      40.571  27.882  28.914  1.00  0.00     0.031 A 
ATOM     15  C   UNL A   1      41.991  28.038  29.378  1.00  0.00     0.074 A 
ATOM     16  C   UNL A   1      39.670  28.856  29.143  1.00  0.00     0.049 A 
ATOM     17  N   UNL A   1      42.541  29.039  30.022  1.00  0.00    -0.248 NA
ATOM     18  C   UNL A   1      42.915  26.931  29.092  1.00  0.00     0.031 C 
ATOM     19  C   UNL A   1      38.260  28.804  28.751  1.00  0.00     0.029 A 
ATOM     20  N   UNL A   1      39.804  30.082  29.740  1.00  0.00    -0.354 N 
ATOM     21  C   UNL A   1      43.865  28.676  30.232  1.00  0.00     0.074 A 
ATOM     22  C   UNL A   1      44.033  27.352  29.668  1.00  0.00     0.031 C 
ATOM     23  C   UNL A   1      37.671  29.963  29.074  1.00  0.00     0.029 A 
ATOM     24  C   UNL A   1      38.642  30.814  29.751  1.00  0.00     0.049 A 
ATOM     25  H   UNL A   1      40.650  30.407  30.125  1.00  0.00     0.167 HD
ATOM     26  C   UNL A   1      44.848  29.390  30.833  1.00  0.00     0.037 A 
ATOM     27  C   UNL A   1      38.381  32.030  30.263  1.00  0.00     0.037 A 
ATOM     28  C   UNL A   1      44.676  30.713  31.376  1.00  0.00     0.049 A 
ATOM     29  C   UNL A   1      39.486  32.787  30.939  1.00  0.00     0.074 A 
ATOM     30  C   UNL A   1      45.620  31.532  31.970  1.00  0.00     0.029 A 
ATOM     31  N   UNL A   1      43.476  31.411  31.395  1.00  0.00    -0.354 N 
ATOM     32  N   UNL A   1      40.742  32.447  31.099  1.00  0.00    -0.248 NA
ATOM     33  C   UNL A   1      39.138  34.095  31.508  1.00  0.00     0.031 C 
ATOM     34  C   UNL A   1      44.983  32.706  32.388  1.00  0.00     0.029 A 
ATOM     35  C   UNL A   1      43.652  32.640  32.012  1.00  0.00     0.049 A 
ATOM     36  H   UNL A   1      42.626  31.082  31.024  1.00  0.00     0.167 HD
ATOM     37  C   UNL A   1      41.337  33.500  31.776  1.00  0.00     0.074 A 
ATOM     38  C   UNL A   1      40.310  34.503  31.973  1.00  0.00     0.031 C 
ATOM     39  C   UNL A   1      42.618  33.624  32.203  1.00  0.00     0.037 A 
BRANCH  26  40
ATOM     40  C   UNL A   1      46.204  28.753  30.951  1.00  0.00     0.064 A 
ATOM     41  C   UNL A   1      47.181  28.908  29.958  1.00  0.00     0.173 A 
ATOM     42  C   UNL A   1      46.549  28.030  32.104  1.00  0.00     0.173 A 
ATOM     43  F   UNL A   1      46.898  29.581  28.832  1.00  0.00    -0.203 F 
ATOM     44  C   UNL A   1      48.449  28.349  30.105  1.00  0.00     0.198 A 
ATOM     45  C   UNL A   1      47.826  27.495  32.260  1.00  0.00     0.198 A 
ATOM     46  F   UNL A   1      45.655  27.858  33.088  1.00  0.00    -0.203 F 
ATOM     47  F   UNL A   1      49.355  28.482  29.128  1.00  0.00    -0.200 F 
ATOM     48  C   UNL A   1      48.772  27.651  31.259  1.00  0.00     0.200 A 
ATOM     49  F   UNL A   1      48.141  26.831  33.380  1.00  0.00    -0.200 F 
ATOM     50  F   UNL A   1      49.997  27.124  31.404  1.00  0.00    -0.200 F 
ENDBRANCH  26  40
BRANCH  27  51
ATOM     51  C   UNL A   1      37.011  32.594  30.158  1.00  0.00     0.064 A 
ATOM     52  C   UNL A   1      36.087  32.446  31.201  1.00  0.00     0.173 A 
ATOM     53  C   UNL A   1      36.606  33.307  29.020  1.00  0.00     0.173 A 
ATOM     54  F   UNL A   1      36.423  31.757  32.300  1.00  0.00    -0.203 F 
ATOM     55  C   UNL A   1      34.803  32.978  31.102  1.00  0.00     0.198 A 
ATOM     56  C   UNL A   1      35.333  33.865  28.936  1.00  0.00     0.198 A 
ATOM     57  F   UNL A   1      37.456  33.482  27.999  1.00  0.00    -0.203 F 
ATOM     58  F   UNL A   1      33.925  32.789  32.097  1.00  0.00    -0.200 F 
ATOM     59  C   UNL A   1      34.430  33.694  29.974  1.00  0.00     0.200 A 
ATOM     60  F   UNL A   1      34.983  34.572  27.853  1.00  0.00    -0.200 F 
ATOM     61  F   UNL A   1      33.199  34.213  29.886  1.00  0.00    -0.200 F 
ENDBRANCH  27  51
BRANCH  39  62
ATOM     62  C   UNL A   1      42.978  34.898  32.907  1.00  0.00     0.064 A 
ATOM     63  C   UNL A   1      42.907  35.009  34.303  1.00  0.00     0.173 A 
ATOM     64  C   UNL A   1      43.414  36.015  32.178  1.00  0.00     0.173 A 
ATOM     65  F   UNL A   1      42.477  33.975  35.042  1.00  0.00    -0.203 F 
ATOM     66  C   UNL A   1      43.233  36.202  34.942  1.00  0.00     0.198 A 
ATOM     67  C   UNL A   1      43.767  37.196  32.823  1.00  0.00     0.198 A 
ATOM     68  F   UNL A   1      43.502  35.957  30.841  1.00  0.00    -0.203 F 
ATOM     69  F   UNL A   1      43.108  36.302  36.273  1.00  0.00    -0.200 F 
ATOM     70  C   UNL A   1      43.669  37.291  34.204  1.00  0.00     0.200 A 
ATOM     71  F   UNL A   1      44.196  38.245  32.108  1.00  0.00    -0.200 F 
ATOM     72  F   UNL A   1      43.983  38.439  34.821  1.00  0.00    -0.200 F 
ENDBRANCH  39  62
ENDBRANCH  13  14
ENDBRANCH   6   8
ENDBRANCH   3   4
ENDBRANCH   2   3
ENDBRANCH   1   2
BRANCH   1  73
ATOM     73  C   UNL A   1      42.650  19.569  25.762  1.00  0.00     0.116 C 
BRANCH  73  74
ATOM     74  N   UNL A   1      44.053  19.209  25.622  1.00  0.00    -0.352 N 
ATOM     75  C   UNL A   1      45.124  20.012  25.329  1.00  0.00     0.252 C 
ATOM     76  H   UNL A   1      44.261  18.256  25.755  1.00  0.00     0.163 HD
ATOM     77  O   UNL A   1      46.217  19.524  25.060  1.00  0.00    -0.269 OA
BRANCH  75  78
ATOM     78  C   UNL A   1      44.961  21.469  25.340  1.00  0.00     0.058 A 
ATOM     79  C   UNL A   1      44.527  22.162  24.212  1.00  0.00     0.018 A 
ATOM     80  C   UNL A   1      45.228  22.176  26.500  1.00  0.00     0.125 A 
ATOM     81  C   UNL A   1      44.427  23.546  24.279  1.00  0.00     0.030 A 
ATOM     82  N   UNL A   1      45.151  23.527  26.584  1.00  0.00    -0.255 NA
ATOM     83  C   UNL A   1      44.743  24.195  25.476  1.00  0.00     0.070 A 
BRANCH  83  84
ATOM     84  C   UNL A   1      44.669  25.653  25.578  1.00  0.00     0.000 A 
ATOM     85  C   UNL A   1      43.537  26.352  25.138  1.00  0.00     0.014 A 
ATOM     86  C   UNL A   1      45.703  26.378  26.192  1.00  0.00     0.014 A 
ATOM     87  C   UNL A   1      43.398  27.716  25.406  1.00  0.00     0.047 A 
ATOM     88  C   UNL A   1      45.574  27.746  26.442  1.00  0.00     0.047 A 
ATOM     89  C   UNL A   1      44.390  28.402  26.108  1.00  0.00     0.119 A 
BRANCH  89  90
ATOM     90  O   UNL A   1      44.042  29.665  26.501  1.00  0.00    -0.489 OA
BRANCH  90  91
ATOM     91  C   UNL A   1      45.045  30.689  26.502  1.00  0.00     0.265 C 
BRANCH  91  92
ATOM     92  C   UNL A   1      44.592  32.115  26.780  1.00  0.00    -0.011 A 
ATOM     93  C   UNL A   1      44.451  32.520  28.118  1.00  0.00     0.007 A 
ATOM     94  C   UNL A   1      44.277  33.040  25.774  1.00  0.00     0.007 A 
ATOM     95  C   UNL A   1      43.966  33.791  28.435  1.00  0.00     0.000 A 
ATOM     96  C   UNL A   1      43.764  34.300  26.090  1.00  0.00     0.000 A 
ATOM     97  C   UNL A   1      43.605  34.674  27.420  1.00  0.00     0.000 A 
ENDBRANCH  91  92
ENDBRANCH  90  91
ENDBRANCH  89  90
ENDBRANCH  83  84
ENDBRANCH  75  78
ENDBRANCH  73  74
ENDBRANCH   1  73
TORSDOF 15
ENDMDL
MODEL 2
REMARK VINA RESULT:     -10.4      3.810     10.610
REMARK SMILES O=C(NCCCCNC(=O)c1ccc(-c2ccc(OCc3ccccc3)cc2)nc1)c1ccc(-c2c3nc(c(-c4c(F)c(F)c(F)c(F)c4F)c4ccc([nH]4)c(-c4c(F)c(F)c(F)c(F)c4F)c4nc(c(-c5c(F)c(F)c(F)c(F)c5F)c5ccc2[nH]5)C=C4)C=C3)cc1
REMARK SMILES IDX 6 1 5 2 4 3 3 4 1 5 2 6 31 8 32 9 93 10 33 11 92 12 34 13
REMARK SMILES IDX 35 14 36 15 86 16 37 17 91 18 85 19 87 20 38 21 90 22 84 23
REMARK SMILES IDX 83 24 39 26 71 27 51 28 70 29 52 30 55 31 69 32 88 33 53 34
REMARK SMILES IDX 54 35 68 37 89 38 56 39 40 40 41 41 49 42 42 43 43 44 47 45
REMARK SMILES IDX 50 46 44 47 45 48 48 49 46 50 72 51 73 52 81 53 74 54 75 55
REMARK SMILES IDX 79 56 82 57 76 58 77 59 80 60 78 61 57 62 58 63 66 64 59 65
REMARK SMILES IDX 60 66 64 67 67 68 61 69 62 70 65 71 63 72 7 73 8 74 9 75
REMARK SMILES IDX 10 77 11 78 12 79 30 80 13 81 29 82 14 83 15 84 16 85 28 86
REMARK SMILES IDX 17 87 27 88 18 89 19 90 20 91 21 92 22 93 26 94 23 95 25 96
REMARK SMILES IDX 24 97
REMARK H PARENT 3 7 87 25 55 36 8 76
REMARK Flexibility Score: inf
ROOT
ATOM      1  C   UNL A   1      36.846  33.767  28.878  1.00  0.00     0.023 C 
ENDROOT
BRANCH   1   2
ATOM      2  C   UNL A   1      35.510  33.308  28.298  1.00  0.00     0.023 C 
BRANCH   2   3
ATOM      3  C   UNL A   1      34.678  32.419  29.213  1.00  0.00     0.116 C 
BRANCH   3   4
ATOM      4  N   UNL A   1      34.078  31.289  28.522  1.00  0.00    -0.352 N 
ATOM      5  O   UNL A   1      34.040  29.339  27.384  1.00  0.00    -0.269 OA
ATOM      6  C   UNL A   1      34.675  30.139  28.063  1.00  0.00     0.251 C 
ATOM      7  H   UNL A   1      33.109  31.358  28.359  1.00  0.00     0.163 HD
BRANCH   6   8
ATOM      8  C   UNL A   1      36.098  29.884  28.368  1.00  0.00     0.039 A 
ATOM      9  C   UNL A   1      37.085  30.121  27.409  1.00  0.00     0.014 A 
ATOM     10  C   UNL A   1      36.446  29.389  29.629  1.00  0.00     0.014 A 
ATOM     11  C   UNL A   1      38.393  29.725  27.653  1.00  0.00     0.010 A 
ATOM     12  C   UNL A   1      37.780  29.075  29.906  1.00  0.00     0.010 A 
ATOM     13  C   UNL A   1      38.759  29.213  28.909  1.00  0.00    -0.014 A 
BRANCH  13  14
ATOM     14  C   UNL A   1      40.186  28.899  29.173  1.00  0.00     0.031 A 
ATOM     15  C   UNL A   1      41.058  29.829  29.966  1.00  0.00     0.074 A 
ATOM     16  C   UNL A   1      40.678  27.734  28.710  1.00  0.00     0.049 A 
ATOM     17  N   UNL A   1      42.317  29.689  30.305  1.00  0.00    -0.248 NA
ATOM     18  C   UNL A   1      40.449  31.082  30.435  1.00  0.00     0.031 C 
ATOM     19  C   UNL A   1      39.925  26.761  27.916  1.00  0.00     0.029 A 
ATOM     20  N   UNL A   1      41.915  27.160  28.853  1.00  0.00    -0.354 N 
ATOM     21  C   UNL A   1      42.653  30.837  31.009  1.00  0.00     0.074 A 
ATOM     22  C   UNL A   1      41.474  31.678  31.031  1.00  0.00     0.031 C 
ATOM     23  C   UNL A   1      40.698  25.691  27.683  1.00  0.00     0.029 A 
ATOM     24  C   UNL A   1      42.017  25.928  28.255  1.00  0.00     0.049 A 
ATOM     25  H   UNL A   1      42.657  27.589  29.338  1.00  0.00     0.167 HD
ATOM     26  C   UNL A   1      43.836  31.152  31.591  1.00  0.00     0.037 A 
ATOM     27  C   UNL A   1      43.064  25.088  28.161  1.00  0.00     0.037 A 
ATOM     28  C   UNL A   1      45.000  30.301  31.579  1.00  0.00     0.049 A 
ATOM     29  C   UNL A   1      44.365  25.474  28.800  1.00  0.00     0.074 A 
ATOM     30  C   UNL A   1      46.232  30.515  32.171  1.00  0.00     0.029 A 
ATOM     31  N   UNL A   1      45.075  29.073  30.936  1.00  0.00    -0.354 N 
ATOM     32  N   UNL A   1      44.659  26.547  29.493  1.00  0.00    -0.248 NA
ATOM     33  C   UNL A   1      45.482  24.535  28.640  1.00  0.00     0.031 C 
ATOM     34  C   UNL A   1      47.067  29.439  31.851  1.00  0.00     0.029 A 
ATOM     35  C   UNL A   1      46.341  28.531  31.099  1.00  0.00     0.049 A 
ATOM     36  H   UNL A   1      44.339  28.650  30.440  1.00  0.00     0.167 HD
ATOM     37  C   UNL A   1      45.988  26.409  29.862  1.00  0.00     0.074 A 
ATOM     38  C   UNL A   1      46.436  25.134  29.338  1.00  0.00     0.031 C 
ATOM     39  C   UNL A   1      46.771  27.263  30.566  1.00  0.00     0.037 A 
BRANCH  26  40
ATOM     40  C   UNL A   1      43.945  32.481  32.282  1.00  0.00     0.064 A 
ATOM     41  C   UNL A   1      44.210  33.661  31.572  1.00  0.00     0.173 A 
ATOM     42  C   UNL A   1      43.719  32.583  33.663  1.00  0.00     0.173 A 
ATOM     43  F   UNL A   1      44.443  33.618  30.252  1.00  0.00    -0.203 F 
ATOM     44  C   UNL A   1      44.262  34.892  32.223  1.00  0.00     0.198 A 
ATOM     45  C   UNL A   1      43.746  33.818  34.306  1.00  0.00     0.198 A 
ATOM     46  F   UNL A   1      43.455  31.486  34.388  1.00  0.00    -0.203 F 
ATOM     47  F   UNL A   1      44.550  36.003  31.530  1.00  0.00    -0.200 F 
ATOM     48  C   UNL A   1      44.022  34.971  33.586  1.00  0.00     0.200 A 
ATOM     49  F   UNL A   1      43.502  33.894  35.622  1.00  0.00    -0.200 F 
ATOM     50  F   UNL A   1      44.060  36.158  34.208  1.00  0.00    -0.200 F 
ENDBRANCH  26  40
BRANCH  27  51
ATOM     51  C   UNL A   1      42.914  23.806  27.428  1.00  0.00     0.064 A 
ATOM     52  C   UNL A   1      43.285  23.697  26.081  1.00  0.00     0.173 A 
ATOM     53  C   UNL A   1      42.413  22.660  28.064  1.00  0.00     0.173 A 
ATOM     54  F   UNL A   1      43.751  24.770  25.426  1.00  0.00    -0.203 F 
ATOM     55  C   UNL A   1      43.147  22.493  25.394  1.00  0.00     0.198 A 
ATOM     56  C   UNL A   1      42.306  21.449  27.385  1.00  0.00     0.198 A 
ATOM     57  F   UNL A   1      42.051  22.712  29.354  1.00  0.00    -0.203 F 
ATOM     58  F   UNL A   1      43.472  22.425  24.096  1.00  0.00    -0.200 F 
ATOM     59  C   UNL A   1      42.665  21.369  26.049  1.00  0.00     0.200 A 
ATOM     60  F   UNL A   1      41.857  20.361  28.026  1.00  0.00    -0.200 F 
ATOM     61  F   UNL A   1      42.543  20.209  25.389  1.00  0.00    -0.200 F 
ENDBRANCH  27  51
BRANCH  39  62
ATOM     62  C   UNL A   1      48.184  26.833  30.824  1.00  0.00     0.064 A 
ATOM     63  C   UNL A   1      49.224  27.169  29.945  1.00  0.00     0.173 A 
ATOM     64  C   UNL A   1      48.504  26.091  31.970  1.00  0.00     0.173 A 
ATOM     65  F   UNL A   1      48.964  27.861  28.825  1.00  0.00    -0.203 F 
ATOM     66  C   UNL A   1      50.529  26.753  30.190  1.00  0.00     0.198 A 
ATOM     67  C   UNL A   1      49.815  25.701  32.226  1.00  0.00     0.198 A 
ATOM     68  F   UNL A   1      47.545  25.747  32.843  1.00  0.00    -0.203 F 
ATOM     69  F   UNL A   1      51.498  27.040  29.309  1.00  0.00    -0.200 F 
ATOM     70  C   UNL A   1      50.825  26.026  31.332  1.00  0.00     0.200 A 
ATOM     71  F   UNL A   1      50.101  25.006  33.336  1.00  0.00    -0.200 F 
ATOM     72  F   UNL A   1      52.083  25.626  31.568  1.00  0.00    -0.200 F 
ENDBRANCH  39  62
ENDBRANCH  13  14
ENDBRANCH   6   8
ENDBRANCH   3   4
ENDBRANCH   2   3
ENDBRANCH   1   2
BRANCH   1  73
ATOM     73  C   UNL A   1      37.157  33.242  30.278  1.00  0.00     0.116 C 
BRANCH  73  74
ATOM     74  N   UNL A   1      36.893  34.236  31.307  1.00  0.00    -0.352 N 
ATOM     75  C   UNL A   1      37.199  34.197  32.642  1.00  0.00     0.252 C 
ATOM     76  H   UNL A   1      36.430  35.050  31.002  1.00  0.00     0.163 HD
ATOM     77  O   UNL A   1      36.741  35.033  33.414  1.00  0.00    -0.269 OA
BRANCH  75  78
ATOM     78  C   UNL A   1      38.085  33.144  33.151  1.00  0.00     0.058 A 
ATOM     79  C   UNL A   1      39.282  33.448  33.794  1.00  0.00     0.018 A 
ATOM     80  C   UNL A   1      37.718  31.818  33.007  1.00  0.00     0.125 A 
ATOM     81  C   UNL A   1      40.091  32.402  34.222  1.00  0.00     0.030 A 
ATOM     82  N   UNL A   1      38.497  30.781  33.404  1.00  0.00    -0.255 NA
ATOM     83  C   UNL A   1      39.670  31.086  34.014  1.00  0.00     0.070 A 
BRANCH  83  84
ATOM     84  C   UNL A   1      40.505  29.959  34.433  1.00  0.00     0.000 A 
ATOM     85  C   UNL A   1      41.083  29.922  35.709  1.00  0.00     0.014 A 
ATOM     86  C   UNL A   1      40.681  28.850  33.590  1.00  0.00     0.014 A 
ATOM     87  C   UNL A   1      41.721  28.766  36.164  1.00  0.00     0.047 A 
ATOM     88  C   UNL A   1      41.337  27.702  34.037  1.00  0.00     0.047 A 
ATOM     89  C   UNL A   1      41.799  27.635  35.350  1.00  0.00     0.119 A 
BRANCH  89  90
ATOM     90  O   UNL A   1      42.243  26.506  35.982  1.00  0.00    -0.489 OA
BRANCH  90  91
ATOM     91  C   UNL A   1      43.600  26.091  35.780  1.00  0.00     0.265 C 
BRANCH  91  92
ATOM     92  C   UNL A   1      43.859  25.033  34.716  1.00  0.00    -0.011 A 
ATOM     93  C   UNL A   1      43.782  23.681  35.088  1.00  0.00     0.007 A 
ATOM     94  C   UNL A   1      44.202  25.335  33.390  1.00  0.00     0.007 A 
ATOM     95  C   UNL A   1      44.084  22.667  34.176  1.00  0.00     0.000 A 
ATOM     96  C   UNL A   1      44.533  24.323  32.485  1.00  0.00     0.000 A 
ATOM     97  C   UNL A   1      44.478  22.990  32.879  1.00  0.00     0.000 A 
ENDBRANCH  91  92
ENDBRANCH  90  91
ENDBRANCH  89  90
ENDBRANCH  83  84
ENDBRANCH  75  78
ENDBRANCH  73  74
ENDBRANCH   1  73
TORSDOF 15
ENDMDL
MODEL 3
REMARK VINA RESULT:     -10.4      1.233      7.510
REMARK SMILES O=C(NCCCCNC(=O)c1ccc(-c2ccc(OCc3ccccc3)cc2)nc1)c1ccc(-c2c3nc(c(-c4c(F)c(F)c(F)c(F)c4F)c4ccc([nH]4)c(-c4c(F)c(F)c(F)c(F)c4F)c4nc(c(-c5c(F)c(F)c(F)c(F)c5F)c5ccc2[nH]5)C=C4)C=C3)cc1
REMARK SMILES IDX 6 1 5 2 4 3 3 4 1 5 2 6 31 8 32 9 93 10 33 11 92 12 34 13
REMARK SMILES IDX 35 14 36 15 86 16 37 17 91 18 85 19 87 20 38 21 90 22 84 23
REMARK SMILES IDX 83 24 39 26 71 27 51 28 70 29 52 30 55 31 69 32 88 33 53 34
REMARK SMILES IDX 54 35 68 37 89 38 56 39 40 40 41 41 49 42 42 43 43 44 47 45
REMARK SMILES IDX 50 46 44 47 45 48 48 49 46 50 72 51 73 52 81 53 74 54 75 55
REMARK SMILES IDX 79 56 82 57 76 58 77 59 80 60 78 61 57 62 58 63 66 64 59 65
REMARK SMILES IDX 60 66 64 67 67 68 61 69 62 70 65 71 63 72 7 73 8 74 9 75
REMARK SMILES IDX 10 77 11 78 12 79 30 80 13 81 29 82 14 83 15 84 16 85 28 86
REMARK SMILES IDX 17 87 27 88 18 89 19 90 20 91 21 92 22 93 26 94 23 95 25 96
REMARK SMILES IDX 24 97
REMARK H PARENT 3 7 87 25 55 36 8 76
REMARK Flexibility Score: inf
ROOT
ATOM      1  C   UNL A   1      42.657  23.125  27.187  1.00  0.00     0.023 C 
ENDROOT
BRANCH   1   2
ATOM      2  C   UNL A   1      41.884  22.157  26.294  1.00  0.00     0.023 C 
BRANCH   2   3
ATOM      3  C   UNL A   1      40.543  21.694  26.848  1.00  0.00     0.116 C 
BRANCH   3   4
ATOM      4  N   UNL A   1      39.413  22.116  26.035  1.00  0.00    -0.352 N 
ATOM      5  O   UNL A   1      37.756  23.483  25.340  1.00  0.00    -0.269 OA
ATOM      6  C   UNL A   1      38.780  23.335  25.999  1.00  0.00     0.251 C 
ATOM      7  H   UNL A   1      39.051  21.432  25.425  1.00  0.00     0.163 HD
BRANCH   6   8
ATOM      8  C   UNL A   1      39.325  24.464  26.782  1.00  0.00     0.039 A 
ATOM      9  C   UNL A   1      39.062  24.572  28.149  1.00  0.00     0.014 A 
ATOM     10  C   UNL A   1      40.097  25.432  26.134  1.00  0.00     0.014 A 
ATOM     11  C   UNL A   1      39.443  25.718  28.835  1.00  0.00     0.010 A 
ATOM     12  C   UNL A   1      40.558  26.542  26.847  1.00  0.00     0.010 A 
ATOM     13  C   UNL A   1      40.208  26.709  28.197  1.00  0.00    -0.014 A 
BRANCH  13  14
ATOM     14  C   UNL A   1      40.689  27.870  28.987  1.00  0.00     0.031 A 
ATOM     15  C   UNL A   1      39.771  29.000  29.354  1.00  0.00     0.074 A 
ATOM     16  C   UNL A   1      41.970  27.872  29.402  1.00  0.00     0.049 A 
ATOM     17  N   UNL A   1      40.030  30.074  30.061  1.00  0.00    -0.248 NA
ATOM     18  C   UNL A   1      38.388  28.927  28.863  1.00  0.00     0.031 C 
ATOM     19  C   UNL A   1      42.955  26.833  29.092  1.00  0.00     0.029 A 
ATOM     20  N   UNL A   1      42.661  28.760  30.185  1.00  0.00    -0.354 N 
ATOM     21  C   UNL A   1      38.851  30.809  30.085  1.00  0.00     0.074 A 
ATOM     22  C   UNL A   1      37.881  30.072  29.302  1.00  0.00     0.031 C 
ATOM     23  C   UNL A   1      44.106  27.117  29.716  1.00  0.00     0.029 A 
ATOM     24  C   UNL A   1      43.962  28.387  30.417  1.00  0.00     0.049 A 
ATOM     25  H   UNL A   1      42.263  29.586  30.546  1.00  0.00     0.167 HD
ATOM     26  C   UNL A   1      38.605  31.984  30.712  1.00  0.00     0.037 A 
ATOM     27  C   UNL A   1      44.938  29.006  31.105  1.00  0.00     0.037 A 
ATOM     28  C   UNL A   1      39.573  32.702  31.503  1.00  0.00     0.049 A 
ATOM     29  C   UNL A   1      44.639  30.317  31.771  1.00  0.00     0.074 A 
ATOM     30  C   UNL A   1      39.407  33.882  32.207  1.00  0.00     0.029 A 
ATOM     31  N   UNL A   1      40.890  32.308  31.690  1.00  0.00    -0.354 N 
ATOM     32  N   UNL A   1      43.510  30.983  31.815  1.00  0.00    -0.248 NA
ATOM     33  C   UNL A   1      45.748  30.964  32.482  1.00  0.00     0.031 C 
ATOM     34  C   UNL A   1      40.635  34.225  32.784  1.00  0.00     0.029 A 
ATOM     35  C   UNL A   1      41.554  33.235  32.480  1.00  0.00     0.049 A 
ATOM     36  H   UNL A   1      41.294  31.491  31.318  1.00  0.00     0.167 HD
ATOM     37  C   UNL A   1      43.769  32.120  32.565  1.00  0.00     0.074 A 
ATOM     38  C   UNL A   1      45.156  32.040  32.978  1.00  0.00     0.031 C 
ATOM     39  C   UNL A   1      42.935  33.142  32.878  1.00  0.00     0.037 A 
BRANCH  26  40
ATOM     40  C   UNL A   1      37.237  32.585  30.560  1.00  0.00     0.064 A 
ATOM     41  C   UNL A   1      36.228  32.369  31.509  1.00  0.00     0.173 A 
ATOM     42  C   UNL A   1      36.953  33.441  29.484  1.00  0.00     0.173 A 
ATOM     43  F   UNL A   1      36.444  31.553  32.551  1.00  0.00    -0.203 F 
ATOM     44  C   UNL A   1      34.978  32.972  31.377  1.00  0.00     0.198 A 
ATOM     45  C   UNL A   1      35.712  34.062  29.369  1.00  0.00     0.198 A 
ATOM     46  F   UNL A   1      37.885  33.688  28.552  1.00  0.00    -0.203 F 
ATOM     47  F   UNL A   1      34.018  32.723  32.278  1.00  0.00    -0.200 F 
ATOM     48  C   UNL A   1      34.725  33.824  30.313  1.00  0.00     0.200 A 
ATOM     49  F   UNL A   1      35.472  34.894  28.346  1.00  0.00    -0.200 F 
ATOM     50  F   UNL A   1      33.525  34.412  30.194  1.00  0.00    -0.200 F 
ENDBRANCH  26  40
BRANCH  27  51
ATOM     51  C   UNL A   1      46.286  28.390  31.185  1.00  0.00     0.064 A 
ATOM     52  C   UNL A   1      46.618  27.512  32.226  1.00  0.00     0.173 A 
ATOM     53  C   UNL A   1      47.263  28.652  30.213  1.00  0.00     0.173 A 
ATOM     54  F   UNL A   1      45.723  27.246  33.188  1.00  0.00    -0.203 F 
ATOM     55  C   UNL A   1      47.882  26.932  32.299  1.00  0.00     0.198 A 
ATOM     56  C   UNL A   1      48.515  28.045  30.270  1.00  0.00     0.198 A 
ATOM     57  F   UNL A   1      46.991  29.478  29.193  1.00  0.00    -0.203 F 
ATOM     58  F   UNL A   1      48.187  26.126  33.326  1.00  0.00    -0.200 F 
ATOM     59  C   UNL A   1      48.826  27.192  31.317  1.00  0.00     0.200 A 
ATOM     60  F   UNL A   1      49.418  28.286  29.310  1.00  0.00    -0.200 F 
ATOM     61  F   UNL A   1      50.038  26.625  31.384  1.00  0.00    -0.200 F 
ENDBRANCH  27  51
BRANCH  39  62
ATOM     62  C   UNL A   1      43.501  34.244  33.723  1.00  0.00     0.064 A 
ATOM     63  C   UNL A   1      44.084  35.383  33.148  1.00  0.00     0.173 A 
ATOM     64  C   UNL A   1      43.445  34.167  35.123  1.00  0.00     0.173 A 
ATOM     65  F   UNL A   1      44.178  35.493  31.814  1.00  0.00    -0.203 F 
ATOM     66  C   UNL A   1      44.616  36.392  33.945  1.00  0.00     0.198 A 
ATOM     67  C   UNL A   1      43.953  35.192  35.916  1.00  0.00     0.198 A 
ATOM     68  F   UNL A   1      42.895  33.099  35.719  1.00  0.00    -0.203 F 
ATOM     69  F   UNL A   1      45.215  37.447  33.375  1.00  0.00    -0.200 F 
ATOM     70  C   UNL A   1      44.544  36.300  35.326  1.00  0.00     0.200 A 
ATOM     71  F   UNL A   1      43.874  35.105  37.250  1.00  0.00    -0.200 F 
ATOM     72  F   UNL A   1      45.056  37.273  36.093  1.00  0.00    -0.200 F 
ENDBRANCH  39  62
ENDBRANCH  13  14
ENDBRANCH   6   8
ENDBRANCH   3   4
ENDBRANCH   2   3
ENDBRANCH   1   2
BRANCH   1  73
ATOM     73  C   UNL A   1      44.167  22.905  27.222  1.00  0.00     0.116 C 
BRANCH  73  74
ATOM     74  N   UNL A   1      44.729  22.743  25.890  1.00  0.00    -0.352 N 
ATOM     75  C   UNL A   1      45.019  23.702  24.955  1.00  0.00     0.252 C 
ATOM     76  H   UNL A   1      44.929  21.817  25.624  1.00  0.00     0.163 HD
ATOM     77  O   UNL A   1      45.313  23.386  23.806  1.00  0.00    -0.269 OA
BRANCH  75  78
ATOM     78  C   UNL A   1      44.976  25.118  25.331  1.00  0.00     0.058 A 
ATOM     79  C   UNL A   1      43.833  25.889  25.137  1.00  0.00     0.018 A 
ATOM     80  C   UNL A   1      46.090  25.703  25.909  1.00  0.00     0.125 A 
ATOM     81  C   UNL A   1      43.870  27.234  25.485  1.00  0.00     0.030 A 
ATOM     82  N   UNL A   1      46.154  27.015  26.242  1.00  0.00    -0.255 NA
ATOM     83  C   UNL A   1      45.041  27.763  26.034  1.00  0.00     0.070 A 
BRANCH  83  84
ATOM     84  C   UNL A   1      45.125  29.180  26.393  1.00  0.00     0.000 A 
ATOM     85  C   UNL A   1      44.086  29.812  27.090  1.00  0.00     0.014 A 
ATOM     86  C   UNL A   1      46.286  29.918  26.114  1.00  0.00     0.014 A 
ATOM     87  C   UNL A   1      44.252  31.107  27.587  1.00  0.00     0.047 A 
ATOM     88  C   UNL A   1      46.444  31.220  26.593  1.00  0.00     0.047 A 
ATOM     89  C   UNL A   1      45.452  31.791  27.389  1.00  0.00     0.119 A 
BRANCH  89  90
ATOM     90  O   UNL A   1      45.575  32.948  28.108  1.00  0.00    -0.489 OA
BRANCH  90  91
ATOM     91  C   UNL A   1      44.536  33.300  29.030  1.00  0.00     0.265 C 
BRANCH  91  92
ATOM     92  C   UNL A   1      43.450  34.247  28.536  1.00  0.00    -0.011 A 
ATOM     93  C   UNL A   1      43.660  34.926  27.324  1.00  0.00     0.007 A 
ATOM     94  C   UNL A   1      42.265  34.503  29.240  1.00  0.00     0.007 A 
ATOM     95  C   UNL A   1      42.735  35.864  26.858  1.00  0.00     0.000 A 
ATOM     96  C   UNL A   1      41.354  35.462  28.791  1.00  0.00     0.000 A 
ATOM     97  C   UNL A   1      41.591  36.145  27.602  1.00  0.00     0.000 A 
ENDBRANCH  91  92
ENDBRANCH  90  91
ENDBRANCH  89  90
ENDBRANCH  83  84
ENDBRANCH  75  78
ENDBRANCH  73  74
ENDBRANCH   1  73
TORSDOF 15
ENDMDL
