MODEL 1
REMARK VINA RESULT:     -12.0      0.000      0.000
REMARK SMILES C[C@@H](CC(=O)NCCCCNC(=O)c1ccc(-c2c3nc(c(-c4c(F)c(F)c(F)c(F)c4F)c4ccc([nH]4)c(-c4c(F)c(F)c(F)c(F)c4F)c4nc(c(-c5c(F)c(F)c(F)c(F)c5F)c5ccc2[nH]5)C=C4)C=C3)cc1)CC(=O)N1C[C@H](C)[C@@H](C)C1
REMARK SMILES IDX 8 1 7 2 6 3 4 4 5 5 3 7 2 8 1 9 77 10 78 11 79 12 80 13
REMARK SMILES IDX 81 14 86 15 82 16 84 17 83 18 85 19 9 20 10 21 11 22 12 23
REMARK SMILES IDX 13 25 14 26 15 27 76 28 16 29 75 30 17 31 18 32 19 33 69 34
REMARK SMILES IDX 20 35 74 36 68 37 70 38 21 39 73 40 67 41 66 42 22 44 54 45
REMARK SMILES IDX 34 46 53 47 35 48 38 49 52 50 71 51 36 52 37 53 51 55 72 56
REMARK SMILES IDX 39 57 23 58 24 59 32 60 25 61 26 62 30 63 33 64 27 65 28 66
REMARK SMILES IDX 31 67 29 68 55 69 56 70 64 71 57 72 58 73 62 74 65 75 59 76
REMARK SMILES IDX 60 77 63 78 61 79 40 80 41 81 49 82 42 83 43 84 47 85 50 86
REMARK SMILES IDX 44 87 45 88 48 89 46 90
REMARK H PARENT 6 6 11 24 70 43 38 54
REMARK Flexibility Score: inf
ROOT
ATOM      1  C   UNL A   1      31.871  30.529  26.612  1.00  0.00     0.023 C 
ENDROOT
BRANCH   1   2
ATOM      2  C   UNL A   1      33.354  30.180  26.519  1.00  0.00     0.116 C 
BRANCH   2   3
ATOM      3  N   UNL A   1      33.693  29.673  25.205  1.00  0.00    -0.356 N 
ATOM      4  C   UNL A   1      33.813  28.390  24.765  1.00  0.00     0.220 C 
ATOM      5  O   UNL A   1      34.198  28.212  23.608  1.00  0.00    -0.275 OA
ATOM      6  H   UNL A   1      33.864  30.363  24.526  1.00  0.00     0.163 HD
BRANCH   4   7
ATOM      7  C   UNL A   1      33.468  27.211  25.664  1.00  0.00     0.103 C 
BRANCH   7   8
ATOM      8  C   UNL A   1      32.138  26.455  25.406  1.00  0.00     0.004 C 
ATOM      9  C   UNL A   1      31.117  27.397  24.769  1.00  0.00     0.009 C 
BRANCH   8  10
ATOM     10  C   UNL A   1      31.641  25.664  26.625  1.00  0.00     0.104 C 
BRANCH  10  11
ATOM     11  C   UNL A   1      31.670  24.141  26.584  1.00  0.00     0.222 C 
ATOM     12  O   UNL A   1      30.966  23.471  27.338  1.00  0.00    -0.275 OA
ATOM     13  N   UNL A   1      32.390  23.582  25.537  1.00  0.00    -0.342 N 
ATOM     14  C   UNL A   1      31.872  22.427  24.817  1.00  0.00     0.123 C 
ATOM     15  C   UNL A   1      33.844  23.581  25.514  1.00  0.00     0.123 C 
ATOM     16  C   UNL A   1      33.082  21.528  24.550  1.00  0.00     0.010 C 
ATOM     17  C   UNL A   1      34.256  22.518  24.496  1.00  0.00     0.010 C 
ATOM     18  C   UNL A   1      33.252  20.510  25.679  1.00  0.00     0.010 C 
ATOM     19  C   UNL A   1      34.456  23.119  23.104  1.00  0.00     0.010 C 
ENDBRANCH  10  11
ENDBRANCH   8  10
ENDBRANCH   7   8
ENDBRANCH   4   7
ENDBRANCH   2   3
ENDBRANCH   1   2
BRANCH   1  20
ATOM     20  C   UNL A   1      31.554  31.996  26.890  1.00  0.00     0.023 C 
BRANCH  20  21
ATOM     21  C   UNL A   1      32.744  32.788  27.398  1.00  0.00     0.116 C 
BRANCH  21  22
ATOM     22  N   UNL A   1      32.422  34.178  27.689  1.00  0.00    -0.352 N 
ATOM     23  C   UNL A   1      33.009  35.023  28.601  1.00  0.00     0.251 C 
ATOM     24  H   UNL A   1      31.685  34.565  27.162  1.00  0.00     0.163 HD
ATOM     25  O   UNL A   1      32.553  36.140  28.798  1.00  0.00    -0.269 OA
BRANCH  23  26
ATOM     26  C   UNL A   1      34.169  34.540  29.377  1.00  0.00     0.039 A 
ATOM     27  C   UNL A   1      33.950  33.963  30.630  1.00  0.00     0.014 A 
ATOM     28  C   UNL A   1      35.459  34.608  28.845  1.00  0.00     0.014 A 
ATOM     29  C   UNL A   1      35.020  33.389  31.319  1.00  0.00     0.010 A 
ATOM     30  C   UNL A   1      36.501  33.952  29.484  1.00  0.00     0.010 A 
ATOM     31  C   UNL A   1      36.295  33.347  30.732  1.00  0.00    -0.014 A 
BRANCH  31  32
ATOM     32  C   UNL A   1      37.443  32.705  31.416  1.00  0.00     0.031 A 
ATOM     33  C   UNL A   1      38.161  31.565  30.748  1.00  0.00     0.074 A 
ATOM     34  C   UNL A   1      37.785  33.089  32.660  1.00  0.00     0.049 A 
ATOM     35  N   UNL A   1      39.114  30.799  31.211  1.00  0.00    -0.248 NA
ATOM     36  C   UNL A   1      37.716  31.212  29.390  1.00  0.00     0.031 C 
ATOM     37  C   UNL A   1      37.126  34.142  33.435  1.00  0.00     0.029 A 
ATOM     38  N   UNL A   1      38.768  32.627  33.498  1.00  0.00    -0.354 N 
ATOM     39  C   UNL A   1      39.362  29.863  30.216  1.00  0.00     0.074 A 
ATOM     40  C   UNL A   1      38.418  30.116  29.150  1.00  0.00     0.031 C 
ATOM     41  C   UNL A   1      37.741  34.264  34.623  1.00  0.00     0.029 A 
ATOM     42  C   UNL A   1      38.811  33.276  34.708  1.00  0.00     0.049 A 
ATOM     43  H   UNL A   1      39.384  31.899  33.255  1.00  0.00     0.167 HD
ATOM     44  C   UNL A   1      40.310  28.897  30.181  1.00  0.00     0.037 A 
ATOM     45  C   UNL A   1      39.625  33.091  35.764  1.00  0.00     0.037 A 
ATOM     46  C   UNL A   1      41.275  28.680  31.225  1.00  0.00     0.049 A 
ATOM     47  C   UNL A   1      40.693  32.032  35.687  1.00  0.00     0.074 A 
ATOM     48  C   UNL A   1      42.317  27.771  31.263  1.00  0.00     0.029 A 
ATOM     49  N   UNL A   1      41.319  29.391  32.416  1.00  0.00    -0.354 N 
ATOM     50  N   UNL A   1      40.960  31.194  34.715  1.00  0.00    -0.248 NA
ATOM     51  C   UNL A   1      41.579  31.902  36.851  1.00  0.00     0.031 C 
ATOM     52  C   UNL A   1      42.972  27.910  32.490  1.00  0.00     0.029 A 
ATOM     53  C   UNL A   1      42.366  28.937  33.199  1.00  0.00     0.049 A 
ATOM     54  H   UNL A   1      40.697  30.113  32.666  1.00  0.00     0.167 HD
ATOM     55  C   UNL A   1      42.062  30.462  35.133  1.00  0.00     0.074 A 
ATOM     56  C   UNL A   1      42.421  30.963  36.444  1.00  0.00     0.031 C 
ATOM     57  C   UNL A   1      42.718  29.464  34.491  1.00  0.00     0.037 A 
BRANCH  44  58
ATOM     58  C   UNL A   1      40.354  28.016  28.968  1.00  0.00     0.064 A 
ATOM     59  C   UNL A   1      39.656  26.798  28.918  1.00  0.00     0.173 A 
ATOM     60  C   UNL A   1      41.090  28.396  27.836  1.00  0.00     0.173 A 
ATOM     61  F   UNL A   1      38.951  26.381  29.980  1.00  0.00    -0.203 F 
ATOM     62  C   UNL A   1      39.720  25.981  27.792  1.00  0.00     0.198 A 
ATOM     63  C   UNL A   1      41.126  27.591  26.700  1.00  0.00     0.198 A 
ATOM     64  F   UNL A   1      41.775  29.550  27.830  1.00  0.00    -0.203 F 
ATOM     65  F   UNL A   1      39.092  24.797  27.791  1.00  0.00    -0.200 F 
ATOM     66  C   UNL A   1      40.449  26.381  26.684  1.00  0.00     0.200 A 
ATOM     67  F   UNL A   1      41.821  27.983  25.624  1.00  0.00    -0.200 F 
ATOM     68  F   UNL A   1      40.506  25.594  25.600  1.00  0.00    -0.200 F 
ENDBRANCH  44  58
BRANCH  45  69
ATOM     69  C   UNL A   1      39.494  33.952  36.967  1.00  0.00     0.064 A 
ATOM     70  C   UNL A   1      38.762  33.518  38.082  1.00  0.00     0.173 A 
ATOM     71  C   UNL A   1      40.085  35.221  37.029  1.00  0.00     0.173 A 
ATOM     72  F   UNL A   1      38.163  32.318  38.063  1.00  0.00    -0.203 F 
ATOM     73  C   UNL A   1      38.607  34.330  39.202  1.00  0.00     0.198 A 
ATOM     74  C   UNL A   1      39.951  36.024  38.161  1.00  0.00     0.198 A 
ATOM     75  F   UNL A   1      40.801  35.680  35.992  1.00  0.00    -0.203 F 
ATOM     76  F   UNL A   1      37.862  33.909  40.234  1.00  0.00    -0.200 F 
ATOM     77  C   UNL A   1      39.205  35.581  39.243  1.00  0.00     0.200 A 
ATOM     78  F   UNL A   1      40.542  37.226  38.202  1.00  0.00    -0.200 F 
ATOM     79  F   UNL A   1      39.055  36.362  40.321  1.00  0.00    -0.200 F 
ENDBRANCH  45  69
BRANCH  57  80
ATOM     80  C   UNL A   1      43.920  28.883  35.175  1.00  0.00     0.064 A 
ATOM     81  C   UNL A   1      43.819  27.775  36.029  1.00  0.00     0.173 A 
ATOM     82  C   UNL A   1      45.195  29.418  34.937  1.00  0.00     0.173 A 
ATOM     83  F   UNL A   1      42.620  27.237  36.298  1.00  0.00    -0.203 F 
ATOM     84  C   UNL A   1      44.950  27.240  36.641  1.00  0.00     0.198 A 
ATOM     85  C   UNL A   1      46.326  28.863  35.527  1.00  0.00     0.198 A 
ATOM     86  F   UNL A   1      45.345  30.473  34.122  1.00  0.00    -0.203 F 
ATOM     87  F   UNL A   1      44.825  26.211  37.490  1.00  0.00    -0.200 F 
ATOM     88  C   UNL A   1      46.202  27.780  36.384  1.00  0.00     0.200 A 
ATOM     89  F   UNL A   1      47.537  29.376  35.268  1.00  0.00    -0.200 F 
ATOM     90  F   UNL A   1      47.290  27.259  36.969  1.00  0.00    -0.200 F 
ENDBRANCH  57  80
ENDBRANCH  31  32
ENDBRANCH  23  26
ENDBRANCH  21  22
ENDBRANCH  20  21
ENDBRANCH   1  20
TORSDOF 14
ENDMDL
MODEL 2
REMARK VINA RESULT:     -12.0      1.834      8.185
REMARK SMILES C[C@@H](CC(=O)NCCCCNC(=O)c1ccc(-c2c3nc(c(-c4c(F)c(F)c(F)c(F)c4F)c4ccc([nH]4)c(-c4c(F)c(F)c(F)c(F)c4F)c4nc(c(-c5c(F)c(F)c(F)c(F)c5F)c5ccc2[nH]5)C=C4)C=C3)cc1)CC(=O)N1C[C@H](C)[C@@H](C)C1
REMARK SMILES IDX 8 1 7 2 6 3 4 4 5 5 3 7 2 8 1 9 77 10 78 11 79 12 80 13
REMARK SMILES IDX 81 14 86 15 82 16 84 17 83 18 85 19 9 20 10 21 11 22 12 23
REMARK SMILES IDX 13 25 14 26 15 27 76 28 16 29 75 30 17 31 18 32 19 33 69 34
REMARK SMILES IDX 20 35 74 36 68 37 70 38 21 39 73 40 67 41 66 42 22 44 54 45
REMARK SMILES IDX 34 46 53 47 35 48 38 49 52 50 71 51 36 52 37 53 51 55 72 56
REMARK SMILES IDX 39 57 23 58 24 59 32 60 25 61 26 62 30 63 33 64 27 65 28 66
REMARK SMILES IDX 31 67 29 68 55 69 56 70 64 71 57 72 58 73 62 74 65 75 59 76
REMARK SMILES IDX 60 77 63 78 61 79 40 80 41 81 49 82 42 83 43 84 47 85 50 86
REMARK SMILES IDX 44 87 45 88 48 89 46 90
REMARK H PARENT 6 6 11 24 70 43 38 54
REMARK Flexibility Score: inf
ROOT
ATOM      1  C   UNL A   1      31.763  30.776  26.334  1.00  0.00     0.023 C 
ENDROOT
BRANCH   1   2
ATOM      2  C   UNL A   1      32.639  29.931  27.255  1.00  0.00     0.116 C 
BRANCH   2   3
ATOM      3  N   UNL A   1      32.021  28.654  27.544  1.00  0.00    -0.356 N 
ATOM      4  C   UNL A   1      32.092  27.473  26.870  1.00  0.00     0.220 C 
ATOM      5  O   UNL A   1      31.401  26.537  27.274  1.00  0.00    -0.275 OA
ATOM      6  H   UNL A   1      31.462  28.637  28.353  1.00  0.00     0.163 HD
BRANCH   4   7
ATOM      7  C   UNL A   1      33.006  27.305  25.665  1.00  0.00     0.103 C 
BRANCH   7   8
ATOM      8  C   UNL A   1      32.446  27.662  24.262  1.00  0.00     0.004 C 
ATOM      9  C   UNL A   1      33.312  28.741  23.614  1.00  0.00     0.009 C 
BRANCH   8  10
ATOM     10  C   UNL A   1      30.935  27.934  24.261  1.00  0.00     0.104 C 
BRANCH  10  11
ATOM     11  C   UNL A   1      30.260  28.370  22.965  1.00  0.00     0.222 C 
ATOM     12  O   UNL A   1      30.503  27.805  21.900  1.00  0.00    -0.275 OA
ATOM     13  N   UNL A   1      29.242  29.304  23.104  1.00  0.00    -0.342 N 
ATOM     14  C   UNL A   1      28.014  29.178  22.330  1.00  0.00     0.123 C 
ATOM     15  C   UNL A   1      29.512  30.702  23.399  1.00  0.00     0.123 C 
ATOM     16  C   UNL A   1      27.639  30.602  21.912  1.00  0.00     0.010 C 
ATOM     17  C   UNL A   1      28.245  31.471  23.026  1.00  0.00     0.010 C 
ATOM     18  C   UNL A   1      28.241  30.935  20.546  1.00  0.00     0.010 C 
ATOM     19  C   UNL A   1      27.308  31.628  24.226  1.00  0.00     0.010 C 
ENDBRANCH  10  11
ENDBRANCH   8  10
ENDBRANCH   7   8
ENDBRANCH   4   7
ENDBRANCH   2   3
ENDBRANCH   1   2
BRANCH   1  20
ATOM     20  C   UNL A   1      31.481  32.197  26.812  1.00  0.00     0.023 C 
BRANCH  20  21
ATOM     21  C   UNL A   1      32.725  32.953  27.238  1.00  0.00     0.116 C 
BRANCH  21  22
ATOM     22  N   UNL A   1      32.443  34.307  27.692  1.00  0.00    -0.352 N 
ATOM     23  C   UNL A   1      33.055  35.022  28.695  1.00  0.00     0.251 C 
ATOM     24  H   UNL A   1      31.717  34.774  27.219  1.00  0.00     0.163 HD
ATOM     25  O   UNL A   1      32.632  36.120  29.024  1.00  0.00    -0.269 OA
BRANCH  23  26
ATOM     26  C   UNL A   1      34.203  34.418  29.403  1.00  0.00     0.039 A 
ATOM     27  C   UNL A   1      33.959  33.580  30.492  1.00  0.00     0.014 A 
ATOM     28  C   UNL A   1      35.509  34.637  28.957  1.00  0.00     0.014 A 
ATOM     29  C   UNL A   1      35.023  32.904  31.091  1.00  0.00     0.010 A 
ATOM     30  C   UNL A   1      36.550  33.891  29.489  1.00  0.00     0.010 A 
ATOM     31  C   UNL A   1      36.320  33.027  30.568  1.00  0.00    -0.014 A 
BRANCH  31  32
ATOM     32  C   UNL A   1      37.465  32.287  31.152  1.00  0.00     0.031 A 
ATOM     33  C   UNL A   1      37.958  32.650  32.526  1.00  0.00     0.074 A 
ATOM     34  C   UNL A   1      38.107  31.355  30.423  1.00  0.00     0.049 A 
ATOM     35  N   UNL A   1      39.002  32.207  33.177  1.00  0.00    -0.248 NA
ATOM     36  C   UNL A   1      37.196  33.683  33.248  1.00  0.00     0.031 C 
ATOM     37  C   UNL A   1      37.760  30.959  29.057  1.00  0.00     0.029 A 
ATOM     38  N   UNL A   1      39.197  30.579  30.726  1.00  0.00    -0.354 N 
ATOM     39  C   UNL A   1      39.036  32.923  34.366  1.00  0.00     0.074 A 
ATOM     40  C   UNL A   1      37.946  33.872  34.321  1.00  0.00     0.031 C 
ATOM     41  C   UNL A   1      38.602  29.995  28.651  1.00  0.00     0.029 A 
ATOM     42  C   UNL A   1      39.569  29.731  29.712  1.00  0.00     0.049 A 
ATOM     43  H   UNL A   1      39.667  30.626  31.589  1.00  0.00     0.167 HD
ATOM     44  C   UNL A   1      39.881  32.782  35.414  1.00  0.00     0.037 A 
ATOM     45  C   UNL A   1      40.578  28.842  29.651  1.00  0.00     0.037 A 
ATOM     46  C   UNL A   1      40.934  31.803  35.471  1.00  0.00     0.049 A 
ATOM     47  C   UNL A   1      41.484  28.681  30.841  1.00  0.00     0.074 A 
ATOM     48  C   UNL A   1      41.807  31.534  36.509  1.00  0.00     0.029 A 
ATOM     49  N   UNL A   1      41.250  30.927  34.443  1.00  0.00    -0.354 N 
ATOM     50  N   UNL A   1      41.468  29.319  31.987  1.00  0.00    -0.248 NA
ATOM     51  C   UNL A   1      42.542  27.668  30.735  1.00  0.00     0.031 C 
ATOM     52  C   UNL A   1      42.673  30.515  36.098  1.00  0.00     0.029 A 
ATOM     53  C   UNL A   1      42.309  30.120  34.819  1.00  0.00     0.049 A 
ATOM     54  H   UNL A   1      40.787  30.885  33.574  1.00  0.00     0.167 HD
ATOM     55  C   UNL A   1      42.487  28.763  32.748  1.00  0.00     0.074 A 
ATOM     56  C   UNL A   1      43.095  27.728  31.938  1.00  0.00     0.031 C 
ATOM     57  C   UNL A   1      42.885  29.082  34.004  1.00  0.00     0.037 A 
BRANCH  44  58
ATOM     58  C   UNL A   1      39.688  33.698  36.587  1.00  0.00     0.064 A 
ATOM     59  C   UNL A   1      38.869  33.342  37.670  1.00  0.00     0.173 A 
ATOM     60  C   UNL A   1      40.339  34.939  36.638  1.00  0.00     0.173 A 
ATOM     61  F   UNL A   1      38.210  32.173  37.662  1.00  0.00    -0.203 F 
ATOM     62  C   UNL A   1      38.684  34.208  38.744  1.00  0.00     0.198 A 
ATOM     63  C   UNL A   1      40.178  35.789  37.728  1.00  0.00     0.198 A 
ATOM     64  F   UNL A   1      41.135  35.327  35.629  1.00  0.00    -0.203 F 
ATOM     65  F   UNL A   1      37.851  33.870  39.739  1.00  0.00    -0.200 F 
ATOM     66  C   UNL A   1      39.343  35.426  38.775  1.00  0.00     0.200 A 
ATOM     67  F   UNL A   1      40.824  36.962  37.763  1.00  0.00    -0.200 F 
ATOM     68  F   UNL A   1      39.167  36.258  39.812  1.00  0.00    -0.200 F 
ENDBRANCH  44  58
BRANCH  45  69
ATOM     69  C   UNL A   1      40.761  28.006  28.436  1.00  0.00     0.064 A 
ATOM     70  C   UNL A   1      41.542  28.461  27.364  1.00  0.00     0.173 A 
ATOM     71  C   UNL A   1      40.161  26.745  28.317  1.00  0.00     0.173 A 
ATOM     72  F   UNL A   1      42.121  29.669  27.425  1.00  0.00    -0.203 F 
ATOM     73  C   UNL A   1      41.694  27.698  26.209  1.00  0.00     0.198 A 
ATOM     74  C   UNL A   1      40.335  25.970  27.172  1.00  0.00     0.198 A 
ATOM     75  F   UNL A   1      39.412  26.260  29.318  1.00  0.00    -0.203 F 
ATOM     76  F   UNL A   1      42.406  28.179  25.181  1.00  0.00    -0.200 F 
ATOM     77  C   UNL A   1      41.095  26.451  26.116  1.00  0.00     0.200 A 
ATOM     78  F   UNL A   1      39.766  24.760  27.090  1.00  0.00    -0.200 F 
ATOM     79  F   UNL A   1      41.242  25.717  25.004  1.00  0.00    -0.200 F 
ENDBRANCH  45  69
BRANCH  57  80
ATOM     80  C   UNL A   1      43.997  28.269  34.598  1.00  0.00     0.064 A 
ATOM     81  C   UNL A   1      45.334  28.686  34.527  1.00  0.00     0.173 A 
ATOM     82  C   UNL A   1      43.713  27.077  35.282  1.00  0.00     0.173 A 
ATOM     83  F   UNL A   1      45.657  29.811  33.872  1.00  0.00    -0.203 F 
ATOM     84  C   UNL A   1      46.350  27.925  35.100  1.00  0.00     0.198 A 
ATOM     85  C   UNL A   1      44.728  26.334  35.878  1.00  0.00     0.198 A 
ATOM     86  F   UNL A   1      42.449  26.640  35.384  1.00  0.00    -0.203 F 
ATOM     87  F   UNL A   1      47.626  28.318  34.981  1.00  0.00    -0.200 F 
ATOM     88  C   UNL A   1      46.046  26.755  35.780  1.00  0.00     0.200 A 
ATOM     89  F   UNL A   1      44.431  25.211  36.546  1.00  0.00    -0.200 F 
ATOM     90  F   UNL A   1      47.025  26.027  36.335  1.00  0.00    -0.200 F 
ENDBRANCH  57  80
ENDBRANCH  31  32
ENDBRANCH  23  26
ENDBRANCH  21  22
ENDBRANCH  20  21
ENDBRANCH   1  20
TORSDOF 14
ENDMDL
MODEL 3
REMARK VINA RESULT:     -12.0      0.269      1.176
REMARK SMILES C[C@@H](CC(=O)NCCCCNC(=O)c1ccc(-c2c3nc(c(-c4c(F)c(F)c(F)c(F)c4F)c4ccc([nH]4)c(-c4c(F)c(F)c(F)c(F)c4F)c4nc(c(-c5c(F)c(F)c(F)c(F)c5F)c5ccc2[nH]5)C=C4)C=C3)cc1)CC(=O)N1C[C@H](C)[C@@H](C)C1
REMARK SMILES IDX 8 1 7 2 6 3 4 4 5 5 3 7 2 8 1 9 77 10 78 11 79 12 80 13
REMARK SMILES IDX 81 14 86 15 82 16 84 17 83 18 85 19 9 20 10 21 11 22 12 23
REMARK SMILES IDX 13 25 14 26 15 27 76 28 16 29 75 30 17 31 18 32 19 33 69 34
REMARK SMILES IDX 20 35 74 36 68 37 70 38 21 39 73 40 67 41 66 42 22 44 54 45
REMARK SMILES IDX 34 46 53 47 35 48 38 49 52 50 71 51 36 52 37 53 51 55 72 56
REMARK SMILES IDX 39 57 23 58 24 59 32 60 25 61 26 62 30 63 33 64 27 65 28 66
REMARK SMILES IDX 31 67 29 68 55 69 56 70 64 71 57 72 58 73 62 74 65 75 59 76
REMARK SMILES IDX 60 77 63 78 61 79 40 80 41 81 49 82 42 83 43 84 47 85 50 86
REMARK SMILES IDX 44 87 45 88 48 89 46 90
REMARK H PARENT 6 6 11 24 70 43 38 54
REMARK Flexibility Score: inf
ROOT
ATOM      1  C   UNL A   1      31.844  30.540  26.690  1.00  0.00     0.023 C 
ENDROOT
BRANCH   1   2
ATOM      2  C   UNL A   1      33.301  30.087  26.662  1.00  0.00     0.116 C 
BRANCH   2   3
ATOM      3  N   UNL A   1      33.674  29.596  25.351  1.00  0.00    -0.356 N 
ATOM      4  C   UNL A   1      33.762  28.319  24.886  1.00  0.00     0.220 C 
ATOM      5  O   UNL A   1      34.187  28.152  23.742  1.00  0.00    -0.275 OA
ATOM      6  H   UNL A   1      33.898  30.293  24.695  1.00  0.00     0.163 HD
BRANCH   4   7
ATOM      7  C   UNL A   1      33.338  27.135  25.743  1.00  0.00     0.103 C 
BRANCH   7   8
ATOM      8  C   UNL A   1      32.033  26.385  25.365  1.00  0.00     0.004 C 
ATOM      9  C   UNL A   1      30.960  27.387  24.940  1.00  0.00     0.009 C 
BRANCH   8  10
ATOM     10  C   UNL A   1      31.599  25.352  26.414  1.00  0.00     0.104 C 
BRANCH  10  11
ATOM     11  C   UNL A   1      31.435  23.895  25.998  1.00  0.00     0.222 C 
ATOM     12  O   UNL A   1      30.460  23.236  26.358  1.00  0.00    -0.275 OA
ATOM     13  N   UNL A   1      32.345  23.433  25.057  1.00  0.00    -0.342 N 
ATOM     14  C   UNL A   1      31.908  22.577  23.964  1.00  0.00     0.123 C 
ATOM     15  C   UNL A   1      33.730  23.149  25.398  1.00  0.00     0.123 C 
ATOM     16  C   UNL A   1      33.012  21.531  23.788  1.00  0.00     0.010 C 
ATOM     17  C   UNL A   1      34.273  22.260  24.280  1.00  0.00     0.010 C 
ATOM     18  C   UNL A   1      32.712  20.289  24.629  1.00  0.00     0.010 C 
ATOM     19  C   UNL A   1      34.945  23.083  23.180  1.00  0.00     0.010 C 
ENDBRANCH  10  11
ENDBRANCH   8  10
ENDBRANCH   7   8
ENDBRANCH   4   7
ENDBRANCH   2   3
ENDBRANCH   1   2
BRANCH   1  20
ATOM     20  C   UNL A   1      31.623  32.049  26.742  1.00  0.00     0.023 C 
BRANCH  20  21
ATOM     21  C   UNL A   1      32.760  32.807  27.400  1.00  0.00     0.116 C 
BRANCH  21  22
ATOM     22  N   UNL A   1      32.423  34.190  27.707  1.00  0.00    -0.352 N 
ATOM     23  C   UNL A   1      32.995  35.029  28.634  1.00  0.00     0.251 C 
ATOM     24  H   UNL A   1      31.686  34.577  27.180  1.00  0.00     0.163 HD
ATOM     25  O   UNL A   1      32.527  36.139  28.841  1.00  0.00    -0.269 OA
BRANCH  23  26
ATOM     26  C   UNL A   1      34.154  34.546  29.413  1.00  0.00     0.039 A 
ATOM     27  C   UNL A   1      33.928  33.894  30.626  1.00  0.00     0.014 A 
ATOM     28  C   UNL A   1      35.453  34.691  28.918  1.00  0.00     0.014 A 
ATOM     29  C   UNL A   1      35.002  33.323  31.310  1.00  0.00     0.010 A 
ATOM     30  C   UNL A   1      36.503  34.040  29.547  1.00  0.00     0.010 A 
ATOM     31  C   UNL A   1      36.291  33.360  30.754  1.00  0.00    -0.014 A 
BRANCH  31  32
ATOM     32  C   UNL A   1      37.446  32.724  31.432  1.00  0.00     0.031 A 
ATOM     33  C   UNL A   1      38.179  31.600  30.751  1.00  0.00     0.074 A 
ATOM     34  C   UNL A   1      37.783  33.097  32.681  1.00  0.00     0.049 A 
ATOM     35  N   UNL A   1      39.141  30.841  31.207  1.00  0.00    -0.248 NA
ATOM     36  C   UNL A   1      37.740  31.258  29.388  1.00  0.00     0.031 C 
ATOM     37  C   UNL A   1      37.110  34.132  33.468  1.00  0.00     0.029 A 
ATOM     38  N   UNL A   1      38.771  32.637  33.515  1.00  0.00    -0.354 N 
ATOM     39  C   UNL A   1      39.401  29.919  30.201  1.00  0.00     0.074 A 
ATOM     40  C   UNL A   1      38.455  30.174  29.137  1.00  0.00     0.031 C 
ATOM     41  C   UNL A   1      37.722  34.248  34.658  1.00  0.00     0.029 A 
ATOM     42  C   UNL A   1      38.805  33.273  34.732  1.00  0.00     0.049 A 
ATOM     43  H   UNL A   1      39.396  31.920  33.264  1.00  0.00     0.167 HD
ATOM     44  C   UNL A   1      40.360  28.966  30.155  1.00  0.00     0.037 A 
ATOM     45  C   UNL A   1      39.620  33.084  35.786  1.00  0.00     0.037 A 
ATOM     46  C   UNL A   1      41.328  28.748  31.198  1.00  0.00     0.049 A 
ATOM     47  C   UNL A   1      40.700  32.040  35.698  1.00  0.00     0.074 A 
ATOM     48  C   UNL A   1      42.380  27.852  31.225  1.00  0.00     0.029 A 
ATOM     49  N   UNL A   1      41.361  29.446  32.396  1.00  0.00    -0.354 N 
ATOM     50  N   UNL A   1      40.978  31.217  34.716  1.00  0.00    -0.248 NA
ATOM     51  C   UNL A   1      41.587  31.906  36.862  1.00  0.00     0.031 C 
ATOM     52  C   UNL A   1      43.033  27.984  32.455  1.00  0.00     0.029 A 
ATOM     53  C   UNL A   1      42.413  28.995  33.175  1.00  0.00     0.049 A 
ATOM     54  H   UNL A   1      40.731  30.157  32.655  1.00  0.00     0.167 HD
ATOM     55  C   UNL A   1      42.089  30.493  35.127  1.00  0.00     0.074 A 
ATOM     56  C   UNL A   1      42.441  30.983  36.444  1.00  0.00     0.031 C 
ATOM     57  C   UNL A   1      42.757  29.511  34.474  1.00  0.00     0.037 A 
BRANCH  44  58
ATOM     58  C   UNL A   1      40.417  28.100  28.931  1.00  0.00     0.064 A 
ATOM     59  C   UNL A   1      39.718  26.884  28.859  1.00  0.00     0.173 A 
ATOM     60  C   UNL A   1      41.165  28.493  27.812  1.00  0.00     0.173 A 
ATOM     61  F   UNL A   1      39.002  26.454  29.908  1.00  0.00    -0.203 F 
ATOM     62  C   UNL A   1      39.793  26.081  27.724  1.00  0.00     0.198 A 
ATOM     63  C   UNL A   1      41.212  27.703  26.667  1.00  0.00     0.198 A 
ATOM     64  F   UNL A   1      41.851  29.646  27.828  1.00  0.00    -0.203 F 
ATOM     65  F   UNL A   1      39.164  24.897  27.702  1.00  0.00    -0.200 F 
ATOM     66  C   UNL A   1      40.534  26.493  26.628  1.00  0.00     0.200 A 
ATOM     67  F   UNL A   1      41.919  28.107  25.604  1.00  0.00    -0.200 F 
ATOM     68  F   UNL A   1      40.602  25.720  25.535  1.00  0.00    -0.200 F 
ENDBRANCH  44  58
BRANCH  45  69
ATOM     69  C   UNL A   1      39.477  33.930  37.000  1.00  0.00     0.064 A 
ATOM     70  C   UNL A   1      40.077  35.195  37.066  1.00  0.00     0.173 A 
ATOM     71  C   UNL A   1      38.748  33.494  38.115  1.00  0.00     0.173 A 
ATOM     72  F   UNL A   1      40.800  35.647  36.030  1.00  0.00    -0.203 F 
ATOM     73  C   UNL A   1      39.975  35.982  38.210  1.00  0.00     0.198 A 
ATOM     74  C   UNL A   1      38.624  34.294  39.250  1.00  0.00     0.198 A 
ATOM     75  F   UNL A   1      38.148  32.295  38.099  1.00  0.00    -0.203 F 
ATOM     76  F   UNL A   1      40.599  37.167  38.263  1.00  0.00    -0.200 F 
ATOM     77  C   UNL A   1      39.245  35.533  39.300  1.00  0.00     0.200 A 
ATOM     78  F   UNL A   1      37.906  33.863  40.296  1.00  0.00    -0.200 F 
ATOM     79  F   UNL A   1      39.146  36.291  40.401  1.00  0.00    -0.200 F 
ENDBRANCH  45  69
BRANCH  57  80
ATOM     80  C   UNL A   1      43.966  28.936  35.152  1.00  0.00     0.064 A 
ATOM     81  C   UNL A   1      43.874  27.833  36.013  1.00  0.00     0.173 A 
ATOM     82  C   UNL A   1      45.238  29.473  34.902  1.00  0.00     0.173 A 
ATOM     83  F   UNL A   1      42.678  27.295  36.294  1.00  0.00    -0.203 F 
ATOM     84  C   UNL A   1      45.010  27.305  36.620  1.00  0.00     0.198 A 
ATOM     85  C   UNL A   1      46.375  28.923  35.487  1.00  0.00     0.198 A 
ATOM     86  F   UNL A   1      45.380  30.523  34.079  1.00  0.00    -0.203 F 
ATOM     87  F   UNL A   1      44.895  26.280  37.476  1.00  0.00    -0.200 F 
ATOM     88  C   UNL A   1      46.259  27.845  36.351  1.00  0.00     0.200 A 
ATOM     89  F   UNL A   1      47.582  29.438  35.216  1.00  0.00    -0.200 F 
ATOM     90  F   UNL A   1      47.353  27.331  36.931  1.00  0.00    -0.200 F 
ENDBRANCH  57  80
ENDBRANCH  31  32
ENDBRANCH  23  26
ENDBRANCH  21  22
ENDBRANCH  20  21
ENDBRANCH   1  20
TORSDOF 14
ENDMDL
