MODEL 1
REMARK VINA RESULT:     -12.2      0.000      0.000
REMARK SMILES CC(=O)O[C@@H]1[C@H](O)C(C)=C(CC[C@@H](C)CC(=O)NCCCCNC(=O)c2ccc(-c3c4nc(c(-c5c(F)c(F)c(F)c(F)c5F)c5ccc([nH]5)c(-c5c(F)c(F)c(F)c(F)c5F)c5nc(c(-c6c(F)c(F)c(F)c(F)c6F)c6ccc3[nH]6)C=C5)C=C4)cc2)[C@@]2(C)CCCC(C)(C)[C@H]12
REMARK SMILES IDX 16 1 17 2 18 3 15 5 13 6 14 7 12 8 11 9 10 10 5 11 6 12
REMARK SMILES IDX 97 13 8 14 89 15 94 16 9 17 91 18 90 19 93 20 95 21 96 22
REMARK SMILES IDX 92 23 4 24 2 25 1 26 3 27 7 28 19 30 20 31 21 32 22 33 23 34
REMARK SMILES IDX 24 35 25 37 26 38 27 39 88 40 28 41 87 42 29 43 30 44 31 45
REMARK SMILES IDX 81 46 32 47 86 48 80 49 82 50 33 51 85 52 79 53 78 54 34 56
REMARK SMILES IDX 66 57 46 58 65 59 47 60 50 61 64 62 83 63 48 64 49 65 63 67
REMARK SMILES IDX 84 68 51 69 35 70 36 71 44 72 37 73 38 74 42 75 45 76 39 77
REMARK SMILES IDX 40 78 43 79 41 80 67 81 68 82 76 83 69 84 70 85 74 86 77 87
REMARK SMILES IDX 71 88 72 89 75 90 73 91 52 92 53 93 61 94 54 95 55 96 59 97
REMARK SMILES IDX 62 98 56 99 57 100 60 101 58 102
REMARK H PARENT 18 4 7 29 23 36 82 55 50 66
REMARK Flexibility Score: inf
ROOT
ATOM      1  C   UNL A   1      34.733  30.909  27.636  1.00  0.00     0.220 C 
ATOM      2  O   UNL A   1      35.166  29.772  27.443  1.00  0.00    -0.275 OA
ATOM      3  N   UNL A   1      35.635  31.913  27.828  1.00  0.00    -0.356 N 
ATOM      4  H   UNL A   1      36.575  31.619  27.843  1.00  0.00     0.163 HD
ENDROOT
BRANCH   1   5
ATOM      5  C   UNL A   1      33.238  31.173  27.711  1.00  0.00     0.103 C 
BRANCH   5   6
ATOM      6  C   UNL A   1      32.452  30.361  26.659  1.00  0.00    -0.005 C 
ATOM      7  C   UNL A   1      31.351  31.216  26.038  1.00  0.00     0.008 C 
BRANCH   6   8
ATOM      8  C   UNL A   1      31.887  29.110  27.328  1.00  0.00     0.008 C 
BRANCH   8   9
ATOM      9  C   UNL A   1      32.231  27.747  26.756  1.00  0.00     0.032 C 
BRANCH   9  10
ATOM     10  C   UNL A   1      31.123  27.109  25.906  1.00  0.00    -0.062 C 
ATOM     11  C   UNL A   1      32.208  24.564  25.032  1.00  0.00     0.213 C 
ATOM     12  C   UNL A   1      31.677  24.861  26.468  1.00  0.00     0.181 C 
ATOM     13  C   UNL A   1      32.266  25.837  24.067  1.00  0.00     0.049 C 
ATOM     14  C   UNL A   1      30.616  25.937  26.397  1.00  0.00    -0.042 C 
ATOM     15  C   UNL A   1      31.336  27.128  24.330  1.00  0.00    -0.004 C 
ATOM     16  C   UNL A   1      32.832  25.675  22.613  1.00  0.00    -0.028 C 
ATOM     17  C   UNL A   1      29.247  25.383  26.067  1.00  0.00     0.042 C 
ATOM     18  C   UNL A   1      32.098  28.375  23.695  1.00  0.00     0.011 C 
ATOM     19  C   UNL A   1      29.903  27.302  23.733  1.00  0.00     0.016 C 
ATOM     20  C   UNL A   1      33.834  26.837  22.440  1.00  0.00     0.007 C 
ATOM     21  C   UNL A   1      31.795  25.761  21.485  1.00  0.00     0.011 C 
ATOM     22  C   UNL A   1      33.641  24.380  22.415  1.00  0.00     0.011 C 
ATOM     23  C   UNL A   1      33.210  28.202  22.641  1.00  0.00     0.001 C 
BRANCH  11  24
ATOM     24  O   UNL A   1      31.829  23.265  24.545  1.00  0.00    -0.459 OA
BRANCH  24  25
ATOM     25  C   UNL A   1      32.618  22.200  24.772  1.00  0.00     0.303 C 
ATOM     26  C   UNL A   1      32.404  21.154  23.720  1.00  0.00     0.139 C 
ATOM     27  O   UNL A   1      33.416  22.104  25.693  1.00  0.00    -0.253 OA
ENDBRANCH  24  25
ENDBRANCH  11  24
BRANCH  12  28
ATOM     28  O   UNL A   1      31.227  23.715  27.175  1.00  0.00    -0.385 OA
ATOM     29  H   UNL A   1      30.513  23.288  26.676  1.00  0.00     0.211 HD
ENDBRANCH  12  28
ENDBRANCH   9  10
ENDBRANCH   8   9
ENDBRANCH   6   8
ENDBRANCH   5   6
ENDBRANCH   1   5
BRANCH   3  30
ATOM     30  C   UNL A   1      35.453  33.345  28.014  1.00  0.00     0.116 C 
BRANCH  30  31
ATOM     31  C   UNL A   1      34.685  33.721  29.282  1.00  0.00     0.023 C 
BRANCH  31  32
ATOM     32  C   UNL A   1      33.405  34.508  29.020  1.00  0.00     0.023 C 
BRANCH  32  33
ATOM     33  C   UNL A   1      33.472  35.914  29.572  1.00  0.00     0.116 C 
BRANCH  33  34
ATOM     34  N   UNL A   1      32.501  36.183  30.623  1.00  0.00    -0.352 N 
ATOM     35  C   UNL A   1      32.552  35.881  31.969  1.00  0.00     0.251 C 
ATOM     36  H   UNL A   1      31.687  36.652  30.332  1.00  0.00     0.163 HD
ATOM     37  O   UNL A   1      31.615  36.154  32.694  1.00  0.00    -0.269 OA
BRANCH  35  38
ATOM     38  C   UNL A   1      33.731  35.163  32.506  1.00  0.00     0.039 A 
ATOM     39  C   UNL A   1      33.576  33.842  32.932  1.00  0.00     0.014 A 
ATOM     40  C   UNL A   1      34.991  35.759  32.529  1.00  0.00     0.014 A 
ATOM     41  C   UNL A   1      34.701  33.101  33.299  1.00  0.00     0.010 A 
ATOM     42  C   UNL A   1      36.116  34.981  32.736  1.00  0.00     0.010 A 
ATOM     43  C   UNL A   1      35.983  33.651  33.153  1.00  0.00    -0.014 A 
BRANCH  43  44
ATOM     44  C   UNL A   1      37.210  32.887  33.482  1.00  0.00     0.031 A 
ATOM     45  C   UNL A   1      37.932  33.176  34.771  1.00  0.00     0.074 A 
ATOM     46  C   UNL A   1      37.705  32.000  32.597  1.00  0.00     0.049 A 
ATOM     47  N   UNL A   1      39.081  32.719  35.200  1.00  0.00    -0.248 NA
ATOM     48  C   UNL A   1      37.301  34.146  35.685  1.00  0.00     0.031 C 
ATOM     49  C   UNL A   1      37.123  31.684  31.290  1.00  0.00     0.029 A 
ATOM     50  N   UNL A   1      38.820  31.203  32.660  1.00  0.00    -0.354 N 
ATOM     51  C   UNL A   1      39.310  33.359  36.411  1.00  0.00     0.074 A 
ATOM     52  C   UNL A   1      38.234  34.301  36.610  1.00  0.00     0.031 C 
ATOM     53  C   UNL A   1      37.860  30.732  30.697  1.00  0.00     0.029 A 
ATOM     54  C   UNL A   1      38.993  30.407  31.555  1.00  0.00     0.049 A 
ATOM     55  H   UNL A   1      39.438  31.202  33.427  1.00  0.00     0.167 HD
ATOM     56  C   UNL A   1      40.304  33.146  37.303  1.00  0.00     0.037 A 
ATOM     57  C   UNL A   1      39.965  29.520  31.271  1.00  0.00     0.037 A 
ATOM     58  C   UNL A   1      41.345  32.173  37.116  1.00  0.00     0.049 A 
ATOM     59  C   UNL A   1      41.065  29.311  32.279  1.00  0.00     0.074 A 
ATOM     60  C   UNL A   1      42.380  31.843  37.969  1.00  0.00     0.029 A 
ATOM     61  N   UNL A   1      41.468  31.363  35.998  1.00  0.00    -0.354 N 
ATOM     62  N   UNL A   1      41.239  29.879  33.449  1.00  0.00    -0.248 NA
ATOM     63  C   UNL A   1      42.101  28.329  31.932  1.00  0.00     0.031 C 
ATOM     64  C   UNL A   1      43.155  30.857  37.350  1.00  0.00     0.029 A 
ATOM     65  C   UNL A   1      42.570  30.537  36.135  1.00  0.00     0.049 A 
ATOM     66  H   UNL A   1      40.862  31.374  35.221  1.00  0.00     0.167 HD
ATOM     67  C   UNL A   1      42.377  29.297  33.990  1.00  0.00     0.074 A 
ATOM     68  C   UNL A   1      42.840  28.319  33.029  1.00  0.00     0.031 C 
ATOM     69  C   UNL A   1      42.989  29.551  35.173  1.00  0.00     0.037 A 
BRANCH  56  70
ATOM     70  C   UNL A   1      40.291  33.950  38.570  1.00  0.00     0.064 A 
ATOM     71  C   UNL A   1      41.009  35.152  38.682  1.00  0.00     0.173 A 
ATOM     72  C   UNL A   1      39.523  33.543  39.670  1.00  0.00     0.173 A 
ATOM     73  F   UNL A   1      41.775  35.578  37.666  1.00  0.00    -0.203 F 
ATOM     74  C   UNL A   1      40.975  35.903  39.853  1.00  0.00     0.198 A 
ATOM     75  C   UNL A   1      39.465  34.314  40.829  1.00  0.00     0.198 A 
ATOM     76  F   UNL A   1      38.819  32.402  39.619  1.00  0.00    -0.203 F 
ATOM     77  F   UNL A   1      41.708  37.020  39.951  1.00  0.00    -0.200 F 
ATOM     78  C   UNL A   1      40.195  35.489  40.922  1.00  0.00     0.200 A 
ATOM     79  F   UNL A   1      38.702  33.918  41.857  1.00  0.00    -0.200 F 
ATOM     80  F   UNL A   1      40.153  36.220  42.044  1.00  0.00    -0.200 F 
ENDBRANCH  56  70
BRANCH  57  81
ATOM     81  C   UNL A   1      39.941  28.746  30.000  1.00  0.00     0.064 A 
ATOM     82  C   UNL A   1      39.350  27.475  29.943  1.00  0.00     0.173 A 
ATOM     83  C   UNL A   1      40.542  29.235  28.830  1.00  0.00     0.173 A 
ATOM     84  F   UNL A   1      38.775  26.955  31.038  1.00  0.00    -0.203 F 
ATOM     85  C   UNL A   1      39.400  26.706  28.782  1.00  0.00     0.198 A 
ATOM     86  C   UNL A   1      40.561  28.479  27.659  1.00  0.00     0.198 A 
ATOM     87  F   UNL A   1      41.114  30.448  28.824  1.00  0.00    -0.203 F 
ATOM     88  F   UNL A   1      38.890  25.467  28.780  1.00  0.00    -0.200 F 
ATOM     89  C   UNL A   1      40.004  27.210  27.640  1.00  0.00     0.200 A 
ATOM     90  F   UNL A   1      41.131  28.976  26.553  1.00  0.00    -0.200 F 
ATOM     91  F   UNL A   1      40.061  26.466  26.527  1.00  0.00    -0.200 F 
ENDBRANCH  57  81
BRANCH  69  92
ATOM     92  C   UNL A   1      44.188  28.719  35.516  1.00  0.00     0.064 A 
ATOM     93  C   UNL A   1      44.071  27.510  36.217  1.00  0.00     0.173 A 
ATOM     94  C   UNL A   1      45.467  29.119  35.098  1.00  0.00     0.173 A 
ATOM     95  F   UNL A   1      42.872  27.092  36.649  1.00  0.00    -0.203 F 
ATOM     96  C   UNL A   1      45.197  26.747  36.514  1.00  0.00     0.198 A 
ATOM     97  C   UNL A   1      46.585  28.335  35.366  1.00  0.00     0.198 A 
ATOM     98  F   UNL A   1      45.629  30.262  34.416  1.00  0.00    -0.203 F 
ATOM     99  F   UNL A   1      45.070  25.622  37.232  1.00  0.00    -0.200 F 
ATOM    100  C   UNL A   1      46.449  27.155  36.081  1.00  0.00     0.200 A 
ATOM    101  F   UNL A   1      47.791  28.722  34.931  1.00  0.00    -0.200 F 
ATOM    102  F   UNL A   1      47.530  26.413  36.360  1.00  0.00    -0.200 F 
ENDBRANCH  69  92
ENDBRANCH  43  44
ENDBRANCH  35  38
ENDBRANCH  33  34
ENDBRANCH  32  33
ENDBRANCH  31  32
ENDBRANCH  30  31
ENDBRANCH   3  30
TORSDOF 18
ENDMDL
MODEL 2
REMARK VINA RESULT:     -12.0      5.889     11.448
REMARK SMILES CC(=O)O[C@@H]1[C@H](O)C(C)=C(CC[C@@H](C)CC(=O)NCCCCNC(=O)c2ccc(-c3c4nc(c(-c5c(F)c(F)c(F)c(F)c5F)c5ccc([nH]5)c(-c5c(F)c(F)c(F)c(F)c5F)c5nc(c(-c6c(F)c(F)c(F)c(F)c6F)c6ccc3[nH]6)C=C5)C=C4)cc2)[C@@]2(C)CCCC(C)(C)[C@H]12
REMARK SMILES IDX 16 1 17 2 18 3 15 5 13 6 14 7 12 8 11 9 10 10 5 11 6 12
REMARK SMILES IDX 97 13 8 14 89 15 94 16 9 17 91 18 90 19 93 20 95 21 96 22
REMARK SMILES IDX 92 23 4 24 2 25 1 26 3 27 7 28 19 30 20 31 21 32 22 33 23 34
REMARK SMILES IDX 24 35 25 37 26 38 27 39 88 40 28 41 87 42 29 43 30 44 31 45
REMARK SMILES IDX 81 46 32 47 86 48 80 49 82 50 33 51 85 52 79 53 78 54 34 56
REMARK SMILES IDX 66 57 46 58 65 59 47 60 50 61 64 62 83 63 48 64 49 65 63 67
REMARK SMILES IDX 84 68 51 69 35 70 36 71 44 72 37 73 38 74 42 75 45 76 39 77
REMARK SMILES IDX 40 78 43 79 41 80 67 81 68 82 76 83 69 84 70 85 74 86 77 87
REMARK SMILES IDX 71 88 72 89 75 90 73 91 52 92 53 93 61 94 54 95 55 96 59 97
REMARK SMILES IDX 62 98 56 99 57 100 60 101 58 102
REMARK H PARENT 18 4 7 29 23 36 82 55 50 66
REMARK Flexibility Score: inf
ROOT
ATOM      1  C   UNL A   1      35.052  23.325  25.911  1.00  0.00     0.220 C 
ATOM      2  O   UNL A   1      34.046  23.460  26.609  1.00  0.00    -0.275 OA
ATOM      3  N   UNL A   1      36.024  22.473  26.347  1.00  0.00    -0.356 N 
ATOM      4  H   UNL A   1      35.846  22.071  27.228  1.00  0.00     0.163 HD
ENDROOT
BRANCH   1   5
ATOM      5  C   UNL A   1      35.229  24.125  24.631  1.00  0.00     0.103 C 
BRANCH   5   6
ATOM      6  C   UNL A   1      33.936  24.161  23.788  1.00  0.00    -0.005 C 
ATOM      7  C   UNL A   1      33.687  22.803  23.134  1.00  0.00     0.008 C 
BRANCH   6   8
ATOM      8  C   UNL A   1      34.059  25.274  22.749  1.00  0.00     0.008 C 
BRANCH   8   9
ATOM      9  C   UNL A   1      33.286  26.564  22.954  1.00  0.00     0.032 C 
BRANCH   9  10
ATOM     10  C   UNL A   1      32.063  26.440  23.874  1.00  0.00    -0.062 C 
ATOM     11  C   UNL A   1      30.843  29.073  23.871  1.00  0.00     0.213 C 
ATOM     12  C   UNL A   1      30.742  28.042  22.704  1.00  0.00     0.181 C 
ATOM     13  C   UNL A   1      31.824  28.643  25.057  1.00  0.00     0.049 C 
ATOM     14  C   UNL A   1      30.855  26.640  23.264  1.00  0.00    -0.042 C 
ATOM     15  C   UNL A   1      32.191  27.094  25.318  1.00  0.00    -0.004 C 
ATOM     16  C   UNL A   1      32.049  29.622  26.261  1.00  0.00    -0.028 C 
ATOM     17  C   UNL A   1      29.533  26.109  23.772  1.00  0.00     0.042 C 
ATOM     18  C   UNL A   1      33.621  27.077  26.021  1.00  0.00     0.011 C 
ATOM     19  C   UNL A   1      31.370  26.154  26.258  1.00  0.00     0.016 C 
ATOM     20  C   UNL A   1      33.580  29.678  26.452  1.00  0.00     0.007 C 
ATOM     21  C   UNL A   1      31.413  29.193  27.591  1.00  0.00     0.011 C 
ATOM     22  C   UNL A   1      31.601  31.065  25.966  1.00  0.00     0.011 C 
ATOM     23  C   UNL A   1      34.203  28.323  26.718  1.00  0.00     0.001 C 
BRANCH  11  24
ATOM     24  O   UNL A   1      29.606  29.761  24.126  1.00  0.00    -0.459 OA
BRANCH  24  25
ATOM     25  C   UNL A   1      29.159  30.692  23.265  1.00  0.00     0.303 C 
ATOM     26  C   UNL A   1      27.872  31.284  23.753  1.00  0.00     0.139 C 
ATOM     27  O   UNL A   1      29.731  31.028  22.238  1.00  0.00    -0.253 OA
ENDBRANCH  24  25
ENDBRANCH  11  24
BRANCH  12  28
ATOM     28  O   UNL A   1      29.595  28.196  21.883  1.00  0.00    -0.385 OA
ATOM     29  H   UNL A   1      29.717  28.959  21.296  1.00  0.00     0.211 HD
ENDBRANCH  12  28
ENDBRANCH   9  10
ENDBRANCH   8   9
ENDBRANCH   6   8
ENDBRANCH   5   6
ENDBRANCH   1   5
BRANCH   3  30
ATOM     30  C   UNL A   1      37.277  22.053  25.738  1.00  0.00     0.116 C 
BRANCH  30  31
ATOM     31  C   UNL A   1      37.134  20.906  24.735  1.00  0.00     0.023 C 
BRANCH  31  32
ATOM     32  C   UNL A   1      38.083  19.740  24.990  1.00  0.00     0.023 C 
BRANCH  32  33
ATOM     33  C   UNL A   1      39.296  20.150  25.794  1.00  0.00     0.116 C 
BRANCH  33  34
ATOM     34  N   UNL A   1      40.339  19.135  25.850  1.00  0.00    -0.352 N 
ATOM     35  C   UNL A   1      41.683  19.265  26.136  1.00  0.00     0.251 C 
ATOM     36  H   UNL A   1      40.040  18.217  25.658  1.00  0.00     0.163 HD
ATOM     37  O   UNL A   1      42.414  18.295  26.095  1.00  0.00    -0.269 OA
BRANCH  35  38
ATOM     38  C   UNL A   1      42.234  20.609  26.426  1.00  0.00     0.039 A 
ATOM     39  C   UNL A   1      42.606  21.428  25.359  1.00  0.00     0.014 A 
ATOM     40  C   UNL A   1      42.322  21.085  27.734  1.00  0.00     0.014 A 
ATOM     41  C   UNL A   1      42.985  22.749  25.604  1.00  0.00     0.010 A 
ATOM     42  C   UNL A   1      42.541  22.432  27.961  1.00  0.00     0.010 A 
ATOM     43  C   UNL A   1      42.904  23.274  26.903  1.00  0.00    -0.014 A 
BRANCH  43  44
ATOM     44  C   UNL A   1      43.247  24.684  27.205  1.00  0.00     0.031 A 
ATOM     45  C   UNL A   1      44.653  25.166  26.962  1.00  0.00     0.074 A 
ATOM     46  C   UNL A   1      42.325  25.495  27.758  1.00  0.00     0.049 A 
ATOM     47  N   UNL A   1      45.201  26.314  27.268  1.00  0.00    -0.248 NA
ATOM     48  C   UNL A   1      45.585  24.212  26.333  1.00  0.00     0.031 C 
ATOM     49  C   UNL A   1      40.949  25.118  28.094  1.00  0.00     0.029 A 
ATOM     50  N   UNL A   1      42.409  26.809  28.145  1.00  0.00    -0.354 N 
ATOM     51  C   UNL A   1      46.532  26.207  26.886  1.00  0.00     0.074 A 
ATOM     52  C   UNL A   1      46.737  24.858  26.412  1.00  0.00     0.031 C 
ATOM     53  C   UNL A   1      40.308  26.186  28.594  1.00  0.00     0.029 A 
ATOM     54  C   UNL A   1      41.238  27.307  28.663  1.00  0.00     0.049 A 
ATOM     55  H   UNL A   1      43.230  27.344  28.058  1.00  0.00     0.167 HD
ATOM     56  C   UNL A   1      47.490  27.162  26.885  1.00  0.00     0.037 A 
ATOM     57  C   UNL A   1      40.958  28.533  29.145  1.00  0.00     0.037 A 
ATOM     58  C   UNL A   1      47.264  28.514  27.315  1.00  0.00     0.049 A 
ATOM     59  C   UNL A   1      42.047  29.574  29.140  1.00  0.00     0.074 A 
ATOM     60  C   UNL A   1      48.147  29.577  27.321  1.00  0.00     0.029 A 
ATOM     61  N   UNL A   1      46.056  28.989  27.804  1.00  0.00    -0.354 N 
ATOM     62  N   UNL A   1      43.286  29.477  28.721  1.00  0.00    -0.248 NA
ATOM     63  C   UNL A   1      41.696  30.899  29.668  1.00  0.00     0.031 C 
ATOM     64  C   UNL A   1      47.485  30.689  27.851  1.00  0.00     0.029 A 
ATOM     65  C   UNL A   1      46.173  30.330  28.124  1.00  0.00     0.049 A 
ATOM     66  H   UNL A   1      45.237  28.452  27.909  1.00  0.00     0.167 HD
ATOM     67  C   UNL A   1      43.848  30.734  28.898  1.00  0.00     0.074 A 
ATOM     68  C   UNL A   1      42.808  31.580  29.444  1.00  0.00     0.031 C 
ATOM     69  C   UNL A   1      45.111  31.154  28.638  1.00  0.00     0.037 A 
BRANCH  56  70
ATOM     70  C   UNL A   1      48.849  26.789  26.371  1.00  0.00     0.064 A 
ATOM     71  C   UNL A   1      49.804  26.179  27.201  1.00  0.00     0.173 A 
ATOM     72  C   UNL A   1      49.192  27.002  25.028  1.00  0.00     0.173 A 
ATOM     73  F   UNL A   1      49.534  25.969  28.499  1.00  0.00    -0.203 F 
ATOM     74  C   UNL A   1      51.055  25.817  26.712  1.00  0.00     0.198 A 
ATOM     75  C   UNL A   1      50.434  26.608  24.534  1.00  0.00     0.198 A 
ATOM     76  F   UNL A   1      48.320  27.583  24.191  1.00  0.00    -0.203 F 
ATOM     77  F   UNL A   1      51.965  25.281  27.538  1.00  0.00    -0.200 F 
ATOM     78  C   UNL A   1      51.366  26.022  25.377  1.00  0.00     0.200 A 
ATOM     79  F   UNL A   1      50.728  26.797  23.240  1.00  0.00    -0.200 F 
ATOM     80  F   UNL A   1      52.566  25.661  24.904  1.00  0.00    -0.200 F 
ENDBRANCH  56  70
BRANCH  57  81
ATOM     81  C   UNL A   1      39.596  28.859  29.649  1.00  0.00     0.064 A 
ATOM     82  C   UNL A   1      39.239  28.596  30.980  1.00  0.00     0.173 A 
ATOM     83  C   UNL A   1      38.610  29.396  28.807  1.00  0.00     0.173 A 
ATOM     84  F   UNL A   1      40.140  28.068  31.822  1.00  0.00    -0.203 F 
ATOM     85  C   UNL A   1      37.942  28.816  31.437  1.00  0.00     0.198 A 
ATOM     86  C   UNL A   1      37.322  29.647  29.275  1.00  0.00     0.198 A 
ATOM     87  F   UNL A   1      38.898  29.676  27.527  1.00  0.00    -0.203 F 
ATOM     88  F   UNL A   1      37.612  28.487  32.694  1.00  0.00    -0.200 F 
ATOM     89  C   UNL A   1      36.984  29.343  30.585  1.00  0.00     0.200 A 
ATOM     90  F   UNL A   1      36.403  30.173  28.452  1.00  0.00    -0.200 F 
ATOM     91  F   UNL A   1      35.733  29.544  31.021  1.00  0.00    -0.200 F 
ENDBRANCH  57  81
BRANCH  69  92
ATOM     92  C   UNL A   1      45.417  32.601  28.886  1.00  0.00     0.064 A 
ATOM     93  C   UNL A   1      45.192  33.580  27.909  1.00  0.00     0.173 A 
ATOM     94  C   UNL A   1      45.902  33.013  30.137  1.00  0.00     0.173 A 
ATOM     95  F   UNL A   1      44.742  33.233  26.695  1.00  0.00    -0.203 F 
ATOM     96  C   UNL A   1      45.472  34.920  28.165  1.00  0.00     0.198 A 
ATOM     97  C   UNL A   1      46.147  34.358  30.401  1.00  0.00     0.198 A 
ATOM     98  F   UNL A   1      46.124  32.115  31.108  1.00  0.00    -0.203 F 
ATOM     99  F   UNL A   1      45.302  35.834  27.200  1.00  0.00    -0.200 F 
ATOM    100  C   UNL A   1      45.940  35.307  29.412  1.00  0.00     0.200 A 
ATOM    101  F   UNL A   1      46.581  34.732  31.611  1.00  0.00    -0.200 F 
ATOM    102  F   UNL A   1      46.200  36.599  29.659  1.00  0.00    -0.200 F 
ENDBRANCH  69  92
ENDBRANCH  43  44
ENDBRANCH  35  38
ENDBRANCH  33  34
ENDBRANCH  32  33
ENDBRANCH  31  32
ENDBRANCH  30  31
ENDBRANCH   3  30
TORSDOF 18
ENDMDL
MODEL 3
REMARK VINA RESULT:     -11.9      6.168     10.933
REMARK SMILES CC(=O)O[C@@H]1[C@H](O)C(C)=C(CC[C@@H](C)CC(=O)NCCCCNC(=O)c2ccc(-c3c4nc(c(-c5c(F)c(F)c(F)c(F)c5F)c5ccc([nH]5)c(-c5c(F)c(F)c(F)c(F)c5F)c5nc(c(-c6c(F)c(F)c(F)c(F)c6F)c6ccc3[nH]6)C=C5)C=C4)cc2)[C@@]2(C)CCCC(C)(C)[C@H]12
REMARK SMILES IDX 16 1 17 2 18 3 15 5 13 6 14 7 12 8 11 9 10 10 5 11 6 12
REMARK SMILES IDX 97 13 8 14 89 15 94 16 9 17 91 18 90 19 93 20 95 21 96 22
REMARK SMILES IDX 92 23 4 24 2 25 1 26 3 27 7 28 19 30 20 31 21 32 22 33 23 34
REMARK SMILES IDX 24 35 25 37 26 38 27 39 88 40 28 41 87 42 29 43 30 44 31 45
REMARK SMILES IDX 81 46 32 47 86 48 80 49 82 50 33 51 85 52 79 53 78 54 34 56
REMARK SMILES IDX 66 57 46 58 65 59 47 60 50 61 64 62 83 63 48 64 49 65 63 67
REMARK SMILES IDX 84 68 51 69 35 70 36 71 44 72 37 73 38 74 42 75 45 76 39 77
REMARK SMILES IDX 40 78 43 79 41 80 67 81 68 82 76 83 69 84 70 85 74 86 77 87
REMARK SMILES IDX 71 88 72 89 75 90 73 91 52 92 53 93 61 94 54 95 55 96 59 97
REMARK SMILES IDX 62 98 56 99 57 100 60 101 58 102
REMARK H PARENT 18 4 7 29 23 36 82 55 50 66
REMARK Flexibility Score: inf
ROOT
ATOM      1  C   UNL A   1      34.417  23.173  25.328  1.00  0.00     0.220 C 
ATOM      2  O   UNL A   1      33.712  23.637  26.224  1.00  0.00    -0.275 OA
ATOM      3  N   UNL A   1      34.967  21.939  25.519  1.00  0.00    -0.356 N 
ATOM      4  H   UNL A   1      34.782  21.545  26.403  1.00  0.00     0.163 HD
ENDROOT
BRANCH   1   5
ATOM      5  C   UNL A   1      34.709  23.973  24.069  1.00  0.00     0.103 C 
BRANCH   5   6
ATOM      6  C   UNL A   1      33.438  24.211  23.226  1.00  0.00    -0.005 C 
ATOM      7  C   UNL A   1      33.113  22.976  22.388  1.00  0.00     0.008 C 
BRANCH   6   8
ATOM      8  C   UNL A   1      33.653  25.445  22.352  1.00  0.00     0.008 C 
BRANCH   8   9
ATOM      9  C   UNL A   1      33.024  26.763  22.767  1.00  0.00     0.032 C 
BRANCH   9  10
ATOM     10  C   UNL A   1      31.823  26.630  23.715  1.00  0.00    -0.062 C 
ATOM     11  C   UNL A   1      30.724  29.307  23.925  1.00  0.00     0.213 C 
ATOM     12  C   UNL A   1      30.544  28.364  22.696  1.00  0.00     0.181 C 
ATOM     13  C   UNL A   1      31.717  28.755  25.048  1.00  0.00     0.049 C 
ATOM     14  C   UNL A   1      30.608  26.924  23.157  1.00  0.00    -0.042 C 
ATOM     15  C   UNL A   1      32.020  27.178  25.194  1.00  0.00    -0.004 C 
ATOM     16  C   UNL A   1      32.021  29.639  26.308  1.00  0.00    -0.028 C 
ATOM     17  C   UNL A   1      29.278  26.417  23.669  1.00  0.00     0.042 C 
ATOM     18  C   UNL A   1      33.467  27.050  25.851  1.00  0.00     0.011 C 
ATOM     19  C   UNL A   1      31.184  26.213  26.094  1.00  0.00     0.016 C 
ATOM     20  C   UNL A   1      33.557  29.616  26.456  1.00  0.00     0.007 C 
ATOM     21  C   UNL A   1      31.403  29.149  27.626  1.00  0.00     0.011 C 
ATOM     22  C   UNL A   1      31.631  31.117  26.125  1.00  0.00     0.011 C 
ATOM     23  C   UNL A   1      34.125  28.219  26.610  1.00  0.00     0.001 C 
BRANCH  11  24
ATOM     24  O   UNL A   1      29.528  30.030  24.264  1.00  0.00    -0.459 OA
BRANCH  24  25
ATOM     25  C   UNL A   1      29.018  30.934  23.409  1.00  0.00     0.303 C 
ATOM     26  C   UNL A   1      27.578  31.203  23.726  1.00  0.00     0.139 C 
ATOM     27  O   UNL A   1      29.643  31.479  22.512  1.00  0.00    -0.253 OA
ENDBRANCH  24  25
ENDBRANCH  11  24
BRANCH  12  28
ATOM     28  O   UNL A   1      29.383  28.623  21.923  1.00  0.00    -0.385 OA
ATOM     29  H   UNL A   1      28.617  28.719  22.511  1.00  0.00     0.211 HD
ENDBRANCH  12  28
ENDBRANCH   9  10
ENDBRANCH   8   9
ENDBRANCH   6   8
ENDBRANCH   5   6
ENDBRANCH   1   5
BRANCH   3  30
ATOM     30  C   UNL A   1      35.777  21.103  24.647  1.00  0.00     0.116 C 
BRANCH  30  31
ATOM     31  C   UNL A   1      37.284  21.337  24.776  1.00  0.00     0.023 C 
BRANCH  31  32
ATOM     32  C   UNL A   1      38.091  20.063  25.001  1.00  0.00     0.023 C 
BRANCH  32  33
ATOM     33  C   UNL A   1      39.285  20.291  25.901  1.00  0.00     0.116 C 
BRANCH  33  34
ATOM     34  N   UNL A   1      40.240  19.191  25.905  1.00  0.00    -0.352 N 
ATOM     35  C   UNL A   1      41.604  19.207  26.115  1.00  0.00     0.251 C 
ATOM     36  H   UNL A   1      39.855  18.301  25.734  1.00  0.00     0.163 HD
ATOM     37  O   UNL A   1      42.248  18.179  26.039  1.00  0.00    -0.269 OA
BRANCH  35  38
ATOM     38  C   UNL A   1      42.282  20.500  26.367  1.00  0.00     0.039 A 
ATOM     39  C   UNL A   1      42.706  21.261  25.276  1.00  0.00     0.014 A 
ATOM     40  C   UNL A   1      42.440  20.991  27.663  1.00  0.00     0.014 A 
ATOM     41  C   UNL A   1      43.209  22.546  25.487  1.00  0.00     0.010 A 
ATOM     42  C   UNL A   1      42.785  22.316  27.858  1.00  0.00     0.010 A 
ATOM     43  C   UNL A   1      43.203  23.101  26.776  1.00  0.00    -0.014 A 
BRANCH  43  44
ATOM     44  C   UNL A   1      43.680  24.478  27.042  1.00  0.00     0.031 A 
ATOM     45  C   UNL A   1      42.706  25.506  27.556  1.00  0.00     0.074 A 
ATOM     46  C   UNL A   1      44.952  24.816  26.755  1.00  0.00     0.049 A 
ATOM     47  N   UNL A   1      42.874  26.790  27.739  1.00  0.00    -0.248 NA
ATOM     48  C   UNL A   1      41.342  25.037  27.862  1.00  0.00     0.031 C 
ATOM     49  C   UNL A   1      45.966  23.918  26.196  1.00  0.00     0.029 A 
ATOM     50  N   UNL A   1      45.610  26.012  26.887  1.00  0.00    -0.354 N 
ATOM     51  C   UNL A   1      41.642  27.273  28.160  1.00  0.00     0.074 A 
ATOM     52  C   UNL A   1      40.710  26.171  28.118  1.00  0.00     0.031 C 
ATOM     53  C   UNL A   1      47.126  24.583  26.075  1.00  0.00     0.029 A 
ATOM     54  C   UNL A   1      46.926  25.964  26.498  1.00  0.00     0.049 A 
ATOM     55  H   UNL A   1      45.179  26.828  27.230  1.00  0.00     0.167 HD
ATOM     56  C   UNL A   1      41.324  28.517  28.588  1.00  0.00     0.037 A 
ATOM     57  C   UNL A   1      47.859  26.934  26.480  1.00  0.00     0.037 A 
ATOM     58  C   UNL A   1      42.270  29.596  28.669  1.00  0.00     0.049 A 
ATOM     59  C   UNL A   1      47.474  28.311  26.955  1.00  0.00     0.074 A 
ATOM     60  C   UNL A   1      42.071  30.884  29.125  1.00  0.00     0.029 A 
ATOM     61  N   UNL A   1      43.602  29.499  28.295  1.00  0.00    -0.354 N 
ATOM     62  N   UNL A   1      46.319  28.742  27.406  1.00  0.00    -0.248 NA
ATOM     63  C   UNL A   1      48.525  29.338  26.926  1.00  0.00     0.031 C 
ATOM     64  C   UNL A   1      43.276  31.582  28.992  1.00  0.00     0.029 A 
ATOM     65  C   UNL A   1      44.237  30.711  28.503  1.00  0.00     0.049 A 
ATOM     66  H   UNL A   1      44.032  28.689  27.936  1.00  0.00     0.167 HD
ATOM     67  C   UNL A   1      46.516  30.072  27.750  1.00  0.00     0.074 A 
ATOM     68  C   UNL A   1      47.905  30.371  27.472  1.00  0.00     0.031 C 
ATOM     69  C   UNL A   1      45.629  30.970  28.245  1.00  0.00     0.037 A 
BRANCH  56  70
ATOM     70  C   UNL A   1      39.913  28.763  29.034  1.00  0.00     0.064 A 
ATOM     71  C   UNL A   1      38.939  29.251  28.148  1.00  0.00     0.173 A 
ATOM     72  C   UNL A   1      39.514  28.470  30.347  1.00  0.00     0.173 A 
ATOM     73  F   UNL A   1      39.271  29.565  26.887  1.00  0.00    -0.203 F 
ATOM     74  C   UNL A   1      37.627  29.457  28.564  1.00  0.00     0.198 A 
ATOM     75  C   UNL A   1      38.193  28.647  30.751  1.00  0.00     0.198 A 
ATOM     76  F   UNL A   1      40.404  28.003  31.236  1.00  0.00    -0.203 F 
ATOM     77  F   UNL A   1      36.729  29.971  27.712  1.00  0.00    -0.200 F 
ATOM     78  C   UNL A   1      37.252  29.145  29.862  1.00  0.00     0.200 A 
ATOM     79  F   UNL A   1      37.830  28.334  32.002  1.00  0.00    -0.200 F 
ATOM     80  F   UNL A   1      35.986  29.331  30.258  1.00  0.00    -0.200 F 
ENDBRANCH  56  70
BRANCH  57  81
ATOM     81  C   UNL A   1      49.247  26.647  26.026  1.00  0.00     0.064 A 
ATOM     82  C   UNL A   1      49.641  26.912  24.706  1.00  0.00     0.173 A 
ATOM     83  C   UNL A   1      50.194  26.063  26.881  1.00  0.00     0.173 A 
ATOM     84  F   UNL A   1      48.768  27.456  23.844  1.00  0.00    -0.203 F 
ATOM     85  C   UNL A   1      50.910  26.565  24.247  1.00  0.00     0.198 A 
ATOM     86  C   UNL A   1      51.475  25.748  26.429  1.00  0.00     0.198 A 
ATOM     87  F   UNL A   1      49.876  25.797  28.156  1.00  0.00    -0.203 F 
ATOM     88  F   UNL A   1      51.232  26.765  22.961  1.00  0.00    -0.200 F 
ATOM     89  C   UNL A   1      51.827  25.985  25.110  1.00  0.00     0.200 A 
ATOM     90  F   UNL A   1      52.364  25.203  27.271  1.00  0.00    -0.200 F 
ATOM     91  F   UNL A   1      53.043  25.642  24.666  1.00  0.00    -0.200 F 
ENDBRANCH  57  81
BRANCH  69  92
ATOM     92  C   UNL A   1      46.149  32.338  28.572  1.00  0.00     0.064 A 
ATOM     93  C   UNL A   1      46.118  33.382  27.638  1.00  0.00     0.173 A 
ATOM     94  C   UNL A   1      46.645  32.614  29.856  1.00  0.00     0.173 A 
ATOM     95  F   UNL A   1      45.665  33.163  26.394  1.00  0.00    -0.203 F 
ATOM     96  C   UNL A   1      46.595  34.648  27.967  1.00  0.00     0.198 A 
ATOM     97  C   UNL A   1      47.087  33.890  30.192  1.00  0.00     0.198 A 
ATOM     98  F   UNL A   1      46.686  31.651  30.788  1.00  0.00    -0.203 F 
ATOM     99  F   UNL A   1      46.607  35.618  27.042  1.00  0.00    -0.200 F 
ATOM    100  C   UNL A   1      47.070  34.902  29.245  1.00  0.00     0.200 A 
ATOM    101  F   UNL A   1      47.529  34.139  31.432  1.00  0.00    -0.200 F 
ATOM    102  F   UNL A   1      47.520  36.124  29.562  1.00  0.00    -0.200 F 
ENDBRANCH  69  92
ENDBRANCH  43  44
ENDBRANCH  35  38
ENDBRANCH  33  34
ENDBRANCH  32  33
ENDBRANCH  31  32
ENDBRANCH  30  31
ENDBRANCH   3  30
TORSDOF 18
ENDMDL
