MODEL 1
REMARK VINA RESULT:     -11.8      0.000      0.000
REMARK SMILES C[NH2+][C@]1(C(=O)NCCCCNC(=O)c2ccc(-c3c4nc(c(-c5c(F)c(F)c(F)c(F)c5F)c5ccc([nH]5)c(-c5c(F)c(F)c(F)c(F)c5F)c5nc(c(-c6c(F)c(F)c(F)c(F)c6F)c6ccc3[nH]6)C=C5)C=C4)cc2)CCC[C@@H]1CC[N@H+]1CCC[C@H]([NH+](C)C)C1
REMARK SMILES IDX 7 1 6 2 4 3 5 4 3 6 77 7 80 8 78 9 79 10 2 11 1 12 81 15
REMARK SMILES IDX 82 16 83 17 84 18 91 19 85 21 87 22 86 23 88 24 89 25 90 26
REMARK SMILES IDX 8 28 9 29 10 30 11 31 12 32 13 34 14 35 15 36 76 37 16 38
REMARK SMILES IDX 75 39 17 40 18 41 19 42 69 43 20 44 74 45 68 46 70 47 21 48
REMARK SMILES IDX 73 49 67 50 66 51 22 53 54 54 34 55 53 56 35 57 38 58 52 59
REMARK SMILES IDX 71 60 36 61 37 62 51 64 72 65 39 66 23 67 24 68 32 69 25 70
REMARK SMILES IDX 26 71 30 72 33 73 27 74 28 75 31 76 29 77 55 78 56 79 64 80
REMARK SMILES IDX 57 81 58 82 62 83 65 84 59 85 60 86 63 87 61 88 40 89 41 90
REMARK SMILES IDX 49 91 42 92 43 93 47 94 50 95 44 96 45 97 48 98 46 99
REMARK H PARENT 6 5 2 13 2 14 83 20 88 27 11 33 70 52 38 63
REMARK Flexibility Score: inf
ROOT
ATOM      1  C   UNL A   1      32.832  30.044  26.677  1.00  0.00     0.116 C 
ENDROOT
BRANCH   1   2
ATOM      2  N   UNL A   1      32.190  28.893  27.276  1.00  0.00    -0.351 N 
ATOM      3  C   UNL A   1      31.671  27.755  26.740  1.00  0.00     0.281 C 
ATOM      4  O   UNL A   1      31.071  27.023  27.541  1.00  0.00    -0.268 OA
ATOM      5  H   UNL A   1      32.114  28.943  28.256  1.00  0.00     0.163 HD
BRANCH   3   6
ATOM      6  C   UNL A   1      31.892  27.285  25.256  1.00  0.00     0.178 C 
ATOM      7  C   UNL A   1      31.503  28.268  24.141  1.00  0.00     0.079 C 
ATOM      8  C   UNL A   1      33.421  27.091  24.995  1.00  0.00     0.066 C 
ATOM      9  C   UNL A   1      32.292  27.812  22.922  1.00  0.00     0.008 C 
ATOM     10  C   UNL A   1      33.574  27.177  23.464  1.00  0.00     0.011 C 
BRANCH   6  11
ATOM     11  N   UNL A   1      31.228  25.949  25.084  1.00  0.00    -0.336 N 
ATOM     12  C   UNL A   1      29.873  25.984  24.558  1.00  0.00     0.331 C 
ATOM     13  H   UNL A   1      31.799  25.394  24.446  1.00  0.00     0.346 HD
ATOM     14  H   UNL A   1      31.153  25.551  26.020  1.00  0.00     0.346 HD
ENDBRANCH   6  11
BRANCH   8  15
ATOM     15  C   UNL A   1      34.001  25.784  25.582  1.00  0.00     0.072 C 
BRANCH  15  16
ATOM     16  C   UNL A   1      34.459  24.736  24.559  1.00  0.00     0.262 C 
BRANCH  16  17
ATOM     17  N   UNL A   1      33.573  23.577  24.345  1.00  0.00    -0.330 N 
ATOM     18  C   UNL A   1      32.852  23.585  23.068  1.00  0.00     0.262 C 
ATOM     19  C   UNL A   1      34.372  22.335  24.432  1.00  0.00     0.327 C 
ATOM     20  H   UNL A   1      32.863  23.630  25.075  1.00  0.00     0.348 HD
ATOM     21  C   UNL A   1      31.849  22.435  23.014  1.00  0.00     0.068 C 
ATOM     22  C   UNL A   1      33.522  21.033  24.397  1.00  0.00     0.239 C 
ATOM     23  C   UNL A   1      32.512  21.077  23.229  1.00  0.00     0.077 C 
BRANCH  22  24
ATOM     24  N   UNL A   1      32.922  20.588  25.681  1.00  0.00    -0.333 N 
ATOM     25  C   UNL A   1      32.820  19.126  25.747  1.00  0.00     0.332 C 
ATOM     26  C   UNL A   1      33.598  21.082  26.877  1.00  0.00     0.332 C 
ATOM     27  H   UNL A   1      31.992  21.007  25.683  1.00  0.00     0.348 HD
ENDBRANCH  22  24
ENDBRANCH  16  17
ENDBRANCH  15  16
ENDBRANCH   8  15
ENDBRANCH   3   6
ENDBRANCH   1   2
BRANCH   1  28
ATOM     28  C   UNL A   1      31.787  30.934  26.000  1.00  0.00     0.023 C 
BRANCH  28  29
ATOM     29  C   UNL A   1      31.433  32.190  26.802  1.00  0.00     0.023 C 
BRANCH  29  30
ATOM     30  C   UNL A   1      32.632  32.920  27.399  1.00  0.00     0.116 C 
BRANCH  30  31
ATOM     31  N   UNL A   1      32.351  34.312  27.719  1.00  0.00    -0.352 N 
ATOM     32  C   UNL A   1      32.970  35.123  28.637  1.00  0.00     0.251 C 
ATOM     33  H   UNL A   1      31.618  34.727  27.208  1.00  0.00     0.163 HD
ATOM     34  O   UNL A   1      32.537  36.248  28.865  1.00  0.00    -0.269 OA
BRANCH  32  35
ATOM     35  C   UNL A   1      34.138  34.613  29.381  1.00  0.00     0.039 A 
ATOM     36  C   UNL A   1      33.936  34.061  30.648  1.00  0.00     0.014 A 
ATOM     37  C   UNL A   1      35.417  34.653  28.821  1.00  0.00     0.014 A 
ATOM     38  C   UNL A   1      35.010  33.488  31.329  1.00  0.00     0.010 A 
ATOM     39  C   UNL A   1      36.473  34.021  29.470  1.00  0.00     0.010 A 
ATOM     40  C   UNL A   1      36.280  33.433  30.729  1.00  0.00    -0.014 A 
BRANCH  40  41
ATOM     41  C   UNL A   1      37.415  32.756  31.402  1.00  0.00     0.031 A 
ATOM     42  C   UNL A   1      38.095  31.589  30.744  1.00  0.00     0.074 A 
ATOM     43  C   UNL A   1      37.785  33.150  32.635  1.00  0.00     0.049 A 
ATOM     44  N   UNL A   1      39.056  30.826  31.199  1.00  0.00    -0.248 NA
ATOM     45  C   UNL A   1      37.609  31.209  29.408  1.00  0.00     0.031 C 
ATOM     46  C   UNL A   1      37.165  34.235  33.399  1.00  0.00     0.029 A 
ATOM     47  N   UNL A   1      38.765  32.674  33.471  1.00  0.00    -0.354 N 
ATOM     48  C   UNL A   1      39.278  29.872  30.217  1.00  0.00     0.074 A 
ATOM     49  C   UNL A   1      38.317  30.117  29.164  1.00  0.00     0.031 C 
ATOM     50  C   UNL A   1      37.791  34.353  34.580  1.00  0.00     0.029 A 
ATOM     51  C   UNL A   1      38.830  33.333  34.674  1.00  0.00     0.049 A 
ATOM     52  H   UNL A   1      39.364  31.930  33.230  1.00  0.00     0.167 HD
ATOM     53  C   UNL A   1      40.213  28.893  30.188  1.00  0.00     0.037 A 
ATOM     54  C   UNL A   1      39.635  33.132  35.735  1.00  0.00     0.037 A 
ATOM     55  C   UNL A   1      41.185  28.672  31.227  1.00  0.00     0.049 A 
ATOM     56  C   UNL A   1      40.672  32.043  35.673  1.00  0.00     0.074 A 
ATOM     57  C   UNL A   1      42.218  27.753  31.259  1.00  0.00     0.029 A 
ATOM     58  N   UNL A   1      41.238  29.377  32.420  1.00  0.00    -0.354 N 
ATOM     59  N   UNL A   1      40.924  31.195  34.705  1.00  0.00    -0.248 NA
ATOM     60  C   UNL A   1      41.542  31.890  36.846  1.00  0.00     0.031 C 
ATOM     61  C   UNL A   1      42.868  27.871  32.492  1.00  0.00     0.029 A 
ATOM     62  C   UNL A   1      42.274  28.899  33.206  1.00  0.00     0.049 A 
ATOM     63  H   UNL A   1      40.630  30.111  32.671  1.00  0.00     0.167 HD
ATOM     64  C   UNL A   1      41.995  30.427  35.140  1.00  0.00     0.074 A 
ATOM     65  C   UNL A   1      42.356  30.920  36.453  1.00  0.00     0.031 C 
ATOM     66  C   UNL A   1      42.623  29.405  34.509  1.00  0.00     0.037 A 
BRANCH  53  67
ATOM     67  C   UNL A   1      40.233  27.987  28.990  1.00  0.00     0.064 A 
ATOM     68  C   UNL A   1      40.962  28.309  27.835  1.00  0.00     0.173 A 
ATOM     69  C   UNL A   1      39.548  26.764  29.013  1.00  0.00     0.173 A 
ATOM     70  F   UNL A   1      41.626  29.473  27.758  1.00  0.00    -0.203 F 
ATOM     71  C   UNL A   1      40.980  27.454  26.737  1.00  0.00     0.198 A 
ATOM     72  C   UNL A   1      39.594  25.896  27.925  1.00  0.00     0.198 A 
ATOM     73  F   UNL A   1      38.841  26.403  30.095  1.00  0.00    -0.203 F 
ATOM     74  F   UNL A   1      41.643  27.806  25.626  1.00  0.00    -0.200 F 
ATOM     75  C   UNL A   1      40.303  26.246  26.785  1.00  0.00     0.200 A 
ATOM     76  F   UNL A   1      38.949  24.722  27.978  1.00  0.00    -0.200 F 
ATOM     77  F   UNL A   1      40.328  25.419  25.731  1.00  0.00    -0.200 F 
ENDBRANCH  53  67
BRANCH  54  78
ATOM     78  C   UNL A   1      39.508  33.997  36.936  1.00  0.00     0.064 A 
ATOM     79  C   UNL A   1      40.148  35.243  36.998  1.00  0.00     0.173 A 
ATOM     80  C   UNL A   1      38.744  33.601  38.044  1.00  0.00     0.173 A 
ATOM     81  F   UNL A   1      40.905  35.657  35.970  1.00  0.00    -0.203 F 
ATOM     82  C   UNL A   1      40.046  36.050  38.128  1.00  0.00     0.198 A 
ATOM     83  C   UNL A   1      38.620  34.422  39.163  1.00  0.00     0.198 A 
ATOM     84  F   UNL A   1      38.105  32.422  38.032  1.00  0.00    -0.203 F 
ATOM     85  F   UNL A   1      40.705  37.215  38.177  1.00  0.00    -0.200 F 
ATOM     86  C   UNL A   1      39.278  35.641  39.208  1.00  0.00     0.200 A 
ATOM     87  F   UNL A   1      37.865  34.030  40.198  1.00  0.00    -0.200 F 
ATOM     88  F   UNL A   1      39.177  36.421  40.293  1.00  0.00    -0.200 F 
ENDBRANCH  54  78
BRANCH  66  89
ATOM     89  C   UNL A   1      43.786  28.771  35.214  1.00  0.00     0.064 A 
ATOM     90  C   UNL A   1      43.620  27.665  36.060  1.00  0.00     0.173 A 
ATOM     91  C   UNL A   1      45.089  29.251  35.006  1.00  0.00     0.173 A 
ATOM     92  F   UNL A   1      42.394  27.179  36.303  1.00  0.00    -0.203 F 
ATOM     93  C   UNL A   1      44.714  27.078  36.691  1.00  0.00     0.198 A 
ATOM     94  C   UNL A   1      46.182  28.642  35.613  1.00  0.00     0.198 A 
ATOM     95  F   UNL A   1      45.301  30.302  34.200  1.00  0.00    -0.203 F 
ATOM     96  F   UNL A   1      44.527  26.051  37.531  1.00  0.00    -0.200 F 
ATOM     97  C   UNL A   1      45.994  27.561  36.461  1.00  0.00     0.200 A 
ATOM     98  F   UNL A   1      47.419  29.101  35.379  1.00  0.00    -0.200 F 
ATOM     99  F   UNL A   1      47.046  26.988  37.062  1.00  0.00    -0.200 F 
ENDBRANCH  66  89
ENDBRANCH  40  41
ENDBRANCH  32  35
ENDBRANCH  30  31
ENDBRANCH  29  30
ENDBRANCH  28  29
ENDBRANCH   1  28
TORSDOF 16
ENDMDL
MODEL 2
REMARK VINA RESULT:     -11.6      5.667     10.833
REMARK SMILES C[NH2+][C@]1(C(=O)NCCCCNC(=O)c2ccc(-c3c4nc(c(-c5c(F)c(F)c(F)c(F)c5F)c5ccc([nH]5)c(-c5c(F)c(F)c(F)c(F)c5F)c5nc(c(-c6c(F)c(F)c(F)c(F)c6F)c6ccc3[nH]6)C=C5)C=C4)cc2)CCC[C@@H]1CC[N@H+]1CCC[C@H]([NH+](C)C)C1
REMARK SMILES IDX 7 1 6 2 4 3 5 4 3 6 77 7 80 8 78 9 79 10 2 11 1 12 81 15
REMARK SMILES IDX 82 16 83 17 84 18 91 19 85 21 87 22 86 23 88 24 89 25 90 26
REMARK SMILES IDX 8 28 9 29 10 30 11 31 12 32 13 34 14 35 15 36 76 37 16 38
REMARK SMILES IDX 75 39 17 40 18 41 19 42 69 43 20 44 74 45 68 46 70 47 21 48
REMARK SMILES IDX 73 49 67 50 66 51 22 53 54 54 34 55 53 56 35 57 38 58 52 59
REMARK SMILES IDX 71 60 36 61 37 62 51 64 72 65 39 66 23 67 24 68 32 69 25 70
REMARK SMILES IDX 26 71 30 72 33 73 27 74 28 75 31 76 29 77 55 78 56 79 64 80
REMARK SMILES IDX 57 81 58 82 62 83 65 84 59 85 60 86 63 87 61 88 40 89 41 90
REMARK SMILES IDX 49 91 42 92 43 93 47 94 50 95 44 96 45 97 48 98 46 99
REMARK H PARENT 6 5 2 13 2 14 83 20 88 27 11 33 70 52 38 63
REMARK Flexibility Score: inf
ROOT
ATOM      1  C   UNL A   1      36.236  22.040  25.624  1.00  0.00     0.116 C 
ENDROOT
BRANCH   1   2
ATOM      2  N   UNL A   1      35.912  23.413  25.303  1.00  0.00    -0.351 N 
ATOM      3  C   UNL A   1      34.730  24.087  25.262  1.00  0.00     0.281 C 
ATOM      4  O   UNL A   1      34.800  25.243  24.816  1.00  0.00    -0.268 OA
ATOM      5  H   UNL A   1      36.694  23.964  25.069  1.00  0.00     0.163 HD
BRANCH   3   6
ATOM      6  C   UNL A   1      33.373  23.546  25.841  1.00  0.00     0.178 C 
ATOM      7  C   UNL A   1      32.449  24.559  26.533  1.00  0.00     0.079 C 
ATOM      8  C   UNL A   1      32.474  23.038  24.667  1.00  0.00     0.066 C 
ATOM      9  C   UNL A   1      31.067  23.922  26.492  1.00  0.00     0.008 C 
ATOM     10  C   UNL A   1      31.040  23.053  25.233  1.00  0.00     0.011 C 
BRANCH   6  11
ATOM     11  N   UNL A   1      33.677  22.368  26.723  1.00  0.00    -0.336 N 
ATOM     12  C   UNL A   1      33.621  22.624  28.154  1.00  0.00     0.331 C 
ATOM     13  H   UNL A   1      33.002  21.633  26.509  1.00  0.00     0.346 HD
ATOM     14  H   UNL A   1      34.643  22.111  26.523  1.00  0.00     0.346 HD
ENDBRANCH   6  11
BRANCH   8  15
ATOM     15  C   UNL A   1      32.882  21.655  24.111  1.00  0.00     0.072 C 
BRANCH  15  16
ATOM     16  C   UNL A   1      32.196  20.444  24.755  1.00  0.00     0.262 C 
BRANCH  16  17
ATOM     17  N   UNL A   1      32.669  19.109  24.343  1.00  0.00    -0.330 N 
ATOM     18  C   UNL A   1      32.366  18.755  22.953  1.00  0.00     0.262 C 
ATOM     19  C   UNL A   1      34.133  19.032  24.545  1.00  0.00     0.327 C 
ATOM     20  H   UNL A   1      32.164  18.442  24.925  1.00  0.00     0.348 HD
ATOM     21  C   UNL A   1      32.753  17.303  22.676  1.00  0.00     0.068 C 
ATOM     22  C   UNL A   1      34.728  17.615  24.312  1.00  0.00     0.239 C 
ATOM     23  C   UNL A   1      34.224  17.028  22.974  1.00  0.00     0.077 C 
BRANCH  22  24
ATOM     24  N   UNL A   1      34.647  16.657  25.445  1.00  0.00    -0.333 N 
ATOM     25  C   UNL A   1      33.484  15.773  25.317  1.00  0.00     0.332 C 
ATOM     26  C   UNL A   1      35.847  15.853  25.655  1.00  0.00     0.332 C 
ATOM     27  H   UNL A   1      34.550  17.251  26.269  1.00  0.00     0.348 HD
ENDBRANCH  22  24
ENDBRANCH  16  17
ENDBRANCH  15  16
ENDBRANCH   8  15
ENDBRANCH   3   6
ENDBRANCH   1   2
BRANCH   1  28
ATOM     28  C   UNL A   1      37.054  21.415  24.491  1.00  0.00     0.023 C 
BRANCH  28  29
ATOM     29  C   UNL A   1      37.829  20.162  24.907  1.00  0.00     0.023 C 
BRANCH  29  30
ATOM     30  C   UNL A   1      39.007  20.425  25.840  1.00  0.00     0.116 C 
BRANCH  30  31
ATOM     31  N   UNL A   1      39.963  19.329  25.875  1.00  0.00    -0.352 N 
ATOM     32  C   UNL A   1      41.318  19.378  26.085  1.00  0.00     0.251 C 
ATOM     33  H   UNL A   1      39.586  18.430  25.729  1.00  0.00     0.163 HD
ATOM     34  O   UNL A   1      42.003  18.367  25.973  1.00  0.00    -0.269 OA
BRANCH  32  35
ATOM     35  C   UNL A   1      41.954  20.672  26.404  1.00  0.00     0.039 A 
ATOM     36  C   UNL A   1      42.233  21.557  25.359  1.00  0.00     0.014 A 
ATOM     37  C   UNL A   1      42.244  21.021  27.725  1.00  0.00     0.014 A 
ATOM     38  C   UNL A   1      42.746  22.822  25.647  1.00  0.00     0.010 A 
ATOM     39  C   UNL A   1      42.691  22.306  28.015  1.00  0.00     0.010 A 
ATOM     40  C   UNL A   1      42.945  23.218  26.980  1.00  0.00    -0.014 A 
BRANCH  40  41
ATOM     41  C   UNL A   1      43.412  24.587  27.309  1.00  0.00     0.031 A 
ATOM     42  C   UNL A   1      42.453  25.596  27.874  1.00  0.00     0.074 A 
ATOM     43  C   UNL A   1      44.682  24.938  27.035  1.00  0.00     0.049 A 
ATOM     44  N   UNL A   1      42.652  26.857  28.162  1.00  0.00    -0.248 NA
ATOM     45  C   UNL A   1      41.077  25.134  28.118  1.00  0.00     0.031 C 
ATOM     46  C   UNL A   1      45.692  24.062  26.436  1.00  0.00     0.029 A 
ATOM     47  N   UNL A   1      45.340  26.131  27.210  1.00  0.00    -0.354 N 
ATOM     48  C   UNL A   1      41.429  27.341  28.604  1.00  0.00     0.074 A 
ATOM     49  C   UNL A   1      40.480  26.253  28.499  1.00  0.00     0.031 C 
ATOM     50  C   UNL A   1      46.843  24.741  26.312  1.00  0.00     0.029 A 
ATOM     51  C   UNL A   1      46.646  26.106  26.787  1.00  0.00     0.049 A 
ATOM     52  H   UNL A   1      44.914  26.928  27.600  1.00  0.00     0.167 HD
ATOM     53  C   UNL A   1      41.131  28.574  29.077  1.00  0.00     0.037 A 
ATOM     54  C   UNL A   1      47.577  27.079  26.778  1.00  0.00     0.037 A 
ATOM     55  C   UNL A   1      42.086  29.643  29.206  1.00  0.00     0.049 A 
ATOM     56  C   UNL A   1      47.222  28.439  27.318  1.00  0.00     0.074 A 
ATOM     57  C   UNL A   1      41.900  30.905  29.739  1.00  0.00     0.029 A 
ATOM     58  N   UNL A   1      43.409  29.573  28.793  1.00  0.00    -0.354 N 
ATOM     59  N   UNL A   1      46.082  28.863  27.806  1.00  0.00    -0.248 NA
ATOM     60  C   UNL A   1      48.286  29.451  27.313  1.00  0.00     0.031 C 
ATOM     61  C   UNL A   1      43.097  31.617  29.605  1.00  0.00     0.029 A 
ATOM     62  C   UNL A   1      44.044  30.780  29.038  1.00  0.00     0.049 A 
ATOM     63  H   UNL A   1      43.833  28.783  28.386  1.00  0.00     0.167 HD
ATOM     64  C   UNL A   1      46.297  30.179  28.190  1.00  0.00     0.074 A 
ATOM     65  C   UNL A   1      47.683  30.479  27.892  1.00  0.00     0.031 C 
ATOM     66  C   UNL A   1      45.426  31.060  28.741  1.00  0.00     0.037 A 
BRANCH  53  67
ATOM     67  C   UNL A   1      39.712  28.834  29.494  1.00  0.00     0.064 A 
ATOM     68  C   UNL A   1      39.275  28.599  30.807  1.00  0.00     0.173 A 
ATOM     69  C   UNL A   1      38.788  29.361  28.580  1.00  0.00     0.173 A 
ATOM     70  F   UNL A   1      40.116  28.086  31.717  1.00  0.00    -0.203 F 
ATOM     71  C   UNL A   1      37.958  28.856  31.180  1.00  0.00     0.198 A 
ATOM     72  C   UNL A   1      37.480  29.646  28.966  1.00  0.00     0.198 A 
ATOM     73  F   UNL A   1      39.154  29.610  27.313  1.00  0.00    -0.203 F 
ATOM     74  F   UNL A   1      37.552  28.577  32.427  1.00  0.00    -0.200 F 
ATOM     75  C   UNL A   1      37.065  29.385  30.263  1.00  0.00     0.200 A 
ATOM     76  F   UNL A   1      36.621  30.169  28.080  1.00  0.00    -0.200 F 
ATOM     77  F   UNL A   1      35.800  29.639  30.626  1.00  0.00    -0.200 F 
ENDBRANCH  53  67
BRANCH  54  78
ATOM     78  C   UNL A   1      48.941  26.795  26.264  1.00  0.00     0.064 A 
ATOM     79  C   UNL A   1      49.287  27.086  24.937  1.00  0.00     0.173 A 
ATOM     80  C   UNL A   1      49.928  26.229  27.085  1.00  0.00     0.173 A 
ATOM     81  F   UNL A   1      48.371  27.609  24.108  1.00  0.00    -0.203 F 
ATOM     82  C   UNL A   1      50.559  26.805  24.445  1.00  0.00     0.198 A 
ATOM     83  C   UNL A   1      51.210  25.975  26.601  1.00  0.00     0.198 A 
ATOM     84  F   UNL A   1      49.651  25.939  28.365  1.00  0.00    -0.203 F 
ATOM     85  F   UNL A   1      50.848  27.053  23.161  1.00  0.00    -0.200 F 
ATOM     86  C   UNL A   1      51.522  26.255  25.279  1.00  0.00     0.200 A 
ATOM     87  F   UNL A   1      52.141  25.457  27.413  1.00  0.00    -0.200 F 
ATOM     88  F   UNL A   1      52.747  25.989  24.806  1.00  0.00    -0.200 F 
ENDBRANCH  54  78
BRANCH  66  89
ATOM     89  C   UNL A   1      45.951  32.423  29.086  1.00  0.00     0.064 A 
ATOM     90  C   UNL A   1      46.552  32.688  30.325  1.00  0.00     0.173 A 
ATOM     91  C   UNL A   1      45.890  33.464  28.147  1.00  0.00     0.173 A 
ATOM     92  F   UNL A   1      46.621  31.731  31.261  1.00  0.00    -0.203 F 
ATOM     93  C   UNL A   1      47.051  33.954  30.619  1.00  0.00     0.198 A 
ATOM     94  C   UNL A   1      46.418  34.719  28.434  1.00  0.00     0.198 A 
ATOM     95  F   UNL A   1      45.331  33.259  26.945  1.00  0.00    -0.203 F 
ATOM     96  F   UNL A   1      47.580  34.199  31.826  1.00  0.00    -0.200 F 
ATOM     97  C   UNL A   1      46.991  34.966  29.672  1.00  0.00     0.200 A 
ATOM     98  F   UNL A   1      46.372  35.691  27.512  1.00  0.00    -0.200 F 
ATOM     99  F   UNL A   1      47.481  36.180  29.954  1.00  0.00    -0.200 F 
ENDBRANCH  66  89
ENDBRANCH  40  41
ENDBRANCH  32  35
ENDBRANCH  30  31
ENDBRANCH  29  30
ENDBRANCH  28  29
ENDBRANCH   1  28
TORSDOF 16
ENDMDL
MODEL 3
REMARK VINA RESULT:     -11.5      5.677     11.222
REMARK SMILES C[NH2+][C@]1(C(=O)NCCCCNC(=O)c2ccc(-c3c4nc(c(-c5c(F)c(F)c(F)c(F)c5F)c5ccc([nH]5)c(-c5c(F)c(F)c(F)c(F)c5F)c5nc(c(-c6c(F)c(F)c(F)c(F)c6F)c6ccc3[nH]6)C=C5)C=C4)cc2)CCC[C@@H]1CC[N@H+]1CCC[C@H]([NH+](C)C)C1
REMARK SMILES IDX 7 1 6 2 4 3 5 4 3 6 77 7 80 8 78 9 79 10 2 11 1 12 81 15
REMARK SMILES IDX 82 16 83 17 84 18 91 19 85 21 87 22 86 23 88 24 89 25 90 26
REMARK SMILES IDX 8 28 9 29 10 30 11 31 12 32 13 34 14 35 15 36 76 37 16 38
REMARK SMILES IDX 75 39 17 40 18 41 19 42 69 43 20 44 74 45 68 46 70 47 21 48
REMARK SMILES IDX 73 49 67 50 66 51 22 53 54 54 34 55 53 56 35 57 38 58 52 59
REMARK SMILES IDX 71 60 36 61 37 62 51 64 72 65 39 66 23 67 24 68 32 69 25 70
REMARK SMILES IDX 26 71 30 72 33 73 27 74 28 75 31 76 29 77 55 78 56 79 64 80
REMARK SMILES IDX 57 81 58 82 62 83 65 84 59 85 60 86 63 87 61 88 40 89 41 90
REMARK SMILES IDX 49 91 42 92 43 93 47 94 50 95 44 96 45 97 48 98 46 99
REMARK H PARENT 6 5 2 13 2 14 83 20 88 27 11 33 70 52 38 63
REMARK Flexibility Score: inf
ROOT
ATOM      1  C   UNL A   1      37.195  21.162  25.324  1.00  0.00     0.116 C 
ENDROOT
BRANCH   1   2
ATOM      2  N   UNL A   1      36.986  22.098  24.240  1.00  0.00    -0.351 N 
ATOM      3  C   UNL A   1      35.862  22.679  23.739  1.00  0.00     0.281 C 
ATOM      4  O   UNL A   1      36.030  23.346  22.707  1.00  0.00    -0.268 OA
ATOM      5  H   UNL A   1      37.813  22.366  23.777  1.00  0.00     0.163 HD
BRANCH   3   6
ATOM      6  C   UNL A   1      34.454  22.651  24.439  1.00  0.00     0.178 C 
ATOM      7  C   UNL A   1      33.997  21.316  25.046  1.00  0.00     0.079 C 
ATOM      8  C   UNL A   1      34.480  23.584  25.692  1.00  0.00     0.066 C 
ATOM      9  C   UNL A   1      32.939  21.694  26.073  1.00  0.00     0.008 C 
ATOM     10  C   UNL A   1      33.321  23.087  26.578  1.00  0.00     0.011 C 
BRANCH   6  11
ATOM     11  N   UNL A   1      33.443  23.208  23.478  1.00  0.00    -0.336 N 
ATOM     12  C   UNL A   1      32.606  22.225  22.807  1.00  0.00     0.331 C 
ATOM     13  H   UNL A   1      32.831  23.839  23.997  1.00  0.00     0.346 HD
ATOM     14  H   UNL A   1      33.979  23.667  22.742  1.00  0.00     0.346 HD
ENDBRANCH   6  11
BRANCH   8  15
ATOM     15  C   UNL A   1      34.376  25.090  25.361  1.00  0.00     0.072 C 
BRANCH  15  16
ATOM     16  C   UNL A   1      33.124  25.806  25.882  1.00  0.00     0.262 C 
BRANCH  16  17
ATOM     17  N   UNL A   1      32.044  26.058  24.909  1.00  0.00    -0.330 N 
ATOM     18  C   UNL A   1      30.903  25.143  25.010  1.00  0.00     0.262 C 
ATOM     19  C   UNL A   1      31.557  27.446  25.077  1.00  0.00     0.327 C 
ATOM     20  H   UNL A   1      32.455  25.904  23.990  1.00  0.00     0.348 HD
ATOM     21  C   UNL A   1      29.922  25.386  23.866  1.00  0.00     0.068 C 
ATOM     22  C   UNL A   1      30.537  27.892  23.993  1.00  0.00     0.239 C 
ATOM     23  C   UNL A   1      29.428  26.830  23.822  1.00  0.00     0.077 C 
BRANCH  22  24
ATOM     24  N   UNL A   1      31.095  28.378  22.704  1.00  0.00    -0.333 N 
ATOM     25  C   UNL A   1      30.303  29.487  22.162  1.00  0.00     0.332 C 
ATOM     26  C   UNL A   1      32.502  28.763  22.753  1.00  0.00     0.332 C 
ATOM     27  H   UNL A   1      31.039  27.569  22.085  1.00  0.00     0.348 HD
ENDBRANCH  22  24
ENDBRANCH  16  17
ENDBRANCH  15  16
ENDBRANCH   8  15
ENDBRANCH   3   6
ENDBRANCH   1   2
BRANCH   1  28
ATOM     28  C   UNL A   1      37.215  19.731  24.783  1.00  0.00     0.023 C 
BRANCH  28  29
ATOM     29  C   UNL A   1      38.331  18.863  25.372  1.00  0.00     0.023 C 
BRANCH  29  30
ATOM     30  C   UNL A   1      39.549  19.642  25.860  1.00  0.00     0.116 C 
BRANCH  30  31
ATOM     31  N   UNL A   1      40.754  18.829  25.932  1.00  0.00    -0.352 N 
ATOM     32  C   UNL A   1      42.049  19.232  26.139  1.00  0.00     0.251 C 
ATOM     33  H   UNL A   1      40.622  17.860  25.817  1.00  0.00     0.163 HD
ATOM     34  O   UNL A   1      42.971  18.428  26.062  1.00  0.00    -0.269 OA
BRANCH  32  35
ATOM     35  C   UNL A   1      42.329  20.656  26.414  1.00  0.00     0.039 A 
ATOM     36  C   UNL A   1      42.528  21.056  27.738  1.00  0.00     0.014 A 
ATOM     37  C   UNL A   1      42.423  21.581  25.372  1.00  0.00     0.014 A 
ATOM     38  C   UNL A   1      42.886  22.376  28.011  1.00  0.00     0.010 A 
ATOM     39  C   UNL A   1      42.847  22.879  25.640  1.00  0.00     0.010 A 
ATOM     40  C   UNL A   1      43.083  23.289  26.960  1.00  0.00    -0.014 A 
BRANCH  40  41
ATOM     41  C   UNL A   1      43.542  24.673  27.226  1.00  0.00     0.031 A 
ATOM     42  C   UNL A   1      42.583  25.696  27.763  1.00  0.00     0.074 A 
ATOM     43  C   UNL A   1      44.805  25.024  26.916  1.00  0.00     0.049 A 
ATOM     44  N   UNL A   1      42.775  26.970  27.996  1.00  0.00    -0.248 NA
ATOM     45  C   UNL A   1      41.215  25.234  28.049  1.00  0.00     0.031 C 
ATOM     46  C   UNL A   1      45.813  24.133  26.338  1.00  0.00     0.029 A 
ATOM     47  N   UNL A   1      45.454  26.228  27.032  1.00  0.00    -0.354 N 
ATOM     48  C   UNL A   1      41.555  27.461  28.438  1.00  0.00     0.074 A 
ATOM     49  C   UNL A   1      40.615  26.363  28.393  1.00  0.00     0.031 C 
ATOM     50  C   UNL A   1      46.956  24.815  26.167  1.00  0.00     0.029 A 
ATOM     51  C   UNL A   1      46.753  26.197  26.590  1.00  0.00     0.049 A 
ATOM     52  H   UNL A   1      45.028  27.037  27.396  1.00  0.00     0.167 HD
ATOM     53  C   UNL A   1      41.253  28.710  28.865  1.00  0.00     0.037 A 
ATOM     54  C   UNL A   1      47.676  27.177  26.526  1.00  0.00     0.037 A 
ATOM     55  C   UNL A   1      42.201  29.792  28.935  1.00  0.00     0.049 A 
ATOM     56  C   UNL A   1      47.317  28.554  27.015  1.00  0.00     0.074 A 
ATOM     57  C   UNL A   1      42.011  31.074  29.419  1.00  0.00     0.029 A 
ATOM     58  N   UNL A   1      43.517  29.716  28.504  1.00  0.00    -0.354 N 
ATOM     59  N   UNL A   1      46.181  28.988  27.504  1.00  0.00    -0.248 NA
ATOM     60  C   UNL A   1      48.372  29.574  26.952  1.00  0.00     0.031 C 
ATOM     61  C   UNL A   1      43.199  31.789  29.237  1.00  0.00     0.029 A 
ATOM     62  C   UNL A   1      44.145  30.937  28.689  1.00  0.00     0.049 A 
ATOM     63  H   UNL A   1      43.942  28.914  28.122  1.00  0.00     0.167 HD
ATOM     64  C   UNL A   1      46.390  30.321  27.830  1.00  0.00     0.074 A 
ATOM     65  C   UNL A   1      47.768  30.620  27.498  1.00  0.00     0.031 C 
ATOM     66  C   UNL A   1      45.520  31.216  28.358  1.00  0.00     0.037 A 
BRANCH  53  67
ATOM     67  C   UNL A   1      39.838  28.975  29.294  1.00  0.00     0.064 A 
ATOM     68  C   UNL A   1      38.869  29.437  28.390  1.00  0.00     0.173 A 
ATOM     69  C   UNL A   1      39.437  28.726  30.614  1.00  0.00     0.173 A 
ATOM     70  F   UNL A   1      39.203  29.701  27.118  1.00  0.00    -0.203 F 
ATOM     71  C   UNL A   1      37.559  29.667  28.801  1.00  0.00     0.198 A 
ATOM     72  C   UNL A   1      38.118  28.928  31.013  1.00  0.00     0.198 A 
ATOM     73  F   UNL A   1      40.322  28.278  31.518  1.00  0.00    -0.203 F 
ATOM     74  F   UNL A   1      36.663  30.155  27.931  1.00  0.00    -0.200 F 
ATOM     75  C   UNL A   1      37.183  29.406  30.108  1.00  0.00     0.200 A 
ATOM     76  F   UNL A   1      37.754  28.662  32.276  1.00  0.00    -0.200 F 
ATOM     77  F   UNL A   1      35.919  29.620  30.500  1.00  0.00    -0.200 F 
ENDBRANCH  53  67
BRANCH  54  78
ATOM     78  C   UNL A   1      49.034  26.883  26.002  1.00  0.00     0.064 A 
ATOM     79  C   UNL A   1      50.041  26.392  26.845  1.00  0.00     0.173 A 
ATOM     80  C   UNL A   1      49.355  27.082  24.651  1.00  0.00     0.173 A 
ATOM     81  F   UNL A   1      49.788  26.204  28.149  1.00  0.00    -0.203 F 
ATOM     82  C   UNL A   1      51.322  26.132  26.363  1.00  0.00     0.198 A 
ATOM     83  C   UNL A   1      50.628  26.794  24.164  1.00  0.00     0.198 A 
ATOM     84  F   UNL A   1      48.425  27.542  23.801  1.00  0.00    -0.203 F 
ATOM     85  F   UNL A   1      52.277  25.706  27.201  1.00  0.00    -0.200 F 
ATOM     86  C   UNL A   1      51.613  26.327  25.021  1.00  0.00     0.200 A 
ATOM     87  F   UNL A   1      50.901  26.970  22.864  1.00  0.00    -0.200 F 
ATOM     88  F   UNL A   1      52.843  26.072  24.557  1.00  0.00    -0.200 F 
ENDBRANCH  54  78
BRANCH  66  89
ATOM     89  C   UNL A   1      46.038  32.597  28.639  1.00  0.00     0.064 A 
ATOM     90  C   UNL A   1      46.673  32.913  29.849  1.00  0.00     0.173 A 
ATOM     91  C   UNL A   1      45.935  33.603  27.666  1.00  0.00     0.173 A 
ATOM     92  F   UNL A   1      46.782  31.990  30.815  1.00  0.00    -0.203 F 
ATOM     93  C   UNL A   1      47.165  34.195  30.083  1.00  0.00     0.198 A 
ATOM     94  C   UNL A   1      46.456  34.873  27.892  1.00  0.00     0.198 A 
ATOM     95  F   UNL A   1      45.343  33.349  26.489  1.00  0.00    -0.203 F 
ATOM     96  F   UNL A   1      47.727  34.488  31.263  1.00  0.00    -0.200 F 
ATOM     97  C   UNL A   1      47.063  35.171  29.102  1.00  0.00     0.200 A 
ATOM     98  F   UNL A   1      46.370  35.811  26.938  1.00  0.00    -0.200 F 
ATOM     99  F   UNL A   1      47.546  36.400  29.327  1.00  0.00    -0.200 F 
ENDBRANCH  66  89
ENDBRANCH  40  41
ENDBRANCH  32  35
ENDBRANCH  30  31
ENDBRANCH  29  30
ENDBRANCH  28  29
ENDBRANCH   1  28
TORSDOF 16
ENDMDL
