MODEL 1
REMARK VINA RESULT:     -13.1      0.000      0.000
REMARK SMILES C[N@@H+]1CCN(C(=O)c2cc(-n3cccn3)ccc2Cl)C[C@H]1C(=O)NCCCCNC(=O)c1ccc(-c2c3nc(c(-c4c(F)c(F)c(F)c(F)c4F)c4ccc([nH]4)c(-c4c(F)c(F)c(F)c(F)c4F)c4nc(c(-c5c(F)c(F)c(F)c(F)c5F)c5ccc2[nH]5)C=C4)C=C3)cc1
REMARK SMILES IDX 26 1 25 2 24 3 22 4 23 5 21 7 1 8 2 9 3 10 4 12 20 13 5 14
REMARK SMILES IDX 6 15 7 16 8 17 9 18 18 19 10 20 17 21 19 22 16 23 11 24
REMARK SMILES IDX 12 25 15 26 13 27 14 28 27 29 28 30 29 31 30 32 31 34 32 35
REMARK SMILES IDX 33 36 94 37 34 38 93 39 35 40 36 41 37 42 87 43 38 44 92 45
REMARK SMILES IDX 86 46 88 47 39 48 91 49 85 50 84 51 40 53 72 54 52 55 71 56
REMARK SMILES IDX 53 57 56 58 70 59 89 60 54 61 55 62 69 64 90 65 57 66 41 67
REMARK SMILES IDX 42 68 50 69 43 70 44 71 48 72 51 73 45 74 46 75 49 76 47 77
REMARK SMILES IDX 73 78 74 79 82 80 75 81 76 82 80 83 83 84 77 85 78 86 81 87
REMARK SMILES IDX 79 88 58 89 59 90 67 91 60 92 61 93 65 94 68 95 62 96 63 97
REMARK SMILES IDX 66 98 64 99
REMARK H PARENT 24 6 2 11 29 33 88 52 56 63
REMARK Flexibility Score: inf
ROOT
ATOM      1  C   UNL A   1      36.335  20.871  24.814  1.00  0.00     0.023 C 
ENDROOT
BRANCH   1   2
ATOM      2  C   UNL A   1      36.549  22.108  25.686  1.00  0.00     0.116 C 
BRANCH   2   3
ATOM      3  N   UNL A   1      35.632  22.164  26.811  1.00  0.00    -0.351 N 
ATOM      4  C   UNL A   1      34.368  22.680  26.874  1.00  0.00     0.280 C 
ATOM      5  O   UNL A   1      33.784  22.639  27.961  1.00  0.00    -0.268 OA
ATOM      6  H   UNL A   1      35.970  21.774  27.650  1.00  0.00     0.163 HD
BRANCH   4   7
ATOM      7  C   UNL A   1      33.667  23.233  25.623  1.00  0.00     0.293 C 
ATOM      8  C   UNL A   1      32.427  21.177  25.166  1.00  0.00     0.333 C 
ATOM      9  N   UNL A   1      32.321  22.618  25.415  1.00  0.00    -0.324 N 
ATOM     10  C   UNL A   1      31.652  23.280  24.271  1.00  0.00     0.284 C 
ATOM     11  H   UNL A   1      31.768  22.750  26.263  1.00  0.00     0.348 HD
ATOM     12  C   UNL A   1      31.558  24.809  24.436  1.00  0.00     0.181 C 
ATOM     13  C   UNL A   1      33.642  24.772  25.753  1.00  0.00     0.195 C 
ATOM     14  N   UNL A   1      32.865  25.416  24.690  1.00  0.00    -0.326 N 
BRANCH  14  15
ATOM     15  C   UNL A   1      33.167  26.644  24.115  1.00  0.00     0.255 C 
ATOM     16  O   UNL A   1      33.974  26.787  23.201  1.00  0.00    -0.269 OA
BRANCH  15  17
ATOM     17  C   UNL A   1      32.467  27.854  24.594  1.00  0.00     0.060 A 
ATOM     18  C   UNL A   1      31.326  28.270  23.888  1.00  0.00     0.043 A 
ATOM     19  C   UNL A   1      32.962  28.625  25.656  1.00  0.00     0.053 A 
ATOM     20  C   UNL A   1      30.703  29.473  24.239  1.00  0.00     0.065 A 
ATOM     21  C   UNL A   1      32.275  29.772  26.057  1.00  0.00     0.023 A 
ATOM     22  Cl  UNL A   1      34.423  28.243  26.496  1.00  0.00    -0.083 Cl
ATOM     23  C   UNL A   1      31.160  30.210  25.341  1.00  0.00     0.030 A 
BRANCH  20  24
ATOM     24  N   UNL A   1      29.639  29.978  23.454  1.00  0.00    -0.241 N 
ATOM     25  C   UNL A   1      29.046  29.353  22.378  1.00  0.00     0.115 A 
ATOM     26  N   UNL A   1      29.065  31.177  23.712  1.00  0.00    -0.177 NA
ATOM     27  C   UNL A   1      28.080  30.205  21.901  1.00  0.00     0.042 A 
ATOM     28  C   UNL A   1      28.165  31.329  22.738  1.00  0.00     0.135 A 
ENDBRANCH  20  24
ENDBRANCH  15  17
ENDBRANCH  14  15
ENDBRANCH   4   7
ENDBRANCH   2   3
ENDBRANCH   1   2
BRANCH   1  29
ATOM     29  C   UNL A   1      37.403  19.780  24.937  1.00  0.00     0.023 C 
BRANCH  29  30
ATOM     30  C   UNL A   1      38.728  20.262  25.505  1.00  0.00     0.116 C 
BRANCH  30  31
ATOM     31  N   UNL A   1      39.702  19.188  25.689  1.00  0.00    -0.352 N 
ATOM     32  C   UNL A   1      41.057  19.312  25.956  1.00  0.00     0.251 C 
ATOM     33  H   UNL A   1      39.357  18.270  25.612  1.00  0.00     0.163 HD
ATOM     34  O   UNL A   1      41.836  18.405  25.735  1.00  0.00    -0.269 OA
BRANCH  32  35
ATOM     35  C   UNL A   1      41.532  20.581  26.536  1.00  0.00     0.039 A 
ATOM     36  C   UNL A   1      42.122  21.574  25.748  1.00  0.00     0.014 A 
ATOM     37  C   UNL A   1      41.341  20.768  27.901  1.00  0.00     0.014 A 
ATOM     38  C   UNL A   1      42.449  22.793  26.340  1.00  0.00     0.010 A 
ATOM     39  C   UNL A   1      41.507  22.013  28.442  1.00  0.00     0.010 A 
ATOM     40  C   UNL A   1      42.122  23.008  27.687  1.00  0.00    -0.014 A 
BRANCH  40  41
ATOM     41  C   UNL A   1      42.291  24.313  28.318  1.00  0.00     0.031 A 
ATOM     42  C   UNL A   1      41.142  25.241  28.110  1.00  0.00     0.074 A 
ATOM     43  C   UNL A   1      43.264  24.526  29.232  1.00  0.00     0.049 A 
ATOM     44  N   UNL A   1      41.151  26.400  27.539  1.00  0.00    -0.248 NA
ATOM     45  C   UNL A   1      39.790  24.766  28.458  1.00  0.00     0.031 C 
ATOM     46  C   UNL A   1      44.250  23.561  29.740  1.00  0.00     0.029 A 
ATOM     47  N   UNL A   1      43.505  25.618  30.008  1.00  0.00    -0.354 N 
ATOM     48  C   UNL A   1      39.849  26.892  27.643  1.00  0.00     0.074 A 
ATOM     49  C   UNL A   1      39.031  25.774  28.026  1.00  0.00     0.031 C 
ATOM     50  C   UNL A   1      44.795  24.022  30.886  1.00  0.00     0.029 A 
ATOM     51  C   UNL A   1      44.332  25.377  31.104  1.00  0.00     0.049 A 
ATOM     52  H   UNL A   1      43.125  26.505  29.812  1.00  0.00     0.167 HD
ATOM     53  C   UNL A   1      39.618  28.235  27.679  1.00  0.00     0.037 A 
ATOM     54  C   UNL A   1      44.580  26.225  32.135  1.00  0.00     0.037 A 
ATOM     55  C   UNL A   1      40.764  28.955  27.172  1.00  0.00     0.049 A 
ATOM     56  C   UNL A   1      44.192  27.584  31.682  1.00  0.00     0.074 A 
ATOM     57  C   UNL A   1      41.446  28.989  25.973  1.00  0.00     0.029 A 
ATOM     58  N   UNL A   1      41.607  29.527  28.093  1.00  0.00    -0.354 N 
ATOM     59  N   UNL A   1      44.815  28.236  30.740  1.00  0.00    -0.248 NA
ATOM     60  C   UNL A   1      42.826  28.009  31.943  1.00  0.00     0.031 C 
ATOM     61  C   UNL A   1      42.820  29.127  26.332  1.00  0.00     0.029 A 
ATOM     62  C   UNL A   1      42.893  29.248  27.720  1.00  0.00     0.049 A 
ATOM     63  H   UNL A   1      41.333  30.046  28.883  1.00  0.00     0.167 HD
ATOM     64  C   UNL A   1      43.802  28.829  29.998  1.00  0.00     0.074 A 
ATOM     65  C   UNL A   1      42.607  28.718  30.833  1.00  0.00     0.031 C 
ATOM     66  C   UNL A   1      43.969  29.076  28.666  1.00  0.00     0.037 A 
BRANCH  53  67
ATOM     67  C   UNL A   1      38.591  28.911  28.575  1.00  0.00     0.064 A 
ATOM     68  C   UNL A   1      37.752  29.894  28.002  1.00  0.00     0.173 A 
ATOM     69  C   UNL A   1      38.621  28.904  29.986  1.00  0.00     0.173 A 
ATOM     70  F   UNL A   1      37.613  29.985  26.670  1.00  0.00    -0.203 F 
ATOM     71  C   UNL A   1      37.131  30.881  28.771  1.00  0.00     0.198 A 
ATOM     72  C   UNL A   1      37.959  29.863  30.753  1.00  0.00     0.198 A 
ATOM     73  F   UNL A   1      39.361  28.045  30.691  1.00  0.00    -0.203 F 
ATOM     74  F   UNL A   1      36.483  31.885  28.164  1.00  0.00    -0.200 F 
ATOM     75  C   UNL A   1      37.253  30.877  30.146  1.00  0.00     0.200 A 
ATOM     76  F   UNL A   1      38.092  29.843  32.087  1.00  0.00    -0.200 F 
ATOM     77  F   UNL A   1      36.731  31.868  30.880  1.00  0.00    -0.200 F 
ENDBRANCH  53  67
BRANCH  54  78
ATOM     78  C   UNL A   1      44.813  25.907  33.566  1.00  0.00     0.064 A 
ATOM     79  C   UNL A   1      43.744  25.595  34.424  1.00  0.00     0.173 A 
ATOM     80  C   UNL A   1      46.105  25.622  34.051  1.00  0.00     0.173 A 
ATOM     81  F   UNL A   1      42.480  25.792  34.023  1.00  0.00    -0.203 F 
ATOM     82  C   UNL A   1      43.954  25.010  35.678  1.00  0.00     0.198 A 
ATOM     83  C   UNL A   1      46.313  25.044  35.306  1.00  0.00     0.198 A 
ATOM     84  F   UNL A   1      47.185  25.808  33.280  1.00  0.00    -0.203 F 
ATOM     85  F   UNL A   1      42.907  24.669  36.441  1.00  0.00    -0.200 F 
ATOM     86  C   UNL A   1      45.238  24.725  36.112  1.00  0.00     0.200 A 
ATOM     87  F   UNL A   1      47.559  24.741  35.699  1.00  0.00    -0.200 F 
ATOM     88  F   UNL A   1      45.437  24.108  37.287  1.00  0.00    -0.200 F 
ENDBRANCH  54  78
BRANCH  66  89
ATOM     89  C   UNL A   1      45.354  28.950  28.096  1.00  0.00     0.064 A 
ATOM     90  C   UNL A   1      45.882  27.768  27.547  1.00  0.00     0.173 A 
ATOM     91  C   UNL A   1      46.119  30.116  27.970  1.00  0.00     0.173 A 
ATOM     92  F   UNL A   1      45.174  26.633  27.540  1.00  0.00    -0.203 F 
ATOM     93  C   UNL A   1      47.136  27.751  26.937  1.00  0.00     0.198 A 
ATOM     94  C   UNL A   1      47.353  30.104  27.327  1.00  0.00     0.198 A 
ATOM     95  F   UNL A   1      45.641  31.283  28.428  1.00  0.00    -0.203 F 
ATOM     96  F   UNL A   1      47.623  26.608  26.431  1.00  0.00    -0.200 F 
ATOM     97  C   UNL A   1      47.866  28.921  26.821  1.00  0.00     0.200 A 
ATOM     98  F   UNL A   1      48.032  31.249  27.174  1.00  0.00    -0.200 F 
ATOM     99  F   UNL A   1      49.053  28.916  26.198  1.00  0.00    -0.200 F 
ENDBRANCH  66  89
ENDBRANCH  40  41
ENDBRANCH  32  35
ENDBRANCH  30  31
ENDBRANCH  29  30
ENDBRANCH   1  29
TORSDOF 14
ENDMDL
MODEL 2
REMARK VINA RESULT:     -13.1      2.843      7.197
REMARK SMILES C[N@@H+]1CCN(C(=O)c2cc(-n3cccn3)ccc2Cl)C[C@H]1C(=O)NCCCCNC(=O)c1ccc(-c2c3nc(c(-c4c(F)c(F)c(F)c(F)c4F)c4ccc([nH]4)c(-c4c(F)c(F)c(F)c(F)c4F)c4nc(c(-c5c(F)c(F)c(F)c(F)c5F)c5ccc2[nH]5)C=C4)C=C3)cc1
REMARK SMILES IDX 26 1 25 2 24 3 22 4 23 5 21 7 1 8 2 9 3 10 4 12 20 13 5 14
REMARK SMILES IDX 6 15 7 16 8 17 9 18 18 19 10 20 17 21 19 22 16 23 11 24
REMARK SMILES IDX 12 25 15 26 13 27 14 28 27 29 28 30 29 31 30 32 31 34 32 35
REMARK SMILES IDX 33 36 94 37 34 38 93 39 35 40 36 41 37 42 87 43 38 44 92 45
REMARK SMILES IDX 86 46 88 47 39 48 91 49 85 50 84 51 40 53 72 54 52 55 71 56
REMARK SMILES IDX 53 57 56 58 70 59 89 60 54 61 55 62 69 64 90 65 57 66 41 67
REMARK SMILES IDX 42 68 50 69 43 70 44 71 48 72 51 73 45 74 46 75 49 76 47 77
REMARK SMILES IDX 73 78 74 79 82 80 75 81 76 82 80 83 83 84 77 85 78 86 81 87
REMARK SMILES IDX 79 88 58 89 59 90 67 91 60 92 61 93 65 94 68 95 62 96 63 97
REMARK SMILES IDX 66 98 64 99
REMARK H PARENT 24 6 2 11 29 33 88 52 56 63
REMARK Flexibility Score: inf
ROOT
ATOM      1  C   UNL A   1      37.951  23.575  26.127  1.00  0.00     0.023 C 
ENDROOT
BRANCH   1   2
ATOM      2  C   UNL A   1      36.433  23.703  26.004  1.00  0.00     0.116 C 
BRANCH   2   3
ATOM      3  N   UNL A   1      35.722  22.724  26.807  1.00  0.00    -0.351 N 
ATOM      4  C   UNL A   1      34.392  22.409  26.813  1.00  0.00     0.280 C 
ATOM      5  O   UNL A   1      34.009  21.551  27.613  1.00  0.00    -0.268 OA
ATOM      6  H   UNL A   1      36.279  22.213  27.439  1.00  0.00     0.163 HD
BRANCH   4   7
ATOM      7  C   UNL A   1      33.415  23.051  25.817  1.00  0.00     0.293 C 
ATOM      8  C   UNL A   1      34.130  21.677  23.926  1.00  0.00     0.333 C 
ATOM      9  N   UNL A   1      32.991  22.093  24.750  1.00  0.00    -0.324 N 
ATOM     10  C   UNL A   1      31.960  22.733  23.900  1.00  0.00     0.284 C 
ATOM     11  H   UNL A   1      32.605  21.260  25.195  1.00  0.00     0.348 HD
ATOM     12  C   UNL A   1      30.755  23.251  24.708  1.00  0.00     0.181 C 
ATOM     13  C   UNL A   1      32.243  23.639  26.635  1.00  0.00     0.195 C 
ATOM     14  N   UNL A   1      31.164  24.151  25.787  1.00  0.00    -0.326 N 
BRANCH  14  15
ATOM     15  C   UNL A   1      30.380  25.261  26.079  1.00  0.00     0.255 C 
ATOM     16  O   UNL A   1      29.384  25.220  26.796  1.00  0.00    -0.269 OA
BRANCH  15  17
ATOM     17  C   UNL A   1      30.766  26.577  25.530  1.00  0.00     0.060 A 
ATOM     18  C   UNL A   1      31.793  27.279  26.181  1.00  0.00     0.043 A 
ATOM     19  C   UNL A   1      30.079  27.163  24.457  1.00  0.00     0.053 A 
ATOM     20  C   UNL A   1      32.109  28.577  25.763  1.00  0.00     0.065 A 
ATOM     21  C   UNL A   1      30.468  28.420  23.989  1.00  0.00     0.023 A 
ATOM     22  Cl  UNL A   1      28.728  26.414  23.682  1.00  0.00    -0.083 Cl
ATOM     23  C   UNL A   1      31.466  29.137  24.650  1.00  0.00     0.030 A 
BRANCH  20  24
ATOM     24  N   UNL A   1      33.044  29.351  26.493  1.00  0.00    -0.241 N 
ATOM     25  C   UNL A   1      34.261  28.925  26.976  1.00  0.00     0.115 A 
ATOM     26  N   UNL A   1      32.821  30.655  26.782  1.00  0.00    -0.177 NA
ATOM     27  C   UNL A   1      34.825  29.987  27.640  1.00  0.00     0.042 A 
ATOM     28  C   UNL A   1      33.875  31.014  27.520  1.00  0.00     0.135 A 
ENDBRANCH  20  24
ENDBRANCH  15  17
ENDBRANCH  14  15
ENDBRANCH   4   7
ENDBRANCH   2   3
ENDBRANCH   1   2
BRANCH   1  29
ATOM     29  C   UNL A   1      38.537  22.217  25.727  1.00  0.00     0.023 C 
BRANCH  29  30
ATOM     30  C   UNL A   1      39.681  21.745  26.609  1.00  0.00     0.116 C 
BRANCH  30  31
ATOM     31  N   UNL A   1      40.969  21.721  25.919  1.00  0.00    -0.352 N 
ATOM     32  C   UNL A   1      41.850  22.775  25.735  1.00  0.00     0.251 C 
ATOM     33  H   UNL A   1      41.243  20.855  25.538  1.00  0.00     0.163 HD
ATOM     34  O   UNL A   1      42.696  22.755  24.861  1.00  0.00    -0.269 OA
BRANCH  32  35
ATOM     35  C   UNL A   1      41.744  23.928  26.647  1.00  0.00     0.039 A 
ATOM     36  C   UNL A   1      42.259  23.889  27.947  1.00  0.00     0.014 A 
ATOM     37  C   UNL A   1      41.138  25.078  26.151  1.00  0.00     0.014 A 
ATOM     38  C   UNL A   1      42.223  25.050  28.717  1.00  0.00     0.010 A 
ATOM     39  C   UNL A   1      41.251  26.253  26.841  1.00  0.00     0.010 A 
ATOM     40  C   UNL A   1      41.730  26.233  28.148  1.00  0.00    -0.014 A 
BRANCH  40  41
ATOM     41  C   UNL A   1      41.814  27.512  28.845  1.00  0.00     0.031 A 
ATOM     42  C   UNL A   1      42.960  28.364  28.416  1.00  0.00     0.074 A 
ATOM     43  C   UNL A   1      40.781  27.973  29.586  1.00  0.00     0.049 A 
ATOM     44  N   UNL A   1      43.935  28.807  29.139  1.00  0.00    -0.248 NA
ATOM     45  C   UNL A   1      43.119  28.646  26.977  1.00  0.00     0.031 C 
ATOM     46  C   UNL A   1      39.474  27.337  29.802  1.00  0.00     0.029 A 
ATOM     47  N   UNL A   1      40.622  29.175  30.203  1.00  0.00    -0.354 N 
ATOM     48  C   UNL A   1      44.715  29.598  28.293  1.00  0.00     0.074 A 
ATOM     49  C   UNL A   1      44.284  29.295  26.956  1.00  0.00     0.031 C 
ATOM     50  C   UNL A   1      38.593  28.247  30.272  1.00  0.00     0.029 A 
ATOM     51  C   UNL A   1      39.306  29.477  30.551  1.00  0.00     0.049 A 
ATOM     52  H   UNL A   1      41.374  29.783  30.389  1.00  0.00     0.167 HD
ATOM     53  C   UNL A   1      45.446  30.633  28.794  1.00  0.00     0.037 A 
ATOM     54  C   UNL A   1      38.838  30.671  30.998  1.00  0.00     0.037 A 
ATOM     55  C   UNL A   1      45.621  30.480  30.220  1.00  0.00     0.049 A 
ATOM     56  C   UNL A   1      40.011  31.446  31.472  1.00  0.00     0.074 A 
ATOM     57  C   UNL A   1      46.196  29.529  31.039  1.00  0.00     0.029 A 
ATOM     58  N   UNL A   1      44.818  31.236  31.039  1.00  0.00    -0.354 N 
ATOM     59  N   UNL A   1      40.723  31.115  32.514  1.00  0.00    -0.248 NA
ATOM     60  C   UNL A   1      40.674  32.310  30.508  1.00  0.00     0.031 C 
ATOM     61  C   UNL A   1      45.344  29.461  32.182  1.00  0.00     0.029 A 
ATOM     62  C   UNL A   1      44.346  30.426  32.035  1.00  0.00     0.049 A 
ATOM     63  H   UNL A   1      44.617  32.193  30.928  1.00  0.00     0.167 HD
ATOM     64  C   UNL A   1      42.035  31.344  32.127  1.00  0.00     0.074 A 
ATOM     65  C   UNL A   1      41.936  32.154  30.913  1.00  0.00     0.031 C 
ATOM     66  C   UNL A   1      43.056  30.607  32.654  1.00  0.00     0.037 A 
BRANCH  53  67
ATOM     67  C   UNL A   1      45.601  31.988  28.119  1.00  0.00     0.064 A 
ATOM     68  C   UNL A   1      44.430  32.663  27.705  1.00  0.00     0.173 A 
ATOM     69  C   UNL A   1      46.799  32.478  27.559  1.00  0.00     0.173 A 
ATOM     70  F   UNL A   1      43.228  32.311  28.188  1.00  0.00    -0.203 F 
ATOM     71  C   UNL A   1      44.447  33.632  26.698  1.00  0.00     0.198 A 
ATOM     72  C   UNL A   1      46.817  33.481  26.589  1.00  0.00     0.198 A 
ATOM     73  F   UNL A   1      47.997  31.957  27.838  1.00  0.00    -0.203 F 
ATOM     74  F   UNL A   1      43.292  34.121  26.228  1.00  0.00    -0.200 F 
ATOM     75  C   UNL A   1      45.640  34.025  26.125  1.00  0.00     0.200 A 
ATOM     76  F   UNL A   1      47.986  33.847  26.044  1.00  0.00    -0.200 F 
ATOM     77  F   UNL A   1      45.654  34.889  25.103  1.00  0.00    -0.200 F 
ENDBRANCH  53  67
BRANCH  54  78
ATOM     78  C   UNL A   1      37.521  31.306  30.746  1.00  0.00     0.064 A 
ATOM     79  C   UNL A   1      36.561  31.418  31.767  1.00  0.00     0.173 A 
ATOM     80  C   UNL A   1      37.286  32.069  29.585  1.00  0.00     0.173 A 
ATOM     81  F   UNL A   1      36.730  30.762  32.924  1.00  0.00    -0.203 F 
ATOM     82  C   UNL A   1      35.451  32.262  31.644  1.00  0.00     0.198 A 
ATOM     83  C   UNL A   1      36.174  32.905  29.461  1.00  0.00     0.198 A 
ATOM     84  F   UNL A   1      38.181  32.094  28.586  1.00  0.00    -0.203 F 
ATOM     85  F   UNL A   1      34.592  32.391  32.664  1.00  0.00    -0.200 F 
ATOM     86  C   UNL A   1      35.265  33.013  30.495  1.00  0.00     0.200 A 
ATOM     87  F   UNL A   1      36.025  33.654  28.358  1.00  0.00    -0.200 F 
ATOM     88  F   UNL A   1      34.236  33.868  30.401  1.00  0.00    -0.200 F 
ENDBRANCH  54  78
BRANCH  66  89
ATOM     89  C   UNL A   1      42.756  29.747  33.850  1.00  0.00     0.064 A 
ATOM     90  C   UNL A   1      42.233  28.443  33.780  1.00  0.00     0.173 A 
ATOM     91  C   UNL A   1      43.154  30.214  35.109  1.00  0.00     0.173 A 
ATOM     92  F   UNL A   1      41.918  27.887  32.606  1.00  0.00    -0.203 F 
ATOM     93  C   UNL A   1      42.081  27.662  34.926  1.00  0.00     0.198 A 
ATOM     94  C   UNL A   1      43.037  29.419  36.245  1.00  0.00     0.198 A 
ATOM     95  F   UNL A   1      43.709  31.430  35.227  1.00  0.00    -0.203 F 
ATOM     96  F   UNL A   1      41.570  26.426  34.835  1.00  0.00    -0.200 F 
ATOM     97  C   UNL A   1      42.491  28.149  36.155  1.00  0.00     0.200 A 
ATOM     98  F   UNL A   1      43.481  29.876  37.423  1.00  0.00    -0.200 F 
ATOM     99  F   UNL A   1      42.385  27.385  37.252  1.00  0.00    -0.200 F 
ENDBRANCH  66  89
ENDBRANCH  40  41
ENDBRANCH  32  35
ENDBRANCH  30  31
ENDBRANCH  29  30
ENDBRANCH   1  29
TORSDOF 14
ENDMDL
MODEL 3
REMARK VINA RESULT:     -13.1      2.807      8.306
REMARK SMILES C[N@@H+]1CCN(C(=O)c2cc(-n3cccn3)ccc2Cl)C[C@H]1C(=O)NCCCCNC(=O)c1ccc(-c2c3nc(c(-c4c(F)c(F)c(F)c(F)c4F)c4ccc([nH]4)c(-c4c(F)c(F)c(F)c(F)c4F)c4nc(c(-c5c(F)c(F)c(F)c(F)c5F)c5ccc2[nH]5)C=C4)C=C3)cc1
REMARK SMILES IDX 26 1 25 2 24 3 22 4 23 5 21 7 1 8 2 9 3 10 4 12 20 13 5 14
REMARK SMILES IDX 6 15 7 16 8 17 9 18 18 19 10 20 17 21 19 22 16 23 11 24
REMARK SMILES IDX 12 25 15 26 13 27 14 28 27 29 28 30 29 31 30 32 31 34 32 35
REMARK SMILES IDX 33 36 94 37 34 38 93 39 35 40 36 41 37 42 87 43 38 44 92 45
REMARK SMILES IDX 86 46 88 47 39 48 91 49 85 50 84 51 40 53 72 54 52 55 71 56
REMARK SMILES IDX 53 57 56 58 70 59 89 60 54 61 55 62 69 64 90 65 57 66 41 67
REMARK SMILES IDX 42 68 50 69 43 70 44 71 48 72 51 73 45 74 46 75 49 76 47 77
REMARK SMILES IDX 73 78 74 79 82 80 75 81 76 82 80 83 83 84 77 85 78 86 81 87
REMARK SMILES IDX 79 88 58 89 59 90 67 91 60 92 61 93 65 94 68 95 62 96 63 97
REMARK SMILES IDX 66 98 64 99
REMARK H PARENT 24 6 2 11 29 33 88 52 56 63
REMARK Flexibility Score: inf
ROOT
ATOM      1  C   UNL A   1      32.584  30.550  26.711  1.00  0.00     0.023 C 
ENDROOT
BRANCH   1   2
ATOM      2  C   UNL A   1      32.125  29.648  25.566  1.00  0.00     0.116 C 
BRANCH   2   3
ATOM      3  N   UNL A   1      33.138  29.495  24.536  1.00  0.00    -0.351 N 
ATOM      4  C   UNL A   1      33.506  28.376  23.842  1.00  0.00     0.280 C 
ATOM      5  O   UNL A   1      34.423  28.484  23.023  1.00  0.00    -0.268 OA
ATOM      6  H   UNL A   1      33.630  30.316  24.303  1.00  0.00     0.163 HD
BRANCH   4   7
ATOM      7  C   UNL A   1      32.764  27.043  24.024  1.00  0.00     0.293 C 
ATOM      8  C   UNL A   1      31.072  27.526  22.327  1.00  0.00     0.333 C 
ATOM      9  N   UNL A   1      32.112  26.586  22.759  1.00  0.00    -0.324 N 
ATOM     10  C   UNL A   1      31.522  25.243  22.970  1.00  0.00     0.284 C 
ATOM     11  H   UNL A   1      32.819  26.542  22.025  1.00  0.00     0.348 HD
ATOM     12  C   UNL A   1      32.548  24.214  23.483  1.00  0.00     0.181 C 
ATOM     13  C   UNL A   1      33.773  26.031  24.612  1.00  0.00     0.195 C 
ATOM     14  N   UNL A   1      33.228  24.674  24.695  1.00  0.00    -0.326 N 
BRANCH  14  15
ATOM     15  C   UNL A   1      33.518  23.759  25.699  1.00  0.00     0.255 C 
ATOM     16  O   UNL A   1      33.091  23.852  26.847  1.00  0.00    -0.269 OA
BRANCH  15  17
ATOM     17  C   UNL A   1      34.359  22.586  25.383  1.00  0.00     0.060 A 
ATOM     18  C   UNL A   1      33.710  21.369  25.121  1.00  0.00     0.043 A 
ATOM     19  C   UNL A   1      35.760  22.645  25.431  1.00  0.00     0.053 A 
ATOM     20  C   UNL A   1      34.473  20.211  24.932  1.00  0.00     0.065 A 
ATOM     21  C   UNL A   1      36.510  21.502  25.145  1.00  0.00     0.023 A 
ATOM     22  Cl  UNL A   1      36.629  24.075  25.861  1.00  0.00    -0.083 Cl
ATOM     23  C   UNL A   1      35.873  20.283  24.915  1.00  0.00     0.030 A 
BRANCH  20  24
ATOM     24  N   UNL A   1      33.836  18.953  24.805  1.00  0.00    -0.241 N 
ATOM     25  C   UNL A   1      34.346  17.835  24.182  1.00  0.00     0.115 A 
ATOM     26  N   UNL A   1      32.609  18.717  25.327  1.00  0.00    -0.177 NA
ATOM     27  C   UNL A   1      33.389  16.853  24.271  1.00  0.00     0.042 A 
ATOM     28  C   UNL A   1      32.326  17.467  24.952  1.00  0.00     0.135 A 
ENDBRANCH  20  24
ENDBRANCH  15  17
ENDBRANCH  14  15
ENDBRANCH   4   7
ENDBRANCH   2   3
ENDBRANCH   1   2
BRANCH   1  29
ATOM     29  C   UNL A   1      33.879  30.125  27.413  1.00  0.00     0.023 C 
BRANCH  29  30
ATOM     30  C   UNL A   1      34.890  31.246  27.591  1.00  0.00     0.116 C 
BRANCH  30  31
ATOM     31  N   UNL A   1      34.568  32.143  28.699  1.00  0.00    -0.352 N 
ATOM     32  C   UNL A   1      35.052  32.091  29.997  1.00  0.00     0.251 C 
ATOM     33  H   UNL A   1      33.932  32.868  28.502  1.00  0.00     0.163 HD
ATOM     34  O   UNL A   1      34.470  32.632  30.918  1.00  0.00    -0.269 OA
BRANCH  32  35
ATOM     35  C   UNL A   1      36.314  31.366  30.233  1.00  0.00     0.039 A 
ATOM     36  C   UNL A   1      36.338  29.988  30.473  1.00  0.00     0.014 A 
ATOM     37  C   UNL A   1      37.492  32.104  30.177  1.00  0.00     0.014 A 
ATOM     38  C   UNL A   1      37.571  29.348  30.579  1.00  0.00     0.010 A 
ATOM     39  C   UNL A   1      38.694  31.455  30.116  1.00  0.00     0.010 A 
ATOM     40  C   UNL A   1      38.745  30.089  30.383  1.00  0.00    -0.014 A 
BRANCH  40  41
ATOM     41  C   UNL A   1      40.055  29.449  30.322  1.00  0.00     0.031 A 
ATOM     42  C   UNL A   1      40.713  29.282  31.649  1.00  0.00     0.074 A 
ATOM     43  C   UNL A   1      40.473  28.821  29.200  1.00  0.00     0.049 A 
ATOM     44  N   UNL A   1      41.847  29.763  32.040  1.00  0.00    -0.248 NA
ATOM     45  C   UNL A   1      39.957  28.612  32.723  1.00  0.00     0.031 C 
ATOM     46  C   UNL A   1      39.744  28.658  27.934  1.00  0.00     0.029 A 
ATOM     47  N   UNL A   1      41.590  28.074  28.986  1.00  0.00    -0.354 N 
ATOM     48  C   UNL A   1      42.045  29.281  33.335  1.00  0.00     0.074 A 
ATOM     49  C   UNL A   1      40.777  28.761  33.764  1.00  0.00     0.031 C 
ATOM     50  C   UNL A   1      40.311  27.675  27.201  1.00  0.00     0.029 A 
ATOM     51  C   UNL A   1      41.533  27.259  27.857  1.00  0.00     0.049 A 
ATOM     52  H   UNL A   1      42.374  28.106  29.580  1.00  0.00     0.167 HD
ATOM     53  C   UNL A   1      43.306  29.103  33.821  1.00  0.00     0.037 A 
ATOM     54  C   UNL A   1      42.414  26.283  27.514  1.00  0.00     0.037 A 
ATOM     55  C   UNL A   1      44.258  29.856  33.035  1.00  0.00     0.049 A 
ATOM     56  C   UNL A   1      43.657  26.531  28.286  1.00  0.00     0.074 A 
ATOM     57  C   UNL A   1      44.440  31.191  32.735  1.00  0.00     0.029 A 
ATOM     58  N   UNL A   1      44.998  29.164  32.108  1.00  0.00    -0.354 N 
ATOM     59  N   UNL A   1      44.430  27.565  28.098  1.00  0.00    -0.248 NA
ATOM     60  C   UNL A   1      43.777  25.886  29.584  1.00  0.00     0.031 C 
ATOM     61  C   UNL A   1      44.871  31.208  31.374  1.00  0.00     0.029 A 
ATOM     62  C   UNL A   1      45.004  29.886  30.947  1.00  0.00     0.049 A 
ATOM     63  H   UNL A   1      45.445  28.299  32.254  1.00  0.00     0.167 HD
ATOM     64  C   UNL A   1      44.790  27.968  29.376  1.00  0.00     0.074 A 
ATOM     65  C   UNL A   1      44.422  26.850  30.244  1.00  0.00     0.031 C 
ATOM     66  C   UNL A   1      45.069  29.278  29.640  1.00  0.00     0.037 A 
BRANCH  53  67
ATOM     67  C   UNL A   1      43.744  27.924  34.677  1.00  0.00     0.064 A 
ATOM     68  C   UNL A   1      43.491  26.620  34.192  1.00  0.00     0.173 A 
ATOM     69  C   UNL A   1      44.064  27.997  36.049  1.00  0.00     0.173 A 
ATOM     70  F   UNL A   1      43.204  26.413  32.898  1.00  0.00    -0.203 F 
ATOM     71  C   UNL A   1      43.407  25.514  35.043  1.00  0.00     0.198 A 
ATOM     72  C   UNL A   1      44.027  26.882  36.886  1.00  0.00     0.198 A 
ATOM     73  F   UNL A   1      44.330  29.148  36.671  1.00  0.00    -0.203 F 
ATOM     74  F   UNL A   1      43.002  24.333  34.557  1.00  0.00    -0.200 F 
ATOM     75  C   UNL A   1      43.654  25.650  36.394  1.00  0.00     0.200 A 
ATOM     76  F   UNL A   1      44.269  27.036  38.196  1.00  0.00    -0.200 F 
ATOM     77  F   UNL A   1      43.493  24.614  37.226  1.00  0.00    -0.200 F 
ENDBRANCH  53  67
BRANCH  54  78
ATOM     78  C   UNL A   1      42.152  24.991  26.834  1.00  0.00     0.064 A 
ATOM     79  C   UNL A   1      43.064  24.462  25.903  1.00  0.00     0.173 A 
ATOM     80  C   UNL A   1      41.149  24.113  27.290  1.00  0.00     0.173 A 
ATOM     81  F   UNL A   1      44.077  25.215  25.451  1.00  0.00    -0.203 F 
ATOM     82  C   UNL A   1      42.992  23.130  25.477  1.00  0.00     0.198 A 
ATOM     83  C   UNL A   1      41.074  22.787  26.859  1.00  0.00     0.198 A 
ATOM     84  F   UNL A   1      40.280  24.496  28.236  1.00  0.00    -0.203 F 
ATOM     85  F   UNL A   1      43.917  22.645  24.638  1.00  0.00    -0.200 F 
ATOM     86  C   UNL A   1      42.004  22.292  25.965  1.00  0.00     0.200 A 
ATOM     87  F   UNL A   1      40.134  21.975  27.365  1.00  0.00    -0.200 F 
ATOM     88  F   UNL A   1      41.970  21.000  25.606  1.00  0.00    -0.200 F 
ENDBRANCH  54  78
BRANCH  66  89
ATOM     89  C   UNL A   1      45.245  30.208  28.472  1.00  0.00     0.064 A 
ATOM     90  C   UNL A   1      44.196  30.902  27.844  1.00  0.00     0.173 A 
ATOM     91  C   UNL A   1      46.552  30.517  28.073  1.00  0.00     0.173 A 
ATOM     92  F   UNL A   1      42.927  30.736  28.233  1.00  0.00    -0.203 F 
ATOM     93  C   UNL A   1      44.446  31.832  26.835  1.00  0.00     0.198 A 
ATOM     94  C   UNL A   1      46.801  31.473  27.093  1.00  0.00     0.198 A 
ATOM     95  F   UNL A   1      47.594  29.924  28.675  1.00  0.00    -0.203 F 
ATOM     96  F   UNL A   1      43.428  32.474  26.243  1.00  0.00    -0.200 F 
ATOM     97  C   UNL A   1      45.749  32.122  26.467  1.00  0.00     0.200 A 
ATOM     98  F   UNL A   1      48.064  31.784  26.776  1.00  0.00    -0.200 F 
ATOM     99  F   UNL A   1      45.994  33.045  25.527  1.00  0.00    -0.200 F 
ENDBRANCH  66  89
ENDBRANCH  40  41
ENDBRANCH  32  35
ENDBRANCH  30  31
ENDBRANCH  29  30
ENDBRANCH   1  29
TORSDOF 14
ENDMDL
