MODEL 1
REMARK VINA RESULT:     -12.9      0.000      0.000
REMARK SMILES CC(C)[C@@H](NC(=O)/C(=C\c1ccccc1F)NC(=O)c1ccccc1)C(=O)NCCCCNC(=O)c1ccc(-c2c3nc(c(-c4c(F)c(F)c(F)c(F)c4F)c4ccc([nH]4)c(-c4c(F)c(F)c(F)c(F)c4F)c4nc(c(-c5c(F)c(F)c(F)c(F)c5F)c5ccc2[nH]5)C=C4)C=C3)cc1
REMARK SMILES IDX 29 1 28 2 26 3 27 4 4 6 2 7 1 8 3 9 5 10 6 11 7 13 8 14 9 15
REMARK SMILES IDX 17 16 18 17 19 19 20 20 21 21 25 22 22 23 24 24 23 25 10 26
REMARK SMILES IDX 11 27 15 28 12 29 14 30 16 31 13 32 30 33 31 34 32 35 33 36
REMARK SMILES IDX 34 37 35 39 36 40 37 41 98 42 38 43 97 44 39 45 40 46 41 47
REMARK SMILES IDX 91 48 42 49 96 50 90 51 92 52 43 53 95 54 89 55 88 56 44 58
REMARK SMILES IDX 76 59 56 60 75 61 57 62 60 63 74 64 93 65 58 66 59 67 73 69
REMARK SMILES IDX 94 70 61 71 45 72 46 73 54 74 47 75 48 76 52 77 55 78 49 79
REMARK SMILES IDX 50 80 53 81 51 82 77 83 78 84 86 85 79 86 80 87 84 88 87 89
REMARK SMILES IDX 81 90 82 91 85 92 83 93 62 94 63 95 71 96 64 97 65 98 69 99
REMARK SMILES IDX 72 100 66 101 67 102 70 103 68 104
REMARK H PARENT 28 5 5 12 17 18 33 38 92 57 60 68
REMARK Flexibility Score: inf
ROOT
ATOM      1  C   UNL A   1      32.050  27.148  26.575  1.00  0.00     0.116 C 
ENDROOT
BRANCH   1   2
ATOM      2  N   UNL A   1      30.769  26.510  26.416  1.00  0.00    -0.354 N 
ATOM      3  C   UNL A   1      30.531  25.504  25.530  1.00  0.00     0.242 C 
ATOM      4  O   UNL A   1      29.600  25.662  24.738  1.00  0.00    -0.273 OA
ATOM      5  H   UNL A   1      30.023  26.817  26.981  1.00  0.00     0.163 HD
BRANCH   3   6
ATOM      6  C   UNL A   1      31.493  24.308  25.440  1.00  0.00     0.174 C 
BRANCH   6   7
ATOM      7  C   UNL A   1      31.505  23.493  26.774  1.00  0.00     0.015 C 
ATOM      8  C   UNL A   1      30.263  22.598  26.897  1.00  0.00     0.010 C 
ATOM      9  C   UNL A   1      32.751  22.612  26.947  1.00  0.00     0.010 C 
ENDBRANCH   6   7
BRANCH   6  10
ATOM     10  N   UNL A   1      31.252  23.418  24.278  1.00  0.00    -0.339 N 
ATOM     11  C   UNL A   1      32.186  22.858  23.441  1.00  0.00     0.268 C 
ATOM     12  H   UNL A   1      30.310  23.203  24.084  1.00  0.00     0.164 HD
ATOM     13  O   UNL A   1      32.156  21.640  23.263  1.00  0.00    -0.268 OA
BRANCH  11  14
ATOM     14  C   UNL A   1      33.050  23.718  22.559  1.00  0.00     0.107 C 
ATOM     15  C   UNL A   1      34.369  23.914  22.773  1.00  0.00     0.043 C 
BRANCH  14  16
ATOM     16  N   UNL A   1      32.527  24.308  21.413  1.00  0.00    -0.317 N 
ATOM     17  C   UNL A   1      32.219  25.588  21.027  1.00  0.00     0.255 C 
ATOM     18  H   UNL A   1      32.328  23.647  20.710  1.00  0.00     0.170 HD
ATOM     19  O   UNL A   1      31.781  25.778  19.891  1.00  0.00    -0.269 OA
BRANCH  17  20
ATOM     20  C   UNL A   1      32.379  26.750  21.904  1.00  0.00     0.040 A 
ATOM     21  C   UNL A   1      31.237  27.395  22.388  1.00  0.00     0.014 A 
ATOM     22  C   UNL A   1      33.652  27.267  22.152  1.00  0.00     0.014 A 
ATOM     23  C   UNL A   1      31.379  28.528  23.187  1.00  0.00     0.001 A 
ATOM     24  C   UNL A   1      33.787  28.396  22.958  1.00  0.00     0.001 A 
ATOM     25  C   UNL A   1      32.653  29.020  23.481  1.00  0.00     0.000 A 
ENDBRANCH  17  20
ENDBRANCH  14  16
BRANCH  15  26
ATOM     26  C   UNL A   1      35.231  23.504  23.888  1.00  0.00     0.012 A 
ATOM     27  C   UNL A   1      35.982  22.330  23.713  1.00  0.00     0.011 A 
ATOM     28  C   UNL A   1      35.371  24.207  25.084  1.00  0.00     0.130 A 
ATOM     29  C   UNL A   1      36.938  21.948  24.657  1.00  0.00     0.001 A 
ATOM     30  C   UNL A   1      36.315  23.825  26.035  1.00  0.00     0.040 A 
ATOM     31  F   UNL A   1      34.615  25.283  25.335  1.00  0.00    -0.206 F 
ATOM     32  C   UNL A   1      37.120  22.709  25.808  1.00  0.00     0.003 A 
ENDBRANCH  15  26
ENDBRANCH  11  14
ENDBRANCH   6  10
ENDBRANCH   3   6
ENDBRANCH   1   2
BRANCH   1  33
ATOM     33  C   UNL A   1      31.911  28.251  27.625  1.00  0.00     0.023 C 
BRANCH  33  34
ATOM     34  C   UNL A   1      31.683  29.635  27.007  1.00  0.00     0.023 C 
BRANCH  34  35
ATOM     35  C   UNL A   1      32.968  30.325  26.564  1.00  0.00     0.116 C 
BRANCH  35  36
ATOM     36  N   UNL A   1      32.894  31.763  26.776  1.00  0.00    -0.352 N 
ATOM     37  C   UNL A   1      33.628  32.542  27.626  1.00  0.00     0.251 C 
ATOM     38  H   UNL A   1      32.225  32.239  26.234  1.00  0.00     0.163 HD
ATOM     39  O   UNL A   1      33.281  33.691  27.873  1.00  0.00    -0.269 OA
BRANCH  37  40
ATOM     40  C   UNL A   1      34.838  31.977  28.240  1.00  0.00     0.039 A 
ATOM     41  C   UNL A   1      34.791  30.679  28.746  1.00  0.00     0.014 A 
ATOM     42  C   UNL A   1      36.006  32.742  28.330  1.00  0.00     0.014 A 
ATOM     43  C   UNL A   1      35.928  30.139  29.340  1.00  0.00     0.010 A 
ATOM     44  C   UNL A   1      37.160  32.176  28.851  1.00  0.00     0.010 A 
ATOM     45  C   UNL A   1      37.119  30.884  29.391  1.00  0.00    -0.014 A 
BRANCH  45  46
ATOM     46  C   UNL A   1      38.309  30.351  30.088  1.00  0.00     0.031 A 
ATOM     47  C   UNL A   1      38.580  30.771  31.504  1.00  0.00     0.074 A 
ATOM     48  C   UNL A   1      39.141  29.514  29.443  1.00  0.00     0.049 A 
ATOM     49  N   UNL A   1      39.573  30.436  32.288  1.00  0.00    -0.248 NA
ATOM     50  C   UNL A   1      37.627  31.713  32.115  1.00  0.00     0.031 C 
ATOM     51  C   UNL A   1      38.988  29.077  28.055  1.00  0.00     0.029 A 
ATOM     52  N   UNL A   1      40.275  28.877  29.873  1.00  0.00    -0.354 N 
ATOM     53  C   UNL A   1      39.370  31.136  33.469  1.00  0.00     0.074 A 
ATOM     54  C   UNL A   1      38.196  31.958  33.285  1.00  0.00     0.031 C 
ATOM     55  C   UNL A   1      39.974  28.214  27.759  1.00  0.00     0.029 A 
ATOM     56  C   UNL A   1      40.837  28.058  28.926  1.00  0.00     0.049 A 
ATOM     57  H   UNL A   1      40.651  28.997  30.775  1.00  0.00     0.167 HD
ATOM     58  C   UNL A   1      40.083  31.073  34.617  1.00  0.00     0.037 A 
ATOM     59  C   UNL A   1      41.919  27.262  29.004  1.00  0.00     0.037 A 
ATOM     60  C   UNL A   1      41.225  30.222  34.804  1.00  0.00     0.049 A 
ATOM     61  C   UNL A   1      42.673  27.182  30.302  1.00  0.00     0.074 A 
ATOM     62  C   UNL A   1      42.003  30.058  35.935  1.00  0.00     0.029 A 
ATOM     63  N   UNL A   1      41.744  29.379  33.831  1.00  0.00    -0.354 N 
ATOM     64  N   UNL A   1      42.450  27.818  31.427  1.00  0.00    -0.248 NA
ATOM     65  C   UNL A   1      43.818  26.264  30.348  1.00  0.00     0.031 C 
ATOM     66  C   UNL A   1      43.011  29.134  35.639  1.00  0.00     0.029 A 
ATOM     67  C   UNL A   1      42.832  28.691  34.338  1.00  0.00     0.049 A 
ATOM     68  H   UNL A   1      41.391  29.286  32.918  1.00  0.00     0.167 HD
ATOM     69  C   UNL A   1      43.402  27.354  32.323  1.00  0.00     0.074 A 
ATOM     70  C   UNL A   1      44.203  26.377  31.613  1.00  0.00     0.031 C 
ATOM     71  C   UNL A   1      43.596  27.704  33.618  1.00  0.00     0.037 A 
BRANCH  58  72
ATOM     72  C   UNL A   1      39.636  31.931  35.762  1.00  0.00     0.064 A 
ATOM     73  C   UNL A   1      38.601  31.509  36.609  1.00  0.00     0.173 A 
ATOM     74  C   UNL A   1      40.200  33.196  35.994  1.00  0.00     0.173 A 
ATOM     75  F   UNL A   1      38.027  30.310  36.430  1.00  0.00    -0.203 F 
ATOM     76  C   UNL A   1      38.141  32.324  37.640  1.00  0.00     0.198 A 
ATOM     77  C   UNL A   1      39.757  33.996  37.044  1.00  0.00     0.198 A 
ATOM     78  F   UNL A   1      41.202  33.639  35.221  1.00  0.00    -0.203 F 
ATOM     79  F   UNL A   1      37.133  31.910  38.421  1.00  0.00    -0.200 F 
ATOM     80  C   UNL A   1      38.722  33.564  37.859  1.00  0.00     0.200 A 
ATOM     81  F   UNL A   1      40.337  35.183  37.268  1.00  0.00    -0.200 F 
ATOM     82  F   UNL A   1      38.287  34.342  38.860  1.00  0.00    -0.200 F 
ENDBRANCH  58  72
BRANCH  59  83
ATOM     83  C   UNL A   1      42.302  26.432  27.834  1.00  0.00     0.064 A 
ATOM     84  C   UNL A   1      41.718  25.180  27.601  1.00  0.00     0.173 A 
ATOM     85  C   UNL A   1      43.292  26.867  26.942  1.00  0.00     0.173 A 
ATOM     86  F   UNL A   1      40.773  24.714  28.433  1.00  0.00    -0.203 F 
ATOM     87  C   UNL A   1      42.118  24.388  26.528  1.00  0.00     0.198 A 
ATOM     88  C   UNL A   1      43.675  26.085  25.855  1.00  0.00     0.198 A 
ATOM     89  F   UNL A   1      43.871  28.065  27.117  1.00  0.00    -0.203 F 
ATOM     90  F   UNL A   1      41.564  23.181  26.344  1.00  0.00    -0.200 F 
ATOM     91  C   UNL A   1      43.093  24.843  25.652  1.00  0.00     0.200 A 
ATOM     92  F   UNL A   1      44.603  26.538  25.001  1.00  0.00    -0.200 F 
ATOM     93  F   UNL A   1      43.470  24.086  24.612  1.00  0.00    -0.200 F 
ENDBRANCH  59  83
BRANCH  71  94
ATOM     94  C   UNL A   1      44.682  26.999  34.373  1.00  0.00     0.064 A 
ATOM     95  C   UNL A   1      44.406  25.802  35.050  1.00  0.00     0.173 A 
ATOM     96  C   UNL A   1      45.967  27.546  34.494  1.00  0.00     0.173 A 
ATOM     97  F   UNL A   1      43.188  25.246  34.972  1.00  0.00    -0.203 F 
ATOM     98  C   UNL A   1      45.376  25.183  35.832  1.00  0.00     0.198 A 
ATOM     99  C   UNL A   1      46.943  26.910  35.256  1.00  0.00     0.198 A 
ATOM    100  F   UNL A   1      46.280  28.684  33.857  1.00  0.00    -0.203 F 
ATOM    101  F   UNL A   1      45.081  24.057  36.497  1.00  0.00    -0.200 F 
ATOM    102  C   UNL A   1      46.644  25.736  35.932  1.00  0.00     0.200 A 
ATOM    103  F   UNL A   1      48.174  27.432  35.335  1.00  0.00    -0.200 F 
ATOM    104  F   UNL A   1      47.581  25.134  36.679  1.00  0.00    -0.200 F 
ENDBRANCH  71  94
ENDBRANCH  45  46
ENDBRANCH  37  40
ENDBRANCH  35  36
ENDBRANCH  34  35
ENDBRANCH  33  34
ENDBRANCH   1  33
TORSDOF 17
ENDMDL
MODEL 2
REMARK VINA RESULT:     -12.7      4.124      9.643
REMARK SMILES CC(C)[C@@H](NC(=O)/C(=C\c1ccccc1F)NC(=O)c1ccccc1)C(=O)NCCCCNC(=O)c1ccc(-c2c3nc(c(-c4c(F)c(F)c(F)c(F)c4F)c4ccc([nH]4)c(-c4c(F)c(F)c(F)c(F)c4F)c4nc(c(-c5c(F)c(F)c(F)c(F)c5F)c5ccc2[nH]5)C=C4)C=C3)cc1
REMARK SMILES IDX 29 1 28 2 26 3 27 4 4 6 2 7 1 8 3 9 5 10 6 11 7 13 8 14 9 15
REMARK SMILES IDX 17 16 18 17 19 19 20 20 21 21 25 22 22 23 24 24 23 25 10 26
REMARK SMILES IDX 11 27 15 28 12 29 14 30 16 31 13 32 30 33 31 34 32 35 33 36
REMARK SMILES IDX 34 37 35 39 36 40 37 41 98 42 38 43 97 44 39 45 40 46 41 47
REMARK SMILES IDX 91 48 42 49 96 50 90 51 92 52 43 53 95 54 89 55 88 56 44 58
REMARK SMILES IDX 76 59 56 60 75 61 57 62 60 63 74 64 93 65 58 66 59 67 73 69
REMARK SMILES IDX 94 70 61 71 45 72 46 73 54 74 47 75 48 76 52 77 55 78 49 79
REMARK SMILES IDX 50 80 53 81 51 82 77 83 78 84 86 85 79 86 80 87 84 88 87 89
REMARK SMILES IDX 81 90 82 91 85 92 83 93 62 94 63 95 71 96 64 97 65 98 69 99
REMARK SMILES IDX 72 100 66 101 67 102 70 103 68 104
REMARK H PARENT 28 5 5 12 17 18 33 38 92 57 60 68
REMARK Flexibility Score: inf
ROOT
ATOM      1  C   UNL A   1      35.233  23.622  23.840  1.00  0.00     0.116 C 
ENDROOT
BRANCH   1   2
ATOM      2  N   UNL A   1      34.318  23.333  22.766  1.00  0.00    -0.354 N 
ATOM      3  C   UNL A   1      32.989  23.622  22.808  1.00  0.00     0.242 C 
ATOM      4  O   UNL A   1      32.205  22.696  22.591  1.00  0.00    -0.273 OA
ATOM      5  H   UNL A   1      34.674  22.903  21.955  1.00  0.00     0.163 HD
BRANCH   3   6
ATOM      6  C   UNL A   1      32.512  25.011  23.264  1.00  0.00     0.174 C 
BRANCH   6   7
ATOM      7  C   UNL A   1      33.036  26.129  22.304  1.00  0.00     0.015 C 
ATOM      8  C   UNL A   1      32.493  25.947  20.880  1.00  0.00     0.010 C 
ATOM      9  C   UNL A   1      32.694  27.552  22.770  1.00  0.00     0.010 C 
ENDBRANCH   6   7
BRANCH   6  10
ATOM     10  N   UNL A   1      31.045  25.121  23.453  1.00  0.00    -0.339 N 
ATOM     11  C   UNL A   1      30.374  25.836  24.415  1.00  0.00     0.268 C 
ATOM     12  H   UNL A   1      30.486  24.622  22.814  1.00  0.00     0.164 HD
ATOM     13  O   UNL A   1      29.502  26.626  24.053  1.00  0.00    -0.268 OA
BRANCH  11  14
ATOM     14  C   UNL A   1      30.501  25.484  25.873  1.00  0.00     0.107 C 
ATOM     15  C   UNL A   1      31.230  26.205  26.751  1.00  0.00     0.043 C 
BRANCH  14  16
ATOM     16  N   UNL A   1      29.796  24.410  26.406  1.00  0.00    -0.317 N 
ATOM     17  C   UNL A   1      30.108  23.129  26.786  1.00  0.00     0.255 C 
ATOM     18  H   UNL A   1      28.843  24.619  26.542  1.00  0.00     0.170 HD
ATOM     19  O   UNL A   1      29.223  22.418  27.265  1.00  0.00    -0.269 OA
BRANCH  17  20
ATOM     20  C   UNL A   1      31.448  22.555  26.645  1.00  0.00     0.040 A 
ATOM     21  C   UNL A   1      31.681  21.622  25.630  1.00  0.00     0.014 A 
ATOM     22  C   UNL A   1      32.437  22.853  27.584  1.00  0.00     0.014 A 
ATOM     23  C   UNL A   1      32.941  21.037  25.516  1.00  0.00     0.001 A 
ATOM     24  C   UNL A   1      33.697  22.270  27.460  1.00  0.00     0.001 A 
ATOM     25  C   UNL A   1      33.951  21.370  26.423  1.00  0.00     0.000 A 
ENDBRANCH  17  20
ENDBRANCH  14  16
BRANCH  15  26
ATOM     26  C   UNL A   1      32.132  27.344  26.542  1.00  0.00     0.012 A 
ATOM     27  C   UNL A   1      31.577  28.628  26.679  1.00  0.00     0.011 A 
ATOM     28  C   UNL A   1      33.489  27.239  26.245  1.00  0.00     0.130 A 
ATOM     29  C   UNL A   1      32.390  29.763  26.647  1.00  0.00     0.001 A 
ATOM     30  C   UNL A   1      34.304  28.368  26.200  1.00  0.00     0.040 A 
ATOM     31  F   UNL A   1      34.048  26.043  26.020  1.00  0.00    -0.206 F 
ATOM     32  C   UNL A   1      33.759  29.631  26.429  1.00  0.00     0.003 A 
ENDBRANCH  15  26
ENDBRANCH  11  14
ENDBRANCH   6  10
ENDBRANCH   3   6
ENDBRANCH   1   2
BRANCH   1  33
ATOM     33  C   UNL A   1      36.604  23.058  23.469  1.00  0.00     0.023 C 
BRANCH  33  34
ATOM     34  C   UNL A   1      36.956  21.787  24.250  1.00  0.00     0.023 C 
BRANCH  34  35
ATOM     35  C   UNL A   1      37.495  22.060  25.650  1.00  0.00     0.116 C 
BRANCH  35  36
ATOM     36  N   UNL A   1      38.417  21.017  26.073  1.00  0.00    -0.352 N 
ATOM     37  C   UNL A   1      39.706  21.140  26.511  1.00  0.00     0.251 C 
ATOM     38  H   UNL A   1      38.065  20.099  26.039  1.00  0.00     0.163 HD
ATOM     39  O   UNL A   1      40.431  20.156  26.592  1.00  0.00    -0.269 OA
BRANCH  37  40
ATOM     40  C   UNL A   1      40.206  22.472  26.881  1.00  0.00     0.039 A 
ATOM     41  C   UNL A   1      39.713  23.586  26.204  1.00  0.00     0.014 A 
ATOM     42  C   UNL A   1      41.175  22.608  27.881  1.00  0.00     0.014 A 
ATOM     43  C   UNL A   1      40.189  24.850  26.538  1.00  0.00     0.010 A 
ATOM     44  C   UNL A   1      41.591  23.874  28.267  1.00  0.00     0.010 A 
ATOM     45  C   UNL A   1      41.127  25.000  27.574  1.00  0.00    -0.014 A 
BRANCH  45  46
ATOM     46  C   UNL A   1      41.697  26.328  27.885  1.00  0.00     0.031 A 
ATOM     47  C   UNL A   1      43.077  26.668  27.399  1.00  0.00     0.074 A 
ATOM     48  C   UNL A   1      40.984  27.207  28.611  1.00  0.00     0.049 A 
ATOM     49  N   UNL A   1      43.767  27.765  27.576  1.00  0.00    -0.248 NA
ATOM     50  C   UNL A   1      43.789  25.629  26.636  1.00  0.00     0.031 C 
ATOM     51  C   UNL A   1      39.652  26.960  29.165  1.00  0.00     0.029 A 
ATOM     52  N   UNL A   1      41.277  28.487  29.002  1.00  0.00    -0.354 N 
ATOM     53  C   UNL A   1      44.992  27.540  26.963  1.00  0.00     0.074 A 
ATOM     54  C   UNL A   1      44.977  26.186  26.459  1.00  0.00     0.031 C 
ATOM     55  C   UNL A   1      39.228  28.068  29.794  1.00  0.00     0.029 A 
ATOM     56  C   UNL A   1      40.267  29.090  29.709  1.00  0.00     0.049 A 
ATOM     57  H   UNL A   1      42.132  28.931  28.797  1.00  0.00     0.167 HD
ATOM     58  C   UNL A   1      46.024  28.400  26.807  1.00  0.00     0.037 A 
ATOM     59  C   UNL A   1      40.189  30.335  30.215  1.00  0.00     0.037 A 
ATOM     60  C   UNL A   1      46.014  29.758  27.276  1.00  0.00     0.049 A 
ATOM     61  C   UNL A   1      41.336  31.283  29.997  1.00  0.00     0.074 A 
ATOM     62  C   UNL A   1      46.994  30.724  27.146  1.00  0.00     0.029 A 
ATOM     63  N   UNL A   1      44.956  30.344  27.958  1.00  0.00    -0.354 N 
ATOM     64  N   UNL A   1      42.475  31.074  29.380  1.00  0.00    -0.248 NA
ATOM     65  C   UNL A   1      41.182  32.643  30.528  1.00  0.00     0.031 C 
ATOM     66  C   UNL A   1      46.541  31.889  27.773  1.00  0.00     0.029 A 
ATOM     67  C   UNL A   1      45.261  31.661  28.253  1.00  0.00     0.049 A 
ATOM     68  H   UNL A   1      44.116  29.891  28.195  1.00  0.00     0.167 HD
ATOM     69  C   UNL A   1      43.158  32.281  29.420  1.00  0.00     0.074 A 
ATOM     70  C   UNL A   1      42.302  33.221  30.116  1.00  0.00     0.031 C 
ATOM     71  C   UNL A   1      44.381  32.584  28.924  1.00  0.00     0.037 A 
BRANCH  58  72
ATOM     72  C   UNL A   1      47.240  27.903  26.084  1.00  0.00     0.064 A 
ATOM     73  C   UNL A   1      47.257  27.828  24.683  1.00  0.00     0.173 A 
ATOM     74  C   UNL A   1      48.375  27.456  26.779  1.00  0.00     0.173 A 
ATOM     75  F   UNL A   1      46.197  28.240  23.971  1.00  0.00    -0.203 F 
ATOM     76  C   UNL A   1      48.360  27.315  24.006  1.00  0.00     0.198 A 
ATOM     77  C   UNL A   1      49.488  26.971  26.097  1.00  0.00     0.198 A 
ATOM     78  F   UNL A   1      48.414  27.521  28.117  1.00  0.00    -0.203 F 
ATOM     79  F   UNL A   1      48.342  27.227  22.669  1.00  0.00    -0.200 F 
ATOM     80  C   UNL A   1      49.476  26.891  24.713  1.00  0.00     0.200 A 
ATOM     81  F   UNL A   1      50.574  26.586  26.781  1.00  0.00    -0.200 F 
ATOM     82  F   UNL A   1      50.542  26.410  24.059  1.00  0.00    -0.200 F 
ENDBRANCH  58  72
BRANCH  59  83
ATOM     83  C   UNL A   1      38.952  30.765  30.913  1.00  0.00     0.064 A 
ATOM     84  C   UNL A   1      38.813  30.637  32.302  1.00  0.00     0.173 A 
ATOM     85  C   UNL A   1      37.867  31.283  30.193  1.00  0.00     0.173 A 
ATOM     86  F   UNL A   1      39.820  30.137  33.035  1.00  0.00    -0.203 F 
ATOM     87  C   UNL A   1      37.631  31.000  32.943  1.00  0.00     0.198 A 
ATOM     88  C   UNL A   1      36.693  31.667  30.837  1.00  0.00     0.198 A 
ATOM     89  F   UNL A   1      37.958  31.435  28.863  1.00  0.00    -0.203 F 
ATOM     90  F   UNL A   1      37.513  30.841  34.268  1.00  0.00    -0.200 F 
ATOM     91  C   UNL A   1      36.573  31.519  32.211  1.00  0.00     0.200 A 
ATOM     92  F   UNL A   1      35.682  32.186  30.128  1.00  0.00    -0.200 F 
ATOM     93  F   UNL A   1      35.440  31.878  32.828  1.00  0.00    -0.200 F 
ENDBRANCH  59  83
BRANCH  71  94
ATOM     94  C   UNL A   1      44.858  33.998  29.068  1.00  0.00     0.064 A 
ATOM     95  C   UNL A   1      44.590  34.938  28.062  1.00  0.00     0.173 A 
ATOM     96  C   UNL A   1      45.646  34.400  30.155  1.00  0.00     0.173 A 
ATOM     97  F   UNL A   1      43.849  34.596  26.997  1.00  0.00    -0.203 F 
ATOM     98  C   UNL A   1      45.104  36.228  28.134  1.00  0.00     0.198 A 
ATOM     99  C   UNL A   1      46.136  35.700  30.237  1.00  0.00     0.198 A 
ATOM    100  F   UNL A   1      45.921  33.539  31.147  1.00  0.00    -0.203 F 
ATOM    101  F   UNL A   1      44.862  37.100  27.145  1.00  0.00    -0.200 F 
ATOM    102  C   UNL A   1      45.874  36.609  29.222  1.00  0.00     0.200 A 
ATOM    103  F   UNL A   1      46.862  36.075  31.299  1.00  0.00    -0.200 F 
ATOM    104  F   UNL A   1      46.361  37.856  29.295  1.00  0.00    -0.200 F 
ENDBRANCH  71  94
ENDBRANCH  45  46
ENDBRANCH  37  40
ENDBRANCH  35  36
ENDBRANCH  34  35
ENDBRANCH  33  34
ENDBRANCH   1  33
TORSDOF 17
ENDMDL
MODEL 3
REMARK VINA RESULT:     -12.6      4.797     10.212
REMARK SMILES CC(C)[C@@H](NC(=O)/C(=C\c1ccccc1F)NC(=O)c1ccccc1)C(=O)NCCCCNC(=O)c1ccc(-c2c3nc(c(-c4c(F)c(F)c(F)c(F)c4F)c4ccc([nH]4)c(-c4c(F)c(F)c(F)c(F)c4F)c4nc(c(-c5c(F)c(F)c(F)c(F)c5F)c5ccc2[nH]5)C=C4)C=C3)cc1
REMARK SMILES IDX 29 1 28 2 26 3 27 4 4 6 2 7 1 8 3 9 5 10 6 11 7 13 8 14 9 15
REMARK SMILES IDX 17 16 18 17 19 19 20 20 21 21 25 22 22 23 24 24 23 25 10 26
REMARK SMILES IDX 11 27 15 28 12 29 14 30 16 31 13 32 30 33 31 34 32 35 33 36
REMARK SMILES IDX 34 37 35 39 36 40 37 41 98 42 38 43 97 44 39 45 40 46 41 47
REMARK SMILES IDX 91 48 42 49 96 50 90 51 92 52 43 53 95 54 89 55 88 56 44 58
REMARK SMILES IDX 76 59 56 60 75 61 57 62 60 63 74 64 93 65 58 66 59 67 73 69
REMARK SMILES IDX 94 70 61 71 45 72 46 73 54 74 47 75 48 76 52 77 55 78 49 79
REMARK SMILES IDX 50 80 53 81 51 82 77 83 78 84 86 85 79 86 80 87 84 88 87 89
REMARK SMILES IDX 81 90 82 91 85 92 83 93 62 94 63 95 71 96 64 97 65 98 69 99
REMARK SMILES IDX 72 100 66 101 67 102 70 103 68 104
REMARK H PARENT 28 5 5 12 17 18 33 38 92 57 60 68
REMARK Flexibility Score: inf
ROOT
ATOM      1  C   UNL A   1      37.098  21.547  25.437  1.00  0.00     0.116 C 
ENDROOT
BRANCH   1   2
ATOM      2  N   UNL A   1      37.187  22.660  24.526  1.00  0.00    -0.354 N 
ATOM      3  C   UNL A   1      36.252  22.936  23.577  1.00  0.00     0.242 C 
ATOM      4  O   UNL A   1      36.647  23.048  22.414  1.00  0.00    -0.273 OA
ATOM      5  H   UNL A   1      37.969  23.255  24.594  1.00  0.00     0.163 HD
BRANCH   3   6
ATOM      6  C   UNL A   1      34.758  22.946  23.940  1.00  0.00     0.174 C 
BRANCH   6   7
ATOM      7  C   UNL A   1      34.359  24.285  24.643  1.00  0.00     0.015 C 
ATOM      8  C   UNL A   1      35.450  24.758  25.613  1.00  0.00     0.010 C 
ATOM      9  C   UNL A   1      34.056  25.428  23.665  1.00  0.00     0.010 C 
ENDBRANCH   6   7
BRANCH   6  10
ATOM     10  N   UNL A   1      33.851  22.654  22.804  1.00  0.00    -0.339 N 
ATOM     11  C   UNL A   1      32.581  22.133  22.855  1.00  0.00     0.268 C 
ATOM     12  H   UNL A   1      34.201  22.856  21.905  1.00  0.00     0.164 HD
ATOM     13  O   UNL A   1      31.678  22.739  22.279  1.00  0.00    -0.268 OA
BRANCH  11  14
ATOM     14  C   UNL A   1      32.335  20.739  23.366  1.00  0.00     0.107 C 
ATOM     15  C   UNL A   1      32.261  20.429  24.678  1.00  0.00     0.043 C 
BRANCH  14  16
ATOM     16  N   UNL A   1      32.096  19.693  22.481  1.00  0.00    -0.317 N 
ATOM     17  C   UNL A   1      32.309  18.337  22.491  1.00  0.00     0.255 C 
ATOM     18  H   UNL A   1      31.674  19.999  21.645  1.00  0.00     0.170 HD
ATOM     19  O   UNL A   1      31.941  17.670  21.523  1.00  0.00    -0.269 OA
BRANCH  17  20
ATOM     20  C   UNL A   1      32.963  17.637  23.599  1.00  0.00     0.040 A 
ATOM     21  C   UNL A   1      34.341  17.416  23.541  1.00  0.00     0.014 A 
ATOM     22  C   UNL A   1      32.195  17.101  24.635  1.00  0.00     0.014 A 
ATOM     23  C   UNL A   1      34.965  16.710  24.569  1.00  0.00     0.001 A 
ATOM     24  C   UNL A   1      32.825  16.403  25.664  1.00  0.00     0.001 A 
ATOM     25  C   UNL A   1      34.209  16.216  25.635  1.00  0.00     0.000 A 
ENDBRANCH  17  20
ENDBRANCH  14  16
BRANCH  15  26
ATOM     26  C   UNL A   1      32.510  21.246  25.872  1.00  0.00     0.012 A 
ATOM     27  C   UNL A   1      33.663  20.948  26.618  1.00  0.00     0.011 A 
ATOM     28  C   UNL A   1      31.703  22.300  26.295  1.00  0.00     0.130 A 
ATOM     29  C   UNL A   1      34.057  21.766  27.678  1.00  0.00     0.001 A 
ATOM     30  C   UNL A   1      32.085  23.115  27.360  1.00  0.00     0.040 A 
ATOM     31  F   UNL A   1      30.550  22.570  25.670  1.00  0.00    -0.206 F 
ATOM     32  C   UNL A   1      33.278  22.864  28.035  1.00  0.00     0.003 A 
ENDBRANCH  15  26
ENDBRANCH  11  14
ENDBRANCH   6  10
ENDBRANCH   3   6
ENDBRANCH   1   2
BRANCH   1  33
ATOM     33  C   UNL A   1      37.066  20.257  24.618  1.00  0.00     0.023 C 
BRANCH  33  34
ATOM     34  C   UNL A   1      38.152  19.260  25.037  1.00  0.00     0.023 C 
BRANCH  34  35
ATOM     35  C   UNL A   1      39.345  19.910  25.728  1.00  0.00     0.116 C 
BRANCH  35  36
ATOM     36  N   UNL A   1      40.438  18.965  25.894  1.00  0.00    -0.352 N 
ATOM     37  C   UNL A   1      41.771  19.218  26.061  1.00  0.00     0.251 C 
ATOM     38  H   UNL A   1      40.184  18.015  25.884  1.00  0.00     0.163 HD
ATOM     39  O   UNL A   1      42.595  18.320  25.937  1.00  0.00    -0.269 OA
BRANCH  37  40
ATOM     40  C   UNL A   1      42.198  20.586  26.391  1.00  0.00     0.039 A 
ATOM     41  C   UNL A   1      42.264  20.964  27.732  1.00  0.00     0.014 A 
ATOM     42  C   UNL A   1      42.510  21.493  25.372  1.00  0.00     0.014 A 
ATOM     43  C   UNL A   1      42.655  22.260  28.054  1.00  0.00     0.010 A 
ATOM     44  C   UNL A   1      42.973  22.758  25.697  1.00  0.00     0.010 A 
ATOM     45  C   UNL A   1      43.016  23.162  27.038  1.00  0.00    -0.014 A 
BRANCH  45  46
ATOM     46  C   UNL A   1      43.357  24.563  27.364  1.00  0.00     0.031 A 
ATOM     47  C   UNL A   1      44.744  25.066  27.085  1.00  0.00     0.074 A 
ATOM     48  C   UNL A   1      42.429  25.362  27.921  1.00  0.00     0.049 A 
ATOM     49  N   UNL A   1      45.253  26.249  27.310  1.00  0.00    -0.248 NA
ATOM     50  C   UNL A   1      45.696  24.106  26.501  1.00  0.00     0.031 C 
ATOM     51  C   UNL A   1      41.066  24.959  28.269  1.00  0.00     0.029 A 
ATOM     52  N   UNL A   1      42.493  26.682  28.284  1.00  0.00    -0.354 N 
ATOM     53  C   UNL A   1      46.580  26.168  26.911  1.00  0.00     0.074 A 
ATOM     54  C   UNL A   1      46.818  24.808  26.484  1.00  0.00     0.031 C 
ATOM     55  C   UNL A   1      40.410  26.022  28.763  1.00  0.00     0.029 A 
ATOM     56  C   UNL A   1      41.313  27.169  28.789  1.00  0.00     0.049 A 
ATOM     57  H   UNL A   1      43.307  27.228  28.193  1.00  0.00     0.167 HD
ATOM     58  C   UNL A   1      47.508  27.151  26.875  1.00  0.00     0.037 A 
ATOM     59  C   UNL A   1      40.998  28.408  29.209  1.00  0.00     0.037 A 
ATOM     60  C   UNL A   1      47.251  28.510  27.264  1.00  0.00     0.049 A 
ATOM     61  C   UNL A   1      42.037  29.492  29.125  1.00  0.00     0.074 A 
ATOM     62  C   UNL A   1      48.111  29.593  27.239  1.00  0.00     0.029 A 
ATOM     63  N   UNL A   1      46.032  28.974  27.738  1.00  0.00    -0.354 N 
ATOM     64  N   UNL A   1      43.279  29.416  28.708  1.00  0.00    -0.248 NA
ATOM     65  C   UNL A   1      41.630  30.837  29.552  1.00  0.00     0.031 C 
ATOM     66  C   UNL A   1      47.419  30.708  27.723  1.00  0.00     0.029 A 
ATOM     67  C   UNL A   1      46.117  30.329  28.006  1.00  0.00     0.049 A 
ATOM     68  H   UNL A   1      45.227  28.422  27.863  1.00  0.00     0.167 HD
ATOM     69  C   UNL A   1      43.790  30.703  28.791  1.00  0.00     0.074 A 
ATOM     70  C   UNL A   1      42.721  31.544  29.292  1.00  0.00     0.031 C 
ATOM     71  C   UNL A   1      45.031  31.148  28.480  1.00  0.00     0.037 A 
BRANCH  58  72
ATOM     72  C   UNL A   1      48.879  26.797  26.381  1.00  0.00     0.064 A 
ATOM     73  C   UNL A   1      49.227  26.997  25.037  1.00  0.00     0.173 A 
ATOM     74  C   UNL A   1      49.835  26.213  27.227  1.00  0.00     0.173 A 
ATOM     75  F   UNL A   1      48.349  27.549  24.186  1.00  0.00    -0.203 F 
ATOM     76  C   UNL A   1      50.477  26.617  24.557  1.00  0.00     0.198 A 
ATOM     77  C   UNL A   1      51.095  25.862  26.750  1.00  0.00     0.198 A 
ATOM     78  F   UNL A   1      49.556  26.015  28.523  1.00  0.00    -0.203 F 
ATOM     79  F   UNL A   1      50.778  26.794  23.262  1.00  0.00    -0.200 F 
ATOM     80  C   UNL A   1      51.411  26.055  25.414  1.00  0.00     0.200 A 
ATOM     81  F   UNL A   1      52.003  25.342  27.586  1.00  0.00    -0.200 F 
ATOM     82  F   UNL A   1      52.619  25.703  24.953  1.00  0.00    -0.200 F 
ENDBRANCH  58  72
BRANCH  59  83
ATOM     83  C   UNL A   1      39.620  28.694  29.679  1.00  0.00     0.064 A 
ATOM     84  C   UNL A   1      38.631  29.165  28.806  1.00  0.00     0.173 A 
ATOM     85  C   UNL A   1      39.276  28.530  31.029  1.00  0.00     0.173 A 
ATOM     86  F   UNL A   1      38.913  29.348  27.507  1.00  0.00    -0.203 F 
ATOM     87  C   UNL A   1      37.353  29.474  29.266  1.00  0.00     0.198 A 
ATOM     88  C   UNL A   1      37.992  28.817  31.485  1.00  0.00     0.198 A 
ATOM     89  F   UNL A   1      40.187  28.069  31.899  1.00  0.00    -0.203 F 
ATOM     90  F   UNL A   1      36.433  29.951  28.417  1.00  0.00    -0.200 F 
ATOM     91  C   UNL A   1      37.033  29.295  30.604  1.00  0.00     0.200 A 
ATOM     92  F   UNL A   1      37.682  28.625  32.773  1.00  0.00    -0.200 F 
ATOM     93  F   UNL A   1      35.800  29.582  31.046  1.00  0.00    -0.200 F 
ENDBRANCH  59  83
BRANCH  71  94
ATOM     94  C   UNL A   1      45.297  32.617  28.622  1.00  0.00     0.064 A 
ATOM     95  C   UNL A   1      45.783  33.131  29.834  1.00  0.00     0.173 A 
ATOM     96  C   UNL A   1      44.996  33.520  27.594  1.00  0.00     0.173 A 
ATOM     97  F   UNL A   1      46.075  32.305  30.850  1.00  0.00    -0.203 F 
ATOM     98  C   UNL A   1      45.947  34.500  30.014  1.00  0.00     0.198 A 
ATOM     99  C   UNL A   1      45.188  34.888  27.769  1.00  0.00     0.198 A 
ATOM    100  F   UNL A   1      44.539  33.075  26.414  1.00  0.00    -0.203 F 
ATOM    101  F   UNL A   1      46.382  34.972  31.191  1.00  0.00    -0.200 F 
ATOM    102  C   UNL A   1      45.652  35.377  28.981  1.00  0.00     0.200 A 
ATOM    103  F   UNL A   1      44.923  35.734  26.764  1.00  0.00    -0.200 F 
ATOM    104  F   UNL A   1      45.819  36.696  29.154  1.00  0.00    -0.200 F 
ENDBRANCH  71  94
ENDBRANCH  45  46
ENDBRANCH  37  40
ENDBRANCH  35  36
ENDBRANCH  34  35
ENDBRANCH  33  34
ENDBRANCH   1  33
TORSDOF 17
ENDMDL
