MODEL 1
REMARK VINA RESULT:     -12.8      0.000      0.000
REMARK SMILES O=Cc1ccc2c(c1)C=C(C(=O)NCCCCNC(=O)c1ccc(-c3c4nc(c(-c5c(F)c(F)c(F)c(F)c5F)c5ccc([nH]5)c(-c5c(F)c(F)c(F)c(F)c5F)c5nc(c(-c6c(F)c(F)c(F)c(F)c6F)c6ccc3[nH]6)C=C5)C=C4)cc1)[C@H](C(F)(F)F)O2
REMARK SMILES IDX 16 1 15 2 14 3 13 4 11 5 12 6 10 8 3 9 4 10 8 11 5 12 7 13
REMARK SMILES IDX 6 14 9 15 89 16 84 17 2 18 1 19 85 20 86 21 87 22 88 23
REMARK SMILES IDX 17 24 18 25 19 26 20 28 21 29 22 30 83 31 23 32 82 33 24 34
REMARK SMILES IDX 25 35 26 36 76 37 27 38 81 39 75 40 77 41 28 42 80 43 74 44
REMARK SMILES IDX 73 45 29 47 61 48 41 49 60 50 42 51 45 52 59 53 78 54 43 55
REMARK SMILES IDX 44 56 58 58 79 59 46 60 30 61 31 62 39 63 32 64 33 65 37 66
REMARK SMILES IDX 40 67 34 68 35 69 38 70 36 71 62 72 63 73 71 74 64 75 65 76
REMARK SMILES IDX 69 77 72 78 66 79 67 80 70 81 68 82 47 83 48 84 56 85 49 86
REMARK SMILES IDX 50 87 54 88 57 89 51 90 52 91 55 92 53 93
REMARK H PARENT 13 7 18 27 77 46 45 57
REMARK Flexibility Score: inf
ROOT
ATOM      1  C   UNL A   1      31.512  32.011  26.652  1.00  0.00     0.023 C 
ENDROOT
BRANCH   1   2
ATOM      2  C   UNL A   1      31.636  30.487  26.734  1.00  0.00     0.023 C 
BRANCH   2   3
ATOM      3  C   UNL A   1      33.037  29.949  26.416  1.00  0.00     0.116 C 
BRANCH   3   4
ATOM      4  N   UNL A   1      33.270  29.983  24.982  1.00  0.00    -0.352 N 
ATOM      5  C   UNL A   1      33.255  29.016  24.027  1.00  0.00     0.251 C 
ATOM      6  O   UNL A   1      33.662  29.313  22.906  1.00  0.00    -0.270 OA
ATOM      7  H   UNL A   1      33.480  30.879  24.636  1.00  0.00     0.163 HD
BRANCH   5   8
ATOM      8  C   UNL A   1      32.711  27.649  24.258  1.00  0.00     0.067 C 
ATOM      9  C   UNL A   1      32.627  23.317  26.393  1.00  0.00     0.015 A 
ATOM     10  C   UNL A   1      31.417  23.020  25.764  1.00  0.00     0.015 A 
ATOM     11  C   UNL A   1      33.270  24.533  26.148  1.00  0.00     0.023 A 
ATOM     12  C   UNL A   1      30.838  23.954  24.902  1.00  0.00     0.048 A 
ATOM     13  C   UNL A   1      32.689  25.462  25.276  1.00  0.00     0.018 A 
ATOM     14  C   UNL A   1      31.472  25.173  24.662  1.00  0.00     0.128 A 
ATOM     15  C   UNL A   1      33.302  26.761  25.069  1.00  0.00     0.025 C 
ATOM     16  O   UNL A   1      30.811  26.057  23.866  1.00  0.00    -0.475 OA
ATOM     17  C   UNL A   1      31.518  27.242  23.392  1.00  0.00     0.314 C 
BRANCH   9  18
ATOM     18  C   UNL A   1      33.230  22.363  27.346  1.00  0.00     0.260 C 
ATOM     19  O   UNL A   1      32.839  22.266  28.502  1.00  0.00    -0.298 OA
ENDBRANCH   9  18
BRANCH  17  20
ATOM     20  C   UNL A   1      30.452  28.334  23.136  1.00  0.00     0.429 C 
ATOM     21  F   UNL A   1      30.717  29.082  22.043  1.00  0.00    -0.167 F 
ATOM     22  F   UNL A   1      29.233  27.777  22.906  1.00  0.00    -0.167 F 
ATOM     23  F   UNL A   1      30.306  29.166  24.193  1.00  0.00    -0.167 F 
ENDBRANCH  17  20
ENDBRANCH   5   8
ENDBRANCH   3   4
ENDBRANCH   2   3
ENDBRANCH   1   2
BRANCH   1  24
ATOM     24  C   UNL A   1      32.689  32.779  27.241  1.00  0.00     0.116 C 
BRANCH  24  25
ATOM     25  N   UNL A   1      32.355  34.144  27.609  1.00  0.00    -0.352 N 
ATOM     26  C   UNL A   1      32.943  34.951  28.555  1.00  0.00     0.251 C 
ATOM     27  H   UNL A   1      31.605  34.547  27.113  1.00  0.00     0.163 HD
ATOM     28  O   UNL A   1      32.472  36.044  28.815  1.00  0.00    -0.269 OA
BRANCH  26  29
ATOM     29  C   UNL A   1      34.128  34.455  29.288  1.00  0.00     0.039 A 
ATOM     30  C   UNL A   1      33.937  33.839  30.527  1.00  0.00     0.014 A 
ATOM     31  C   UNL A   1      35.412  34.575  28.748  1.00  0.00     0.014 A 
ATOM     32  C   UNL A   1      35.029  33.284  31.196  1.00  0.00     0.010 A 
ATOM     33  C   UNL A   1      36.487  33.963  29.383  1.00  0.00     0.010 A 
ATOM     34  C   UNL A   1      36.305  33.311  30.612  1.00  0.00    -0.014 A 
BRANCH  34  35
ATOM     35  C   UNL A   1      37.460  32.651  31.270  1.00  0.00     0.031 A 
ATOM     36  C   UNL A   1      38.158  31.503  30.596  1.00  0.00     0.074 A 
ATOM     37  C   UNL A   1      37.830  33.041  32.506  1.00  0.00     0.049 A 
ATOM     38  N   UNL A   1      39.139  30.758  31.038  1.00  0.00    -0.248 NA
ATOM     39  C   UNL A   1      37.669  31.122  29.261  1.00  0.00     0.031 C 
ATOM     40  C   UNL A   1      37.188  34.100  33.286  1.00  0.00     0.029 A 
ATOM     41  N   UNL A   1      38.827  32.578  33.329  1.00  0.00    -0.354 N 
ATOM     42  C   UNL A   1      39.369  29.812  30.049  1.00  0.00     0.074 A 
ATOM     43  C   UNL A   1      38.399  30.048  29.001  1.00  0.00     0.031 C 
ATOM     44  C   UNL A   1      37.813  34.215  34.469  1.00  0.00     0.029 A 
ATOM     45  C   UNL A   1      38.879  33.220  34.542  1.00  0.00     0.049 A 
ATOM     46  H   UNL A   1      39.445  31.857  33.073  1.00  0.00     0.167 HD
ATOM     47  C   UNL A   1      40.319  28.849  30.010  1.00  0.00     0.037 A 
ATOM     48  C   UNL A   1      39.691  33.021  35.599  1.00  0.00     0.037 A 
ATOM     49  C   UNL A   1      41.309  28.645  31.035  1.00  0.00     0.049 A 
ATOM     50  C   UNL A   1      40.759  31.964  35.512  1.00  0.00     0.074 A 
ATOM     51  C   UNL A   1      42.367  27.753  31.048  1.00  0.00     0.029 A 
ATOM     52  N   UNL A   1      41.360  29.345  32.232  1.00  0.00    -0.354 N 
ATOM     53  N   UNL A   1      41.025  31.134  34.532  1.00  0.00    -0.248 NA
ATOM     54  C   UNL A   1      41.646  31.822  36.675  1.00  0.00     0.031 C 
ATOM     55  C   UNL A   1      43.033  27.883  32.270  1.00  0.00     0.029 A 
ATOM     56  C   UNL A   1      42.420  28.889  32.999  1.00  0.00     0.049 A 
ATOM     57  H   UNL A   1      40.736  30.059  32.496  1.00  0.00     0.167 HD
ATOM     58  C   UNL A   1      42.123  30.394  34.947  1.00  0.00     0.074 A 
ATOM     59  C   UNL A   1      42.485  30.882  36.261  1.00  0.00     0.031 C 
ATOM     60  C   UNL A   1      42.772  29.395  34.300  1.00  0.00     0.037 A 
BRANCH  47  61
ATOM     61  C   UNL A   1      40.348  27.940  28.817  1.00  0.00     0.064 A 
ATOM     62  C   UNL A   1      41.078  28.264  27.663  1.00  0.00     0.173 A 
ATOM     63  C   UNL A   1      39.689  26.702  28.850  1.00  0.00     0.173 A 
ATOM     64  F   UNL A   1      41.716  29.442  27.577  1.00  0.00    -0.203 F 
ATOM     65  C   UNL A   1      41.132  27.391  26.581  1.00  0.00     0.198 A 
ATOM     66  C   UNL A   1      39.768  25.819  27.777  1.00  0.00     0.198 A 
ATOM     67  F   UNL A   1      38.981  26.343  29.931  1.00  0.00    -0.203 F 
ATOM     68  F   UNL A   1      41.806  27.738  25.475  1.00  0.00    -0.200 F 
ATOM     69  C   UNL A   1      40.485  26.165  26.642  1.00  0.00     0.200 A 
ATOM     70  F   UNL A   1      39.153  24.630  27.841  1.00  0.00    -0.200 F 
ATOM     71  F   UNL A   1      40.550  25.320  25.604  1.00  0.00    -0.200 F 
ENDBRANCH  47  61
BRANCH  48  72
ATOM     72  C   UNL A   1      39.541  33.850  36.823  1.00  0.00     0.064 A 
ATOM     73  C   UNL A   1      38.808  33.385  37.923  1.00  0.00     0.173 A 
ATOM     74  C   UNL A   1      40.109  35.128  36.911  1.00  0.00     0.173 A 
ATOM     75  F   UNL A   1      38.229  32.176  37.879  1.00  0.00    -0.203 F 
ATOM     76  C   UNL A   1      38.624  34.179  39.053  1.00  0.00     0.198 A 
ATOM     77  C   UNL A   1      39.950  35.910  38.053  1.00  0.00     0.198 A 
ATOM     78  F   UNL A   1      40.827  35.616  35.888  1.00  0.00    -0.203 F 
ATOM     79  F   UNL A   1      37.872  33.731  40.069  1.00  0.00    -0.200 F 
ATOM     80  C   UNL A   1      39.198  35.439  39.118  1.00  0.00     0.200 A 
ATOM     81  F   UNL A   1      40.519  37.122  38.118  1.00  0.00    -0.200 F 
ATOM     82  F   UNL A   1      39.019  36.203  40.204  1.00  0.00    -0.200 F 
ENDBRANCH  48  72
BRANCH  60  83
ATOM     83  C   UNL A   1      43.959  28.789  34.987  1.00  0.00     0.064 A 
ATOM     84  C   UNL A   1      45.253  29.300  34.809  1.00  0.00     0.173 A 
ATOM     85  C   UNL A   1      43.794  27.706  35.865  1.00  0.00     0.173 A 
ATOM     86  F   UNL A   1      45.463  30.324  33.968  1.00  0.00    -0.203 F 
ATOM     87  C   UNL A   1      46.342  28.734  35.465  1.00  0.00     0.198 A 
ATOM     88  C   UNL A   1      44.881  27.162  36.542  1.00  0.00     0.198 A 
ATOM     89  F   UNL A   1      42.576  27.185  36.075  1.00  0.00    -0.203 F 
ATOM     90  F   UNL A   1      47.575  29.209  35.243  1.00  0.00    -0.200 F 
ATOM     91  C   UNL A   1      46.154  27.671  36.336  1.00  0.00     0.200 A 
ATOM     92  F   UNL A   1      44.697  26.143  37.393  1.00  0.00    -0.200 F 
ATOM     93  F   UNL A   1      47.204  27.131  36.972  1.00  0.00    -0.200 F 
ENDBRANCH  60  83
ENDBRANCH  34  35
ENDBRANCH  26  29
ENDBRANCH  24  25
ENDBRANCH   1  24
TORSDOF 13
ENDMDL
MODEL 2
REMARK VINA RESULT:     -12.8      0.314      1.621
REMARK SMILES O=Cc1ccc2c(c1)C=C(C(=O)NCCCCNC(=O)c1ccc(-c3c4nc(c(-c5c(F)c(F)c(F)c(F)c5F)c5ccc([nH]5)c(-c5c(F)c(F)c(F)c(F)c5F)c5nc(c(-c6c(F)c(F)c(F)c(F)c6F)c6ccc3[nH]6)C=C5)C=C4)cc1)[C@H](C(F)(F)F)O2
REMARK SMILES IDX 16 1 15 2 14 3 13 4 11 5 12 6 10 8 3 9 4 10 8 11 5 12 7 13
REMARK SMILES IDX 6 14 9 15 89 16 84 17 2 18 1 19 85 20 86 21 87 22 88 23
REMARK SMILES IDX 17 24 18 25 19 26 20 28 21 29 22 30 83 31 23 32 82 33 24 34
REMARK SMILES IDX 25 35 26 36 76 37 27 38 81 39 75 40 77 41 28 42 80 43 74 44
REMARK SMILES IDX 73 45 29 47 61 48 41 49 60 50 42 51 45 52 59 53 78 54 43 55
REMARK SMILES IDX 44 56 58 58 79 59 46 60 30 61 31 62 39 63 32 64 33 65 37 66
REMARK SMILES IDX 40 67 34 68 35 69 38 70 36 71 62 72 63 73 71 74 64 75 65 76
REMARK SMILES IDX 69 77 72 78 66 79 67 80 70 81 68 82 47 83 48 84 56 85 49 86
REMARK SMILES IDX 50 87 54 88 57 89 51 90 52 91 55 92 53 93
REMARK H PARENT 13 7 18 27 77 46 45 57
REMARK Flexibility Score: inf
ROOT
ATOM      1  C   UNL A   1      31.645  31.956  26.545  1.00  0.00     0.023 C 
ENDROOT
BRANCH   1   2
ATOM      2  C   UNL A   1      31.727  30.429  26.619  1.00  0.00     0.023 C 
BRANCH   2   3
ATOM      3  C   UNL A   1      33.100  29.852  26.252  1.00  0.00     0.116 C 
BRANCH   3   4
ATOM      4  N   UNL A   1      33.248  29.796  24.809  1.00  0.00    -0.352 N 
ATOM      5  C   UNL A   1      33.194  28.770  23.919  1.00  0.00     0.251 C 
ATOM      6  O   UNL A   1      33.530  28.999  22.759  1.00  0.00    -0.270 OA
ATOM      7  H   UNL A   1      33.423  30.671  24.395  1.00  0.00     0.163 HD
BRANCH   5   8
ATOM      8  C   UNL A   1      32.689  27.413  24.269  1.00  0.00     0.067 C 
ATOM      9  C   UNL A   1      32.785  23.242  26.702  1.00  0.00     0.015 A 
ATOM     10  C   UNL A   1      31.555  22.880  26.149  1.00  0.00     0.015 A 
ATOM     11  C   UNL A   1      33.391  24.449  26.346  1.00  0.00     0.023 A 
ATOM     12  C   UNL A   1      30.921  23.740  25.250  1.00  0.00     0.048 A 
ATOM     13  C   UNL A   1      32.754  25.304  25.437  1.00  0.00     0.018 A 
ATOM     14  C   UNL A   1      31.520  24.950  24.898  1.00  0.00     0.128 A 
ATOM     15  C   UNL A   1      33.332  26.595  25.113  1.00  0.00     0.025 C 
ATOM     16  O   UNL A   1      30.807  25.764  24.071  1.00  0.00    -0.475 OA
ATOM     17  C   UNL A   1      31.469  26.925  23.486  1.00  0.00     0.314 C 
BRANCH   9  18
ATOM     18  C   UNL A   1      33.446  22.368  27.692  1.00  0.00     0.260 C 
ATOM     19  O   UNL A   1      34.319  21.571  27.375  1.00  0.00    -0.298 OA
ENDBRANCH   9  18
BRANCH  17  20
ATOM     20  C   UNL A   1      30.371  27.977  23.201  1.00  0.00     0.429 C 
ATOM     21  F   UNL A   1      30.576  28.652  22.048  1.00  0.00    -0.167 F 
ATOM     22  F   UNL A   1      29.156  27.384  23.061  1.00  0.00    -0.167 F 
ATOM     23  F   UNL A   1      30.251  28.878  24.203  1.00  0.00    -0.167 F 
ENDBRANCH  17  20
ENDBRANCH   5   8
ENDBRANCH   3   4
ENDBRANCH   2   3
ENDBRANCH   1   2
BRANCH   1  24
ATOM     24  C   UNL A   1      32.756  32.691  27.285  1.00  0.00     0.116 C 
BRANCH  24  25
ATOM     25  N   UNL A   1      32.408  34.059  27.628  1.00  0.00    -0.352 N 
ATOM     26  C   UNL A   1      32.976  34.882  28.572  1.00  0.00     0.251 C 
ATOM     27  H   UNL A   1      31.663  34.450  27.115  1.00  0.00     0.163 HD
ATOM     28  O   UNL A   1      32.493  35.976  28.810  1.00  0.00    -0.269 OA
BRANCH  26  29
ATOM     29  C   UNL A   1      34.152  34.404  29.331  1.00  0.00     0.039 A 
ATOM     30  C   UNL A   1      33.941  33.755  30.549  1.00  0.00     0.014 A 
ATOM     31  C   UNL A   1      35.447  34.574  28.834  1.00  0.00     0.014 A 
ATOM     32  C   UNL A   1      35.027  33.216  31.240  1.00  0.00     0.010 A 
ATOM     33  C   UNL A   1      36.520  33.978  29.489  1.00  0.00     0.010 A 
ATOM     34  C   UNL A   1      36.320  33.293  30.697  1.00  0.00    -0.014 A 
BRANCH  34  35
ATOM     35  C   UNL A   1      37.473  32.652  31.376  1.00  0.00     0.031 A 
ATOM     36  C   UNL A   1      38.185  31.498  30.727  1.00  0.00     0.074 A 
ATOM     37  C   UNL A   1      37.829  33.064  32.609  1.00  0.00     0.049 A 
ATOM     38  N   UNL A   1      39.167  30.767  31.190  1.00  0.00    -0.248 NA
ATOM     39  C   UNL A   1      37.711  31.093  29.394  1.00  0.00     0.031 C 
ATOM     40  C   UNL A   1      37.172  34.131  33.366  1.00  0.00     0.029 A 
ATOM     41  N   UNL A   1      38.821  32.622  33.448  1.00  0.00    -0.354 N 
ATOM     42  C   UNL A   1      39.412  29.807  30.218  1.00  0.00     0.074 A 
ATOM     43  C   UNL A   1      38.451  30.019  29.158  1.00  0.00     0.031 C 
ATOM     44  C   UNL A   1      37.786  34.269  34.553  1.00  0.00     0.029 A 
ATOM     45  C   UNL A   1      38.858  33.283  34.652  1.00  0.00     0.049 A 
ATOM     46  H   UNL A   1      39.447  31.901  33.210  1.00  0.00     0.167 HD
ATOM     47  C   UNL A   1      40.369  28.850  30.203  1.00  0.00     0.037 A 
ATOM     48  C   UNL A   1      39.661  33.107  35.718  1.00  0.00     0.037 A 
ATOM     49  C   UNL A   1      41.351  28.670  31.241  1.00  0.00     0.049 A 
ATOM     50  C   UNL A   1      40.737  32.056  35.659  1.00  0.00     0.074 A 
ATOM     51  C   UNL A   1      42.415  27.785  31.278  1.00  0.00     0.029 A 
ATOM     52  N   UNL A   1      41.387  29.389  32.426  1.00  0.00    -0.354 N 
ATOM     53  N   UNL A   1      41.018  31.213  34.695  1.00  0.00    -0.248 NA
ATOM     54  C   UNL A   1      41.615  31.938  36.832  1.00  0.00     0.031 C 
ATOM     55  C   UNL A   1      43.069  27.939  32.504  1.00  0.00     0.029 A 
ATOM     56  C   UNL A   1      42.443  28.952  33.211  1.00  0.00     0.049 A 
ATOM     57  H   UNL A   1      40.756  30.103  32.674  1.00  0.00     0.167 HD
ATOM     58  C   UNL A   1      42.117  30.486  35.132  1.00  0.00     0.074 A 
ATOM     59  C   UNL A   1      42.464  30.999  36.440  1.00  0.00     0.031 C 
ATOM     60  C   UNL A   1      42.779  29.482  34.507  1.00  0.00     0.037 A 
BRANCH  47  61
ATOM     61  C   UNL A   1      40.416  27.923  29.026  1.00  0.00     0.064 A 
ATOM     62  C   UNL A   1      39.643  26.753  28.980  1.00  0.00     0.173 A 
ATOM     63  C   UNL A   1      41.196  28.238  27.903  1.00  0.00     0.173 A 
ATOM     64  F   UNL A   1      38.888  26.400  30.032  1.00  0.00    -0.203 F 
ATOM     65  C   UNL A   1      39.662  25.924  27.861  1.00  0.00     0.198 A 
ATOM     66  C   UNL A   1      41.192  27.422  26.775  1.00  0.00     0.198 A 
ATOM     67  F   UNL A   1      41.950  29.347  27.895  1.00  0.00    -0.203 F 
ATOM     68  F   UNL A   1      38.943  24.793  27.854  1.00  0.00    -0.200 F 
ATOM     69  C   UNL A   1      40.429  26.264  26.756  1.00  0.00     0.200 A 
ATOM     70  F   UNL A   1      41.924  27.757  25.704  1.00  0.00    -0.200 F 
ATOM     71  F   UNL A   1      40.435  25.473  25.675  1.00  0.00    -0.200 F 
ENDBRANCH  47  61
BRANCH  48  72
ATOM     72  C   UNL A   1      39.494  33.954  36.927  1.00  0.00     0.064 A 
ATOM     73  C   UNL A   1      40.095  35.218  37.011  1.00  0.00     0.173 A 
ATOM     74  C   UNL A   1      38.750  33.511  38.030  1.00  0.00     0.173 A 
ATOM     75  F   UNL A   1      40.832  35.677  35.990  1.00  0.00    -0.203 F 
ATOM     76  C   UNL A   1      39.981  35.994  38.162  1.00  0.00     0.198 A 
ATOM     77  C   UNL A   1      38.613  34.301  39.169  1.00  0.00     0.198 A 
ATOM     78  F   UNL A   1      38.149  32.312  37.997  1.00  0.00    -0.203 F 
ATOM     79  F   UNL A   1      40.610  37.175  38.236  1.00  0.00    -0.200 F 
ATOM     80  C   UNL A   1      39.237  35.536  39.239  1.00  0.00     0.200 A 
ATOM     81  F   UNL A   1      37.880  33.861  40.202  1.00  0.00    -0.200 F 
ATOM     82  F   UNL A   1      39.129  36.283  40.347  1.00  0.00    -0.200 F 
ENDBRANCH  48  72
BRANCH  60  83
ATOM     83  C   UNL A   1      43.963  28.895  35.214  1.00  0.00     0.064 A 
ATOM     84  C   UNL A   1      45.259  29.395  35.019  1.00  0.00     0.173 A 
ATOM     85  C   UNL A   1      43.795  27.844  36.129  1.00  0.00     0.173 A 
ATOM     86  F   UNL A   1      45.473  30.389  34.144  1.00  0.00    -0.203 F 
ATOM     87  C   UNL A   1      46.346  28.848  35.694  1.00  0.00     0.198 A 
ATOM     88  C   UNL A   1      44.880  27.319  36.824  1.00  0.00     0.198 A 
ATOM     89  F   UNL A   1      42.574  27.335  36.356  1.00  0.00    -0.203 F 
ATOM     90  F   UNL A   1      47.581  29.310  35.456  1.00  0.00    -0.200 F 
ATOM     91  C   UNL A   1      46.155  27.816  36.601  1.00  0.00     0.200 A 
ATOM     92  F   UNL A   1      44.691  26.330  37.709  1.00  0.00    -0.200 F 
ATOM     93  F   UNL A   1      47.202  27.294  37.255  1.00  0.00    -0.200 F 
ENDBRANCH  60  83
ENDBRANCH  34  35
ENDBRANCH  26  29
ENDBRANCH  24  25
ENDBRANCH   1  24
TORSDOF 13
ENDMDL
MODEL 3
REMARK VINA RESULT:     -12.7      3.400      8.688
REMARK SMILES O=Cc1ccc2c(c1)C=C(C(=O)NCCCCNC(=O)c1ccc(-c3c4nc(c(-c5c(F)c(F)c(F)c(F)c5F)c5ccc([nH]5)c(-c5c(F)c(F)c(F)c(F)c5F)c5nc(c(-c6c(F)c(F)c(F)c(F)c6F)c6ccc3[nH]6)C=C5)C=C4)cc1)[C@H](C(F)(F)F)O2
REMARK SMILES IDX 16 1 15 2 14 3 13 4 11 5 12 6 10 8 3 9 4 10 8 11 5 12 7 13
REMARK SMILES IDX 6 14 9 15 89 16 84 17 2 18 1 19 85 20 86 21 87 22 88 23
REMARK SMILES IDX 17 24 18 25 19 26 20 28 21 29 22 30 83 31 23 32 82 33 24 34
REMARK SMILES IDX 25 35 26 36 76 37 27 38 81 39 75 40 77 41 28 42 80 43 74 44
REMARK SMILES IDX 73 45 29 47 61 48 41 49 60 50 42 51 45 52 59 53 78 54 43 55
REMARK SMILES IDX 44 56 58 58 79 59 46 60 30 61 31 62 39 63 32 64 33 65 37 66
REMARK SMILES IDX 40 67 34 68 35 69 38 70 36 71 62 72 63 73 71 74 64 75 65 76
REMARK SMILES IDX 69 77 72 78 66 79 67 80 70 81 68 82 47 83 48 84 56 85 49 86
REMARK SMILES IDX 50 87 54 88 57 89 51 90 52 91 55 92 53 93
REMARK H PARENT 13 7 18 27 77 46 45 57
REMARK Flexibility Score: inf
ROOT
ATOM      1  C   UNL A   1      33.545  27.899  26.795  1.00  0.00     0.023 C 
ENDROOT
BRANCH   1   2
ATOM      2  C   UNL A   1      32.053  27.932  27.137  1.00  0.00     0.023 C 
BRANCH   2   3
ATOM      3  C   UNL A   1      31.172  27.093  26.203  1.00  0.00     0.116 C 
BRANCH   3   4
ATOM      4  N   UNL A   1      30.869  25.813  26.819  1.00  0.00    -0.352 N 
ATOM      5  C   UNL A   1      31.364  24.562  26.628  1.00  0.00     0.251 C 
ATOM      6  O   UNL A   1      30.789  23.628  27.182  1.00  0.00    -0.270 OA
ATOM      7  H   UNL A   1      30.169  25.862  27.509  1.00  0.00     0.163 HD
BRANCH   5   8
ATOM      8  C   UNL A   1      32.596  24.285  25.839  1.00  0.00     0.067 C 
ATOM      9  C   UNL A   1      37.231  23.024  25.329  1.00  0.00     0.015 A 
ATOM     10  C   UNL A   1      37.082  23.002  23.941  1.00  0.00     0.015 A 
ATOM     11  C   UNL A   1      36.157  23.383  26.148  1.00  0.00     0.023 A 
ATOM     12  C   UNL A   1      35.847  23.320  23.373  1.00  0.00     0.048 A 
ATOM     13  C   UNL A   1      34.923  23.709  25.572  1.00  0.00     0.018 A 
ATOM     14  C   UNL A   1      34.770  23.670  24.188  1.00  0.00     0.128 A 
ATOM     15  C   UNL A   1      33.777  24.010  26.409  1.00  0.00     0.025 C 
ATOM     16  O   UNL A   1      33.582  23.898  23.563  1.00  0.00    -0.475 OA
ATOM     17  C   UNL A   1      32.488  24.490  24.327  1.00  0.00     0.314 C 
BRANCH   9  18
ATOM     18  C   UNL A   1      38.515  22.642  25.950  1.00  0.00     0.260 C 
ATOM     19  O   UNL A   1      38.873  21.474  26.037  1.00  0.00    -0.298 OA
ENDBRANCH   9  18
BRANCH  17  20
ATOM     20  C   UNL A   1      31.170  24.025  23.663  1.00  0.00     0.429 C 
ATOM     21  F   UNL A   1      30.187  24.948  23.745  1.00  0.00    -0.167 F 
ATOM     22  F   UNL A   1      31.348  23.802  22.334  1.00  0.00    -0.167 F 
ATOM     23  F   UNL A   1      30.709  22.868  24.193  1.00  0.00    -0.167 F 
ENDBRANCH  17  20
ENDBRANCH   5   8
ENDBRANCH   3   4
ENDBRANCH   2   3
ENDBRANCH   1   2
BRANCH   1  24
ATOM     24  C   UNL A   1      34.048  29.108  26.016  1.00  0.00     0.116 C 
BRANCH  24  25
ATOM     25  N   UNL A   1      33.811  30.368  26.700  1.00  0.00    -0.352 N 
ATOM     26  C   UNL A   1      34.552  30.962  27.695  1.00  0.00     0.251 C 
ATOM     27  H   UNL A   1      33.010  30.865  26.411  1.00  0.00     0.163 HD
ATOM     28  O   UNL A   1      34.155  31.978  28.239  1.00  0.00    -0.269 OA
BRANCH  26  29
ATOM     29  C   UNL A   1      35.813  30.325  28.131  1.00  0.00     0.039 A 
ATOM     30  C   UNL A   1      36.930  30.417  27.297  1.00  0.00     0.014 A 
ATOM     31  C   UNL A   1      35.900  29.667  29.361  1.00  0.00     0.014 A 
ATOM     32  C   UNL A   1      38.155  29.903  27.727  1.00  0.00     0.010 A 
ATOM     33  C   UNL A   1      37.135  29.215  29.815  1.00  0.00     0.010 A 
ATOM     34  C   UNL A   1      38.273  29.330  29.003  1.00  0.00    -0.014 A 
BRANCH  34  35
ATOM     35  C   UNL A   1      39.585  28.856  29.509  1.00  0.00     0.031 A 
ATOM     36  C   UNL A   1      40.362  29.689  30.489  1.00  0.00     0.074 A 
ATOM     37  C   UNL A   1      40.106  27.711  29.027  1.00  0.00     0.049 A 
ATOM     38  N   UNL A   1      41.551  29.478  30.993  1.00  0.00    -0.248 NA
ATOM     39  C   UNL A   1      39.733  30.941  30.940  1.00  0.00     0.031 C 
ATOM     40  C   UNL A   1      39.474  26.850  28.025  1.00  0.00     0.029 A 
ATOM     41  N   UNL A   1      41.295  27.083  29.303  1.00  0.00    -0.354 N 
ATOM     42  C   UNL A   1      41.819  30.575  31.800  1.00  0.00     0.074 A 
ATOM     43  C   UNL A   1      40.690  31.471  31.687  1.00  0.00     0.031 C 
ATOM     44  C   UNL A   1      40.275  25.800  27.780  1.00  0.00     0.029 A 
ATOM     45  C   UNL A   1      41.488  25.929  28.583  1.00  0.00     0.049 A 
ATOM     46  H   UNL A   1      41.947  27.425  29.956  1.00  0.00     0.167 HD
ATOM     47  C   UNL A   1      42.901  30.801  32.582  1.00  0.00     0.037 A 
ATOM     48  C   UNL A   1      42.530  25.076  28.566  1.00  0.00     0.037 A 
ATOM     49  C   UNL A   1      44.003  29.885  32.724  1.00  0.00     0.049 A 
ATOM     50  C   UNL A   1      43.705  25.338  29.470  1.00  0.00     0.074 A 
ATOM     51  C   UNL A   1      45.104  29.984  33.557  1.00  0.00     0.029 A 
ATOM     52  N   UNL A   1      44.143  28.703  32.012  1.00  0.00    -0.354 N 
ATOM     53  N   UNL A   1      43.906  26.334  30.298  1.00  0.00    -0.248 NA
ATOM     54  C   UNL A   1      44.793  24.350  29.446  1.00  0.00     0.031 C 
ATOM     55  C   UNL A   1      45.932  28.883  33.318  1.00  0.00     0.029 A 
ATOM     56  C   UNL A   1      45.324  28.074  32.373  1.00  0.00     0.049 A 
ATOM     57  H   UNL A   1      43.500  28.362  31.350  1.00  0.00     0.167 HD
ATOM     58  C   UNL A   1      45.125  26.080  30.911  1.00  0.00     0.074 A 
ATOM     59  C   UNL A   1      45.611  24.827  30.373  1.00  0.00     0.031 C 
ATOM     60  C   UNL A   1      45.786  26.821  31.834  1.00  0.00     0.037 A 
BRANCH  47  61
ATOM     61  C   UNL A   1      42.951  32.084  33.357  1.00  0.00     0.064 A 
ATOM     62  C   UNL A   1      42.413  32.184  34.649  1.00  0.00     0.173 A 
ATOM     63  C   UNL A   1      43.597  33.210  32.826  1.00  0.00     0.173 A 
ATOM     64  F   UNL A   1      41.774  31.138  35.197  1.00  0.00    -0.203 F 
ATOM     65  C   UNL A   1      42.505  33.368  35.374  1.00  0.00     0.198 A 
ATOM     66  C   UNL A   1      43.713  34.385  33.565  1.00  0.00     0.198 A 
ATOM     67  F   UNL A   1      44.132  33.166  31.597  1.00  0.00    -0.203 F 
ATOM     68  F   UNL A   1      41.953  33.451  36.592  1.00  0.00    -0.200 F 
ATOM     69  C   UNL A   1      43.163  34.465  34.835  1.00  0.00     0.200 A 
ATOM     70  F   UNL A   1      44.359  35.439  33.049  1.00  0.00    -0.200 F 
ATOM     71  F   UNL A   1      43.264  35.599  35.541  1.00  0.00    -0.200 F 
ENDBRANCH  47  61
BRANCH  48  72
ATOM     72  C   UNL A   1      42.507  23.885  27.678  1.00  0.00     0.064 A 
ATOM     73  C   UNL A   1      42.107  22.632  28.162  1.00  0.00     0.173 A 
ATOM     74  C   UNL A   1      42.901  23.970  26.335  1.00  0.00     0.173 A 
ATOM     75  F   UNL A   1      41.740  22.497  29.444  1.00  0.00    -0.203 F 
ATOM     76  C   UNL A   1      42.131  21.503  27.345  1.00  0.00     0.198 A 
ATOM     77  C   UNL A   1      42.896  22.847  25.511  1.00  0.00     0.198 A 
ATOM     78  F   UNL A   1      43.285  25.148  25.821  1.00  0.00    -0.203 F 
ATOM     79  F   UNL A   1      41.796  20.307  27.849  1.00  0.00    -0.200 F 
ATOM     80  C   UNL A   1      42.522  21.613  26.019  1.00  0.00     0.200 A 
ATOM     81  F   UNL A   1      43.261  22.960  24.226  1.00  0.00    -0.200 F 
ATOM     82  F   UNL A   1      42.547  20.527  25.235  1.00  0.00    -0.200 F 
ENDBRANCH  48  72
BRANCH  60  83
ATOM     83  C   UNL A   1      47.087  26.279  32.346  1.00  0.00     0.064 A 
ATOM     84  C   UNL A   1      47.139  25.401  33.439  1.00  0.00     0.173 A 
ATOM     85  C   UNL A   1      48.293  26.612  31.711  1.00  0.00     0.173 A 
ATOM     86  F   UNL A   1      46.015  25.065  34.088  1.00  0.00    -0.203 F 
ATOM     87  C   UNL A   1      48.355  24.896  33.892  1.00  0.00     0.198 A 
ATOM     88  C   UNL A   1      49.503  26.082  32.149  1.00  0.00     0.198 A 
ATOM     89  F   UNL A   1      48.296  27.442  30.657  1.00  0.00    -0.203 F 
ATOM     90  F   UNL A   1      48.385  24.097  34.968  1.00  0.00    -0.200 F 
ATOM     91  C   UNL A   1      49.534  25.231  33.243  1.00  0.00     0.200 A 
ATOM     92  F   UNL A   1      50.640  26.396  31.513  1.00  0.00    -0.200 F 
ATOM     93  F   UNL A   1      50.702  24.738  33.678  1.00  0.00    -0.200 F 
ENDBRANCH  60  83
ENDBRANCH  34  35
ENDBRANCH  26  29
ENDBRANCH  24  25
ENDBRANCH   1  24
TORSDOF 13
ENDMDL
