MODEL 1
REMARK VINA RESULT:     -10.1      0.000      0.000
REMARK SMILES C=CCN1C(=O)/C(=C/c2ccc(OCc3cccc(C(=O)NCCCCNC(=O)c4ccc(-c5c6nc(c(-c7c(F)c(F)c(F)c(F)c7F)c7ccc([nH]7)c(-c7c(F)c(F)c(F)c(F)c7F)c7nc(c(-c8c(F)c(F)c(F)c(F)c8F)c8ccc5[nH]8)C=C7)C=C6)cc4)c3)cc2)C(=O)NC1=S
REMARK SMILES IDX 20 1 21 2 22 3 19 5 15 6 16 7 93 8 17 9 18 10 14 11 13 12
REMARK SMILES IDX 12 13 9 14 10 15 95 16 11 17 94 18 8 19 4 20 5 21 99 22 6 23
REMARK SMILES IDX 7 24 98 25 100 26 96 27 97 29 3 30 2 31 1 32 23 33 24 34
REMARK SMILES IDX 25 35 26 36 27 37 28 38 29 40 30 41 31 42 92 43 32 44 91 45
REMARK SMILES IDX 33 46 34 47 35 48 85 49 36 50 90 51 84 52 86 53 37 54 89 55
REMARK SMILES IDX 83 56 82 57 38 59 70 60 50 61 69 62 51 63 54 64 68 65 87 66
REMARK SMILES IDX 52 67 53 68 67 70 88 71 55 72 39 73 40 74 48 75 41 76 42 77
REMARK SMILES IDX 46 78 49 79 43 80 44 81 47 82 45 83 71 84 72 85 80 86 73 87
REMARK SMILES IDX 74 88 78 89 81 90 75 91 76 92 79 93 77 94 56 95 57 96 65 97
REMARK SMILES IDX 58 98 59 99 63 100 66 101 60 102 61 103 64 104 62 105
REMARK H PARENT 22 4 98 28 27 39 86 58 54 69
REMARK Flexibility Score: inf
ROOT
ATOM      1  C   UNL A   1      37.523  31.643  34.062  1.00  0.00     0.251 C 
ATOM      2  O   UNL A   1      37.519  31.921  35.261  1.00  0.00    -0.269 OA
ATOM      3  N   UNL A   1      36.807  32.452  33.212  1.00  0.00    -0.352 N 
ATOM      4  H   UNL A   1      36.258  33.134  33.663  1.00  0.00     0.163 HD
ENDROOT
BRANCH   1   5
ATOM      5  C   UNL A   1      38.329  30.479  33.591  1.00  0.00     0.040 A 
ATOM      6  C   UNL A   1      40.431  29.276  33.247  1.00  0.00    -0.010 A 
ATOM      7  C   UNL A   1      39.716  28.197  32.715  1.00  0.00     0.007 A 
ATOM      8  C   UNL A   1      39.726  30.429  33.633  1.00  0.00     0.021 A 
ATOM      9  C   UNL A   1      38.328  28.265  32.588  1.00  0.00     0.001 A 
ATOM     10  C   UNL A   1      37.639  29.394  33.035  1.00  0.00     0.014 A 
BRANCH   6  11
ATOM     11  C   UNL A   1      41.930  29.190  33.445  1.00  0.00     0.265 C 
BRANCH  11  12
ATOM     12  O   UNL A   1      42.591  28.459  32.405  1.00  0.00    -0.489 OA
BRANCH  12  13
ATOM     13  C   UNL A   1      43.453  27.458  32.760  1.00  0.00     0.119 A 
ATOM     14  C   UNL A   1      45.403  25.626  33.614  1.00  0.00    -0.024 A 
ATOM     15  C   UNL A   1      45.121  26.764  34.376  1.00  0.00     0.012 A 
ATOM     16  C   UNL A   1      44.657  25.370  32.466  1.00  0.00     0.012 A 
ATOM     17  C   UNL A   1      44.149  27.672  33.951  1.00  0.00     0.047 A 
ATOM     18  C   UNL A   1      43.675  26.279  32.050  1.00  0.00     0.047 A 
BRANCH  14  19
ATOM     19  C   UNL A   1      46.485  24.738  34.039  1.00  0.00     0.027 C 
ATOM     20  N   UNL A   1      47.178  21.350  34.807  1.00  0.00    -0.281 N 
ATOM     21  C   UNL A   1      47.501  22.708  34.806  1.00  0.00     0.265 C 
ATOM     22  C   UNL A   1      45.938  20.864  35.208  1.00  0.00     0.183 C 
ATOM     23  O   UNL A   1      48.647  23.152  34.792  1.00  0.00    -0.268 OA
ATOM     24  C   UNL A   1      46.332  23.615  34.767  1.00  0.00     0.106 C 
ATOM     25  N   UNL A   1      44.988  21.802  35.523  1.00  0.00    -0.298 N 
ATOM     26  S   UNL A   1      45.482  19.259  35.363  1.00  0.00    -0.040 S 
ATOM     27  C   UNL A   1      45.067  23.161  35.371  1.00  0.00     0.263 C 
ATOM     28  H   UNL A   1      44.148  21.457  35.905  1.00  0.00     0.172 HD
ATOM     29  O   UNL A   1      44.170  23.901  35.745  1.00  0.00    -0.269 OA
BRANCH  20  30
ATOM     30  C   UNL A   1      48.251  20.469  34.335  1.00  0.00     0.155 C 
BRANCH  30  31
ATOM     31  C   UNL A   1      49.139  20.178  35.520  1.00  0.00    -0.013 C 
ATOM     32  C   UNL A   1      50.474  20.074  35.457  1.00  0.00     0.006 C 
ENDBRANCH  30  31
ENDBRANCH  20  30
ENDBRANCH  14  19
ENDBRANCH  12  13
ENDBRANCH  11  12
ENDBRANCH   6  11
ENDBRANCH   1   5
BRANCH   3  33
ATOM     33  C   UNL A   1      36.722  32.471  31.765  1.00  0.00     0.116 C 
BRANCH  33  34
ATOM     34  C   UNL A   1      35.344  31.992  31.290  1.00  0.00     0.023 C 
BRANCH  34  35
ATOM     35  C   UNL A   1      34.612  32.985  30.387  1.00  0.00     0.023 C 
BRANCH  35  36
ATOM     36  C   UNL A   1      34.809  32.737  28.895  1.00  0.00     0.116 C 
BRANCH  36  37
ATOM     37  N   UNL A   1      33.939  31.698  28.359  1.00  0.00    -0.352 N 
ATOM     38  C   UNL A   1      34.274  30.416  27.991  1.00  0.00     0.251 C 
ATOM     39  H   UNL A   1      32.993  31.946  28.246  1.00  0.00     0.163 HD
ATOM     40  O   UNL A   1      33.445  29.678  27.469  1.00  0.00    -0.269 OA
BRANCH  38  41
ATOM     41  C   UNL A   1      35.664  29.954  28.182  1.00  0.00     0.039 A 
ATOM     42  C   UNL A   1      36.596  30.187  27.167  1.00  0.00     0.014 A 
ATOM     43  C   UNL A   1      36.058  29.353  29.379  1.00  0.00     0.014 A 
ATOM     44  C   UNL A   1      37.943  29.893  27.387  1.00  0.00     0.010 A 
ATOM     45  C   UNL A   1      37.408  29.122  29.622  1.00  0.00     0.010 A 
ATOM     46  C   UNL A   1      38.364  29.400  28.632  1.00  0.00    -0.014 A 
BRANCH  46  47
ATOM     47  C   UNL A   1      39.801  29.182  28.931  1.00  0.00     0.031 A 
ATOM     48  C   UNL A   1      40.590  30.240  29.646  1.00  0.00     0.074 A 
ATOM     49  C   UNL A   1      40.414  28.069  28.482  1.00  0.00     0.049 A 
ATOM     50  N   UNL A   1      41.872  30.279  29.913  1.00  0.00    -0.248 NA
ATOM     51  C   UNL A   1      39.846  31.427  30.095  1.00  0.00     0.031 C 
ATOM     52  C   UNL A   1      39.769  26.993  27.727  1.00  0.00     0.029 A 
ATOM     53  N   UNL A   1      41.722  27.665  28.581  1.00  0.00    -0.354 N 
ATOM     54  C   UNL A   1      42.088  31.499  30.540  1.00  0.00     0.074 A 
ATOM     55  C   UNL A   1      40.817  32.190  30.574  1.00  0.00     0.031 C 
ATOM     56  C   UNL A   1      40.678  26.046  27.447  1.00  0.00     0.029 A 
ATOM     57  C   UNL A   1      41.975  26.461  27.973  1.00  0.00     0.049 A 
ATOM     58  H   UNL A   1      42.413  28.190  29.045  1.00  0.00     0.167 HD
ATOM     59  C   UNL A   1      43.238  31.988  31.058  1.00  0.00     0.037 A 
ATOM     60  C   UNL A   1      43.126  25.771  27.850  1.00  0.00     0.037 A 
ATOM     61  C   UNL A   1      44.494  31.284  31.056  1.00  0.00     0.049 A 
ATOM     62  C   UNL A   1      44.385  26.327  28.456  1.00  0.00     0.074 A 
ATOM     63  C   UNL A   1      45.700  31.668  31.615  1.00  0.00     0.029 A 
ATOM     64  N   UNL A   1      44.701  30.044  30.468  1.00  0.00    -0.354 N 
ATOM     65  N   UNL A   1      44.564  27.451  29.104  1.00  0.00    -0.248 NA
ATOM     66  C   UNL A   1      45.602  25.513  28.318  1.00  0.00     0.031 C 
ATOM     67  C   UNL A   1      46.646  30.676  31.337  1.00  0.00     0.029 A 
ATOM     68  C   UNL A   1      46.019  29.656  30.640  1.00  0.00     0.049 A 
ATOM     69  H   UNL A   1      44.012  29.520  29.999  1.00  0.00     0.167 HD
ATOM     70  C   UNL A   1      45.900  27.468  29.478  1.00  0.00     0.074 A 
ATOM     71  C   UNL A   1      46.487  26.237  28.990  1.00  0.00     0.031 C 
ATOM     72  C   UNL A   1      46.580  28.418  30.164  1.00  0.00     0.037 A 
BRANCH  59  73
ATOM     73  C   UNL A   1      43.190  33.352  31.682  1.00  0.00     0.064 A 
ATOM     74  C   UNL A   1      43.425  34.511  30.929  1.00  0.00     0.173 A 
ATOM     75  C   UNL A   1      42.874  33.503  33.040  1.00  0.00     0.173 A 
ATOM     76  F   UNL A   1      43.742  34.418  29.628  1.00  0.00    -0.203 F 
ATOM     77  C   UNL A   1      43.372  35.771  31.518  1.00  0.00     0.198 A 
ATOM     78  C   UNL A   1      42.796  34.766  33.621  1.00  0.00     0.198 A 
ATOM     79  F   UNL A   1      42.637  32.426  33.803  1.00  0.00    -0.203 F 
ATOM     80  F   UNL A   1      43.645  36.862  30.789  1.00  0.00    -0.200 F 
ATOM     81  C   UNL A   1      43.051  35.898  32.861  1.00  0.00     0.200 A 
ATOM     82  F   UNL A   1      42.475  34.888  34.916  1.00  0.00    -0.200 F 
ATOM     83  F   UNL A   1      42.996  37.111  33.426  1.00  0.00    -0.200 F 
ENDBRANCH  59  73
BRANCH  60  84
ATOM     84  C   UNL A   1      43.132  24.459  27.153  1.00  0.00     0.064 A 
ATOM     85  C   UNL A   1      42.771  23.287  27.831  1.00  0.00     0.173 A 
ATOM     86  C   UNL A   1      43.499  24.349  25.805  1.00  0.00     0.173 A 
ATOM     87  F   UNL A   1      42.432  23.341  29.128  1.00  0.00    -0.203 F 
ATOM     88  C   UNL A   1      42.794  22.050  27.191  1.00  0.00     0.198 A 
ATOM     89  C   UNL A   1      43.499  23.115  25.159  1.00  0.00     0.198 A 
ATOM     90  F   UNL A   1      43.849  25.443  25.111  1.00  0.00    -0.203 F 
ATOM     91  F   UNL A   1      42.484  20.939  27.873  1.00  0.00    -0.200 F 
ATOM     92  C   UNL A   1      43.152  21.965  25.854  1.00  0.00     0.200 A 
ATOM     93  F   UNL A   1      43.834  23.038  23.864  1.00  0.00    -0.200 F 
ATOM     94  F   UNL A   1      43.172  20.776  25.238  1.00  0.00    -0.200 F 
ENDBRANCH  60  84
BRANCH  72  95
ATOM     95  C   UNL A   1      48.023  28.148  30.468  1.00  0.00     0.064 A 
ATOM     96  C   UNL A   1      48.438  27.711  31.734  1.00  0.00     0.173 A 
ATOM     97  C   UNL A   1      48.994  28.281  29.464  1.00  0.00     0.173 A 
ATOM     98  F   UNL A   1      47.550  27.584  32.729  1.00  0.00    -0.203 F 
ATOM     99  C   UNL A   1      49.779  27.432  31.987  1.00  0.00     0.198 A 
ATOM    100  C   UNL A   1      50.329  27.977  29.714  1.00  0.00     0.198 A 
ATOM    101  F   UNL A   1      48.644  28.691  28.235  1.00  0.00    -0.203 F 
ATOM    102  F   UNL A   1      50.161  27.051  33.214  1.00  0.00    -0.200 F 
ATOM    103  C   UNL A   1      50.721  27.558  30.976  1.00  0.00     0.200 A 
ATOM    104  F   UNL A   1      51.236  28.089  28.734  1.00  0.00    -0.200 F 
ATOM    105  F   UNL A   1      52.009  27.281  31.221  1.00  0.00    -0.200 F 
ENDBRANCH  72  95
ENDBRANCH  46  47
ENDBRANCH  38  41
ENDBRANCH  36  37
ENDBRANCH  35  36
ENDBRANCH  34  35
ENDBRANCH  33  34
ENDBRANCH   3  33
TORSDOF 17
ENDMDL
MODEL 2
REMARK VINA RESULT:     -10.1      4.480     10.235
REMARK SMILES C=CCN1C(=O)/C(=C/c2ccc(OCc3cccc(C(=O)NCCCCNC(=O)c4ccc(-c5c6nc(c(-c7c(F)c(F)c(F)c(F)c7F)c7ccc([nH]7)c(-c7c(F)c(F)c(F)c(F)c7F)c7nc(c(-c8c(F)c(F)c(F)c(F)c8F)c8ccc5[nH]8)C=C7)C=C6)cc4)c3)cc2)C(=O)NC1=S
REMARK SMILES IDX 20 1 21 2 22 3 19 5 15 6 16 7 93 8 17 9 18 10 14 11 13 12
REMARK SMILES IDX 12 13 9 14 10 15 95 16 11 17 94 18 8 19 4 20 5 21 99 22 6 23
REMARK SMILES IDX 7 24 98 25 100 26 96 27 97 29 3 30 2 31 1 32 23 33 24 34
REMARK SMILES IDX 25 35 26 36 27 37 28 38 29 40 30 41 31 42 92 43 32 44 91 45
REMARK SMILES IDX 33 46 34 47 35 48 85 49 36 50 90 51 84 52 86 53 37 54 89 55
REMARK SMILES IDX 83 56 82 57 38 59 70 60 50 61 69 62 51 63 54 64 68 65 87 66
REMARK SMILES IDX 52 67 53 68 67 70 88 71 55 72 39 73 40 74 48 75 41 76 42 77
REMARK SMILES IDX 46 78 49 79 43 80 44 81 47 82 45 83 71 84 72 85 80 86 73 87
REMARK SMILES IDX 74 88 78 89 81 90 75 91 76 92 79 93 77 94 56 95 57 96 65 97
REMARK SMILES IDX 58 98 59 99 63 100 66 101 60 102 61 103 64 104 62 105
REMARK H PARENT 22 4 98 28 27 39 86 58 54 69
REMARK Flexibility Score: inf
ROOT
ATOM      1  C   UNL A   1      45.668  20.694  24.943  1.00  0.00     0.251 C 
ATOM      2  O   UNL A   1      46.637  19.945  25.075  1.00  0.00    -0.269 OA
ATOM      3  N   UNL A   1      45.866  21.893  24.300  1.00  0.00    -0.352 N 
ATOM      4  H   UNL A   1      46.807  22.095  24.092  1.00  0.00     0.163 HD
ENDROOT
BRANCH   1   5
ATOM      5  C   UNL A   1      44.336  20.250  25.446  1.00  0.00     0.040 A 
ATOM      6  C   UNL A   1      42.144  20.644  26.458  1.00  0.00    -0.010 A 
ATOM      7  C   UNL A   1      41.837  19.288  26.300  1.00  0.00     0.007 A 
ATOM      8  C   UNL A   1      43.416  21.098  26.072  1.00  0.00     0.021 A 
ATOM      9  C   UNL A   1      42.776  18.412  25.754  1.00  0.00     0.001 A 
ATOM     10  C   UNL A   1      44.013  18.894  25.318  1.00  0.00     0.014 A 
BRANCH   6  11
ATOM     11  C   UNL A   1      41.112  21.615  26.993  1.00  0.00     0.265 C 
BRANCH  11  12
ATOM     12  O   UNL A   1      41.103  22.866  26.293  1.00  0.00    -0.489 OA
BRANCH  12  13
ATOM     13  C   UNL A   1      40.911  24.013  27.014  1.00  0.00     0.119 A 
ATOM     14  C   UNL A   1      40.811  26.331  28.596  1.00  0.00    -0.024 A 
ATOM     15  C   UNL A   1      42.000  25.961  27.960  1.00  0.00     0.012 A 
ATOM     16  C   UNL A   1      39.656  25.581  28.378  1.00  0.00     0.012 A 
ATOM     17  C   UNL A   1      42.046  24.809  27.171  1.00  0.00     0.047 A 
ATOM     18  C   UNL A   1      39.707  24.432  27.578  1.00  0.00     0.047 A 
BRANCH  14  19
ATOM     19  C   UNL A   1      40.813  27.493  29.483  1.00  0.00     0.027 C 
ATOM     20  N   UNL A   1      38.931  30.378  30.313  1.00  0.00    -0.281 N 
ATOM     21  C   UNL A   1      40.095  29.608  30.353  1.00  0.00     0.265 C 
ATOM     22  C   UNL A   1      38.234  30.640  29.138  1.00  0.00     0.183 C 
ATOM     23  O   UNL A   1      40.913  29.628  31.270  1.00  0.00    -0.268 OA
ATOM     24  C   UNL A   1      40.261  28.690  29.204  1.00  0.00     0.106 C 
ATOM     25  N   UNL A   1      38.693  30.020  28.004  1.00  0.00    -0.298 N 
ATOM     26  S   UNL A   1      36.903  31.643  28.953  1.00  0.00    -0.040 S 
ATOM     27  C   UNL A   1      39.677  29.073  27.906  1.00  0.00     0.263 C 
ATOM     28  H   UNL A   1      38.264  30.287  27.159  1.00  0.00     0.172 HD
ATOM     29  O   UNL A   1      40.039  28.634  26.825  1.00  0.00    -0.269 OA
BRANCH  20  30
ATOM     30  C   UNL A   1      38.490  30.883  31.617  1.00  0.00     0.155 C 
BRANCH  30  31
ATOM     31  C   UNL A   1      39.259  32.152  31.885  1.00  0.00    -0.013 C 
ATOM     32  C   UNL A   1      38.719  33.379  31.881  1.00  0.00     0.006 C 
ENDBRANCH  30  31
ENDBRANCH  20  30
ENDBRANCH  14  19
ENDBRANCH  12  13
ENDBRANCH  11  12
ENDBRANCH   6  11
ENDBRANCH   1   5
BRANCH   3  33
ATOM     33  C   UNL A   1      44.924  22.911  23.878  1.00  0.00     0.116 C 
BRANCH  33  34
ATOM     34  C   UNL A   1      44.926  24.098  24.849  1.00  0.00     0.023 C 
BRANCH  34  35
ATOM     35  C   UNL A   1      45.836  23.913  26.063  1.00  0.00     0.023 C 
BRANCH  35  36
ATOM     36  C   UNL A   1      46.973  24.925  26.154  1.00  0.00     0.116 C 
BRANCH  36  37
ATOM     37  N   UNL A   1      47.200  25.657  24.914  1.00  0.00    -0.352 N 
ATOM     38  C   UNL A   1      46.875  26.963  24.627  1.00  0.00     0.251 C 
ATOM     39  H   UNL A   1      47.640  25.154  24.192  1.00  0.00     0.163 HD
ATOM     40  O   UNL A   1      47.048  27.417  23.502  1.00  0.00    -0.269 OA
BRANCH  38  41
ATOM     41  C   UNL A   1      46.260  27.797  25.680  1.00  0.00     0.039 A 
ATOM     42  C   UNL A   1      44.868  27.805  25.804  1.00  0.00     0.014 A 
ATOM     43  C   UNL A   1      47.054  28.516  26.575  1.00  0.00     0.014 A 
ATOM     44  C   UNL A   1      44.276  28.468  26.881  1.00  0.00     0.010 A 
ATOM     45  C   UNL A   1      46.470  29.120  27.683  1.00  0.00     0.010 A 
ATOM     46  C   UNL A   1      45.076  29.092  27.852  1.00  0.00    -0.014 A 
BRANCH  46  47
ATOM     47  C   UNL A   1      44.480  29.709  29.064  1.00  0.00     0.031 A 
ATOM     48  C   UNL A   1      44.179  31.179  29.089  1.00  0.00     0.074 A 
ATOM     49  C   UNL A   1      44.291  28.960  30.168  1.00  0.00     0.049 A 
ATOM     50  N   UNL A   1      43.749  31.919  30.081  1.00  0.00    -0.248 NA
ATOM     51  C   UNL A   1      44.422  31.924  27.844  1.00  0.00     0.031 C 
ATOM     52  C   UNL A   1      44.595  27.533  30.285  1.00  0.00     0.029 A 
ATOM     53  N   UNL A   1      43.811  29.299  31.408  1.00  0.00    -0.354 N 
ATOM     54  C   UNL A   1      43.691  33.215  29.585  1.00  0.00     0.074 A 
ATOM     55  C   UNL A   1      44.172  33.170  28.221  1.00  0.00     0.031 C 
ATOM     56  C   UNL A   1      44.280  27.116  31.522  1.00  0.00     0.029 A 
ATOM     57  C   UNL A   1      43.782  28.251  32.294  1.00  0.00     0.049 A 
ATOM     58  H   UNL A   1      43.517  30.209  31.641  1.00  0.00     0.167 HD
ATOM     59  C   UNL A   1      43.257  34.336  30.206  1.00  0.00     0.037 A 
ATOM     60  C   UNL A   1      43.401  28.211  33.586  1.00  0.00     0.037 A 
ATOM     61  C   UNL A   1      42.745  34.374  31.551  1.00  0.00     0.049 A 
ATOM     62  C   UNL A   1      42.901  29.468  34.243  1.00  0.00     0.074 A 
ATOM     63  C   UNL A   1      42.220  35.449  32.246  1.00  0.00     0.029 A 
ATOM     64  N   UNL A   1      42.690  33.280  32.403  1.00  0.00    -0.354 N 
ATOM     65  N   UNL A   1      42.789  30.674  33.745  1.00  0.00    -0.248 NA
ATOM     66  C   UNL A   1      42.468  29.354  35.644  1.00  0.00     0.031 C 
ATOM     67  C   UNL A   1      41.877  35.014  33.530  1.00  0.00     0.029 A 
ATOM     68  C   UNL A   1      42.152  33.660  33.622  1.00  0.00     0.049 A 
ATOM     69  H   UNL A   1      42.990  32.370  32.175  1.00  0.00     0.167 HD
ATOM     70  C   UNL A   1      42.245  31.455  34.754  1.00  0.00     0.074 A 
ATOM     71  C   UNL A   1      42.043  30.585  35.895  1.00  0.00     0.031 C 
ATOM     72  C   UNL A   1      41.941  32.775  34.739  1.00  0.00     0.037 A 
BRANCH  59  73
ATOM     73  C   UNL A   1      43.308  35.619  29.430  1.00  0.00     0.064 A 
ATOM     74  C   UNL A   1      44.410  36.482  29.512  1.00  0.00     0.173 A 
ATOM     75  C   UNL A   1      42.258  35.974  28.570  1.00  0.00     0.173 A 
ATOM     76  F   UNL A   1      45.435  36.193  30.330  1.00  0.00    -0.203 F 
ATOM     77  C   UNL A   1      44.448  37.668  28.783  1.00  0.00     0.198 A 
ATOM     78  C   UNL A   1      42.310  37.147  27.822  1.00  0.00     0.198 A 
ATOM     79  F   UNL A   1      41.183  35.180  28.452  1.00  0.00    -0.203 F 
ATOM     80  F   UNL A   1      45.490  38.499  28.913  1.00  0.00    -0.200 F 
ATOM     81  C   UNL A   1      43.402  37.995  27.934  1.00  0.00     0.200 A 
ATOM     82  F   UNL A   1      41.304  37.457  26.993  1.00  0.00    -0.200 F 
ATOM     83  F   UNL A   1      43.441  39.134  27.229  1.00  0.00    -0.200 F 
ENDBRANCH  59  73
BRANCH  60  84
ATOM     84  C   UNL A   1      43.444  26.927  34.331  1.00  0.00     0.064 A 
ATOM     85  C   UNL A   1      44.660  26.412  34.799  1.00  0.00     0.173 A 
ATOM     86  C   UNL A   1      42.279  26.192  34.589  1.00  0.00     0.173 A 
ATOM     87  F   UNL A   1      45.804  27.071  34.558  1.00  0.00    -0.203 F 
ATOM     88  C   UNL A   1      44.713  25.199  35.482  1.00  0.00     0.198 A 
ATOM     89  C   UNL A   1      42.329  24.991  35.293  1.00  0.00     0.198 A 
ATOM     90  F   UNL A   1      41.090  26.646  34.166  1.00  0.00    -0.203 F 
ATOM     91  F   UNL A   1      45.894  24.708  35.882  1.00  0.00    -0.200 F 
ATOM     92  C   UNL A   1      43.547  24.492  35.733  1.00  0.00     0.200 A 
ATOM     93  F   UNL A   1      41.200  24.316  35.544  1.00  0.00    -0.200 F 
ATOM     94  F   UNL A   1      43.597  23.326  36.392  1.00  0.00    -0.200 F 
ENDBRANCH  60  84
BRANCH  72  95
ATOM     95  C   UNL A   1      41.317  33.353  35.973  1.00  0.00     0.064 A 
ATOM     96  C   UNL A   1      42.094  33.927  36.989  1.00  0.00     0.173 A 
ATOM     97  C   UNL A   1      39.921  33.378  36.114  1.00  0.00     0.173 A 
ATOM     98  F   UNL A   1      43.431  33.913  36.906  1.00  0.00    -0.203 F 
ATOM     99  C   UNL A   1      41.494  34.490  38.113  1.00  0.00     0.198 A 
ATOM    100  C   UNL A   1      39.325  33.965  37.228  1.00  0.00     0.198 A 
ATOM    101  F   UNL A   1      39.135  32.847  35.166  1.00  0.00    -0.203 F 
ATOM    102  F   UNL A   1      42.256  35.000  39.091  1.00  0.00    -0.200 F 
ATOM    103  C   UNL A   1      40.112  34.515  38.228  1.00  0.00     0.200 A 
ATOM    104  F   UNL A   1      37.990  33.998  37.331  1.00  0.00    -0.200 F 
ATOM    105  F   UNL A   1      39.538  35.065  39.306  1.00  0.00    -0.200 F 
ENDBRANCH  72  95
ENDBRANCH  46  47
ENDBRANCH  38  41
ENDBRANCH  36  37
ENDBRANCH  35  36
ENDBRANCH  34  35
ENDBRANCH  33  34
ENDBRANCH   3  33
TORSDOF 17
ENDMDL
MODEL 3
REMARK VINA RESULT:     -10.1      1.580      2.167
REMARK SMILES C=CCN1C(=O)/C(=C/c2ccc(OCc3cccc(C(=O)NCCCCNC(=O)c4ccc(-c5c6nc(c(-c7c(F)c(F)c(F)c(F)c7F)c7ccc([nH]7)c(-c7c(F)c(F)c(F)c(F)c7F)c7nc(c(-c8c(F)c(F)c(F)c(F)c8F)c8ccc5[nH]8)C=C7)C=C6)cc4)c3)cc2)C(=O)NC1=S
REMARK SMILES IDX 20 1 21 2 22 3 19 5 15 6 16 7 93 8 17 9 18 10 14 11 13 12
REMARK SMILES IDX 12 13 9 14 10 15 95 16 11 17 94 18 8 19 4 20 5 21 99 22 6 23
REMARK SMILES IDX 7 24 98 25 100 26 96 27 97 29 3 30 2 31 1 32 23 33 24 34
REMARK SMILES IDX 25 35 26 36 27 37 28 38 29 40 30 41 31 42 92 43 32 44 91 45
REMARK SMILES IDX 33 46 34 47 35 48 85 49 36 50 90 51 84 52 86 53 37 54 89 55
REMARK SMILES IDX 83 56 82 57 38 59 70 60 50 61 69 62 51 63 54 64 68 65 87 66
REMARK SMILES IDX 52 67 53 68 67 70 88 71 55 72 39 73 40 74 48 75 41 76 42 77
REMARK SMILES IDX 46 78 49 79 43 80 44 81 47 82 45 83 71 84 72 85 80 86 73 87
REMARK SMILES IDX 74 88 78 89 81 90 75 91 76 92 79 93 77 94 56 95 57 96 65 97
REMARK SMILES IDX 58 98 59 99 63 100 66 101 60 102 61 103 64 104 62 105
REMARK H PARENT 22 4 98 28 27 39 86 58 54 69
REMARK Flexibility Score: inf
ROOT
ATOM      1  C   UNL A   1      37.450  33.981  32.929  1.00  0.00     0.251 C 
ATOM      2  O   UNL A   1      37.015  34.590  33.907  1.00  0.00    -0.269 OA
ATOM      3  N   UNL A   1      37.697  34.700  31.783  1.00  0.00    -0.352 N 
ATOM      4  H   UNL A   1      37.399  35.638  31.817  1.00  0.00     0.163 HD
ENDROOT
BRANCH   1   5
ATOM      5  C   UNL A   1      37.721  32.519  33.047  1.00  0.00     0.040 A 
ATOM      6  C   UNL A   1      39.166  30.598  33.498  1.00  0.00    -0.010 A 
ATOM      7  C   UNL A   1      38.078  29.742  33.293  1.00  0.00     0.007 A 
ATOM      8  C   UNL A   1      38.982  31.979  33.321  1.00  0.00     0.021 A 
ATOM      9  C   UNL A   1      36.832  30.260  32.936  1.00  0.00     0.001 A 
ATOM     10  C   UNL A   1      36.653  31.641  32.826  1.00  0.00     0.014 A 
BRANCH   6  11
ATOM     11  C   UNL A   1      40.507  30.052  33.944  1.00  0.00     0.265 C 
BRANCH  11  12
ATOM     12  O   UNL A   1      40.430  28.706  34.432  1.00  0.00    -0.489 OA
BRANCH  12  13
ATOM     13  C   UNL A   1      41.553  27.928  34.373  1.00  0.00     0.119 A 
ATOM     14  C   UNL A   1      43.751  26.185  34.506  1.00  0.00    -0.024 A 
ATOM     15  C   UNL A   1      42.477  25.745  34.878  1.00  0.00     0.012 A 
ATOM     16  C   UNL A   1      43.908  27.473  33.997  1.00  0.00     0.012 A 
ATOM     17  C   UNL A   1      41.385  26.613  34.808  1.00  0.00     0.047 A 
ATOM     18  C   UNL A   1      42.807  28.335  33.919  1.00  0.00     0.047 A 
BRANCH  14  19
ATOM     19  C   UNL A   1      44.889  25.282  34.670  1.00  0.00     0.027 C 
ATOM     20  N   UNL A   1      46.319  22.972  36.944  1.00  0.00    -0.281 N 
ATOM     21  C   UNL A   1      46.372  23.783  35.809  1.00  0.00     0.265 C 
ATOM     22  C   UNL A   1      45.846  23.417  38.174  1.00  0.00     0.183 C 
ATOM     23  O   UNL A   1      47.072  23.558  34.824  1.00  0.00    -0.268 OA
ATOM     24  C   UNL A   1      45.457  24.946  35.844  1.00  0.00     0.106 C 
ATOM     25  N   UNL A   1      45.334  24.690  38.207  1.00  0.00    -0.298 N 
ATOM     26  S   UNL A   1      45.847  22.575  39.623  1.00  0.00    -0.040 S 
ATOM     27  C   UNL A   1      45.113  25.533  37.151  1.00  0.00     0.263 C 
ATOM     28  H   UNL A   1      45.097  25.039  39.097  1.00  0.00     0.172 HD
ATOM     29  O   UNL A   1      44.703  26.672  37.316  1.00  0.00    -0.269 OA
BRANCH  20  30
ATOM     30  C   UNL A   1      46.791  21.600  36.735  1.00  0.00     0.155 C 
BRANCH  30  31
ATOM     31  C   UNL A   1      45.653  20.831  36.110  1.00  0.00    -0.013 C 
ATOM     32  C   UNL A   1      45.808  19.856  35.203  1.00  0.00     0.006 C 
ENDBRANCH  30  31
ENDBRANCH  20  30
ENDBRANCH  14  19
ENDBRANCH  12  13
ENDBRANCH  11  12
ENDBRANCH   6  11
ENDBRANCH   1   5
BRANCH   3  33
ATOM     33  C   UNL A   1      38.323  34.311  30.535  1.00  0.00     0.116 C 
BRANCH  33  34
ATOM     34  C   UNL A   1      37.567  33.147  29.882  1.00  0.00     0.023 C 
BRANCH  34  35
ATOM     35  C   UNL A   1      36.145  33.492  29.441  1.00  0.00     0.023 C 
BRANCH  35  36
ATOM     36  C   UNL A   1      35.824  33.103  28.001  1.00  0.00     0.116 C 
BRANCH  36  37
ATOM     37  N   UNL A   1      34.736  32.141  27.888  1.00  0.00    -0.352 N 
ATOM     38  C   UNL A   1      34.807  30.768  27.937  1.00  0.00     0.251 C 
ATOM     39  H   UNL A   1      33.837  32.521  27.761  1.00  0.00     0.163 HD
ATOM     40  O   UNL A   1      33.811  30.082  27.736  1.00  0.00    -0.269 OA
BRANCH  38  41
ATOM     41  C   UNL A   1      36.116  30.125  28.178  1.00  0.00     0.039 A 
ATOM     42  C   UNL A   1      37.075  30.150  27.163  1.00  0.00     0.014 A 
ATOM     43  C   UNL A   1      36.413  29.559  29.419  1.00  0.00     0.014 A 
ATOM     44  C   UNL A   1      38.365  29.681  27.422  1.00  0.00     0.010 A 
ATOM     45  C   UNL A   1      37.714  29.153  29.697  1.00  0.00     0.010 A 
ATOM     46  C   UNL A   1      38.705  29.220  28.703  1.00  0.00    -0.014 A 
BRANCH  46  47
ATOM     47  C   UNL A   1      40.094  28.819  29.037  1.00  0.00     0.031 A 
ATOM     48  C   UNL A   1      40.996  29.769  29.769  1.00  0.00     0.074 A 
ATOM     49  C   UNL A   1      40.568  27.634  28.605  1.00  0.00     0.049 A 
ATOM     50  N   UNL A   1      42.266  29.643  30.067  1.00  0.00    -0.248 NA
ATOM     51  C   UNL A   1      40.403  31.045  30.198  1.00  0.00     0.031 C 
ATOM     52  C   UNL A   1      39.806  26.648  27.836  1.00  0.00     0.029 A 
ATOM     53  N   UNL A   1      41.809  27.064  28.736  1.00  0.00    -0.354 N 
ATOM     54  C   UNL A   1      42.624  30.828  30.697  1.00  0.00     0.074 A 
ATOM     55  C   UNL A   1      41.453  31.678  30.699  1.00  0.00     0.031 C 
ATOM     56  C   UNL A   1      40.590  25.589  27.580  1.00  0.00     0.029 A 
ATOM     57  C   UNL A   1      41.918  25.834  28.137  1.00  0.00     0.049 A 
ATOM     58  H   UNL A   1      42.552  27.497  29.216  1.00  0.00     0.167 HD
ATOM     59  C   UNL A   1      43.816  31.165  31.242  1.00  0.00     0.037 A 
ATOM     60  C   UNL A   1      42.972  25.000  28.042  1.00  0.00     0.037 A 
ATOM     61  C   UNL A   1      44.969  30.304  31.271  1.00  0.00     0.049 A 
ATOM     62  C   UNL A   1      44.278  25.391  28.677  1.00  0.00     0.074 A 
ATOM     63  C   UNL A   1      46.201  30.531  31.858  1.00  0.00     0.029 A 
ATOM     64  N   UNL A   1      45.026  29.045  30.690  1.00  0.00    -0.354 N 
ATOM     65  N   UNL A   1      44.586  26.486  29.327  1.00  0.00    -0.248 NA
ATOM     66  C   UNL A   1      45.381  24.426  28.570  1.00  0.00     0.031 C 
ATOM     67  C   UNL A   1      47.016  29.423  31.604  1.00  0.00     0.029 A 
ATOM     68  C   UNL A   1      46.279  28.490  30.895  1.00  0.00     0.049 A 
ATOM     69  H   UNL A   1      44.287  28.613  30.205  1.00  0.00     0.167 HD
ATOM     70  C   UNL A   1      45.904  26.330  29.734  1.00  0.00     0.074 A 
ATOM     71  C   UNL A   1      46.337  25.031  29.262  1.00  0.00     0.031 C 
ATOM     72  C   UNL A   1      46.685  27.187  30.434  1.00  0.00     0.037 A 
BRANCH  59  73
ATOM     73  C   UNL A   1      43.931  32.526  31.862  1.00  0.00     0.064 A 
ATOM     74  C   UNL A   1      44.259  33.655  31.097  1.00  0.00     0.173 A 
ATOM     75  C   UNL A   1      43.678  32.710  33.229  1.00  0.00     0.173 A 
ATOM     76  F   UNL A   1      44.521  33.530  29.787  1.00  0.00    -0.203 F 
ATOM     77  C   UNL A   1      44.357  34.914  31.684  1.00  0.00     0.198 A 
ATOM     78  C   UNL A   1      43.750  33.974  33.808  1.00  0.00     0.198 A 
ATOM     79  F   UNL A   1      43.355  31.663  34.004  1.00  0.00    -0.203 F 
ATOM     80  F   UNL A   1      44.718  35.970  30.943  1.00  0.00    -0.200 F 
ATOM     81  C   UNL A   1      44.096  35.073  33.036  1.00  0.00     0.200 A 
ATOM     82  F   UNL A   1      43.488  34.128  35.113  1.00  0.00    -0.200 F 
ATOM     83  F   UNL A   1      44.187  36.286  33.599  1.00  0.00    -0.200 F 
ENDBRANCH  59  73
BRANCH  60  84
ATOM     84  C   UNL A   1      42.824  23.695  27.348  1.00  0.00     0.064 A 
ATOM     85  C   UNL A   1      43.214  23.548  26.010  1.00  0.00     0.173 A 
ATOM     86  C   UNL A   1      42.292  22.575  28.001  1.00  0.00     0.173 A 
ATOM     87  F   UNL A   1      43.710  24.599  25.338  1.00  0.00    -0.203 F 
ATOM     88  C   UNL A   1      43.060  22.335  25.344  1.00  0.00     0.198 A 
ATOM     89  C   UNL A   1      42.161  21.355  27.343  1.00  0.00     0.198 A 
ATOM     90  F   UNL A   1      41.908  22.664  29.283  1.00  0.00    -0.203 F 
ATOM     91  F   UNL A   1      43.403  22.232  24.053  1.00  0.00    -0.200 F 
ATOM     92  C   UNL A   1      42.539  21.237  26.013  1.00  0.00     0.200 A 
ATOM     93  F   UNL A   1      41.668  20.293  27.994  1.00  0.00    -0.200 F 
ATOM     94  F   UNL A   1      42.394  20.068  25.374  1.00  0.00    -0.200 F 
ENDBRANCH  60  84
BRANCH  72  95
ATOM     95  C   UNL A   1      48.073  26.734  30.773  1.00  0.00     0.064 A 
ATOM     96  C   UNL A   1      48.339  25.975  31.922  1.00  0.00     0.173 A 
ATOM     97  C   UNL A   1      49.141  27.019  29.909  1.00  0.00     0.173 A 
ATOM     98  F   UNL A   1      47.354  25.691  32.785  1.00  0.00    -0.203 F 
ATOM     99  C   UNL A   1      49.630  25.534  32.202  1.00  0.00     0.198 A 
ATOM    100  C   UNL A   1      50.425  26.554  30.179  1.00  0.00     0.198 A 
ATOM    101  F   UNL A   1      48.936  27.737  28.794  1.00  0.00    -0.203 F 
ATOM    102  F   UNL A   1      49.869  24.842  33.324  1.00  0.00    -0.200 F 
ATOM    103  C   UNL A   1      50.668  25.817  31.328  1.00  0.00     0.200 A 
ATOM    104  F   UNL A   1      51.426  26.820  29.328  1.00  0.00    -0.200 F 
ATOM    105  F   UNL A   1      51.908  25.383  31.595  1.00  0.00    -0.200 F 
ENDBRANCH  72  95
ENDBRANCH  46  47
ENDBRANCH  38  41
ENDBRANCH  36  37
ENDBRANCH  35  36
ENDBRANCH  34  35
ENDBRANCH  33  34
ENDBRANCH   3  33
TORSDOF 17
ENDMDL
