MODEL 1
REMARK VINA RESULT:     -14.5      0.000      0.000
REMARK SMILES O=C(NCCCCNC(=O)c1ccc(-c2c3nc(c(-c4c(F)c(F)c(F)c(F)c4F)c4ccc([nH]4)c(-c4c(F)c(F)c(F)c(F)c4F)c4nc(c(-c5c(F)c(F)c(F)c(F)c5F)c5ccc2[nH]5)C=C4)C=C3)cc1)C1=CN(c2ccccc2)C[NH2+][C@H]1c1ccc(NC(=S)NC(=O)c2cc3ccccc3o2)cc1
REMARK SMILES IDX 4 1 3 2 1 3 2 4 74 6 75 7 85 8 76 9 84 10 83 11 86 14 87 15
REMARK SMILES IDX 106 16 88 17 105 18 89 19 90 20 91 22 92 23 93 24 94 25
REMARK SMILES IDX 95 27 96 28 97 29 104 30 98 31 103 32 99 33 102 34 100 35
REMARK SMILES IDX 101 36 77 37 78 38 82 39 79 40 81 41 80 42 5 43 6 44 7 45
REMARK SMILES IDX 8 46 9 47 10 49 11 50 12 51 73 52 13 53 72 54 14 55 15 56
REMARK SMILES IDX 16 57 66 58 17 59 71 60 65 61 67 62 18 63 70 64 64 65 63 66
REMARK SMILES IDX 19 68 51 69 31 70 50 71 32 72 35 73 49 74 68 75 33 76 34 77
REMARK SMILES IDX 48 79 69 80 36 81 20 82 21 83 29 84 22 85 23 86 27 87 30 88
REMARK SMILES IDX 24 89 25 90 28 91 26 92 52 93 53 94 61 95 54 96 55 97 59 98
REMARK SMILES IDX 62 99 56 100 57 101 60 102 58 103 37 104 38 105 46 106
REMARK SMILES IDX 39 107 40 108 44 109 47 110 41 111 42 112 45 113 43 114
REMARK H PARENT 3 5 84 12 84 13 90 21 93 26 8 48 67 67 35 78
REMARK Flexibility Score: inf
ROOT
ATOM      1  C   UNL A   1      31.819  30.178  26.400  1.00  0.00     0.116 C 
ENDROOT
BRANCH   1   2
ATOM      2  N   UNL A   1      32.925  29.745  25.551  1.00  0.00    -0.352 N 
ATOM      3  O   UNL A   1      33.949  28.700  23.850  1.00  0.00    -0.269 OA
ATOM      4  C   UNL A   1      32.899  29.051  24.377  1.00  0.00     0.255 C 
ATOM      5  H   UNL A   1      33.822  29.988  25.874  1.00  0.00     0.163 HD
BRANCH   4   6
ATOM      6  C   UNL A   1      31.584  28.701  23.808  1.00  0.00     0.095 C 
ATOM      7  C   UNL A   1      30.995  29.589  22.998  1.00  0.00     0.107 C 
ATOM      8  C   UNL A   1      30.926  27.444  24.285  1.00  0.00     0.253 C 
ATOM      9  N   UNL A   1      29.652  29.575  22.694  1.00  0.00    -0.300 N 
ATOM     10  N   UNL A   1      29.448  27.452  24.140  1.00  0.00    -0.319 N 
ATOM     11  C   UNL A   1      28.893  28.397  23.150  1.00  0.00     0.393 C 
ATOM     12  H   UNL A   1      29.156  26.513  23.870  1.00  0.00     0.348 HD
ATOM     13  H   UNL A   1      29.087  27.762  25.042  1.00  0.00     0.348 HD
BRANCH   8  14
ATOM     14  C   UNL A   1      31.534  26.142  23.726  1.00  0.00     0.014 A 
ATOM     15  C   UNL A   1      31.272  24.872  24.274  1.00  0.00     0.012 A 
ATOM     16  C   UNL A   1      32.462  26.209  22.673  1.00  0.00     0.012 A 
ATOM     17  C   UNL A   1      32.080  23.767  23.968  1.00  0.00     0.026 A 
ATOM     18  C   UNL A   1      33.248  25.100  22.345  1.00  0.00     0.026 A 
ATOM     19  C   UNL A   1      33.148  23.925  23.092  1.00  0.00     0.040 A 
BRANCH  19  20
ATOM     20  N   UNL A   1      34.145  22.957  22.911  1.00  0.00    -0.332 N 
ATOM     21  H   UNL A   1      34.205  22.600  21.995  1.00  0.00     0.169 HD
BRANCH  20  22
ATOM     22  C   UNL A   1      35.031  22.433  23.772  1.00  0.00     0.177 C 
ATOM     23  S   UNL A   1      36.661  22.702  23.474  1.00  0.00    -0.040 S 
BRANCH  22  24
ATOM     24  N   UNL A   1      34.723  21.782  24.940  1.00  0.00    -0.296 N 
ATOM     25  C   UNL A   1      33.804  20.938  25.598  1.00  0.00     0.293 C 
ATOM     26  H   UNL A   1      35.439  21.987  25.583  1.00  0.00     0.172 HD
ATOM     27  O   UNL A   1      34.011  20.823  26.813  1.00  0.00    -0.265 OA
BRANCH  25  28
ATOM     28  C   UNL A   1      32.688  20.258  24.941  1.00  0.00     0.193 A 
ATOM     29  C   UNL A   1      32.730  19.677  23.690  1.00  0.00     0.065 A 
ATOM     30  O   UNL A   1      32.110  19.218  25.706  1.00  0.00    -0.451 OA
ATOM     31  C   UNL A   1      33.240  18.390  23.951  1.00  0.00     0.021 A 
ATOM     32  C   UNL A   1      32.597  18.063  25.135  1.00  0.00     0.135 A 
ATOM     33  C   UNL A   1      34.022  17.432  23.305  1.00  0.00     0.012 A 
ATOM     34  C   UNL A   1      32.531  16.772  25.642  1.00  0.00     0.048 A 
ATOM     35  C   UNL A   1      34.107  16.164  23.882  1.00  0.00     0.001 A 
ATOM     36  C   UNL A   1      33.320  15.820  24.984  1.00  0.00     0.004 A 
ENDBRANCH  25  28
ENDBRANCH  22  24
ENDBRANCH  20  22
ENDBRANCH  19  20
ENDBRANCH   8  14
BRANCH   9  37
ATOM     37  C   UNL A   1      28.999  30.648  22.033  1.00  0.00     0.046 A 
ATOM     38  C   UNL A   1      28.920  31.931  22.623  1.00  0.00     0.026 A 
ATOM     39  C   UNL A   1      28.354  30.512  20.793  1.00  0.00     0.026 A 
ATOM     40  C   UNL A   1      28.275  33.013  22.009  1.00  0.00     0.002 A 
ATOM     41  C   UNL A   1      27.685  31.585  20.181  1.00  0.00     0.002 A 
ATOM     42  C   UNL A   1      27.653  32.837  20.784  1.00  0.00     0.000 A 
ENDBRANCH   9  37
ENDBRANCH   4   6
ENDBRANCH   1   2
BRANCH   1  43
ATOM     43  C   UNL A   1      30.957  31.241  25.746  1.00  0.00     0.023 C 
BRANCH  43  44
ATOM     44  C   UNL A   1      31.179  32.640  26.294  1.00  0.00     0.023 C 
BRANCH  44  45
ATOM     45  C   UNL A   1      32.365  32.762  27.237  1.00  0.00     0.116 C 
BRANCH  45  46
ATOM     46  N   UNL A   1      32.641  34.137  27.632  1.00  0.00    -0.352 N 
ATOM     47  C   UNL A   1      33.677  34.610  28.398  1.00  0.00     0.251 C 
ATOM     48  H   UNL A   1      32.003  34.814  27.309  1.00  0.00     0.163 HD
ATOM     49  O   UNL A   1      33.711  35.779  28.770  1.00  0.00    -0.269 OA
BRANCH  47  50
ATOM     50  C   UNL A   1      34.735  33.666  28.800  1.00  0.00     0.039 A 
ATOM     51  C   UNL A   1      36.061  33.955  28.478  1.00  0.00     0.014 A 
ATOM     52  C   UNL A   1      34.414  32.556  29.587  1.00  0.00     0.014 A 
ATOM     53  C   UNL A   1      37.080  33.171  29.018  1.00  0.00     0.010 A 
ATOM     54  C   UNL A   1      35.433  31.839  30.198  1.00  0.00     0.010 A 
ATOM     55  C   UNL A   1      36.776  32.137  29.920  1.00  0.00    -0.014 A 
BRANCH  55  56
ATOM     56  C   UNL A   1      37.841  31.343  30.583  1.00  0.00     0.031 A 
ATOM     57  C   UNL A   1      38.196  31.632  32.015  1.00  0.00     0.074 A 
ATOM     58  C   UNL A   1      38.540  30.430  29.877  1.00  0.00     0.049 A 
ATOM     59  N   UNL A   1      39.167  31.141  32.742  1.00  0.00    -0.248 NA
ATOM     60  C   UNL A   1      37.369  32.629  32.716  1.00  0.00     0.031 C 
ATOM     61  C   UNL A   1      38.316  30.089  28.471  1.00  0.00     0.029 A 
ATOM     62  N   UNL A   1      39.596  29.632  30.244  1.00  0.00    -0.354 N 
ATOM     63  C   UNL A   1      39.084  31.788  33.967  1.00  0.00     0.074 A 
ATOM     64  C   UNL A   1      37.998  32.737  33.876  1.00  0.00     0.031 C 
ATOM     65  C   UNL A   1      39.194  29.144  28.101  1.00  0.00     0.029 A 
ATOM     66  C   UNL A   1      40.078  28.848  29.223  1.00  0.00     0.049 A 
ATOM     67  H   UNL A   1      39.974  29.624  31.153  1.00  0.00     0.167 HD
ATOM     68  C   UNL A   1      39.837  31.594  35.073  1.00  0.00     0.037 A 
ATOM     69  C   UNL A   1      41.129  28.003  29.193  1.00  0.00     0.037 A 
ATOM     70  C   UNL A   1      40.888  30.616  35.171  1.00  0.00     0.049 A 
ATOM     71  C   UNL A   1      41.956  27.823  30.441  1.00  0.00     0.074 A 
ATOM     72  C   UNL A   1      41.648  30.282  36.277  1.00  0.00     0.029 A 
ATOM     73  N   UNL A   1      41.330  29.825  34.123  1.00  0.00    -0.354 N 
ATOM     74  N   UNL A   1      41.810  28.374  31.621  1.00  0.00    -0.248 NA
ATOM     75  C   UNL A   1      43.096  26.897  30.352  1.00  0.00     0.031 C 
ATOM     76  C   UNL A   1      42.600  29.341  35.881  1.00  0.00     0.029 A 
ATOM     77  C   UNL A   1      42.382  29.030  34.548  1.00  0.00     0.049 A 
ATOM     78  H   UNL A   1      40.955  29.827  33.213  1.00  0.00     0.167 HD
ATOM     79  C   UNL A   1      42.806  27.831  32.422  1.00  0.00     0.074 A 
ATOM     80  C   UNL A   1      43.544  26.898  31.600  1.00  0.00     0.031 C 
ATOM     81  C   UNL A   1      43.086  28.083  33.724  1.00  0.00     0.037 A 
BRANCH  68  82
ATOM     82  C   UNL A   1      39.567  32.450  36.275  1.00  0.00     0.064 A 
ATOM     83  C   UNL A   1      40.293  33.624  36.527  1.00  0.00     0.173 A 
ATOM     84  C   UNL A   1      38.508  32.135  37.140  1.00  0.00     0.173 A 
ATOM     85  F   UNL A   1      41.324  33.964  35.738  1.00  0.00    -0.203 F 
ATOM     86  C   UNL A   1      39.976  34.443  37.607  1.00  0.00     0.198 A 
ATOM     87  C   UNL A   1      38.172  32.974  38.199  1.00  0.00     0.198 A 
ATOM     88  F   UNL A   1      37.780  31.026  36.941  1.00  0.00    -0.203 F 
ATOM     89  F   UNL A   1      40.704  35.542  37.848  1.00  0.00    -0.200 F 
ATOM     90  C   UNL A   1      38.908  34.124  38.433  1.00  0.00     0.200 A 
ATOM     91  F   UNL A   1      37.130  32.672  38.985  1.00  0.00    -0.200 F 
ATOM     92  F   UNL A   1      38.589  34.929  39.457  1.00  0.00    -0.200 F 
ENDBRANCH  68  82
BRANCH  69  93
ATOM     93  C   UNL A   1      41.476  27.266  27.946  1.00  0.00     0.064 A 
ATOM     94  C   UNL A   1      40.994  25.969  27.716  1.00  0.00     0.173 A 
ATOM     95  C   UNL A   1      42.347  27.812  26.992  1.00  0.00     0.173 A 
ATOM     96  F   UNL A   1      40.173  25.393  28.607  1.00  0.00    -0.203 F 
ATOM     97  C   UNL A   1      41.406  25.231  26.608  1.00  0.00     0.198 A 
ATOM     98  C   UNL A   1      42.728  27.087  25.864  1.00  0.00     0.198 A 
ATOM     99  F   UNL A   1      42.836  29.050  27.156  1.00  0.00    -0.203 F 
ATOM    100  F   UNL A   1      40.991  23.966  26.457  1.00  0.00    -0.200 F 
ATOM    101  C   UNL A   1      42.271  25.792  25.682  1.00  0.00     0.200 A 
ATOM    102  F   UNL A   1      43.551  27.640  24.963  1.00  0.00    -0.200 F 
ATOM    103  F   UNL A   1      42.677  25.078  24.623  1.00  0.00    -0.200 F 
ENDBRANCH  69  93
BRANCH  81 104
ATOM    104  C   UNL A   1      44.191  27.295  34.367  1.00  0.00     0.064 A 
ATOM    105  C   UNL A   1      45.496  27.797  34.476  1.00  0.00     0.173 A 
ATOM    106  C   UNL A   1      43.920  26.041  34.939  1.00  0.00     0.173 A 
ATOM    107  F   UNL A   1      45.810  28.984  33.934  1.00  0.00    -0.203 F 
ATOM    108  C   UNL A   1      46.493  27.065  35.113  1.00  0.00     0.198 A 
ATOM    109  C   UNL A   1      44.911  25.329  35.608  1.00  0.00     0.198 A 
ATOM    110  F   UNL A   1      42.687  25.519  34.871  1.00  0.00    -0.203 F 
ATOM    111  F   UNL A   1      47.744  27.543  35.164  1.00  0.00    -0.200 F 
ATOM    112  C   UNL A   1      46.198  25.837  35.688  1.00  0.00     0.200 A 
ATOM    113  F   UNL A   1      44.617  24.153  36.180  1.00  0.00    -0.200 F 
ATOM    114  F   UNL A   1      47.156  25.142  36.316  1.00  0.00    -0.200 F 
ENDBRANCH  81 104
ENDBRANCH  55  56
ENDBRANCH  47  50
ENDBRANCH  45  46
ENDBRANCH  44  45
ENDBRANCH  43  44
ENDBRANCH   1  43
TORSDOF 17
ENDMDL
MODEL 2
REMARK VINA RESULT:     -14.4      1.154      6.820
REMARK SMILES O=C(NCCCCNC(=O)c1ccc(-c2c3nc(c(-c4c(F)c(F)c(F)c(F)c4F)c4ccc([nH]4)c(-c4c(F)c(F)c(F)c(F)c4F)c4nc(c(-c5c(F)c(F)c(F)c(F)c5F)c5ccc2[nH]5)C=C4)C=C3)cc1)C1=CN(c2ccccc2)C[NH2+][C@H]1c1ccc(NC(=S)NC(=O)c2cc3ccccc3o2)cc1
REMARK SMILES IDX 4 1 3 2 1 3 2 4 74 6 75 7 85 8 76 9 84 10 83 11 86 14 87 15
REMARK SMILES IDX 106 16 88 17 105 18 89 19 90 20 91 22 92 23 93 24 94 25
REMARK SMILES IDX 95 27 96 28 97 29 104 30 98 31 103 32 99 33 102 34 100 35
REMARK SMILES IDX 101 36 77 37 78 38 82 39 79 40 81 41 80 42 5 43 6 44 7 45
REMARK SMILES IDX 8 46 9 47 10 49 11 50 12 51 73 52 13 53 72 54 14 55 15 56
REMARK SMILES IDX 16 57 66 58 17 59 71 60 65 61 67 62 18 63 70 64 64 65 63 66
REMARK SMILES IDX 19 68 51 69 31 70 50 71 32 72 35 73 49 74 68 75 33 76 34 77
REMARK SMILES IDX 48 79 69 80 36 81 20 82 21 83 29 84 22 85 23 86 27 87 30 88
REMARK SMILES IDX 24 89 25 90 28 91 26 92 52 93 53 94 61 95 54 96 55 97 59 98
REMARK SMILES IDX 62 99 56 100 57 101 60 102 58 103 37 104 38 105 46 106
REMARK SMILES IDX 39 107 40 108 44 109 47 110 41 111 42 112 45 113 43 114
REMARK H PARENT 3 5 84 12 84 13 90 21 93 26 8 48 67 67 35 78
REMARK Flexibility Score: inf
ROOT
ATOM      1  C   UNL A   1      31.904  29.047  26.703  1.00  0.00     0.116 C 
ENDROOT
BRANCH   1   2
ATOM      2  N   UNL A   1      32.935  29.188  25.679  1.00  0.00    -0.352 N 
ATOM      3  O   UNL A   1      33.856  29.101  23.635  1.00  0.00    -0.269 OA
ATOM      4  C   UNL A   1      32.848  29.023  24.328  1.00  0.00     0.255 C 
ATOM      5  H   UNL A   1      33.826  29.440  26.013  1.00  0.00     0.163 HD
BRANCH   4   6
ATOM      6  C   UNL A   1      31.528  28.697  23.754  1.00  0.00     0.095 C 
ATOM      7  C   UNL A   1      30.938  29.617  22.980  1.00  0.00     0.107 C 
ATOM      8  C   UNL A   1      30.868  27.427  24.189  1.00  0.00     0.253 C 
ATOM      9  N   UNL A   1      29.593  29.619  22.683  1.00  0.00    -0.300 N 
ATOM     10  N   UNL A   1      29.389  27.445  24.053  1.00  0.00    -0.319 N 
ATOM     11  C   UNL A   1      28.833  28.427  23.100  1.00  0.00     0.393 C 
ATOM     12  H   UNL A   1      29.092  26.517  23.750  1.00  0.00     0.348 HD
ATOM     13  H   UNL A   1      29.034  27.724  24.967  1.00  0.00     0.348 HD
BRANCH   8  14
ATOM     14  C   UNL A   1      31.469  26.144  23.581  1.00  0.00     0.014 A 
ATOM     15  C   UNL A   1      31.076  24.849  23.971  1.00  0.00     0.012 A 
ATOM     16  C   UNL A   1      32.518  26.245  22.652  1.00  0.00     0.012 A 
ATOM     17  C   UNL A   1      31.855  23.727  23.653  1.00  0.00     0.026 A 
ATOM     18  C   UNL A   1      33.278  25.121  22.309  1.00  0.00     0.026 A 
ATOM     19  C   UNL A   1      33.026  23.893  22.924  1.00  0.00     0.040 A 
BRANCH  19  20
ATOM     20  N   UNL A   1      33.985  22.883  22.765  1.00  0.00    -0.332 N 
ATOM     21  H   UNL A   1      33.970  22.442  21.885  1.00  0.00     0.169 HD
BRANCH  20  22
ATOM     22  C   UNL A   1      34.919  22.416  23.607  1.00  0.00     0.177 C 
ATOM     23  S   UNL A   1      36.524  22.776  23.270  1.00  0.00    -0.040 S 
BRANCH  22  24
ATOM     24  N   UNL A   1      34.677  21.754  24.784  1.00  0.00    -0.296 N 
ATOM     25  C   UNL A   1      33.797  20.901  25.484  1.00  0.00     0.293 C 
ATOM     26  H   UNL A   1      35.426  21.957  25.390  1.00  0.00     0.172 HD
ATOM     27  O   UNL A   1      34.070  20.777  26.685  1.00  0.00    -0.265 OA
BRANCH  25  28
ATOM     28  C   UNL A   1      32.650  20.222  24.882  1.00  0.00     0.193 A 
ATOM     29  C   UNL A   1      32.631  19.639  23.632  1.00  0.00     0.065 A 
ATOM     30  O   UNL A   1      32.107  19.185  25.676  1.00  0.00    -0.451 OA
ATOM     31  C   UNL A   1      33.151  18.352  23.870  1.00  0.00     0.021 A 
ATOM     32  C   UNL A   1      32.565  18.027  25.084  1.00  0.00     0.135 A 
ATOM     33  C   UNL A   1      33.900  17.391  23.189  1.00  0.00     0.012 A 
ATOM     34  C   UNL A   1      32.520  16.738  25.596  1.00  0.00     0.048 A 
ATOM     35  C   UNL A   1      34.010  16.124  23.764  1.00  0.00     0.001 A 
ATOM     36  C   UNL A   1      33.275  15.784  24.902  1.00  0.00     0.004 A 
ENDBRANCH  25  28
ENDBRANCH  22  24
ENDBRANCH  20  22
ENDBRANCH  19  20
ENDBRANCH   8  14
BRANCH   9  37
ATOM     37  C   UNL A   1      28.941  30.717  22.064  1.00  0.00     0.046 A 
ATOM     38  C   UNL A   1      28.418  30.614  20.755  1.00  0.00     0.026 A 
ATOM     39  C   UNL A   1      28.811  31.977  22.671  1.00  0.00     0.026 A 
ATOM     40  C   UNL A   1      27.778  31.677  20.105  1.00  0.00     0.002 A 
ATOM     41  C   UNL A   1      28.192  33.056  22.017  1.00  0.00     0.002 A 
ATOM     42  C   UNL A   1      27.667  32.904  20.739  1.00  0.00     0.000 A 
ENDBRANCH   9  37
ENDBRANCH   4   6
ENDBRANCH   1   2
BRANCH   1  43
ATOM     43  C   UNL A   1      31.477  30.376  27.296  1.00  0.00     0.023 C 
BRANCH  43  44
ATOM     44  C   UNL A   1      32.073  31.585  26.594  1.00  0.00     0.023 C 
BRANCH  44  45
ATOM     45  C   UNL A   1      33.029  32.398  27.453  1.00  0.00     0.116 C 
BRANCH  45  46
ATOM     46  N   UNL A   1      32.598  33.777  27.637  1.00  0.00    -0.352 N 
ATOM     47  C   UNL A   1      33.078  34.705  28.527  1.00  0.00     0.251 C 
ATOM     48  H   UNL A   1      31.870  34.082  27.049  1.00  0.00     0.163 HD
ATOM     49  O   UNL A   1      32.527  35.793  28.670  1.00  0.00    -0.269 OA
BRANCH  47  50
ATOM     50  C   UNL A   1      34.253  34.350  29.342  1.00  0.00     0.039 A 
ATOM     51  C   UNL A   1      34.059  33.749  30.586  1.00  0.00     0.014 A 
ATOM     52  C   UNL A   1      35.538  34.516  28.819  1.00  0.00     0.014 A 
ATOM     53  C   UNL A   1      35.159  33.238  31.275  1.00  0.00     0.010 A 
ATOM     54  C   UNL A   1      36.615  33.921  29.460  1.00  0.00     0.010 A 
ATOM     55  C   UNL A   1      36.438  33.277  30.695  1.00  0.00    -0.014 A 
BRANCH  55  56
ATOM     56  C   UNL A   1      37.614  32.661  31.359  1.00  0.00     0.031 A 
ATOM     57  C   UNL A   1      38.318  31.509  30.698  1.00  0.00     0.074 A 
ATOM     58  C   UNL A   1      37.992  33.079  32.585  1.00  0.00     0.049 A 
ATOM     59  N   UNL A   1      39.284  30.755  31.157  1.00  0.00    -0.248 NA
ATOM     60  C   UNL A   1      37.854  31.132  29.352  1.00  0.00     0.031 C 
ATOM     61  C   UNL A   1      37.363  34.160  33.346  1.00  0.00     0.029 A 
ATOM     62  N   UNL A   1      38.988  32.628  33.417  1.00  0.00    -0.354 N 
ATOM     63  C   UNL A   1      39.520  29.804  30.174  1.00  0.00     0.074 A 
ATOM     64  C   UNL A   1      38.570  30.045  29.111  1.00  0.00     0.031 C 
ATOM     65  C   UNL A   1      37.998  34.299  34.521  1.00  0.00     0.029 A 
ATOM     66  C   UNL A   1      39.042  33.285  34.623  1.00  0.00     0.049 A 
ATOM     67  H   UNL A   1      39.606  31.901  33.172  1.00  0.00     0.167 HD
ATOM     68  C   UNL A   1      40.457  28.830  30.155  1.00  0.00     0.037 A 
ATOM     69  C   UNL A   1      39.830  33.076  35.696  1.00  0.00     0.037 A 
ATOM     70  C   UNL A   1      41.427  28.624  31.197  1.00  0.00     0.049 A 
ATOM     71  C   UNL A   1      40.854  31.970  35.646  1.00  0.00     0.074 A 
ATOM     72  C   UNL A   1      42.474  27.720  31.227  1.00  0.00     0.029 A 
ATOM     73  N   UNL A   1      41.464  29.325  32.391  1.00  0.00    -0.354 N 
ATOM     74  N   UNL A   1      41.127  31.135  34.672  1.00  0.00    -0.248 NA
ATOM     75  C   UNL A   1      41.683  31.778  36.846  1.00  0.00     0.031 C 
ATOM     76  C   UNL A   1      43.099  27.822  32.472  1.00  0.00     0.029 A 
ATOM     77  C   UNL A   1      42.492  28.845  33.184  1.00  0.00     0.049 A 
ATOM     78  H   UNL A   1      40.850  30.054  32.640  1.00  0.00     0.167 HD
ATOM     79  C   UNL A   1      42.183  30.354  35.124  1.00  0.00     0.074 A 
ATOM     80  C   UNL A   1      42.510  30.820  36.453  1.00  0.00     0.031 C 
ATOM     81  C   UNL A   1      42.825  29.340  34.494  1.00  0.00     0.037 A 
BRANCH  68  82
ATOM     82  C   UNL A   1      40.488  27.899  28.978  1.00  0.00     0.064 A 
ATOM     83  C   UNL A   1      39.717  26.728  28.939  1.00  0.00     0.173 A 
ATOM     84  C   UNL A   1      41.237  28.231  27.838  1.00  0.00     0.173 A 
ATOM     85  F   UNL A   1      38.994  26.358  30.006  1.00  0.00    -0.203 F 
ATOM     86  C   UNL A   1      39.705  25.918  27.806  1.00  0.00     0.198 A 
ATOM     87  C   UNL A   1      41.196  27.437  26.696  1.00  0.00     0.198 A 
ATOM     88  F   UNL A   1      41.988  29.343  27.824  1.00  0.00    -0.203 F 
ATOM     89  F   UNL A   1      38.987  24.786  27.803  1.00  0.00    -0.200 F 
ATOM     90  C   UNL A   1      40.433  26.280  26.683  1.00  0.00     0.200 A 
ATOM     91  F   UNL A   1      41.887  27.798  25.607  1.00  0.00    -0.200 F 
ATOM     92  F   UNL A   1      40.399  25.512  25.585  1.00  0.00    -0.200 F 
ENDBRANCH  68  82
BRANCH  69  93
ATOM     93  C   UNL A   1      39.689  33.916  36.918  1.00  0.00     0.064 A 
ATOM     94  C   UNL A   1      38.890  33.498  37.993  1.00  0.00     0.173 A 
ATOM     95  C   UNL A   1      40.293  35.177  37.013  1.00  0.00     0.173 A 
ATOM     96  F   UNL A   1      38.274  32.307  37.945  1.00  0.00    -0.203 F 
ATOM     97  C   UNL A   1      38.662  34.327  39.090  1.00  0.00     0.198 A 
ATOM     98  C   UNL A   1      40.096  35.990  38.128  1.00  0.00     0.198 A 
ATOM     99  F   UNL A   1      41.073  35.628  36.019  1.00  0.00    -0.203 F 
ATOM    100  F   UNL A   1      37.830  33.933  40.063  1.00  0.00    -0.200 F 
ATOM    101  C   UNL A   1      39.267  35.572  39.157  1.00  0.00     0.200 A 
ATOM    102  F   UNL A   1      40.697  37.187  38.197  1.00  0.00    -0.200 F 
ATOM    103  F   UNL A   1      39.038  36.375  40.205  1.00  0.00    -0.200 F 
ENDBRANCH  69  93
BRANCH  81 104
ATOM    104  C   UNL A   1      43.989  28.706  35.199  1.00  0.00     0.064 A 
ATOM    105  C   UNL A   1      45.297  29.192  35.059  1.00  0.00     0.173 A 
ATOM    106  C   UNL A   1      43.779  27.632  36.079  1.00  0.00     0.173 A 
ATOM    107  F   UNL A   1      45.553  30.208  34.220  1.00  0.00    -0.203 F 
ATOM    108  C   UNL A   1      46.354  28.613  35.755  1.00  0.00     0.198 A 
ATOM    109  C   UNL A   1      44.833  27.080  36.802  1.00  0.00     0.198 A 
ATOM    110  F   UNL A   1      42.546  27.134  36.257  1.00  0.00    -0.203 F 
ATOM    111  F   UNL A   1      47.603  29.063  35.569  1.00  0.00    -0.200 F 
ATOM    112  C   UNL A   1      46.120  27.565  36.634  1.00  0.00     0.200 A 
ATOM    113  F   UNL A   1      44.599  26.082  37.665  1.00  0.00    -0.200 F 
ATOM    114  F   UNL A   1      47.136  27.021  37.316  1.00  0.00    -0.200 F 
ENDBRANCH  81 104
ENDBRANCH  55  56
ENDBRANCH  47  50
ENDBRANCH  45  46
ENDBRANCH  44  45
ENDBRANCH  43  44
ENDBRANCH   1  43
TORSDOF 17
ENDMDL
MODEL 3
REMARK VINA RESULT:     -14.3      2.263      7.672
REMARK SMILES O=C(NCCCCNC(=O)c1ccc(-c2c3nc(c(-c4c(F)c(F)c(F)c(F)c4F)c4ccc([nH]4)c(-c4c(F)c(F)c(F)c(F)c4F)c4nc(c(-c5c(F)c(F)c(F)c(F)c5F)c5ccc2[nH]5)C=C4)C=C3)cc1)C1=CN(c2ccccc2)C[NH2+][C@H]1c1ccc(NC(=S)NC(=O)c2cc3ccccc3o2)cc1
REMARK SMILES IDX 4 1 3 2 1 3 2 4 74 6 75 7 85 8 76 9 84 10 83 11 86 14 87 15
REMARK SMILES IDX 106 16 88 17 105 18 89 19 90 20 91 22 92 23 93 24 94 25
REMARK SMILES IDX 95 27 96 28 97 29 104 30 98 31 103 32 99 33 102 34 100 35
REMARK SMILES IDX 101 36 77 37 78 38 82 39 79 40 81 41 80 42 5 43 6 44 7 45
REMARK SMILES IDX 8 46 9 47 10 49 11 50 12 51 73 52 13 53 72 54 14 55 15 56
REMARK SMILES IDX 16 57 66 58 17 59 71 60 65 61 67 62 18 63 70 64 64 65 63 66
REMARK SMILES IDX 19 68 51 69 31 70 50 71 32 72 35 73 49 74 68 75 33 76 34 77
REMARK SMILES IDX 48 79 69 80 36 81 20 82 21 83 29 84 22 85 23 86 27 87 30 88
REMARK SMILES IDX 24 89 25 90 28 91 26 92 52 93 53 94 61 95 54 96 55 97 59 98
REMARK SMILES IDX 62 99 56 100 57 101 60 102 58 103 37 104 38 105 46 106
REMARK SMILES IDX 39 107 40 108 44 109 47 110 41 111 42 112 45 113 43 114
REMARK H PARENT 3 5 84 12 84 13 90 21 93 26 8 48 67 67 35 78
REMARK Flexibility Score: inf
ROOT
ATOM      1  C   UNL A   1      32.344  29.335  27.127  1.00  0.00     0.116 C 
ENDROOT
BRANCH   1   2
ATOM      2  N   UNL A   1      33.517  28.537  26.781  1.00  0.00    -0.352 N 
ATOM      3  O   UNL A   1      34.677  26.790  25.985  1.00  0.00    -0.269 OA
ATOM      4  C   UNL A   1      33.597  27.358  26.101  1.00  0.00     0.255 C 
ATOM      5  H   UNL A   1      34.378  28.906  27.085  1.00  0.00     0.163 HD
BRANCH   4   6
ATOM      6  C   UNL A   1      32.349  26.777  25.571  1.00  0.00     0.095 C 
ATOM      7  C   UNL A   1      31.692  27.461  24.626  1.00  0.00     0.107 C 
ATOM      8  C   UNL A   1      31.819  25.539  26.224  1.00  0.00     0.253 C 
ATOM      9  N   UNL A   1      30.370  27.248  24.306  1.00  0.00    -0.300 N 
ATOM     10  N   UNL A   1      30.354  25.356  26.056  1.00  0.00    -0.319 N 
ATOM     11  C   UNL A   1      29.732  26.072  24.924  1.00  0.00     0.393 C 
ATOM     12  H   UNL A   1      30.177  24.360  25.927  1.00  0.00     0.348 HD
ATOM     13  H   UNL A   1      29.931  25.754  26.894  1.00  0.00     0.348 HD
BRANCH   8  14
ATOM     14  C   UNL A   1      32.586  24.247  25.881  1.00  0.00     0.014 A 
ATOM     15  C   UNL A   1      33.038  23.337  26.856  1.00  0.00     0.012 A 
ATOM     16  C   UNL A   1      32.935  23.984  24.545  1.00  0.00     0.012 A 
ATOM     17  C   UNL A   1      34.002  22.364  26.551  1.00  0.00     0.026 A 
ATOM     18  C   UNL A   1      33.872  22.994  24.235  1.00  0.00     0.026 A 
ATOM     19  C   UNL A   1      34.505  22.284  25.258  1.00  0.00     0.040 A 
BRANCH  19  20
ATOM     20  N   UNL A   1      35.628  21.519  24.914  1.00  0.00    -0.332 N 
ATOM     21  H   UNL A   1      35.424  20.701  24.406  1.00  0.00     0.169 HD
BRANCH  20  22
ATOM     22  C   UNL A   1      36.933  21.712  25.160  1.00  0.00     0.177 C 
ATOM     23  S   UNL A   1      37.436  23.270  25.530  1.00  0.00    -0.040 S 
BRANCH  22  24
ATOM     24  N   UNL A   1      37.886  20.728  25.238  1.00  0.00    -0.296 N 
ATOM     25  C   UNL A   1      39.154  20.369  25.741  1.00  0.00     0.293 C 
ATOM     26  H   UNL A   1      37.544  19.953  24.737  1.00  0.00     0.172 HD
ATOM     27  O   UNL A   1      39.585  19.298  25.296  1.00  0.00    -0.265 OA
BRANCH  25  28
ATOM     28  C   UNL A   1      39.925  21.172  26.690  1.00  0.00     0.193 A 
ATOM     29  C   UNL A   1      41.018  20.732  27.408  1.00  0.00     0.065 A 
ATOM     30  O   UNL A   1      40.418  22.386  26.158  1.00  0.00    -0.451 OA
ATOM     31  C   UNL A   1      42.089  20.929  26.514  1.00  0.00     0.021 A 
ATOM     32  C   UNL A   1      41.755  22.141  25.930  1.00  0.00     0.135 A 
ATOM     33  C   UNL A   1      43.322  20.342  26.224  1.00  0.00     0.012 A 
ATOM     34  C   UNL A   1      42.647  22.916  25.203  1.00  0.00     0.048 A 
ATOM     35  C   UNL A   1      44.180  21.024  25.360  1.00  0.00     0.001 A 
ATOM     36  C   UNL A   1      43.881  22.316  24.919  1.00  0.00     0.004 A 
ENDBRANCH  25  28
ENDBRANCH  22  24
ENDBRANCH  20  22
ENDBRANCH  19  20
ENDBRANCH   8  14
BRANCH   9  37
ATOM     37  C   UNL A   1      29.625  28.128  23.478  1.00  0.00     0.046 A 
ATOM     38  C   UNL A   1      30.266  29.129  22.712  1.00  0.00     0.026 A 
ATOM     39  C   UNL A   1      28.223  28.106  23.394  1.00  0.00     0.026 A 
ATOM     40  C   UNL A   1      29.566  30.023  21.892  1.00  0.00     0.002 A 
ATOM     41  C   UNL A   1      27.512  29.015  22.593  1.00  0.00     0.002 A 
ATOM     42  C   UNL A   1      28.183  29.967  21.835  1.00  0.00     0.000 A 
ENDBRANCH   9  37
ENDBRANCH   4   6
ENDBRANCH   1   2
BRANCH   1  43
ATOM     43  C   UNL A   1      32.156  30.532  26.214  1.00  0.00     0.023 C 
BRANCH  43  44
ATOM     44  C   UNL A   1      31.686  31.787  26.929  1.00  0.00     0.023 C 
BRANCH  44  45
ATOM     45  C   UNL A   1      32.810  32.674  27.440  1.00  0.00     0.116 C 
BRANCH  45  46
ATOM     46  N   UNL A   1      32.399  34.058  27.636  1.00  0.00    -0.352 N 
ATOM     47  C   UNL A   1      32.910  34.980  28.515  1.00  0.00     0.251 C 
ATOM     48  H   UNL A   1      31.661  34.373  27.065  1.00  0.00     0.163 HD
ATOM     49  O   UNL A   1      32.375  36.073  28.672  1.00  0.00    -0.269 OA
BRANCH  47  50
ATOM     50  C   UNL A   1      34.100  34.609  29.302  1.00  0.00     0.039 A 
ATOM     51  C   UNL A   1      33.929  34.073  30.579  1.00  0.00     0.014 A 
ATOM     52  C   UNL A   1      35.370  34.696  28.726  1.00  0.00     0.014 A 
ATOM     53  C   UNL A   1      35.032  33.545  31.249  1.00  0.00     0.010 A 
ATOM     54  C   UNL A   1      36.445  34.084  29.354  1.00  0.00     0.010 A 
ATOM     55  C   UNL A   1      36.289  33.503  30.623  1.00  0.00    -0.014 A 
BRANCH  55  56
ATOM     56  C   UNL A   1      37.462  32.866  31.271  1.00  0.00     0.031 A 
ATOM     57  C   UNL A   1      38.128  31.693  30.607  1.00  0.00     0.074 A 
ATOM     58  C   UNL A   1      37.871  33.285  32.486  1.00  0.00     0.049 A 
ATOM     59  N   UNL A   1      39.085  30.922  31.055  1.00  0.00    -0.248 NA
ATOM     60  C   UNL A   1      37.632  31.316  29.272  1.00  0.00     0.031 C 
ATOM     61  C   UNL A   1      37.280  34.386  33.249  1.00  0.00     0.029 A 
ATOM     62  N   UNL A   1      38.872  32.819  33.304  1.00  0.00    -0.354 N 
ATOM     63  C   UNL A   1      39.282  29.958  30.076  1.00  0.00     0.074 A 
ATOM     64  C   UNL A   1      38.319  30.211  29.028  1.00  0.00     0.031 C 
ATOM     65  C   UNL A   1      37.939  34.521  34.411  1.00  0.00     0.029 A 
ATOM     66  C   UNL A   1      38.962  33.484  34.503  1.00  0.00     0.049 A 
ATOM     67  H   UNL A   1      39.468  32.077  33.054  1.00  0.00     0.167 HD
ATOM     68  C   UNL A   1      40.196  28.963  30.048  1.00  0.00     0.037 A 
ATOM     69  C   UNL A   1      39.765  33.266  35.564  1.00  0.00     0.037 A 
ATOM     70  C   UNL A   1      41.180  28.743  31.075  1.00  0.00     0.049 A 
ATOM     71  C   UNL A   1      40.762  32.137  35.505  1.00  0.00     0.074 A 
ATOM     72  C   UNL A   1      42.207  27.816  31.094  1.00  0.00     0.029 A 
ATOM     73  N   UNL A   1      41.254  29.453  32.262  1.00  0.00    -0.354 N 
ATOM     74  N   UNL A   1      40.999  31.289  34.534  1.00  0.00    -0.248 NA
ATOM     75  C   UNL A   1      41.608  31.936  36.691  1.00  0.00     0.031 C 
ATOM     76  C   UNL A   1      42.857  27.915  32.326  1.00  0.00     0.029 A 
ATOM     77  C   UNL A   1      42.286  28.956  33.041  1.00  0.00     0.049 A 
ATOM     78  H   UNL A   1      40.662  30.198  32.516  1.00  0.00     0.167 HD
ATOM     79  C   UNL A   1      42.045  30.488  34.973  1.00  0.00     0.074 A 
ATOM     80  C   UNL A   1      42.406  30.956  36.292  1.00  0.00     0.031 C 
ATOM     81  C   UNL A   1      42.653  29.455  34.341  1.00  0.00     0.037 A 
BRANCH  68  82
ATOM     82  C   UNL A   1      40.186  28.022  28.880  1.00  0.00     0.064 A 
ATOM     83  C   UNL A   1      40.880  28.305  27.694  1.00  0.00     0.173 A 
ATOM     84  C   UNL A   1      39.543  26.778  28.983  1.00  0.00     0.173 A 
ATOM     85  F   UNL A   1      41.501  29.484  27.538  1.00  0.00    -0.203 F 
ATOM     86  C   UNL A   1      40.919  27.383  26.650  1.00  0.00     0.198 A 
ATOM     87  C   UNL A   1      39.612  25.846  27.952  1.00  0.00     0.198 A 
ATOM     88  F   UNL A   1      38.869  26.458  30.098  1.00  0.00    -0.203 F 
ATOM     89  F   UNL A   1      41.559  27.688  25.513  1.00  0.00    -0.200 F 
ATOM     90  C   UNL A   1      40.296  26.151  26.786  1.00  0.00     0.200 A 
ATOM     91  F   UNL A   1      39.024  24.650  28.092  1.00  0.00    -0.200 F 
ATOM     92  F   UNL A   1      40.357  25.256  25.790  1.00  0.00    -0.200 F 
ENDBRANCH  68  82
BRANCH  69  93
ATOM     93  C   UNL A   1      39.664  34.119  36.781  1.00  0.00     0.064 A 
ATOM     94  C   UNL A   1      40.397  35.309  36.891  1.00  0.00     0.173 A 
ATOM     95  C   UNL A   1      38.890  33.732  37.884  1.00  0.00     0.173 A 
ATOM     96  F   UNL A   1      41.170  35.716  35.873  1.00  0.00    -0.203 F 
ATOM     97  C   UNL A   1      40.397  36.053  38.071  1.00  0.00     0.198 A 
ATOM     98  C   UNL A   1      38.859  34.496  39.049  1.00  0.00     0.198 A 
ATOM     99  F   UNL A   1      38.163  32.605  37.835  1.00  0.00    -0.203 F 
ATOM    100  F   UNL A   1      41.169  37.142  38.173  1.00  0.00    -0.200 F 
ATOM    101  C   UNL A   1      39.626  35.646  39.148  1.00  0.00     0.200 A 
ATOM    102  F   UNL A   1      38.099  34.107  40.083  1.00  0.00    -0.200 F 
ATOM    103  F   UNL A   1      39.635  36.353  40.286  1.00  0.00    -0.200 F 
ENDBRANCH  69  93
BRANCH  81 104
ATOM    104  C   UNL A   1      43.816  28.800  35.030  1.00  0.00     0.064 A 
ATOM    105  C   UNL A   1      43.653  27.687  35.868  1.00  0.00     0.173 A 
ATOM    106  C   UNL A   1      45.122  29.258  34.793  1.00  0.00     0.173 A 
ATOM    107  F   UNL A   1      42.424  27.219  36.136  1.00  0.00    -0.203 F 
ATOM    108  C   UNL A   1      44.751  27.072  36.461  1.00  0.00     0.198 A 
ATOM    109  C   UNL A   1      46.220  28.617  35.359  1.00  0.00     0.198 A 
ATOM    110  F   UNL A   1      45.335  30.313  33.992  1.00  0.00    -0.203 F 
ATOM    111  F   UNL A   1      44.567  26.040  37.297  1.00  0.00    -0.200 F 
ATOM    112  C   UNL A   1      46.034  27.530  36.198  1.00  0.00     0.200 A 
ATOM    113  F   UNL A   1      47.459  29.049  35.086  1.00  0.00    -0.200 F 
ATOM    114  F   UNL A   1      47.090  26.925  36.757  1.00  0.00    -0.200 F 
ENDBRANCH  81 104
ENDBRANCH  55  56
ENDBRANCH  47  50
ENDBRANCH  45  46
ENDBRANCH  44  45
ENDBRANCH  43  44
ENDBRANCH   1  43
TORSDOF 17
ENDMDL
