MODEL 1
REMARK VINA RESULT:     -12.1      0.000      0.000
REMARK SMILES COc1cccc(NC(=O)/C(C#N)=C\c2ccc(O[C@@H](C)C(=O)NCCCCNC(=O)c3ccc(-c4c5nc(c(-c6c(F)c(F)c(F)c(F)c6F)c6ccc([nH]6)c(-c6c(F)c(F)c(F)c(F)c6F)c6nc(c(-c7c(F)c(F)c(F)c(F)c7F)c7ccc4[nH]7)C=C6)C=C5)cc3)cc2)c1
REMARK SMILES IDX 22 1 23 2 24 3 20 5 21 6 19 7 18 8 15 9 16 10 96 11 17 12
REMARK SMILES IDX 95 13 14 14 11 15 9 16 8 17 10 19 7 20 3 21 4 22 97 23 5 24
REMARK SMILES IDX 6 25 2 26 1 27 12 28 13 29 25 30 26 31 27 32 28 33 29 34
REMARK SMILES IDX 30 35 31 37 32 38 33 39 94 40 34 41 93 42 35 43 36 44 37 45
REMARK SMILES IDX 87 46 38 47 92 48 86 49 88 50 39 51 91 52 85 53 84 54 40 56
REMARK SMILES IDX 72 57 52 58 71 59 53 60 56 61 70 62 89 63 54 64 55 65 69 67
REMARK SMILES IDX 90 68 57 69 41 70 42 71 50 72 43 73 44 74 48 75 51 76 45 77
REMARK SMILES IDX 46 78 49 79 47 80 73 81 74 82 82 83 75 84 76 85 80 86 83 87
REMARK SMILES IDX 77 88 78 89 81 90 79 91 58 92 59 93 67 94 60 95 61 96 65 97
REMARK SMILES IDX 68 98 62 99 63 100 66 101 64 102
REMARK H PARENT 24 4 8 18 29 36 88 55 56 66
REMARK Flexibility Score: inf
ROOT
ATOM      1  C   UNL A   1      30.849  27.439  23.100  1.00  0.00     0.260 C 
ATOM      2  O   UNL A   1      30.141  27.985  22.241  1.00  0.00    -0.271 OA
ATOM      3  N   UNL A   1      30.193  27.075  24.234  1.00  0.00    -0.353 N 
ATOM      4  H   UNL A   1      29.219  27.207  24.189  1.00  0.00     0.163 HD
ENDROOT
BRANCH   1   5
ATOM      5  C   UNL A   1      32.350  27.134  22.779  1.00  0.00     0.258 C 
ATOM      6  C   UNL A   1      33.094  28.387  22.308  1.00  0.00     0.064 C 
BRANCH   5   7
ATOM      7  O   UNL A   1      32.795  25.884  22.245  1.00  0.00    -0.481 OA
BRANCH   7   8
ATOM      8  C   UNL A   1      33.575  25.026  22.947  1.00  0.00     0.120 A 
ATOM      9  C   UNL A   1      35.532  23.329  24.089  1.00  0.00    -0.024 A 
ATOM     10  C   UNL A   1      34.873  22.969  22.901  1.00  0.00     0.012 A 
ATOM     11  C   UNL A   1      35.083  24.477  24.736  1.00  0.00     0.012 A 
ATOM     12  C   UNL A   1      33.914  23.822  22.328  1.00  0.00     0.047 A 
ATOM     13  C   UNL A   1      34.055  25.258  24.218  1.00  0.00     0.047 A 
BRANCH   9  14
ATOM     14  C   UNL A   1      36.815  22.675  24.434  1.00  0.00     0.033 C 
ATOM     15  C   UNL A   1      37.170  21.473  24.963  1.00  0.00     0.118 C 
BRANCH  15  16
ATOM     16  C   UNL A   1      36.213  20.319  25.138  1.00  0.00     0.266 C 
ATOM     17  N   UNL A   1      34.874  20.387  25.365  1.00  0.00    -0.321 N 
ATOM     18  H   UNL A   1      34.385  19.669  24.901  1.00  0.00     0.170 HD
ATOM     19  O   UNL A   1      36.618  19.156  25.001  1.00  0.00    -0.268 OA
BRANCH  17  20
ATOM     20  C   UNL A   1      34.013  21.218  26.094  1.00  0.00     0.045 A 
ATOM     21  C   UNL A   1      31.804  22.220  26.251  1.00  0.00     0.120 A 
ATOM     22  C   UNL A   1      32.162  22.845  27.439  1.00  0.00     0.046 A 
ATOM     23  C   UNL A   1      32.738  21.448  25.554  1.00  0.00     0.072 A 
ATOM     24  C   UNL A   1      33.405  22.579  28.001  1.00  0.00     0.006 A 
ATOM     25  C   UNL A   1      34.294  21.716  27.359  1.00  0.00     0.026 A 
BRANCH  21  26
ATOM     26  O   UNL A   1      30.528  22.423  25.796  1.00  0.00    -0.497 OA
ATOM     27  C   UNL A   1      29.603  22.579  26.874  1.00  0.00     0.278 C 
ENDBRANCH  21  26
ENDBRANCH  17  20
ENDBRANCH  15  16
BRANCH  15  28
ATOM     28  C   UNL A   1      38.527  21.437  25.404  1.00  0.00     0.105 C 
ATOM     29  N   UNL A   1      39.594  21.268  25.825  1.00  0.00    -0.192 NA
ENDBRANCH  15  28
ENDBRANCH   9  14
ENDBRANCH   7   8
ENDBRANCH   5   7
ENDBRANCH   1   5
BRANCH   3  30
ATOM     30  C   UNL A   1      30.652  26.534  25.490  1.00  0.00     0.116 C 
BRANCH  30  31
ATOM     31  C   UNL A   1      31.153  27.641  26.417  1.00  0.00     0.023 C 
BRANCH  31  32
ATOM     32  C   UNL A   1      32.668  27.796  26.486  1.00  0.00     0.023 C 
BRANCH  32  33
ATOM     33  C   UNL A   1      33.210  29.040  25.792  1.00  0.00     0.116 C 
BRANCH  33  34
ATOM     34  N   UNL A   1      32.635  30.298  26.253  1.00  0.00    -0.352 N 
ATOM     35  C   UNL A   1      33.215  31.227  27.088  1.00  0.00     0.251 C 
ATOM     36  H   UNL A   1      31.729  30.507  25.931  1.00  0.00     0.163 HD
ATOM     37  O   UNL A   1      32.637  32.264  27.379  1.00  0.00    -0.269 OA
BRANCH  35  38
ATOM     38  C   UNL A   1      34.552  30.932  27.627  1.00  0.00     0.039 A 
ATOM     39  C   UNL A   1      35.481  31.960  27.790  1.00  0.00     0.014 A 
ATOM     40  C   UNL A   1      34.811  29.644  28.094  1.00  0.00     0.014 A 
ATOM     41  C   UNL A   1      36.655  31.701  28.499  1.00  0.00     0.010 A 
ATOM     42  C   UNL A   1      35.916  29.424  28.898  1.00  0.00     0.010 A 
ATOM     43  C   UNL A   1      36.858  30.446  29.099  1.00  0.00    -0.014 A 
BRANCH  43  44
ATOM     44  C   UNL A   1      38.055  30.160  29.926  1.00  0.00     0.031 A 
ATOM     45  C   UNL A   1      39.138  29.271  29.378  1.00  0.00     0.074 A 
ATOM     46  C   UNL A   1      38.129  30.636  31.185  1.00  0.00     0.049 A 
ATOM     47  N   UNL A   1      40.225  28.835  29.961  1.00  0.00    -0.248 NA
ATOM     48  C   UNL A   1      38.959  28.772  28.003  1.00  0.00     0.031 C 
ATOM     49  C   UNL A   1      37.110  31.455  31.844  1.00  0.00     0.029 A 
ATOM     50  N   UNL A   1      39.104  30.492  32.141  1.00  0.00    -0.354 N 
ATOM     51  C   UNL A   1      40.843  28.007  29.033  1.00  0.00     0.074 A 
ATOM     52  C   UNL A   1      39.978  27.937  27.878  1.00  0.00     0.031 C 
ATOM     53  C   UNL A   1      37.530  31.773  33.079  1.00  0.00     0.029 A 
ATOM     54  C   UNL A   1      38.821  31.141  33.320  1.00  0.00     0.049 A 
ATOM     55  H   UNL A   1      39.928  29.974  31.996  1.00  0.00     0.167 HD
ATOM     56  C   UNL A   1      42.041  27.385  29.124  1.00  0.00     0.037 A 
ATOM     57  C   UNL A   1      39.526  31.207  34.466  1.00  0.00     0.037 A 
ATOM     58  C   UNL A   1      42.908  27.485  30.266  1.00  0.00     0.049 A 
ATOM     59  C   UNL A   1      40.853  30.495  34.539  1.00  0.00     0.074 A 
ATOM     60  C   UNL A   1      44.170  26.948  30.438  1.00  0.00     0.029 A 
ATOM     61  N   UNL A   1      42.598  28.167  31.434  1.00  0.00    -0.354 N 
ATOM     62  N   UNL A   1      41.465  29.781  33.624  1.00  0.00    -0.248 NA
ATOM     63  C   UNL A   1      41.594  30.607  35.802  1.00  0.00     0.031 C 
ATOM     64  C   UNL A   1      44.595  27.245  31.736  1.00  0.00     0.029 A 
ATOM     65  C   UNL A   1      43.633  28.038  32.343  1.00  0.00     0.049 A 
ATOM     66  H   UNL A   1      41.765  28.668  31.592  1.00  0.00     0.167 HD
ATOM     67  C   UNL A   1      42.676  29.398  34.184  1.00  0.00     0.074 A 
ATOM     68  C   UNL A   1      42.721  29.974  35.511  1.00  0.00     0.031 C 
ATOM     69  C   UNL A   1      43.665  28.637  33.652  1.00  0.00     0.037 A 
BRANCH  56  70
ATOM     70  C   UNL A   1      42.491  26.548  27.961  1.00  0.00     0.064 A 
ATOM     71  C   UNL A   1      43.376  27.041  26.990  1.00  0.00     0.173 A 
ATOM     72  C   UNL A   1      42.078  25.211  27.851  1.00  0.00     0.173 A 
ATOM     73  F   UNL A   1      43.790  28.316  27.039  1.00  0.00    -0.203 F 
ATOM     74  C   UNL A   1      43.815  26.235  25.944  1.00  0.00     0.198 A 
ATOM     75  C   UNL A   1      42.548  24.398  26.823  1.00  0.00     0.198 A 
ATOM     76  F   UNL A   1      41.232  24.687  28.750  1.00  0.00    -0.203 F 
ATOM     77  F   UNL A   1      44.624  26.743  25.003  1.00  0.00    -0.200 F 
ATOM     78  C   UNL A   1      43.411  24.911  25.868  1.00  0.00     0.200 A 
ATOM     79  F   UNL A   1      42.167  23.113  26.761  1.00  0.00    -0.200 F 
ATOM     80  F   UNL A   1      43.851  24.130  24.872  1.00  0.00    -0.200 F 
ENDBRANCH  56  70
BRANCH  57  81
ATOM     81  C   UNL A   1      39.010  31.975  35.633  1.00  0.00     0.064 A 
ATOM     82  C   UNL A   1      39.342  33.325  35.815  1.00  0.00     0.173 A 
ATOM     83  C   UNL A   1      38.217  31.365  36.616  1.00  0.00     0.173 A 
ATOM     84  F   UNL A   1      40.110  33.955  34.913  1.00  0.00    -0.203 F 
ATOM     85  C   UNL A   1      38.944  34.021  36.957  1.00  0.00     0.198 A 
ATOM     86  C   UNL A   1      37.785  32.072  37.736  1.00  0.00     0.198 A 
ATOM     87  F   UNL A   1      37.861  30.078  36.490  1.00  0.00    -0.203 F 
ATOM     88  F   UNL A   1      39.343  35.286  37.141  1.00  0.00    -0.200 F 
ATOM     89  C   UNL A   1      38.163  33.394  37.915  1.00  0.00     0.200 A 
ATOM     90  F   UNL A   1      37.013  31.467  38.650  1.00  0.00    -0.200 F 
ATOM     91  F   UNL A   1      37.787  34.058  39.015  1.00  0.00    -0.200 F 
ENDBRANCH  57  81
BRANCH  69  92
ATOM     92  C   UNL A   1      44.905  28.441  34.478  1.00  0.00     0.064 A 
ATOM     93  C   UNL A   1      45.995  29.321  34.407  1.00  0.00     0.173 A 
ATOM     94  C   UNL A   1      44.986  27.367  35.379  1.00  0.00     0.173 A 
ATOM     95  F   UNL A   1      45.973  30.357  33.555  1.00  0.00    -0.203 F 
ATOM     96  C   UNL A   1      47.138  29.106  35.173  1.00  0.00     0.198 A 
ATOM     97  C   UNL A   1      46.111  27.182  36.176  1.00  0.00     0.198 A 
ATOM     98  F   UNL A   1      43.967  26.503  35.497  1.00  0.00    -0.203 F 
ATOM     99  F   UNL A   1      48.195  29.918  35.037  1.00  0.00    -0.200 F 
ATOM    100  C   UNL A   1      47.192  28.043  36.062  1.00  0.00     0.200 A 
ATOM    101  F   UNL A   1      46.150  26.169  37.051  1.00  0.00    -0.200 F 
ATOM    102  F   UNL A   1      48.288  27.843  36.804  1.00  0.00    -0.200 F 
ENDBRANCH  69  92
ENDBRANCH  43  44
ENDBRANCH  35  38
ENDBRANCH  33  34
ENDBRANCH  32  33
ENDBRANCH  31  32
ENDBRANCH  30  31
ENDBRANCH   3  30
TORSDOF 18
ENDMDL
MODEL 2
REMARK VINA RESULT:     -12.0      1.656      7.235
REMARK SMILES COc1cccc(NC(=O)/C(C#N)=C\c2ccc(O[C@@H](C)C(=O)NCCCCNC(=O)c3ccc(-c4c5nc(c(-c6c(F)c(F)c(F)c(F)c6F)c6ccc([nH]6)c(-c6c(F)c(F)c(F)c(F)c6F)c6nc(c(-c7c(F)c(F)c(F)c(F)c7F)c7ccc4[nH]7)C=C6)C=C5)cc3)cc2)c1
REMARK SMILES IDX 22 1 23 2 24 3 20 5 21 6 19 7 18 8 15 9 16 10 96 11 17 12
REMARK SMILES IDX 95 13 14 14 11 15 9 16 8 17 10 19 7 20 3 21 4 22 97 23 5 24
REMARK SMILES IDX 6 25 2 26 1 27 12 28 13 29 25 30 26 31 27 32 28 33 29 34
REMARK SMILES IDX 30 35 31 37 32 38 33 39 94 40 34 41 93 42 35 43 36 44 37 45
REMARK SMILES IDX 87 46 38 47 92 48 86 49 88 50 39 51 91 52 85 53 84 54 40 56
REMARK SMILES IDX 72 57 52 58 71 59 53 60 56 61 70 62 89 63 54 64 55 65 69 67
REMARK SMILES IDX 90 68 57 69 41 70 42 71 50 72 43 73 44 74 48 75 51 76 45 77
REMARK SMILES IDX 46 78 49 79 47 80 73 81 74 82 82 83 75 84 76 85 80 86 83 87
REMARK SMILES IDX 77 88 78 89 81 90 79 91 58 92 59 93 67 94 60 95 61 96 65 97
REMARK SMILES IDX 68 98 62 99 63 100 66 101 64 102
REMARK H PARENT 24 4 8 18 29 36 88 55 56 66
REMARK Flexibility Score: inf
ROOT
ATOM      1  C   UNL A   1      31.755  28.463  23.680  1.00  0.00     0.260 C 
ATOM      2  O   UNL A   1      31.263  29.304  22.913  1.00  0.00    -0.271 OA
ATOM      3  N   UNL A   1      31.042  28.241  24.816  1.00  0.00    -0.353 N 
ATOM      4  H   UNL A   1      30.176  28.709  24.840  1.00  0.00     0.163 HD
ENDROOT
BRANCH   1   5
ATOM      5  C   UNL A   1      33.042  27.686  23.248  1.00  0.00     0.258 C 
ATOM      6  C   UNL A   1      34.057  28.608  22.566  1.00  0.00     0.064 C 
BRANCH   5   7
ATOM      7  O   UNL A   1      33.023  26.323  22.816  1.00  0.00    -0.481 OA
BRANCH   7   8
ATOM      8  C   UNL A   1      33.761  25.356  23.415  1.00  0.00     0.120 A 
ATOM      9  C   UNL A   1      35.649  23.481  24.384  1.00  0.00    -0.024 A 
ATOM     10  C   UNL A   1      35.063  23.323  23.116  1.00  0.00     0.012 A 
ATOM     11  C   UNL A   1      35.159  24.514  25.179  1.00  0.00     0.012 A 
ATOM     12  C   UNL A   1      34.138  24.265  22.632  1.00  0.00     0.047 A 
ATOM     13  C   UNL A   1      34.163  25.377  24.733  1.00  0.00     0.047 A 
BRANCH   9  14
ATOM     14  C   UNL A   1      36.909  22.770  24.694  1.00  0.00     0.033 C 
ATOM     15  C   UNL A   1      37.228  21.512  25.101  1.00  0.00     0.118 C 
BRANCH  15  16
ATOM     16  C   UNL A   1      36.248  20.364  25.124  1.00  0.00     0.266 C 
ATOM     17  N   UNL A   1      34.898  20.437  25.271  1.00  0.00    -0.321 N 
ATOM     18  H   UNL A   1      34.431  19.767  24.722  1.00  0.00     0.170 HD
ATOM     19  O   UNL A   1      36.647  19.210  24.920  1.00  0.00    -0.268 OA
BRANCH  17  20
ATOM     20  C   UNL A   1      34.003  21.224  26.009  1.00  0.00     0.045 A 
ATOM     21  C   UNL A   1      31.850  22.351  26.056  1.00  0.00     0.120 A 
ATOM     22  C   UNL A   1      32.095  22.785  27.353  1.00  0.00     0.046 A 
ATOM     23  C   UNL A   1      32.817  21.614  25.367  1.00  0.00     0.072 A 
ATOM     24  C   UNL A   1      33.244  22.358  28.008  1.00  0.00     0.006 A 
ATOM     25  C   UNL A   1      34.156  21.527  27.355  1.00  0.00     0.026 A 
BRANCH  21  26
ATOM     26  O   UNL A   1      30.652  22.703  25.494  1.00  0.00    -0.497 OA
ATOM     27  C   UNL A   1      30.832  23.517  24.333  1.00  0.00     0.278 C 
ENDBRANCH  21  26
ENDBRANCH  17  20
ENDBRANCH  15  16
BRANCH  15  28
ATOM     28  C   UNL A   1      38.570  21.403  25.576  1.00  0.00     0.105 C 
ATOM     29  N   UNL A   1      39.619  21.421  26.071  1.00  0.00    -0.192 NA
ENDBRANCH  15  28
ENDBRANCH   9  14
ENDBRANCH   7   8
ENDBRANCH   5   7
ENDBRANCH   1   5
BRANCH   3  30
ATOM     30  C   UNL A   1      31.311  27.453  25.994  1.00  0.00     0.116 C 
BRANCH  30  31
ATOM     31  C   UNL A   1      32.189  28.221  26.982  1.00  0.00     0.023 C 
BRANCH  31  32
ATOM     32  C   UNL A   1      33.679  27.912  26.906  1.00  0.00     0.023 C 
BRANCH  32  33
ATOM     33  C   UNL A   1      34.546  29.079  26.448  1.00  0.00     0.116 C 
BRANCH  33  34
ATOM     34  N   UNL A   1      33.991  30.399  26.725  1.00  0.00    -0.352 N 
ATOM     35  C   UNL A   1      34.455  31.329  27.629  1.00  0.00     0.251 C 
ATOM     36  H   UNL A   1      33.195  30.655  26.206  1.00  0.00     0.163 HD
ATOM     37  O   UNL A   1      33.916  32.420  27.747  1.00  0.00    -0.269 OA
BRANCH  35  38
ATOM     38  C   UNL A   1      35.618  30.969  28.455  1.00  0.00     0.039 A 
ATOM     39  C   UNL A   1      35.553  29.869  29.311  1.00  0.00     0.014 A 
ATOM     40  C   UNL A   1      36.813  31.659  28.257  1.00  0.00     0.014 A 
ATOM     41  C   UNL A   1      36.725  29.416  29.917  1.00  0.00     0.010 A 
ATOM     42  C   UNL A   1      37.990  31.135  28.763  1.00  0.00     0.010 A 
ATOM     43  C   UNL A   1      37.958  30.016  29.610  1.00  0.00    -0.014 A 
BRANCH  43  44
ATOM     44  C   UNL A   1      39.235  29.511  30.173  1.00  0.00     0.031 A 
ATOM     45  C   UNL A   1      39.822  30.178  31.388  1.00  0.00     0.074 A 
ATOM     46  C   UNL A   1      39.892  28.512  29.552  1.00  0.00     0.049 A 
ATOM     47  N   UNL A   1      40.959  29.944  31.991  1.00  0.00    -0.248 NA
ATOM     48  C   UNL A   1      39.048  31.281  31.983  1.00  0.00     0.031 C 
ATOM     49  C   UNL A   1      39.449  27.833  28.332  1.00  0.00     0.029 A 
ATOM     50  N   UNL A   1      41.081  27.896  29.857  1.00  0.00    -0.354 N 
ATOM     51  C   UNL A   1      41.037  30.875  33.018  1.00  0.00     0.074 A 
ATOM     52  C   UNL A   1      39.876  31.727  32.914  1.00  0.00     0.031 C 
ATOM     53  C   UNL A   1      40.332  26.872  28.016  1.00  0.00     0.029 A 
ATOM     54  C   UNL A   1      41.428  26.898  28.978  1.00  0.00     0.049 A 
ATOM     55  H   UNL A   1      41.633  28.147  30.633  1.00  0.00     0.167 HD
ATOM     56  C   UNL A   1      41.980  30.989  33.982  1.00  0.00     0.037 A 
ATOM     57  C   UNL A   1      42.514  26.102  28.952  1.00  0.00     0.037 A 
ATOM     58  C   UNL A   1      43.117  30.118  34.094  1.00  0.00     0.049 A 
ATOM     59  C   UNL A   1      43.551  26.261  30.035  1.00  0.00     0.074 A 
ATOM     60  C   UNL A   1      44.099  30.105  35.067  1.00  0.00     0.029 A 
ATOM     61  N   UNL A   1      43.425  29.105  33.197  1.00  0.00    -0.354 N 
ATOM     62  N   UNL A   1      43.573  27.093  31.049  1.00  0.00    -0.248 NA
ATOM     63  C   UNL A   1      44.711  25.361  29.976  1.00  0.00     0.031 C 
ATOM     64  C   UNL A   1      45.040  29.131  34.722  1.00  0.00     0.029 A 
ATOM     65  C   UNL A   1      44.600  28.480  33.579  1.00  0.00     0.049 A 
ATOM     66  H   UNL A   1      42.889  28.866  32.407  1.00  0.00     0.167 HD
ATOM     67  C   UNL A   1      44.721  26.788  31.769  1.00  0.00     0.074 A 
ATOM     68  C   UNL A   1      45.358  25.682  31.086  1.00  0.00     0.031 C 
ATOM     69  C   UNL A   1      45.207  27.368  32.895  1.00  0.00     0.037 A 
BRANCH  56  70
ATOM     70  C   UNL A   1      41.823  32.088  34.994  1.00  0.00     0.064 A 
ATOM     71  C   UNL A   1      42.445  33.336  34.837  1.00  0.00     0.173 A 
ATOM     72  C   UNL A   1      40.989  31.908  36.108  1.00  0.00     0.173 A 
ATOM     73  F   UNL A   1      43.265  33.555  33.798  1.00  0.00    -0.203 F 
ATOM     74  C   UNL A   1      42.252  34.356  35.764  1.00  0.00     0.198 A 
ATOM     75  C   UNL A   1      40.770  32.943  37.014  1.00  0.00     0.198 A 
ATOM     76  F   UNL A   1      40.369  30.736  36.309  1.00  0.00    -0.203 F 
ATOM     77  F   UNL A   1      42.893  35.524  35.616  1.00  0.00    -0.200 F 
ATOM     78  C   UNL A   1      41.406  34.163  36.845  1.00  0.00     0.200 A 
ATOM     79  F   UNL A   1      39.938  32.759  38.049  1.00  0.00    -0.200 F 
ATOM     80  F   UNL A   1      41.204  35.153  37.725  1.00  0.00    -0.200 F 
ENDBRANCH  56  70
BRANCH  57  81
ATOM     81  C   UNL A   1      42.683  25.080  27.882  1.00  0.00     0.064 A 
ATOM     82  C   UNL A   1      42.408  23.726  28.124  1.00  0.00     0.173 A 
ATOM     83  C   UNL A   1      43.168  25.425  26.613  1.00  0.00     0.173 A 
ATOM     84  F   UNL A   1      41.955  23.338  29.326  1.00  0.00    -0.203 F 
ATOM     85  C   UNL A   1      42.658  22.753  27.157  1.00  0.00     0.198 A 
ATOM     86  C   UNL A   1      43.379  24.457  25.633  1.00  0.00     0.198 A 
ATOM     87  F   UNL A   1      43.440  26.705  26.321  1.00  0.00    -0.203 F 
ATOM     88  F   UNL A   1      42.461  21.459  27.445  1.00  0.00    -0.200 F 
ATOM     89  C   UNL A   1      43.142  23.120  25.911  1.00  0.00     0.200 A 
ATOM     90  F   UNL A   1      43.827  24.819  24.423  1.00  0.00    -0.200 F 
ATOM     91  F   UNL A   1      43.391  22.185  24.985  1.00  0.00    -0.200 F 
ENDBRANCH  57  81
BRANCH  69  92
ATOM     92  C   UNL A   1      46.451  26.776  33.494  1.00  0.00     0.064 A 
ATOM     93  C   UNL A   1      46.406  25.714  34.409  1.00  0.00     0.173 A 
ATOM     94  C   UNL A   1      47.713  27.265  33.118  1.00  0.00     0.173 A 
ATOM     95  F   UNL A   1      45.226  25.216  34.808  1.00  0.00    -0.203 F 
ATOM     96  C   UNL A   1      47.575  25.195  34.959  1.00  0.00     0.198 A 
ATOM     97  C   UNL A   1      48.880  26.713  33.636  1.00  0.00     0.198 A 
ATOM     98  F   UNL A   1      47.815  28.271  32.236  1.00  0.00    -0.203 F 
ATOM     99  F   UNL A   1      47.504  24.228  35.885  1.00  0.00    -0.200 F 
ATOM    100  C   UNL A   1      48.810  25.688  34.567  1.00  0.00     0.200 A 
ATOM    101  F   UNL A   1      50.072  27.176  33.237  1.00  0.00    -0.200 F 
ATOM    102  F   UNL A   1      49.933  25.182  35.092  1.00  0.00    -0.200 F 
ENDBRANCH  69  92
ENDBRANCH  43  44
ENDBRANCH  35  38
ENDBRANCH  33  34
ENDBRANCH  32  33
ENDBRANCH  31  32
ENDBRANCH  30  31
ENDBRANCH   3  30
TORSDOF 18
ENDMDL
MODEL 3
REMARK VINA RESULT:     -11.8      1.573      2.460
REMARK SMILES COc1cccc(NC(=O)/C(C#N)=C\c2ccc(O[C@@H](C)C(=O)NCCCCNC(=O)c3ccc(-c4c5nc(c(-c6c(F)c(F)c(F)c(F)c6F)c6ccc([nH]6)c(-c6c(F)c(F)c(F)c(F)c6F)c6nc(c(-c7c(F)c(F)c(F)c(F)c7F)c7ccc4[nH]7)C=C6)C=C5)cc3)cc2)c1
REMARK SMILES IDX 22 1 23 2 24 3 20 5 21 6 19 7 18 8 15 9 16 10 96 11 17 12
REMARK SMILES IDX 95 13 14 14 11 15 9 16 8 17 10 19 7 20 3 21 4 22 97 23 5 24
REMARK SMILES IDX 6 25 2 26 1 27 12 28 13 29 25 30 26 31 27 32 28 33 29 34
REMARK SMILES IDX 30 35 31 37 32 38 33 39 94 40 34 41 93 42 35 43 36 44 37 45
REMARK SMILES IDX 87 46 38 47 92 48 86 49 88 50 39 51 91 52 85 53 84 54 40 56
REMARK SMILES IDX 72 57 52 58 71 59 53 60 56 61 70 62 89 63 54 64 55 65 69 67
REMARK SMILES IDX 90 68 57 69 41 70 42 71 50 72 43 73 44 74 48 75 51 76 45 77
REMARK SMILES IDX 46 78 49 79 47 80 73 81 74 82 82 83 75 84 76 85 80 86 83 87
REMARK SMILES IDX 77 88 78 89 81 90 79 91 58 92 59 93 67 94 60 95 61 96 65 97
REMARK SMILES IDX 68 98 62 99 63 100 66 101 64 102
REMARK H PARENT 24 4 8 18 29 36 88 55 56 66
REMARK Flexibility Score: inf
ROOT
ATOM      1  C   UNL A   1      31.513  28.105  23.235  1.00  0.00     0.260 C 
ATOM      2  O   UNL A   1      31.047  28.919  22.424  1.00  0.00    -0.271 OA
ATOM      3  N   UNL A   1      30.723  27.861  24.315  1.00  0.00    -0.353 N 
ATOM      4  H   UNL A   1      29.839  28.291  24.267  1.00  0.00     0.163 HD
ENDROOT
BRANCH   1   5
ATOM      5  C   UNL A   1      32.861  27.381  22.912  1.00  0.00     0.258 C 
ATOM      6  C   UNL A   1      33.870  28.329  22.257  1.00  0.00     0.064 C 
BRANCH   5   7
ATOM      7  O   UNL A   1      32.937  26.004  22.535  1.00  0.00    -0.481 OA
BRANCH   7   8
ATOM      8  C   UNL A   1      33.717  25.108  23.188  1.00  0.00     0.120 A 
ATOM      9  C   UNL A   1      35.681  23.366  24.249  1.00  0.00    -0.024 A 
ATOM     10  C   UNL A   1      35.061  23.088  23.018  1.00  0.00     0.012 A 
ATOM     11  C   UNL A   1      35.189  24.450  24.970  1.00  0.00     0.012 A 
ATOM     12  C   UNL A   1      34.098  23.964  22.487  1.00  0.00     0.047 A 
ATOM     13  C   UNL A   1      34.159  25.249  24.486  1.00  0.00     0.047 A 
BRANCH   9  14
ATOM     14  C   UNL A   1      36.968  22.712  24.576  1.00  0.00     0.033 C 
ATOM     15  C   UNL A   1      37.333  21.488  25.042  1.00  0.00     0.118 C 
BRANCH  15  16
ATOM     16  C   UNL A   1      36.392  20.312  25.138  1.00  0.00     0.266 C 
ATOM     17  N   UNL A   1      35.044  20.348  25.314  1.00  0.00    -0.321 N 
ATOM     18  H   UNL A   1      34.587  19.640  24.806  1.00  0.00     0.170 HD
ATOM     19  O   UNL A   1      36.823  19.162  24.973  1.00  0.00    -0.268 OA
BRANCH  17  20
ATOM     20  C   UNL A   1      34.141  21.137  26.039  1.00  0.00     0.045 A 
ATOM     21  C   UNL A   1      31.914  22.107  26.140  1.00  0.00     0.120 A 
ATOM     22  C   UNL A   1      32.210  22.682  27.370  1.00  0.00     0.046 A 
ATOM     23  C   UNL A   1      32.888  21.377  25.453  1.00  0.00     0.072 A 
ATOM     24  C   UNL A   1      33.430  22.405  27.975  1.00  0.00     0.006 A 
ATOM     25  C   UNL A   1      34.358  21.581  27.337  1.00  0.00     0.026 A 
BRANCH  21  26
ATOM     26  O   UNL A   1      30.658  22.316  25.637  1.00  0.00    -0.497 OA
ATOM     27  C   UNL A   1      30.290  23.696  25.691  1.00  0.00     0.278 C 
ENDBRANCH  21  26
ENDBRANCH  17  20
ENDBRANCH  15  16
BRANCH  15  28
ATOM     28  C   UNL A   1      38.684  21.447  25.503  1.00  0.00     0.105 C 
ATOM     29  N   UNL A   1      39.727  21.326  25.995  1.00  0.00    -0.192 NA
ENDBRANCH  15  28
ENDBRANCH   9  14
ENDBRANCH   7   8
ENDBRANCH   5   7
ENDBRANCH   1   5
BRANCH   3  30
ATOM     30  C   UNL A   1      30.933  27.092  25.518  1.00  0.00     0.116 C 
BRANCH  30  31
ATOM     31  C   UNL A   1      31.635  27.927  26.589  1.00  0.00     0.023 C 
BRANCH  31  32
ATOM     32  C   UNL A   1      33.120  27.639  26.770  1.00  0.00     0.023 C 
BRANCH  32  33
ATOM     33  C   UNL A   1      34.047  28.688  26.166  1.00  0.00     0.116 C 
BRANCH  33  34
ATOM     34  N   UNL A   1      33.803  30.053  26.617  1.00  0.00    -0.352 N 
ATOM     35  C   UNL A   1      34.614  30.828  27.415  1.00  0.00     0.251 C 
ATOM     36  H   UNL A   1      32.963  30.468  26.315  1.00  0.00     0.163 HD
ATOM     37  O   UNL A   1      34.309  31.977  27.701  1.00  0.00    -0.269 OA
BRANCH  35  38
ATOM     38  C   UNL A   1      35.859  30.230  27.923  1.00  0.00     0.039 A 
ATOM     39  C   UNL A   1      37.055  30.416  27.231  1.00  0.00     0.014 A 
ATOM     40  C   UNL A   1      35.835  29.602  29.168  1.00  0.00     0.014 A 
ATOM     41  C   UNL A   1      38.252  30.030  27.836  1.00  0.00     0.010 A 
ATOM     42  C   UNL A   1      37.030  29.333  29.813  1.00  0.00     0.010 A 
ATOM     43  C   UNL A   1      38.251  29.531  29.150  1.00  0.00    -0.014 A 
BRANCH  43  44
ATOM     44  C   UNL A   1      39.510  29.185  29.856  1.00  0.00     0.031 A 
ATOM     45  C   UNL A   1      40.344  28.036  29.359  1.00  0.00     0.074 A 
ATOM     46  C   UNL A   1      39.856  29.852  30.974  1.00  0.00     0.049 A 
ATOM     47  N   UNL A   1      41.433  27.523  29.871  1.00  0.00    -0.248 NA
ATOM     48  C   UNL A   1      39.873  27.345  28.145  1.00  0.00     0.031 C 
ATOM     49  C   UNL A   1      39.090  30.942  31.584  1.00  0.00     0.029 A 
ATOM     50  N   UNL A   1      40.939  29.707  31.805  1.00  0.00    -0.354 N 
ATOM     51  C   UNL A   1      41.762  26.449  29.053  1.00  0.00     0.074 A 
ATOM     52  C   UNL A   1      40.723  26.334  28.058  1.00  0.00     0.031 C 
ATOM     53  C   UNL A   1      39.747  31.391  32.666  1.00  0.00     0.029 A 
ATOM     54  C   UNL A   1      40.950  30.591  32.858  1.00  0.00     0.049 A 
ATOM     55  H   UNL A   1      41.642  29.033  31.660  1.00  0.00     0.167 HD
ATOM     56  C   UNL A   1      42.853  25.650  29.110  1.00  0.00     0.037 A 
ATOM     57  C   UNL A   1      41.832  30.729  33.867  1.00  0.00     0.037 A 
ATOM     58  C   UNL A   1      43.897  25.793  30.087  1.00  0.00     0.049 A 
ATOM     59  C   UNL A   1      43.032  29.817  33.907  1.00  0.00     0.074 A 
ATOM     60  C   UNL A   1      45.076  25.078  30.197  1.00  0.00     0.029 A 
ATOM     61  N   UNL A   1      43.885  26.712  31.126  1.00  0.00    -0.354 N 
ATOM     62  N   UNL A   1      43.375  28.857  33.080  1.00  0.00    -0.248 NA
ATOM     63  C   UNL A   1      43.975  30.014  35.015  1.00  0.00     0.031 C 
ATOM     64  C   UNL A   1      45.744  25.516  31.343  1.00  0.00     0.029 A 
ATOM     65  C   UNL A   1      45.022  26.561  31.900  1.00  0.00     0.049 A 
ATOM     66  H   UNL A   1      43.173  27.372  31.289  1.00  0.00     0.167 HD
ATOM     67  C   UNL A   1      44.589  28.369  33.544  1.00  0.00     0.074 A 
ATOM     68  C   UNL A   1      44.933  29.151  34.712  1.00  0.00     0.031 C 
ATOM     69  C   UNL A   1      45.354  27.364  33.049  1.00  0.00     0.037 A 
BRANCH  56  70
ATOM     70  C   UNL A   1      42.979  24.557  28.088  1.00  0.00     0.064 A 
ATOM     71  C   UNL A   1      42.644  23.226  28.381  1.00  0.00     0.173 A 
ATOM     72  C   UNL A   1      43.382  24.856  26.778  1.00  0.00     0.173 A 
ATOM     73  F   UNL A   1      42.267  22.882  29.623  1.00  0.00    -0.203 F 
ATOM     74  C   UNL A   1      42.726  22.234  27.408  1.00  0.00     0.198 A 
ATOM     75  C   UNL A   1      43.428  23.868  25.798  1.00  0.00     0.198 A 
ATOM     76  F   UNL A   1      43.714  26.111  26.442  1.00  0.00    -0.203 F 
ATOM     77  F   UNL A   1      42.444  20.962  27.725  1.00  0.00    -0.200 F 
ATOM     78  C   UNL A   1      43.106  22.558  26.115  1.00  0.00     0.200 A 
ATOM     79  F   UNL A   1      43.780  24.186  24.544  1.00  0.00    -0.200 F 
ATOM     80  F   UNL A   1      43.163  21.605  25.174  1.00  0.00    -0.200 F 
ENDBRANCH  56  70
BRANCH  57  81
ATOM     81  C   UNL A   1      41.633  31.768  34.915  1.00  0.00     0.064 A 
ATOM     82  C   UNL A   1      40.702  31.586  35.948  1.00  0.00     0.173 A 
ATOM     83  C   UNL A   1      42.330  32.984  34.880  1.00  0.00     0.173 A 
ATOM     84  F   UNL A   1      39.996  30.447  36.022  1.00  0.00    -0.203 F 
ATOM     85  C   UNL A   1      40.441  32.596  36.874  1.00  0.00     0.198 A 
ATOM     86  C   UNL A   1      42.099  33.977  35.830  1.00  0.00     0.198 A 
ATOM     87  F   UNL A   1      43.239  33.211  33.920  1.00  0.00    -0.203 F 
ATOM     88  F   UNL A   1      39.490  32.423  37.801  1.00  0.00    -0.200 F 
ATOM     89  C   UNL A   1      41.142  33.791  36.815  1.00  0.00     0.200 A 
ATOM     90  F   UNL A   1      42.794  35.122  35.780  1.00  0.00    -0.200 F 
ATOM     91  F   UNL A   1      40.886  34.764  37.698  1.00  0.00    -0.200 F 
ENDBRANCH  57  81
BRANCH  69  92
ATOM     92  C   UNL A   1      46.667  27.098  33.729  1.00  0.00     0.064 A 
ATOM     93  C   UNL A   1      47.848  27.757  33.356  1.00  0.00     0.173 A 
ATOM     94  C   UNL A   1      46.734  26.186  34.795  1.00  0.00     0.173 A 
ATOM     95  F   UNL A   1      47.841  28.630  32.337  1.00  0.00    -0.203 F 
ATOM     96  C   UNL A   1      49.054  27.479  33.994  1.00  0.00     0.198 A 
ATOM     97  C   UNL A   1      47.932  25.946  35.460  1.00  0.00     0.198 A 
ATOM     98  F   UNL A   1      45.632  25.538  35.203  1.00  0.00    -0.203 F 
ATOM     99  F   UNL A   1      50.182  28.068  33.573  1.00  0.00    -0.200 F 
ATOM    100  C   UNL A   1      49.093  26.581  35.050  1.00  0.00     0.200 A 
ATOM    101  F   UNL A   1      47.962  25.096  36.495  1.00  0.00    -0.200 F 
ATOM    102  F   UNL A   1      50.253  26.322  35.668  1.00  0.00    -0.200 F 
ENDBRANCH  69  92
ENDBRANCH  43  44
ENDBRANCH  35  38
ENDBRANCH  33  34
ENDBRANCH  32  33
ENDBRANCH  31  32
ENDBRANCH  30  31
ENDBRANCH   3  30
TORSDOF 18
ENDMDL
