MODEL 1
REMARK VINA RESULT:     -12.3      0.000      0.000
REMARK SMILES Cc1ccc(C#N)cc1Nc1cc(C)c(N)c(C(=O)NCCCCNC(=O)c2ccc(-c3c4nc(c(-c5c(F)c(F)c(F)c(F)c5F)c5ccc([nH]5)c(-c5c(F)c(F)c(F)c(F)c5F)c5nc(c(-c6c(F)c(F)c(F)c(F)c6F)c6ccc3[nH]6)C=C5)C=C4)cc2)c1
REMARK SMILES IDX 22 1 21 2 20 3 18 4 19 5 17 7 11 8 12 9 91 10 13 11 14 12
REMARK SMILES IDX 15 13 10 14 9 16 1 17 2 18 3 19 4 20 8 21 5 22 6 23 7 24
REMARK SMILES IDX 16 25 23 28 24 29 25 30 26 31 27 33 28 34 29 35 90 36 30 37
REMARK SMILES IDX 89 38 31 39 32 40 33 41 83 42 34 43 88 44 82 45 84 46 35 47
REMARK SMILES IDX 87 48 81 49 80 50 36 52 68 53 48 54 67 55 49 56 52 57 66 58
REMARK SMILES IDX 85 59 50 60 51 61 65 63 86 64 53 65 37 66 38 67 46 68 39 69
REMARK SMILES IDX 40 70 44 71 47 72 41 73 42 74 45 75 43 76 69 77 70 78 78 79
REMARK SMILES IDX 71 80 72 81 76 82 79 83 73 84 74 85 77 86 75 87 54 88 55 89
REMARK SMILES IDX 63 90 56 91 57 92 61 93 64 94 58 95 59 96 62 97 60 98
REMARK H PARENT 20 6 10 15 16 26 16 27 25 32 84 51 52 62
REMARK Flexibility Score: inf
ROOT
ATOM      1  C   UNL A   1      37.407  21.901  24.546  1.00  0.00     0.023 C 
ENDROOT
BRANCH   1   2
ATOM      2  C   UNL A   1      37.459  23.026  25.584  1.00  0.00     0.116 C 
BRANCH   2   3
ATOM      3  N   UNL A   1      36.409  22.846  26.565  1.00  0.00    -0.352 N 
ATOM      4  C   UNL A   1      35.053  23.068  26.568  1.00  0.00     0.253 C 
ATOM      5  O   UNL A   1      34.490  22.827  27.641  1.00  0.00    -0.269 OA
ATOM      6  H   UNL A   1      36.740  22.483  27.418  1.00  0.00     0.163 HD
BRANCH   4   7
ATOM      7  C   UNL A   1      34.250  23.499  25.366  1.00  0.00     0.065 A 
ATOM      8  C   UNL A   1      33.494  25.268  23.859  1.00  0.00     0.040 A 
ATOM      9  C   UNL A   1      32.991  24.310  22.988  1.00  0.00     0.031 A 
ATOM     10  C   UNL A   1      34.034  24.847  25.072  1.00  0.00     0.042 A 
ATOM     11  C   UNL A   1      33.067  22.938  23.297  1.00  0.00    -0.025 A 
ATOM     12  C   UNL A   1      32.412  21.992  22.325  1.00  0.00     0.047 C 
ATOM     13  C   UNL A   1      33.747  22.517  24.464  1.00  0.00     0.047 A 
BRANCH   8  14
ATOM     14  N   UNL A   1      33.579  26.620  23.479  1.00  0.00    -0.355 N 
ATOM     15  H   UNL A   1      34.221  26.832  22.763  1.00  0.00     0.167 HD
BRANCH  14  16
ATOM     16  C   UNL A   1      32.847  27.712  24.009  1.00  0.00     0.043 A 
ATOM     17  C   UNL A   1      30.931  27.239  22.398  1.00  0.00     0.046 C 
ATOM     18  C   UNL A   1      31.566  28.030  23.509  1.00  0.00    -0.027 A 
ATOM     19  C   UNL A   1      30.846  29.109  24.059  1.00  0.00     0.007 A 
ATOM     20  C   UNL A   1      31.379  29.873  25.095  1.00  0.00     0.020 A 
ATOM     21  C   UNL A   1      33.352  28.479  25.078  1.00  0.00     0.045 A 
ATOM     22  C   UNL A   1      32.635  29.560  25.607  1.00  0.00     0.054 A 
BRANCH  22  23
ATOM     23  C   UNL A   1      33.197  30.352  26.664  1.00  0.00     0.099 C 
ATOM     24  N   UNL A   1      33.649  30.986  27.521  1.00  0.00    -0.192 NA
ENDBRANCH  22  23
ENDBRANCH  14  16
ENDBRANCH   8  14
BRANCH  13  25
ATOM     25  N   UNL A   1      33.818  21.159  24.774  1.00  0.00    -0.398 N 
ATOM     26  H   UNL A   1      34.215  20.527  24.132  1.00  0.00     0.156 HD
ATOM     27  H   UNL A   1      33.471  20.831  25.635  1.00  0.00     0.156 HD
ENDBRANCH  13  25
ENDBRANCH   4   7
ENDBRANCH   2   3
ENDBRANCH   1   2
BRANCH   1  28
ATOM     28  C   UNL A   1      37.957  20.573  25.070  1.00  0.00     0.023 C 
BRANCH  28  29
ATOM     29  C   UNL A   1      39.281  20.695  25.810  1.00  0.00     0.116 C 
BRANCH  29  30
ATOM     30  N   UNL A   1      40.064  19.464  25.818  1.00  0.00    -0.352 N 
ATOM     31  C   UNL A   1      41.408  19.321  26.075  1.00  0.00     0.251 C 
ATOM     32  H   UNL A   1      39.570  18.637  25.615  1.00  0.00     0.163 HD
ATOM     33  O   UNL A   1      41.971  18.243  25.928  1.00  0.00    -0.269 OA
BRANCH  31  34
ATOM     34  C   UNL A   1      42.170  20.520  26.480  1.00  0.00     0.039 A 
ATOM     35  C   UNL A   1      42.211  20.884  27.826  1.00  0.00     0.014 A 
ATOM     36  C   UNL A   1      42.725  21.346  25.503  1.00  0.00     0.014 A 
ATOM     37  C   UNL A   1      42.601  22.170  28.167  1.00  0.00     0.010 A 
ATOM     38  C   UNL A   1      43.235  22.594  25.870  1.00  0.00     0.010 A 
ATOM     39  C   UNL A   1      43.116  23.045  27.195  1.00  0.00    -0.014 A 
BRANCH  39  40
ATOM     40  C   UNL A   1      43.500  24.424  27.598  1.00  0.00     0.031 A 
ATOM     41  C   UNL A   1      44.944  24.857  27.601  1.00  0.00     0.074 A 
ATOM     42  C   UNL A   1      42.531  25.311  27.896  1.00  0.00     0.049 A 
ATOM     43  N   UNL A   1      45.451  26.027  27.906  1.00  0.00    -0.248 NA
ATOM     44  C   UNL A   1      45.953  23.856  27.220  1.00  0.00     0.031 C 
ATOM     45  C   UNL A   1      41.097  25.014  27.917  1.00  0.00     0.029 A 
ATOM     46  N   UNL A   1      42.595  26.646  28.214  1.00  0.00    -0.354 N 
ATOM     47  C   UNL A   1      46.828  25.894  27.774  1.00  0.00     0.074 A 
ATOM     48  C   UNL A   1      47.087  24.523  27.395  1.00  0.00     0.031 C 
ATOM     49  C   UNL A   1      40.417  26.139  28.173  1.00  0.00     0.029 A 
ATOM     50  C   UNL A   1      41.363  27.219  28.420  1.00  0.00     0.049 A 
ATOM     51  H   UNL A   1      43.442  27.143  28.286  1.00  0.00     0.167 HD
ATOM     52  C   UNL A   1      47.786  26.837  27.937  1.00  0.00     0.037 A 
ATOM     53  C   UNL A   1      41.030  28.468  28.796  1.00  0.00     0.037 A 
ATOM     54  C   UNL A   1      47.519  28.211  28.278  1.00  0.00     0.049 A 
ATOM     55  C   UNL A   1      42.120  29.478  29.021  1.00  0.00     0.074 A 
ATOM     56  C   UNL A   1      48.424  29.249  28.423  1.00  0.00     0.029 A 
ATOM     57  N   UNL A   1      46.262  28.738  28.529  1.00  0.00    -0.354 N 
ATOM     58  N   UNL A   1      43.413  29.346  28.854  1.00  0.00    -0.248 NA
ATOM     59  C   UNL A   1      41.707  30.807  29.491  1.00  0.00     0.031 C 
ATOM     60  C   UNL A   1      47.723  30.386  28.830  1.00  0.00     0.029 A 
ATOM     61  C   UNL A   1      46.373  30.078  28.869  1.00  0.00     0.049 A 
ATOM     62  H   UNL A   1      45.416  28.237  28.474  1.00  0.00     0.167 HD
ATOM     63  C   UNL A   1      43.966  30.575  29.182  1.00  0.00     0.074 A 
ATOM     64  C   UNL A   1      42.866  31.450  29.530  1.00  0.00     0.031 C 
ATOM     65  C   UNL A   1      45.270  30.942  29.203  1.00  0.00     0.037 A 
BRANCH  52  66
ATOM     66  C   UNL A   1      49.223  26.441  27.753  1.00  0.00     0.064 A 
ATOM     67  C   UNL A   1      49.814  26.372  26.484  1.00  0.00     0.173 A 
ATOM     68  C   UNL A   1      50.050  26.246  28.872  1.00  0.00     0.173 A 
ATOM     69  F   UNL A   1      49.068  26.543  25.382  1.00  0.00    -0.203 F 
ATOM     70  C   UNL A   1      51.177  26.122  26.340  1.00  0.00     0.198 A 
ATOM     71  C   UNL A   1      51.418  26.027  28.726  1.00  0.00     0.198 A 
ATOM     72  F   UNL A   1      49.538  26.309  30.111  1.00  0.00    -0.203 F 
ATOM     73  F   UNL A   1      51.716  26.040  25.116  1.00  0.00    -0.200 F 
ATOM     74  C   UNL A   1      51.979  25.966  27.461  1.00  0.00     0.200 A 
ATOM     75  F   UNL A   1      52.194  25.898  29.811  1.00  0.00    -0.200 F 
ATOM     76  F   UNL A   1      53.296  25.758  27.320  1.00  0.00    -0.200 F 
ENDBRANCH  52  66
BRANCH  53  77
ATOM     77  C   UNL A   1      39.599  28.817  29.005  1.00  0.00     0.064 A 
ATOM     78  C   UNL A   1      38.992  28.681  30.261  1.00  0.00     0.173 A 
ATOM     79  C   UNL A   1      38.808  29.304  27.951  1.00  0.00     0.173 A 
ATOM     80  F   UNL A   1      39.698  28.203  31.296  1.00  0.00    -0.203 F 
ATOM     81  C   UNL A   1      37.650  29.001  30.450  1.00  0.00     0.198 A 
ATOM     82  C   UNL A   1      37.477  29.661  28.152  1.00  0.00     0.198 A 
ATOM     83  F   UNL A   1      39.337  29.458  26.728  1.00  0.00    -0.203 F 
ATOM     84  F   UNL A   1      37.083  28.812  31.650  1.00  0.00    -0.200 F 
ATOM     85  C   UNL A   1      36.896  29.498  29.399  1.00  0.00     0.200 A 
ATOM     86  F   UNL A   1      36.761  30.163  27.137  1.00  0.00    -0.200 F 
ATOM     87  F   UNL A   1      35.608  29.817  29.586  1.00  0.00    -0.200 F 
ENDBRANCH  53  77
BRANCH  65  88
ATOM     88  C   UNL A   1      45.596  32.352  29.604  1.00  0.00     0.064 A 
ATOM     89  C   UNL A   1      45.948  32.674  30.923  1.00  0.00     0.173 A 
ATOM     90  C   UNL A   1      45.653  33.371  28.641  1.00  0.00     0.173 A 
ATOM     91  F   UNL A   1      45.899  31.739  31.884  1.00  0.00    -0.203 F 
ATOM     92  C   UNL A   1      46.336  33.967  31.264  1.00  0.00     0.198 A 
ATOM     93  C   UNL A   1      46.075  34.653  28.979  1.00  0.00     0.198 A 
ATOM     94  F   UNL A   1      45.334  33.113  27.363  1.00  0.00    -0.203 F 
ATOM     95  F   UNL A   1      46.636  34.259  32.536  1.00  0.00    -0.200 F 
ATOM     96  C   UNL A   1      46.413  34.951  30.290  1.00  0.00     0.200 A 
ATOM     97  F   UNL A   1      46.171  35.597  28.032  1.00  0.00    -0.200 F 
ATOM     98  F   UNL A   1      46.814  36.187  30.616  1.00  0.00    -0.200 F 
ENDBRANCH  65  88
ENDBRANCH  39  40
ENDBRANCH  31  34
ENDBRANCH  29  30
ENDBRANCH  28  29
ENDBRANCH   1  28
TORSDOF 15
ENDMDL
MODEL 2
REMARK VINA RESULT:     -12.2      1.085      7.426
REMARK SMILES Cc1ccc(C#N)cc1Nc1cc(C)c(N)c(C(=O)NCCCCNC(=O)c2ccc(-c3c4nc(c(-c5c(F)c(F)c(F)c(F)c5F)c5ccc([nH]5)c(-c5c(F)c(F)c(F)c(F)c5F)c5nc(c(-c6c(F)c(F)c(F)c(F)c6F)c6ccc3[nH]6)C=C5)C=C4)cc2)c1
REMARK SMILES IDX 22 1 21 2 20 3 18 4 19 5 17 7 11 8 12 9 91 10 13 11 14 12
REMARK SMILES IDX 15 13 10 14 9 16 1 17 2 18 3 19 4 20 8 21 5 22 6 23 7 24
REMARK SMILES IDX 16 25 23 28 24 29 25 30 26 31 27 33 28 34 29 35 90 36 30 37
REMARK SMILES IDX 89 38 31 39 32 40 33 41 83 42 34 43 88 44 82 45 84 46 35 47
REMARK SMILES IDX 87 48 81 49 80 50 36 52 68 53 48 54 67 55 49 56 52 57 66 58
REMARK SMILES IDX 85 59 50 60 51 61 65 63 86 64 53 65 37 66 38 67 46 68 39 69
REMARK SMILES IDX 40 70 44 71 47 72 41 73 42 74 45 75 43 76 69 77 70 78 78 79
REMARK SMILES IDX 71 80 72 81 76 82 79 83 73 84 74 85 77 86 75 87 54 88 55 89
REMARK SMILES IDX 63 90 56 91 57 92 61 93 64 94 58 95 59 96 62 97 60 98
REMARK H PARENT 20 6 10 15 16 26 16 27 25 32 84 51 52 62
REMARK Flexibility Score: inf
ROOT
ATOM      1  C   UNL A   1      37.428  21.486  24.524  1.00  0.00     0.023 C 
ENDROOT
BRANCH   1   2
ATOM      2  C   UNL A   1      37.398  22.582  25.594  1.00  0.00     0.116 C 
BRANCH   2   3
ATOM      3  N   UNL A   1      36.290  22.360  26.501  1.00  0.00    -0.352 N 
ATOM      4  C   UNL A   1      34.962  22.711  26.493  1.00  0.00     0.253 C 
ATOM      5  O   UNL A   1      34.329  22.367  27.498  1.00  0.00    -0.269 OA
ATOM      6  H   UNL A   1      36.546  21.843  27.298  1.00  0.00     0.163 HD
BRANCH   4   7
ATOM      7  C   UNL A   1      34.260  23.393  25.347  1.00  0.00     0.065 A 
ATOM      8  C   UNL A   1      33.698  25.440  24.136  1.00  0.00     0.040 A 
ATOM      9  C   UNL A   1      33.196  24.681  23.086  1.00  0.00     0.031 A 
ATOM     10  C   UNL A   1      34.139  24.783  25.283  1.00  0.00     0.042 A 
ATOM     11  C   UNL A   1      33.175  23.275  23.155  1.00  0.00    -0.025 A 
ATOM     12  C   UNL A   1      32.528  22.555  22.000  1.00  0.00     0.047 C 
ATOM     13  C   UNL A   1      33.758  22.616  24.263  1.00  0.00     0.047 A 
BRANCH   8  14
ATOM     14  N   UNL A   1      33.883  26.829  24.003  1.00  0.00    -0.355 N 
ATOM     15  H   UNL A   1      34.781  27.125  23.730  1.00  0.00     0.167 HD
BRANCH  14  16
ATOM     16  C   UNL A   1      32.923  27.851  24.218  1.00  0.00     0.043 A 
ATOM     17  C   UNL A   1      33.939  28.355  26.499  1.00  0.00     0.046 C 
ATOM     18  C   UNL A   1      32.930  28.604  25.411  1.00  0.00    -0.027 A 
ATOM     19  C   UNL A   1      31.979  29.626  25.601  1.00  0.00     0.007 A 
ATOM     20  C   UNL A   1      31.025  29.908  24.626  1.00  0.00     0.020 A 
ATOM     21  C   UNL A   1      31.969  28.175  23.233  1.00  0.00     0.045 A 
ATOM     22  C   UNL A   1      31.018  29.182  23.438  1.00  0.00     0.054 A 
BRANCH  22  23
ATOM     23  C   UNL A   1      30.029  29.457  22.434  1.00  0.00     0.099 C 
ATOM     24  N   UNL A   1      29.229  29.673  21.626  1.00  0.00    -0.192 NA
ENDBRANCH  22  23
ENDBRANCH  14  16
ENDBRANCH   8  14
BRANCH  13  25
ATOM     25  N   UNL A   1      33.732  21.223  24.333  1.00  0.00    -0.398 N 
ATOM     26  H   UNL A   1      34.004  20.767  25.163  1.00  0.00     0.156 HD
ATOM     27  H   UNL A   1      33.442  20.695  23.555  1.00  0.00     0.156 HD
ENDBRANCH  13  25
ENDBRANCH   4   7
ENDBRANCH   2   3
ENDBRANCH   1   2
BRANCH   1  28
ATOM     28  C   UNL A   1      38.090  20.194  25.006  1.00  0.00     0.023 C 
BRANCH  28  29
ATOM     29  C   UNL A   1      39.385  20.405  25.777  1.00  0.00     0.116 C 
BRANCH  29  30
ATOM     30  N   UNL A   1      40.201  19.202  25.892  1.00  0.00    -0.352 N 
ATOM     31  C   UNL A   1      41.556  19.121  26.123  1.00  0.00     0.251 C 
ATOM     32  H   UNL A   1      39.726  18.346  25.794  1.00  0.00     0.163 HD
ATOM     33  O   UNL A   1      42.144  18.048  26.075  1.00  0.00    -0.269 OA
BRANCH  31  34
ATOM     34  C   UNL A   1      42.294  20.375  26.376  1.00  0.00     0.039 A 
ATOM     35  C   UNL A   1      42.288  20.930  27.656  1.00  0.00     0.014 A 
ATOM     36  C   UNL A   1      42.875  21.060  25.307  1.00  0.00     0.014 A 
ATOM     37  C   UNL A   1      42.657  22.256  27.820  1.00  0.00     0.010 A 
ATOM     38  C   UNL A   1      43.362  22.354  25.507  1.00  0.00     0.010 A 
ATOM     39  C   UNL A   1      43.197  22.989  26.749  1.00  0.00    -0.014 A 
BRANCH  39  40
ATOM     40  C   UNL A   1      43.556  24.416  26.961  1.00  0.00     0.031 A 
ATOM     41  C   UNL A   1      42.550  25.397  27.507  1.00  0.00     0.074 A 
ATOM     42  C   UNL A   1      44.822  24.813  26.723  1.00  0.00     0.049 A 
ATOM     43  N   UNL A   1      42.704  26.671  27.771  1.00  0.00    -0.248 NA
ATOM     44  C   UNL A   1      41.197  24.892  27.792  1.00  0.00     0.031 C 
ATOM     45  C   UNL A   1      45.889  23.954  26.204  1.00  0.00     0.029 A 
ATOM     46  N   UNL A   1      45.438  26.026  26.908  1.00  0.00    -0.354 N 
ATOM     47  C   UNL A   1      41.470  27.119  28.228  1.00  0.00     0.074 A 
ATOM     48  C   UNL A   1      40.565  25.993  28.176  1.00  0.00     0.031 C 
ATOM     49  C   UNL A   1      47.034  24.646  26.166  1.00  0.00     0.029 A 
ATOM     50  C   UNL A   1      46.770  26.021  26.573  1.00  0.00     0.049 A 
ATOM     51  H   UNL A   1      44.969  26.823  27.248  1.00  0.00     0.167 HD
ATOM     52  C   UNL A   1      41.132  28.354  28.668  1.00  0.00     0.037 A 
ATOM     53  C   UNL A   1      47.676  27.017  26.565  1.00  0.00     0.037 A 
ATOM     54  C   UNL A   1      42.048  29.463  28.753  1.00  0.00     0.049 A 
ATOM     55  C   UNL A   1      47.255  28.389  27.009  1.00  0.00     0.074 A 
ATOM     56  C   UNL A   1      41.805  30.741  29.227  1.00  0.00     0.029 A 
ATOM     57  N   UNL A   1      43.375  29.429  28.355  1.00  0.00    -0.354 N 
ATOM     58  N   UNL A   1      46.097  28.786  27.475  1.00  0.00    -0.248 NA
ATOM     59  C   UNL A   1      48.264  29.455  26.922  1.00  0.00     0.031 C 
ATOM     60  C   UNL A   1      42.963  31.499  29.050  1.00  0.00     0.029 A 
ATOM     61  C   UNL A   1      43.952  30.677  28.535  1.00  0.00     0.049 A 
ATOM     62  H   UNL A   1      43.841  28.637  27.999  1.00  0.00     0.167 HD
ATOM     63  C   UNL A   1      46.240  30.138  27.751  1.00  0.00     0.074 A 
ATOM     64  C   UNL A   1      47.607  30.489  27.428  1.00  0.00     0.031 C 
ATOM     65  C   UNL A   1      45.317  31.012  28.219  1.00  0.00     0.037 A 
BRANCH  52  66
ATOM     66  C   UNL A   1      39.714  28.600  29.100  1.00  0.00     0.064 A 
ATOM     67  C   UNL A   1      39.302  28.409  30.426  1.00  0.00     0.173 A 
ATOM     68  C   UNL A   1      38.786  29.149  28.198  1.00  0.00     0.173 A 
ATOM     69  F   UNL A   1      40.145  27.880  31.325  1.00  0.00    -0.203 F 
ATOM     70  C   UNL A   1      38.017  28.757  30.834  1.00  0.00     0.198 A 
ATOM     71  C   UNL A   1      37.513  29.525  28.617  1.00  0.00     0.198 A 
ATOM     72  F   UNL A   1      39.131  29.360  26.919  1.00  0.00    -0.203 F 
ATOM     73  F   UNL A   1      37.638  28.547  32.102  1.00  0.00    -0.200 F 
ATOM     74  C   UNL A   1      37.129  29.329  29.934  1.00  0.00     0.200 A 
ATOM     75  F   UNL A   1      36.666  30.096  27.750  1.00  0.00    -0.200 F 
ATOM     76  F   UNL A   1      35.904  29.693  30.337  1.00  0.00    -0.200 F 
ENDBRANCH  52  66
BRANCH  53  77
ATOM     77  C   UNL A   1      49.063  26.748  26.098  1.00  0.00     0.064 A 
ATOM     78  C   UNL A   1      50.040  26.251  26.970  1.00  0.00     0.173 A 
ATOM     79  C   UNL A   1      49.437  26.975  24.764  1.00  0.00     0.173 A 
ATOM     80  F   UNL A   1      49.739  26.033  28.259  1.00  0.00    -0.203 F 
ATOM     81  C   UNL A   1      51.340  26.008  26.531  1.00  0.00     0.198 A 
ATOM     82  C   UNL A   1      50.726  26.695  24.317  1.00  0.00     0.198 A 
ATOM     83  F   UNL A   1      48.541  27.447  23.884  1.00  0.00    -0.203 F 
ATOM     84  F   UNL A   1      52.268  25.581  27.399  1.00  0.00    -0.200 F 
ATOM     85  C   UNL A   1      51.680  26.222  25.204  1.00  0.00     0.200 A 
ATOM     86  F   UNL A   1      51.041  26.882  23.029  1.00  0.00    -0.200 F 
ATOM     87  F   UNL A   1      52.927  25.977  24.781  1.00  0.00    -0.200 F 
ENDBRANCH  53  77
BRANCH  65  88
ATOM     88  C   UNL A   1      45.742  32.437  28.428  1.00  0.00     0.064 A 
ATOM     89  C   UNL A   1      45.560  33.408  27.432  1.00  0.00     0.173 A 
ATOM     90  C   UNL A   1      46.246  32.856  29.669  1.00  0.00     0.173 A 
ATOM     91  F   UNL A   1      45.093  33.057  26.224  1.00  0.00    -0.203 F 
ATOM     92  C   UNL A   1      45.874  34.743  27.669  1.00  0.00     0.198 A 
ATOM     93  C   UNL A   1      46.525  34.197  29.913  1.00  0.00     0.198 A 
ATOM     94  F   UNL A   1      46.431  31.968  30.658  1.00  0.00    -0.203 F 
ATOM     95  F   UNL A   1      45.722  35.647  26.692  1.00  0.00    -0.200 F 
ATOM     96  C   UNL A   1      46.343  35.139  28.912  1.00  0.00     0.200 A 
ATOM     97  F   UNL A   1      46.957  34.581  31.122  1.00  0.00    -0.200 F 
ATOM     98  F   UNL A   1      46.618  36.429  29.146  1.00  0.00    -0.200 F 
ENDBRANCH  65  88
ENDBRANCH  39  40
ENDBRANCH  31  34
ENDBRANCH  29  30
ENDBRANCH  28  29
ENDBRANCH   1  28
TORSDOF 15
ENDMDL
MODEL 3
REMARK VINA RESULT:     -12.2      0.271      1.947
REMARK SMILES Cc1ccc(C#N)cc1Nc1cc(C)c(N)c(C(=O)NCCCCNC(=O)c2ccc(-c3c4nc(c(-c5c(F)c(F)c(F)c(F)c5F)c5ccc([nH]5)c(-c5c(F)c(F)c(F)c(F)c5F)c5nc(c(-c6c(F)c(F)c(F)c(F)c6F)c6ccc3[nH]6)C=C5)C=C4)cc2)c1
REMARK SMILES IDX 22 1 21 2 20 3 18 4 19 5 17 7 11 8 12 9 91 10 13 11 14 12
REMARK SMILES IDX 15 13 10 14 9 16 1 17 2 18 3 19 4 20 8 21 5 22 6 23 7 24
REMARK SMILES IDX 16 25 23 28 24 29 25 30 26 31 27 33 28 34 29 35 90 36 30 37
REMARK SMILES IDX 89 38 31 39 32 40 33 41 83 42 34 43 88 44 82 45 84 46 35 47
REMARK SMILES IDX 87 48 81 49 80 50 36 52 68 53 48 54 67 55 49 56 52 57 66 58
REMARK SMILES IDX 85 59 50 60 51 61 65 63 86 64 53 65 37 66 38 67 46 68 39 69
REMARK SMILES IDX 40 70 44 71 47 72 41 73 42 74 45 75 43 76 69 77 70 78 78 79
REMARK SMILES IDX 71 80 72 81 76 82 79 83 73 84 74 85 77 86 75 87 54 88 55 89
REMARK SMILES IDX 63 90 56 91 57 92 61 93 64 94 58 95 59 96 62 97 60 98
REMARK H PARENT 20 6 10 15 16 26 16 27 25 32 84 51 52 62
REMARK Flexibility Score: inf
ROOT
ATOM      1  C   UNL A   1      37.418  22.045  24.586  1.00  0.00     0.023 C 
ENDROOT
BRANCH   1   2
ATOM      2  C   UNL A   1      37.435  23.129  25.667  1.00  0.00     0.116 C 
BRANCH   2   3
ATOM      3  N   UNL A   1      36.369  22.896  26.621  1.00  0.00    -0.352 N 
ATOM      4  C   UNL A   1      35.007  23.072  26.595  1.00  0.00     0.253 C 
ATOM      5  O   UNL A   1      34.429  22.793  27.651  1.00  0.00    -0.269 OA
ATOM      6  H   UNL A   1      36.693  22.529  27.475  1.00  0.00     0.163 HD
BRANCH   4   7
ATOM      7  C   UNL A   1      34.218  23.496  25.383  1.00  0.00     0.065 A 
ATOM      8  C   UNL A   1      33.478  25.258  23.859  1.00  0.00     0.040 A 
ATOM      9  C   UNL A   1      32.985  24.296  22.986  1.00  0.00     0.031 A 
ATOM     10  C   UNL A   1      34.005  24.844  25.080  1.00  0.00     0.042 A 
ATOM     11  C   UNL A   1      33.058  22.926  23.303  1.00  0.00    -0.025 A 
ATOM     12  C   UNL A   1      32.415  21.975  22.328  1.00  0.00     0.047 C 
ATOM     13  C   UNL A   1      33.725  22.510  24.479  1.00  0.00     0.047 A 
BRANCH   8  14
ATOM     14  N   UNL A   1      33.567  26.609  23.474  1.00  0.00    -0.355 N 
ATOM     15  H   UNL A   1      34.216  26.818  22.764  1.00  0.00     0.167 HD
BRANCH  14  16
ATOM     16  C   UNL A   1      32.828  27.703  23.991  1.00  0.00     0.043 A 
ATOM     17  C   UNL A   1      30.958  27.259  22.319  1.00  0.00     0.046 C 
ATOM     18  C   UNL A   1      31.565  28.036  23.455  1.00  0.00    -0.027 A 
ATOM     19  C   UNL A   1      30.838  29.117  23.992  1.00  0.00     0.007 A 
ATOM     20  C   UNL A   1      31.346  29.868  25.050  1.00  0.00     0.020 A 
ATOM     21  C   UNL A   1      33.307  28.457  25.080  1.00  0.00     0.045 A 
ATOM     22  C   UNL A   1      32.583  29.540  25.597  1.00  0.00     0.054 A 
BRANCH  22  23
ATOM     23  C   UNL A   1      33.121  30.317  26.677  1.00  0.00     0.099 C 
ATOM     24  N   UNL A   1      33.549  30.945  27.551  1.00  0.00    -0.192 NA
ENDBRANCH  22  23
ENDBRANCH  14  16
ENDBRANCH   8  14
BRANCH  13  25
ATOM     25  N   UNL A   1      33.793  21.154  24.796  1.00  0.00    -0.398 N 
ATOM     26  H   UNL A   1      34.433  20.570  24.329  1.00  0.00     0.156 HD
ATOM     27  H   UNL A   1      33.202  20.779  25.489  1.00  0.00     0.156 HD
ENDBRANCH  13  25
ENDBRANCH   4   7
ENDBRANCH   2   3
ENDBRANCH   1   2
BRANCH   1  28
ATOM     28  C   UNL A   1      37.979  20.705  25.067  1.00  0.00     0.023 C 
BRANCH  28  29
ATOM     29  C   UNL A   1      39.263  20.821  25.875  1.00  0.00     0.116 C 
BRANCH  29  30
ATOM     30  N   UNL A   1      40.067  19.604  25.875  1.00  0.00    -0.352 N 
ATOM     31  C   UNL A   1      41.420  19.486  26.099  1.00  0.00     0.251 C 
ATOM     32  H   UNL A   1      39.583  18.766  25.694  1.00  0.00     0.163 HD
ATOM     33  O   UNL A   1      41.998  18.417  25.949  1.00  0.00    -0.269 OA
BRANCH  31  34
ATOM     34  C   UNL A   1      42.171  20.703  26.473  1.00  0.00     0.039 A 
ATOM     35  C   UNL A   1      42.310  21.036  27.820  1.00  0.00     0.014 A 
ATOM     36  C   UNL A   1      42.614  21.572  25.475  1.00  0.00     0.014 A 
ATOM     37  C   UNL A   1      42.682  22.328  28.162  1.00  0.00     0.010 A 
ATOM     38  C   UNL A   1      43.109  22.828  25.833  1.00  0.00     0.010 A 
ATOM     39  C   UNL A   1      43.085  23.243  27.175  1.00  0.00    -0.014 A 
BRANCH  39  40
ATOM     40  C   UNL A   1      43.453  24.626  27.581  1.00  0.00     0.031 A 
ATOM     41  C   UNL A   1      44.890  25.080  27.573  1.00  0.00     0.074 A 
ATOM     42  C   UNL A   1      42.474  25.498  27.894  1.00  0.00     0.049 A 
ATOM     43  N   UNL A   1      45.383  26.255  27.879  1.00  0.00    -0.248 NA
ATOM     44  C   UNL A   1      45.910  24.095  27.177  1.00  0.00     0.031 C 
ATOM     45  C   UNL A   1      41.045  25.179  27.927  1.00  0.00     0.029 A 
ATOM     46  N   UNL A   1      42.521  26.831  28.218  1.00  0.00    -0.354 N 
ATOM     47  C   UNL A   1      46.760  26.143  27.732  1.00  0.00     0.074 A 
ATOM     48  C   UNL A   1      47.035  24.778  27.344  1.00  0.00     0.031 C 
ATOM     49  C   UNL A   1      40.350  26.292  28.195  1.00  0.00     0.029 A 
ATOM     50  C   UNL A   1      41.284  27.385  28.439  1.00  0.00     0.049 A 
ATOM     51  H   UNL A   1      43.362  27.340  28.284  1.00  0.00     0.167 HD
ATOM     52  C   UNL A   1      47.706  27.099  27.892  1.00  0.00     0.037 A 
ATOM     53  C   UNL A   1      40.936  28.627  28.826  1.00  0.00     0.037 A 
ATOM     54  C   UNL A   1      47.423  28.467  28.243  1.00  0.00     0.049 A 
ATOM     55  C   UNL A   1      42.013  29.651  29.045  1.00  0.00     0.074 A 
ATOM     56  C   UNL A   1      48.314  29.517  28.384  1.00  0.00     0.029 A 
ATOM     57  N   UNL A   1      46.160  28.975  28.509  1.00  0.00    -0.354 N 
ATOM     58  N   UNL A   1      43.306  29.539  28.865  1.00  0.00    -0.248 NA
ATOM     59  C   UNL A   1      41.586  30.972  29.526  1.00  0.00     0.031 C 
ATOM     60  C   UNL A   1      47.601  30.642  28.804  1.00  0.00     0.029 A 
ATOM     61  C   UNL A   1      46.255  30.314  28.855  1.00  0.00     0.049 A 
ATOM     62  H   UNL A   1      45.321  28.461  28.459  1.00  0.00     0.167 HD
ATOM     63  C   UNL A   1      43.845  30.775  29.194  1.00  0.00     0.074 A 
ATOM     64  C   UNL A   1      42.736  31.632  29.557  1.00  0.00     0.031 C 
ATOM     65  C   UNL A   1      45.143  31.160  29.205  1.00  0.00     0.037 A 
BRANCH  52  66
ATOM     66  C   UNL A   1      49.147  26.724  27.692  1.00  0.00     0.064 A 
ATOM     67  C   UNL A   1      49.990  26.430  28.773  1.00  0.00     0.173 A 
ATOM     68  C   UNL A   1      49.656  26.540  26.395  1.00  0.00     0.173 A 
ATOM     69  F   UNL A   1      49.557  26.597  30.031  1.00  0.00    -0.203 F 
ATOM     70  C   UNL A   1      51.287  25.967  28.565  1.00  0.00     0.198 A 
ATOM     71  C   UNL A   1      50.942  26.047  26.191  1.00  0.00     0.198 A 
ATOM     72  F   UNL A   1      48.889  26.799  25.325  1.00  0.00    -0.203 F 
ATOM     73  F   UNL A   1      52.082  25.712  29.613  1.00  0.00    -0.200 F 
ATOM     74  C   UNL A   1      51.756  25.761  27.275  1.00  0.00     0.200 A 
ATOM     75  F   UNL A   1      51.384  25.829  24.945  1.00  0.00    -0.200 F 
ATOM     76  F   UNL A   1      52.993  25.284  27.078  1.00  0.00    -0.200 F 
ENDBRANCH  52  66
BRANCH  53  77
ATOM     77  C   UNL A   1      39.502  28.954  29.049  1.00  0.00     0.064 A 
ATOM     78  C   UNL A   1      38.679  29.372  27.995  1.00  0.00     0.173 A 
ATOM     79  C   UNL A   1      38.922  28.848  30.324  1.00  0.00     0.173 A 
ATOM     80  F   UNL A   1      39.187  29.508  26.762  1.00  0.00    -0.203 F 
ATOM     81  C   UNL A   1      37.338  29.686  28.210  1.00  0.00     0.198 A 
ATOM     82  C   UNL A   1      37.573  29.124  30.529  1.00  0.00     0.198 A 
ATOM     83  F   UNL A   1      39.662  28.449  31.369  1.00  0.00    -0.203 F 
ATOM     84  F   UNL A   1      36.587  30.132  27.193  1.00  0.00    -0.200 F 
ATOM     85  C   UNL A   1      36.784  29.554  29.474  1.00  0.00     0.200 A 
ATOM     86  F   UNL A   1      37.038  28.972  31.748  1.00  0.00    -0.200 F 
ATOM     87  F   UNL A   1      35.493  29.846  29.676  1.00  0.00    -0.200 F 
ENDBRANCH  53  77
BRANCH  65  88
ATOM     88  C   UNL A   1      45.453  32.572  29.609  1.00  0.00     0.064 A 
ATOM     89  C   UNL A   1      45.429  33.622  28.679  1.00  0.00     0.173 A 
ATOM     90  C   UNL A   1      45.680  32.895  30.956  1.00  0.00     0.173 A 
ATOM     91  F   UNL A   1      45.228  33.366  27.377  1.00  0.00    -0.203 F 
ATOM     92  C   UNL A   1      45.629  34.939  29.081  1.00  0.00     0.198 A 
ATOM     93  C   UNL A   1      45.845  34.216  31.359  1.00  0.00     0.198 A 
ATOM     94  F   UNL A   1      45.705  31.929  31.888  1.00  0.00    -0.203 F 
ATOM     95  F   UNL A   1      45.634  35.921  28.169  1.00  0.00    -0.200 F 
ATOM     96  C   UNL A   1      45.823  35.237  30.420  1.00  0.00     0.200 A 
ATOM     97  F   UNL A   1      46.009  34.504  32.657  1.00  0.00    -0.200 F 
ATOM     98  F   UNL A   1      45.987  36.508  30.809  1.00  0.00    -0.200 F 
ENDBRANCH  65  88
ENDBRANCH  39  40
ENDBRANCH  31  34
ENDBRANCH  29  30
ENDBRANCH  28  29
ENDBRANCH   1  28
TORSDOF 15
ENDMDL
