MODEL 1
REMARK VINA RESULT:     -11.1      0.000      0.000
REMARK SMILES CCC[NH2+][C@@H]1COC[C@@H]1C(=O)N[C@@](C)(CC)C(=O)NCCCCNC(=O)c1ccc(-c2c3nc(c(-c4c(F)c(F)c(F)c(F)c4F)c4ccc([nH]4)c(-c4c(F)c(F)c(F)c(F)c4F)c4nc(c(-c5c(F)c(F)c(F)c(F)c5F)c5ccc2[nH]5)C=C4)C=C3)cc1
REMARK SMILES IDX 20 1 19 2 17 3 18 4 13 6 14 7 12 8 10 9 11 10 9 12 5 13 6 14
REMARK SMILES IDX 7 15 8 16 4 17 3 20 2 21 1 22 15 23 16 24 21 25 22 26 23 27
REMARK SMILES IDX 24 28 25 29 26 31 27 32 28 33 89 34 29 35 88 36 30 37 31 38
REMARK SMILES IDX 32 39 82 40 33 41 87 42 81 43 83 44 34 45 86 46 80 47 79 48
REMARK SMILES IDX 35 50 67 51 47 52 66 53 48 54 51 55 65 56 84 57 49 58 50 59
REMARK SMILES IDX 64 61 85 62 52 63 36 64 37 65 45 66 38 67 39 68 43 69 46 70
REMARK SMILES IDX 40 71 41 72 44 73 42 74 68 75 69 76 77 77 70 78 71 79 75 80
REMARK SMILES IDX 78 81 72 82 73 83 76 84 74 85 53 86 54 87 62 88 55 89 56 90
REMARK SMILES IDX 60 91 63 92 57 93 58 94 61 95 59 96
REMARK H PARENT 19 5 12 11 4 18 4 19 24 30 83 49 51 60
REMARK Flexibility Score: inf
ROOT
ATOM      1  C   UNL A   1      34.169  25.364  25.463  1.00  0.00     0.116 C 
ENDROOT
BRANCH   1   2
ATOM      2  N   UNL A   1      33.889  26.191  24.308  1.00  0.00    -0.354 N 
ATOM      3  C   UNL A   1      33.335  27.410  24.105  1.00  0.00     0.245 C 
ATOM      4  O   UNL A   1      33.470  27.786  22.936  1.00  0.00    -0.272 OA
ATOM      5  H   UNL A   1      34.169  25.763  23.467  1.00  0.00     0.163 HD
BRANCH   3   6
ATOM      6  C   UNL A   1      32.678  28.299  25.218  1.00  0.00     0.116 C 
ATOM      7  C   UNL A   1      33.879  28.948  25.957  1.00  0.00     0.045 C 
BRANCH   6   8
ATOM      8  N   UNL A   1      31.859  29.491  24.806  1.00  0.00    -0.341 N 
ATOM      9  C   UNL A   1      30.672  29.714  24.173  1.00  0.00     0.232 C 
ATOM     10  O   UNL A   1      30.052  30.719  24.532  1.00  0.00    -0.274 OA
ATOM     11  H   UNL A   1      32.296  30.335  25.061  1.00  0.00     0.164 HD
BRANCH   9  12
ATOM     12  C   UNL A   1      30.197  28.844  23.022  1.00  0.00     0.164 C 
ATOM     13  C   UNL A   1      29.246  29.594  22.070  1.00  0.00     0.223 C 
ATOM     14  C   UNL A   1      27.887  29.329  22.704  1.00  0.00     0.225 C 
ATOM     15  O   UNL A   1      27.943  27.989  23.208  1.00  0.00    -0.374 OA
ATOM     16  C   UNL A   1      29.318  27.687  23.501  1.00  0.00     0.180 C 
BRANCH  13  17
ATOM     17  N   UNL A   1      29.587  31.002  21.844  1.00  0.00    -0.341 N 
ATOM     18  H   UNL A   1      29.827  31.415  22.746  1.00  0.00     0.346 HD
ATOM     19  H   UNL A   1      30.355  30.998  21.173  1.00  0.00     0.346 HD
BRANCH  17  20
ATOM     20  C   UNL A   1      28.543  31.818  21.244  1.00  0.00     0.260 C 
BRANCH  20  21
ATOM     21  C   UNL A   1      28.048  32.853  22.264  1.00  0.00     0.058 C 
ATOM     22  C   UNL A   1      29.153  33.453  23.126  1.00  0.00     0.010 C 
ENDBRANCH  20  21
ENDBRANCH  17  20
ENDBRANCH  13  17
ENDBRANCH   9  12
ENDBRANCH   6   8
BRANCH   6  23
ATOM     23  C   UNL A   1      31.843  27.479  26.231  1.00  0.00     0.035 C 
ATOM     24  C   UNL A   1      31.601  28.166  27.568  1.00  0.00     0.007 C 
ENDBRANCH   6  23
ENDBRANCH   3   6
ENDBRANCH   1   2
BRANCH   1  25
ATOM     25  C   UNL A   1      34.581  23.948  25.074  1.00  0.00     0.023 C 
BRANCH  25  26
ATOM     26  C   UNL A   1      35.808  23.388  25.803  1.00  0.00     0.023 C 
BRANCH  26  27
ATOM     27  C   UNL A   1      37.167  23.706  25.187  1.00  0.00     0.116 C 
BRANCH  27  28
ATOM     28  N   UNL A   1      38.205  22.762  25.557  1.00  0.00    -0.352 N 
ATOM     29  C   UNL A   1      39.343  22.982  26.299  1.00  0.00     0.251 C 
ATOM     30  H   UNL A   1      38.079  21.841  25.234  1.00  0.00     0.163 HD
ATOM     31  O   UNL A   1      40.161  22.086  26.462  1.00  0.00    -0.269 OA
BRANCH  29  32
ATOM     32  C   UNL A   1      39.594  24.325  26.862  1.00  0.00     0.039 A 
ATOM     33  C   UNL A   1      39.145  24.602  28.156  1.00  0.00     0.014 A 
ATOM     34  C   UNL A   1      40.291  25.291  26.132  1.00  0.00     0.014 A 
ATOM     35  C   UNL A   1      39.460  25.827  28.751  1.00  0.00     0.010 A 
ATOM     36  C   UNL A   1      40.650  26.490  26.744  1.00  0.00     0.010 A 
ATOM     37  C   UNL A   1      40.246  26.765  28.062  1.00  0.00    -0.014 A 
BRANCH  37  38
ATOM     38  C   UNL A   1      40.669  28.038  28.698  1.00  0.00     0.031 A 
ATOM     39  C   UNL A   1      42.063  28.173  29.239  1.00  0.00     0.074 A 
ATOM     40  C   UNL A   1      39.773  29.026  28.878  1.00  0.00     0.049 A 
ATOM     41  N   UNL A   1      42.580  29.133  29.964  1.00  0.00    -0.248 NA
ATOM     42  C   UNL A   1      42.992  27.068  28.953  1.00  0.00     0.031 C 
ATOM     43  C   UNL A   1      38.378  28.996  28.433  1.00  0.00     0.029 A 
ATOM     44  N   UNL A   1      39.893  30.240  29.509  1.00  0.00    -0.354 N 
ATOM     45  C   UNL A   1      43.878  28.732  30.249  1.00  0.00     0.074 A 
ATOM     46  C   UNL A   1      44.066  27.433  29.639  1.00  0.00     0.031 C 
ATOM     47  C   UNL A   1      37.772  30.133  28.812  1.00  0.00     0.029 A 
ATOM     48  C   UNL A   1      38.720  30.955  29.556  1.00  0.00     0.049 A 
ATOM     49  H   UNL A   1      40.740  30.566  29.893  1.00  0.00     0.167 HD
ATOM     50  C   UNL A   1      44.830  29.395  30.948  1.00  0.00     0.037 A 
ATOM     51  C   UNL A   1      38.439  32.129  30.153  1.00  0.00     0.037 A 
ATOM     52  C   UNL A   1      44.656  30.709  31.508  1.00  0.00     0.049 A 
ATOM     53  C   UNL A   1      39.525  32.857  30.897  1.00  0.00     0.074 A 
ATOM     54  C   UNL A   1      45.590  31.500  32.154  1.00  0.00     0.029 A 
ATOM     55  N   UNL A   1      43.470  31.426  31.484  1.00  0.00    -0.354 N 
ATOM     56  N   UNL A   1      40.769  32.499  31.102  1.00  0.00    -0.248 NA
ATOM     57  C   UNL A   1      39.170  34.154  31.493  1.00  0.00     0.031 C 
ATOM     58  C   UNL A   1      44.960  32.682  32.553  1.00  0.00     0.029 A 
ATOM     59  C   UNL A   1      43.644  32.644  32.121  1.00  0.00     0.049 A 
ATOM     60  H   UNL A   1      42.630  31.117  31.075  1.00  0.00     0.167 HD
ATOM     61  C   UNL A   1      41.351  33.534  31.821  1.00  0.00     0.074 A 
ATOM     62  C   UNL A   1      40.327  34.540  32.012  1.00  0.00     0.031 C 
ATOM     63  C   UNL A   1      42.619  33.641  32.284  1.00  0.00     0.037 A 
BRANCH  50  64
ATOM     64  C   UNL A   1      46.150  28.717  31.151  1.00  0.00     0.064 A 
ATOM     65  C   UNL A   1      46.390  27.891  32.259  1.00  0.00     0.173 A 
ATOM     66  C   UNL A   1      47.165  28.844  30.192  1.00  0.00     0.173 A 
ATOM     67  F   UNL A   1      45.455  27.747  33.209  1.00  0.00    -0.203 F 
ATOM     68  C   UNL A   1      47.607  27.231  32.408  1.00  0.00     0.198 A 
ATOM     69  C   UNL A   1      48.372  28.162  30.330  1.00  0.00     0.198 A 
ATOM     70  F   UNL A   1      46.982  29.618  29.111  1.00  0.00    -0.203 F 
ATOM     71  F   UNL A   1      47.828  26.473  33.490  1.00  0.00    -0.200 F 
ATOM     72  C   UNL A   1      48.593  27.360  31.440  1.00  0.00     0.200 A 
ATOM     73  F   UNL A   1      49.318  28.279  29.389  1.00  0.00    -0.200 F 
ATOM     74  F   UNL A   1      49.758  26.712  31.578  1.00  0.00    -0.200 F 
ENDBRANCH  50  64
BRANCH  51  75
ATOM     75  C   UNL A   1      37.066  32.693  30.075  1.00  0.00     0.064 A 
ATOM     76  C   UNL A   1      36.152  32.511  31.123  1.00  0.00     0.173 A 
ATOM     77  C   UNL A   1      36.634  33.406  28.948  1.00  0.00     0.173 A 
ATOM     78  F   UNL A   1      36.514  31.816  32.212  1.00  0.00    -0.203 F 
ATOM     79  C   UNL A   1      34.851  33.001  31.036  1.00  0.00     0.198 A 
ATOM     80  C   UNL A   1      35.339  33.918  28.873  1.00  0.00     0.198 A 
ATOM     81  F   UNL A   1      37.471  33.611  27.921  1.00  0.00    -0.203 F 
ATOM     82  F   UNL A   1      33.983  32.770  32.030  1.00  0.00    -0.200 F 
ATOM     83  C   UNL A   1      34.447  33.707  29.913  1.00  0.00     0.200 A 
ATOM     84  F   UNL A   1      34.957  34.611  27.792  1.00  0.00    -0.200 F 
ATOM     85  F   UNL A   1      33.195  34.177  29.829  1.00  0.00    -0.200 F 
ENDBRANCH  51  75
BRANCH  63  86
ATOM     86  C   UNL A   1      42.989  34.903  33.004  1.00  0.00     0.064 A 
ATOM     87  C   UNL A   1      43.431  36.038  32.312  1.00  0.00     0.173 A 
ATOM     88  C   UNL A   1      42.840  34.992  34.396  1.00  0.00     0.173 A 
ATOM     89  F   UNL A   1      43.603  35.994  30.982  1.00  0.00    -0.203 F 
ATOM     90  C   UNL A   1      43.721  37.218  32.991  1.00  0.00     0.198 A 
ATOM     91  C   UNL A   1      43.108  36.182  35.067  1.00  0.00     0.198 A 
ATOM     92  F   UNL A   1      42.415  33.933  35.100  1.00  0.00    -0.203 F 
ATOM     93  F   UNL A   1      44.172  38.284  32.315  1.00  0.00    -0.200 F 
ATOM     94  C   UNL A   1      43.552  37.292  34.365  1.00  0.00     0.200 A 
ATOM     95  F   UNL A   1      42.933  36.254  36.394  1.00  0.00    -0.200 F 
ATOM     96  F   UNL A   1      43.821  38.433  35.015  1.00  0.00    -0.200 F 
ENDBRANCH  63  86
ENDBRANCH  37  38
ENDBRANCH  29  32
ENDBRANCH  27  28
ENDBRANCH  26  27
ENDBRANCH  25  26
ENDBRANCH   1  25
TORSDOF 17
ENDMDL
MODEL 2
REMARK VINA RESULT:     -11.0      3.793      8.323
REMARK SMILES CCC[NH2+][C@@H]1COC[C@@H]1C(=O)N[C@@](C)(CC)C(=O)NCCCCNC(=O)c1ccc(-c2c3nc(c(-c4c(F)c(F)c(F)c(F)c4F)c4ccc([nH]4)c(-c4c(F)c(F)c(F)c(F)c4F)c4nc(c(-c5c(F)c(F)c(F)c(F)c5F)c5ccc2[nH]5)C=C4)C=C3)cc1
REMARK SMILES IDX 20 1 19 2 17 3 18 4 13 6 14 7 12 8 10 9 11 10 9 12 5 13 6 14
REMARK SMILES IDX 7 15 8 16 4 17 3 20 2 21 1 22 15 23 16 24 21 25 22 26 23 27
REMARK SMILES IDX 24 28 25 29 26 31 27 32 28 33 89 34 29 35 88 36 30 37 31 38
REMARK SMILES IDX 32 39 82 40 33 41 87 42 81 43 83 44 34 45 86 46 80 47 79 48
REMARK SMILES IDX 35 50 67 51 47 52 66 53 48 54 51 55 65 56 84 57 49 58 50 59
REMARK SMILES IDX 64 61 85 62 52 63 36 64 37 65 45 66 38 67 39 68 43 69 46 70
REMARK SMILES IDX 40 71 41 72 44 73 42 74 68 75 69 76 77 77 70 78 71 79 75 80
REMARK SMILES IDX 78 81 72 82 73 83 76 84 74 85 53 86 54 87 62 88 55 89 56 90
REMARK SMILES IDX 60 91 63 92 57 93 58 94 61 95 59 96
REMARK H PARENT 19 5 12 11 4 18 4 19 24 30 83 49 51 60
REMARK Flexibility Score: inf
ROOT
ATOM      1  C   UNL A   1      33.328  30.051  26.265  1.00  0.00     0.116 C 
ENDROOT
BRANCH   1   2
ATOM      2  N   UNL A   1      33.464  28.613  26.379  1.00  0.00    -0.354 N 
ATOM      3  C   UNL A   1      33.451  27.571  25.515  1.00  0.00     0.245 C 
ATOM      4  O   UNL A   1      33.789  26.517  26.064  1.00  0.00    -0.272 OA
ATOM      5  H   UNL A   1      33.597  28.325  27.311  1.00  0.00     0.163 HD
BRANCH   3   6
ATOM      6  C   UNL A   1      33.140  27.674  23.981  1.00  0.00     0.116 C 
ATOM      7  C   UNL A   1      33.993  28.875  23.492  1.00  0.00     0.045 C 
BRANCH   6   8
ATOM      8  N   UNL A   1      33.583  26.560  23.074  1.00  0.00    -0.341 N 
ATOM      9  C   UNL A   1      33.185  25.288  22.790  1.00  0.00     0.232 C 
ATOM     10  O   UNL A   1      33.377  24.910  21.630  1.00  0.00    -0.274 OA
ATOM     11  H   UNL A   1      34.371  26.818  22.543  1.00  0.00     0.164 HD
BRANCH   9  12
ATOM     12  C   UNL A   1      32.642  24.356  23.860  1.00  0.00     0.164 C 
ATOM     13  C   UNL A   1      33.727  23.430  24.441  1.00  0.00     0.223 C 
ATOM     14  C   UNL A   1      33.659  22.233  23.501  1.00  0.00     0.225 C 
ATOM     15  O   UNL A   1      32.275  22.067  23.175  1.00  0.00    -0.374 OA
ATOM     16  C   UNL A   1      31.638  23.351  23.291  1.00  0.00     0.180 C 
BRANCH  13  17
ATOM     17  N   UNL A   1      35.046  24.051  24.598  1.00  0.00    -0.341 N 
ATOM     18  H   UNL A   1      35.606  23.806  23.781  1.00  0.00     0.346 HD
ATOM     19  H   UNL A   1      34.872  25.050  24.697  1.00  0.00     0.346 HD
BRANCH  17  20
ATOM     20  C   UNL A   1      35.792  23.661  25.784  1.00  0.00     0.260 C 
BRANCH  20  21
ATOM     21  C   UNL A   1      37.259  23.404  25.408  1.00  0.00     0.058 C 
ATOM     22  C   UNL A   1      37.588  21.936  25.162  1.00  0.00     0.010 C 
ENDBRANCH  20  21
ENDBRANCH  17  20
ENDBRANCH  13  17
ENDBRANCH   9  12
ENDBRANCH   6   8
BRANCH   6  23
ATOM     23  C   UNL A   1      31.648  27.959  23.686  1.00  0.00     0.035 C 
ATOM     24  C   UNL A   1      30.665  27.276  24.627  1.00  0.00     0.007 C 
ENDBRANCH   6  23
ENDBRANCH   3   6
ENDBRANCH   1   2
BRANCH   1  25
ATOM     25  C   UNL A   1      31.868  30.490  26.204  1.00  0.00     0.023 C 
BRANCH  25  26
ATOM     26  C   UNL A   1      31.549  31.830  26.875  1.00  0.00     0.023 C 
BRANCH  26  27
ATOM     27  C   UNL A   1      32.743  32.681  27.298  1.00  0.00     0.116 C 
BRANCH  27  28
ATOM     28  N   UNL A   1      32.392  34.049  27.627  1.00  0.00    -0.352 N 
ATOM     29  C   UNL A   1      32.992  34.898  28.528  1.00  0.00     0.251 C 
ATOM     30  H   UNL A   1      31.621  34.421  27.140  1.00  0.00     0.163 HD
ATOM     31  O   UNL A   1      32.524  36.009  28.741  1.00  0.00    -0.269 OA
BRANCH  29  32
ATOM     32  C   UNL A   1      34.182  34.441  29.275  1.00  0.00     0.039 A 
ATOM     33  C   UNL A   1      33.998  33.831  30.519  1.00  0.00     0.014 A 
ATOM     34  C   UNL A   1      35.465  34.586  28.741  1.00  0.00     0.014 A 
ATOM     35  C   UNL A   1      35.096  33.297  31.198  1.00  0.00     0.010 A 
ATOM     36  C   UNL A   1      36.551  34.007  29.393  1.00  0.00     0.010 A 
ATOM     37  C   UNL A   1      36.376  33.349  30.621  1.00  0.00    -0.014 A 
BRANCH  37  38
ATOM     38  C   UNL A   1      37.547  32.715  31.277  1.00  0.00     0.031 A 
ATOM     39  C   UNL A   1      38.230  31.550  30.620  1.00  0.00     0.074 A 
ATOM     40  C   UNL A   1      37.929  33.121  32.503  1.00  0.00     0.049 A 
ATOM     41  N   UNL A   1      39.161  30.762  31.094  1.00  0.00    -0.248 NA
ATOM     42  C   UNL A   1      37.785  31.207  29.260  1.00  0.00     0.031 C 
ATOM     43  C   UNL A   1      37.317  34.214  33.262  1.00  0.00     0.029 A 
ATOM     44  N   UNL A   1      38.905  32.642  33.342  1.00  0.00    -0.354 N 
ATOM     45  C   UNL A   1      39.387  29.812  30.107  1.00  0.00     0.074 A 
ATOM     46  C   UNL A   1      38.482  30.106  29.018  1.00  0.00     0.031 C 
ATOM     47  C   UNL A   1      37.927  34.317  34.454  1.00  0.00     0.029 A 
ATOM     48  C   UNL A   1      38.944  33.276  34.561  1.00  0.00     0.049 A 
ATOM     49  H   UNL A   1      39.517  31.911  33.093  1.00  0.00     0.167 HD
ATOM     50  C   UNL A   1      40.279  28.792  30.109  1.00  0.00     0.037 A 
ATOM     51  C   UNL A   1      39.700  33.028  35.648  1.00  0.00     0.037 A 
ATOM     52  C   UNL A   1      41.213  28.535  31.173  1.00  0.00     0.049 A 
ATOM     53  C   UNL A   1      40.703  31.908  35.609  1.00  0.00     0.074 A 
ATOM     54  C   UNL A   1      42.216  27.582  31.226  1.00  0.00     0.029 A 
ATOM     55  N   UNL A   1      41.262  29.237  32.368  1.00  0.00    -0.354 N 
ATOM     56  N   UNL A   1      40.955  31.058  34.644  1.00  0.00    -0.248 NA
ATOM     57  C   UNL A   1      41.528  31.711  36.810  1.00  0.00     0.031 C 
ATOM     58  C   UNL A   1      42.849  27.683  32.468  1.00  0.00     0.029 A 
ATOM     59  C   UNL A   1      42.266  28.725  33.173  1.00  0.00     0.049 A 
ATOM     60  H   UNL A   1      40.671  29.986  32.607  1.00  0.00     0.167 HD
ATOM     61  C   UNL A   1      41.983  30.248  35.107  1.00  0.00     0.074 A 
ATOM     62  C   UNL A   1      42.316  30.712  36.438  1.00  0.00     0.031 C 
ATOM     63  C   UNL A   1      42.596  29.212  34.486  1.00  0.00     0.037 A 
BRANCH  50  64
ATOM     64  C   UNL A   1      40.294  27.873  28.926  1.00  0.00     0.064 A 
ATOM     65  C   UNL A   1      41.041  28.167  27.777  1.00  0.00     0.173 A 
ATOM     66  C   UNL A   1      39.604  26.653  28.970  1.00  0.00     0.173 A 
ATOM     67  F   UNL A   1      41.708  29.326  27.683  1.00  0.00    -0.203 F 
ATOM     68  C   UNL A   1      41.082  27.279  26.705  1.00  0.00     0.198 A 
ATOM     69  C   UNL A   1      39.667  25.756  27.907  1.00  0.00     0.198 A 
ATOM     70  F   UNL A   1      38.879  26.324  30.050  1.00  0.00    -0.203 F 
ATOM     71  F   UNL A   1      41.774  27.594  25.602  1.00  0.00    -0.200 F 
ATOM     72  C   UNL A   1      40.402  26.072  26.774  1.00  0.00     0.200 A 
ATOM     73  F   UNL A   1      39.019  24.585  27.980  1.00  0.00    -0.200 F 
ATOM     74  F   UNL A   1      40.454  25.212  25.747  1.00  0.00    -0.200 F 
ENDBRANCH  50  64
BRANCH  51  75
ATOM     75  C   UNL A   1      39.537  33.857  36.871  1.00  0.00     0.064 A 
ATOM     76  C   UNL A   1      40.220  35.073  37.013  1.00  0.00     0.173 A 
ATOM     77  C   UNL A   1      38.713  33.442  37.927  1.00  0.00     0.173 A 
ATOM     78  F   UNL A   1      41.036  35.499  36.039  1.00  0.00    -0.203 F 
ATOM     79  C   UNL A   1      40.103  35.831  38.176  1.00  0.00     0.198 A 
ATOM     80  C   UNL A   1      38.577  34.215  39.079  1.00  0.00     0.198 A 
ATOM     81  F   UNL A   1      38.035  32.288  37.838  1.00  0.00    -0.203 F 
ATOM     82  F   UNL A   1      40.805  36.965  38.307  1.00  0.00    -0.200 F 
ATOM     83  C   UNL A   1      39.279  35.403  39.206  1.00  0.00     0.200 A 
ATOM     84  F   UNL A   1      37.770  33.804  40.066  1.00  0.00    -0.200 F 
ATOM     85  F   UNL A   1      39.168  36.133  40.325  1.00  0.00    -0.200 F 
ENDBRANCH  51  75
BRANCH  63  86
ATOM     86  C   UNL A   1      43.716  28.533  35.215  1.00  0.00     0.064 A 
ATOM     87  C   UNL A   1      43.484  27.437  36.056  1.00  0.00     0.173 A 
ATOM     88  C   UNL A   1      45.042  28.948  35.018  1.00  0.00     0.173 A 
ATOM     89  F   UNL A   1      42.232  27.015  36.285  1.00  0.00    -0.203 F 
ATOM     90  C   UNL A   1      44.542  26.785  36.685  1.00  0.00     0.198 A 
ATOM     91  C   UNL A   1      46.098  28.279  35.630  1.00  0.00     0.198 A 
ATOM     92  F   UNL A   1      45.313  29.990  34.218  1.00  0.00    -0.203 F 
ATOM     93  F   UNL A   1      44.297  25.758  37.510  1.00  0.00    -0.200 F 
ATOM     94  C   UNL A   1      45.846  27.201  36.465  1.00  0.00     0.200 A 
ATOM     95  F   UNL A   1      47.358  28.674  35.408  1.00  0.00    -0.200 F 
ATOM     96  F   UNL A   1      46.864  26.564  37.063  1.00  0.00    -0.200 F 
ENDBRANCH  63  86
ENDBRANCH  37  38
ENDBRANCH  29  32
ENDBRANCH  27  28
ENDBRANCH  26  27
ENDBRANCH  25  26
ENDBRANCH   1  25
TORSDOF 17
ENDMDL
MODEL 3
REMARK VINA RESULT:     -11.0      3.699      8.096
REMARK SMILES CCC[NH2+][C@@H]1COC[C@@H]1C(=O)N[C@@](C)(CC)C(=O)NCCCCNC(=O)c1ccc(-c2c3nc(c(-c4c(F)c(F)c(F)c(F)c4F)c4ccc([nH]4)c(-c4c(F)c(F)c(F)c(F)c4F)c4nc(c(-c5c(F)c(F)c(F)c(F)c5F)c5ccc2[nH]5)C=C4)C=C3)cc1
REMARK SMILES IDX 20 1 19 2 17 3 18 4 13 6 14 7 12 8 10 9 11 10 9 12 5 13 6 14
REMARK SMILES IDX 7 15 8 16 4 17 3 20 2 21 1 22 15 23 16 24 21 25 22 26 23 27
REMARK SMILES IDX 24 28 25 29 26 31 27 32 28 33 89 34 29 35 88 36 30 37 31 38
REMARK SMILES IDX 32 39 82 40 33 41 87 42 81 43 83 44 34 45 86 46 80 47 79 48
REMARK SMILES IDX 35 50 67 51 47 52 66 53 48 54 51 55 65 56 84 57 49 58 50 59
REMARK SMILES IDX 64 61 85 62 52 63 36 64 37 65 45 66 38 67 39 68 43 69 46 70
REMARK SMILES IDX 40 71 41 72 44 73 42 74 68 75 69 76 77 77 70 78 71 79 75 80
REMARK SMILES IDX 78 81 72 82 73 83 76 84 74 85 53 86 54 87 62 88 55 89 56 90
REMARK SMILES IDX 60 91 63 92 57 93 58 94 61 95 59 96
REMARK H PARENT 19 5 12 11 4 18 4 19 24 30 83 49 51 60
REMARK Flexibility Score: inf
ROOT
ATOM      1  C   UNL A   1      32.534  29.898  25.378  1.00  0.00     0.116 C 
ENDROOT
BRANCH   1   2
ATOM      2  N   UNL A   1      31.558  29.401  24.430  1.00  0.00    -0.354 N 
ATOM      3  C   UNL A   1      31.151  28.178  24.015  1.00  0.00     0.245 C 
ATOM      4  O   UNL A   1      30.146  28.248  23.300  1.00  0.00    -0.272 OA
ATOM      5  H   UNL A   1      31.074  30.129  23.977  1.00  0.00     0.163 HD
BRANCH   3   6
ATOM      6  C   UNL A   1      31.800  26.817  24.446  1.00  0.00     0.116 C 
ATOM      7  C   UNL A   1      31.226  26.543  25.862  1.00  0.00     0.045 C 
BRANCH   6   8
ATOM      8  N   UNL A   1      31.436  25.568  23.692  1.00  0.00    -0.341 N 
ATOM      9  C   UNL A   1      31.218  24.255  23.986  1.00  0.00     0.232 C 
ATOM     10  O   UNL A   1      30.387  23.677  23.278  1.00  0.00    -0.274 OA
ATOM     11  H   UNL A   1      31.325  25.746  22.730  1.00  0.00     0.164 HD
BRANCH   9  12
ATOM     12  C   UNL A   1      32.025  23.521  25.042  1.00  0.00     0.164 C 
ATOM     13  C   UNL A   1      33.148  22.660  24.432  1.00  0.00     0.223 C 
ATOM     14  C   UNL A   1      32.437  21.333  24.193  1.00  0.00     0.225 C 
ATOM     15  O   UNL A   1      31.536  21.166  25.294  1.00  0.00    -0.374 OA
ATOM     16  C   UNL A   1      31.188  22.474  25.780  1.00  0.00     0.180 C 
BRANCH  13  17
ATOM     17  N   UNL A   1      33.814  23.252  23.268  1.00  0.00    -0.341 N 
ATOM     18  H   UNL A   1      33.572  22.691  22.451  1.00  0.00     0.346 HD
ATOM     19  H   UNL A   1      33.486  24.216  23.222  1.00  0.00     0.346 HD
BRANCH  17  20
ATOM     20  C   UNL A   1      35.265  23.331  23.341  1.00  0.00     0.260 C 
BRANCH  20  21
ATOM     21  C   UNL A   1      35.712  23.236  24.807  1.00  0.00     0.058 C 
ATOM     22  C   UNL A   1      37.178  22.857  24.985  1.00  0.00     0.010 C 
ENDBRANCH  20  21
ENDBRANCH  17  20
ENDBRANCH  13  17
ENDBRANCH   9  12
ENDBRANCH   6   8
BRANCH   6  23
ATOM     23  C   UNL A   1      33.344  26.884  24.530  1.00  0.00     0.035 C 
ATOM     24  C   UNL A   1      33.944  26.303  25.803  1.00  0.00     0.007 C 
ENDBRANCH   6  23
ENDBRANCH   3   6
ENDBRANCH   1   2
BRANCH   1  25
ATOM     25  C   UNL A   1      31.892  30.339  26.690  1.00  0.00     0.023 C 
BRANCH  25  26
ATOM     26  C   UNL A   1      31.634  31.842  26.832  1.00  0.00     0.023 C 
BRANCH  26  27
ATOM     27  C   UNL A   1      32.799  32.688  27.335  1.00  0.00     0.116 C 
BRANCH  27  28
ATOM     28  N   UNL A   1      32.425  34.050  27.670  1.00  0.00    -0.352 N 
ATOM     29  C   UNL A   1      33.012  34.905  28.573  1.00  0.00     0.251 C 
ATOM     30  H   UNL A   1      31.648  34.410  27.185  1.00  0.00     0.163 HD
ATOM     31  O   UNL A   1      32.526  36.007  28.791  1.00  0.00    -0.269 OA
BRANCH  29  32
ATOM     32  C   UNL A   1      34.212  34.466  29.316  1.00  0.00     0.039 A 
ATOM     33  C   UNL A   1      34.042  33.879  30.573  1.00  0.00     0.014 A 
ATOM     34  C   UNL A   1      35.489  34.605  28.766  1.00  0.00     0.014 A 
ATOM     35  C   UNL A   1      35.149  33.361  31.251  1.00  0.00     0.010 A 
ATOM     36  C   UNL A   1      36.583  34.042  29.418  1.00  0.00     0.010 A 
ATOM     37  C   UNL A   1      36.423  33.407  30.660  1.00  0.00    -0.014 A 
BRANCH  37  38
ATOM     38  C   UNL A   1      37.603  32.789  31.316  1.00  0.00     0.031 A 
ATOM     39  C   UNL A   1      38.292  31.624  30.666  1.00  0.00     0.074 A 
ATOM     40  C   UNL A   1      37.987  33.209  32.536  1.00  0.00     0.049 A 
ATOM     41  N   UNL A   1      39.233  30.848  31.142  1.00  0.00    -0.248 NA
ATOM     42  C   UNL A   1      37.844  31.265  29.311  1.00  0.00     0.031 C 
ATOM     43  C   UNL A   1      37.369  34.304  33.288  1.00  0.00     0.029 A 
ATOM     44  N   UNL A   1      38.971  32.746  33.374  1.00  0.00    -0.354 N 
ATOM     45  C   UNL A   1      39.462  29.891  30.163  1.00  0.00     0.074 A 
ATOM     46  C   UNL A   1      38.550  30.168  29.075  1.00  0.00     0.031 C 
ATOM     47  C   UNL A   1      37.984  34.422  34.476  1.00  0.00     0.029 A 
ATOM     48  C   UNL A   1      39.011  33.391  34.587  1.00  0.00     0.049 A 
ATOM     49  H   UNL A   1      39.588  32.019  33.129  1.00  0.00     0.167 HD
ATOM     50  C   UNL A   1      40.363  28.880  30.169  1.00  0.00     0.037 A 
ATOM     51  C   UNL A   1      39.774  33.160  35.673  1.00  0.00     0.037 A 
ATOM     52  C   UNL A   1      41.305  28.640  31.231  1.00  0.00     0.049 A 
ATOM     53  C   UNL A   1      40.787  32.048  35.639  1.00  0.00     0.074 A 
ATOM     54  C   UNL A   1      42.316  27.697  31.287  1.00  0.00     0.029 A 
ATOM     55  N   UNL A   1      41.353  29.353  32.419  1.00  0.00    -0.354 N 
ATOM     56  N   UNL A   1      41.042  31.192  34.680  1.00  0.00    -0.248 NA
ATOM     57  C   UNL A   1      41.620  31.869  36.837  1.00  0.00     0.031 C 
ATOM     58  C   UNL A   1      42.954  27.815  32.525  1.00  0.00     0.029 A 
ATOM     59  C   UNL A   1      42.366  28.857  33.223  1.00  0.00     0.049 A 
ATOM     60  H   UNL A   1      40.757  30.100  32.655  1.00  0.00     0.167 HD
ATOM     61  C   UNL A   1      42.079  30.395  35.145  1.00  0.00     0.074 A 
ATOM     62  C   UNL A   1      42.414  30.874  36.470  1.00  0.00     0.031 C 
ATOM     63  C   UNL A   1      42.698  29.359  34.530  1.00  0.00     0.037 A 
BRANCH  50  64
ATOM     64  C   UNL A   1      40.380  27.950  28.994  1.00  0.00     0.064 A 
ATOM     65  C   UNL A   1      39.623  26.771  28.979  1.00  0.00     0.173 A 
ATOM     66  C   UNL A   1      41.115  28.276  27.845  1.00  0.00     0.173 A 
ATOM     67  F   UNL A   1      38.913  26.409  30.058  1.00  0.00    -0.203 F 
ATOM     68  C   UNL A   1      39.613  25.941  27.860  1.00  0.00     0.198 A 
ATOM     69  C   UNL A   1      41.084  27.459  26.719  1.00  0.00     0.198 A 
ATOM     70  F   UNL A   1      41.851  29.398  27.809  1.00  0.00    -0.203 F 
ATOM     71  F   UNL A   1      38.909  24.802  27.878  1.00  0.00    -0.200 F 
ATOM     72  C   UNL A   1      40.337  26.290  26.729  1.00  0.00     0.200 A 
ATOM     73  F   UNL A   1      41.774  27.803  25.623  1.00  0.00    -0.200 F 
ATOM     74  F   UNL A   1      40.315  25.498  25.648  1.00  0.00    -0.200 F 
ENDBRANCH  50  64
BRANCH  51  75
ATOM     75  C   UNL A   1      39.610  33.998  36.889  1.00  0.00     0.064 A 
ATOM     76  C   UNL A   1      38.816  33.565  37.960  1.00  0.00     0.173 A 
ATOM     77  C   UNL A   1      40.226  35.253  36.998  1.00  0.00     0.173 A 
ATOM     78  F   UNL A   1      38.190  32.381  37.892  1.00  0.00    -0.203 F 
ATOM     79  C   UNL A   1      38.625  34.366  39.084  1.00  0.00     0.198 A 
ATOM     80  C   UNL A   1      40.056  36.042  38.134  1.00  0.00     0.198 A 
ATOM     81  F   UNL A   1      40.999  35.711  36.002  1.00  0.00    -0.203 F 
ATOM     82  F   UNL A   1      37.822  33.949  40.073  1.00  0.00    -0.200 F 
ATOM     83  C   UNL A   1      39.248  35.602  39.172  1.00  0.00     0.200 A 
ATOM     84  F   UNL A   1      40.669  37.229  38.220  1.00  0.00    -0.200 F 
ATOM     85  F   UNL A   1      39.064  36.372  40.252  1.00  0.00    -0.200 F 
ENDBRANCH  51  75
BRANCH  63  86
ATOM     86  C   UNL A   1      43.828  28.697  35.259  1.00  0.00     0.064 A 
ATOM     87  C   UNL A   1      45.150  29.136  35.114  1.00  0.00     0.173 A 
ATOM     88  C   UNL A   1      43.572  27.652  36.160  1.00  0.00     0.173 A 
ATOM     89  F   UNL A   1      45.444  30.122  34.253  1.00  0.00    -0.203 F 
ATOM     90  C   UNL A   1      46.181  28.543  35.838  1.00  0.00     0.198 A 
ATOM     91  C   UNL A   1      44.602  27.079  36.900  1.00  0.00     0.198 A 
ATOM     92  F   UNL A   1      42.321  27.201  36.336  1.00  0.00    -0.203 F 
ATOM     93  F   UNL A   1      47.444  28.956  35.662  1.00  0.00    -0.200 F 
ATOM     94  C   UNL A   1      45.906  27.522  36.735  1.00  0.00     0.200 A 
ATOM     95  F   UNL A   1      44.333  26.100  37.774  1.00  0.00    -0.200 F 
ATOM     96  F   UNL A   1      46.899  26.961  37.440  1.00  0.00    -0.200 F 
ENDBRANCH  63  86
ENDBRANCH  37  38
ENDBRANCH  29  32
ENDBRANCH  27  28
ENDBRANCH  26  27
ENDBRANCH  25  26
ENDBRANCH   1  25
TORSDOF 17
ENDMDL
