MODEL 1
REMARK VINA RESULT:     -10.4      0.000      0.000
REMARK SMILES CCC[NH2+][C@H]1C[C@@H](C(=O)NCCCCNC(=O)c2ccc(-c3c4nc(c(-c5c(F)c(F)c(F)c(F)c5F)c5ccc([nH]5)c(-c5c(F)c(F)c(F)c(F)c5F)c5nc(c(-c6c(F)c(F)c(F)c(F)c6F)c6ccc3[nH]6)C=C5)C=C4)cc2)C1
REMARK SMILES IDX 12 1 11 2 10 3 8 4 9 5 7 7 5 8 81 9 6 10 4 11 3 14 2 15 1 16
REMARK SMILES IDX 13 17 14 18 15 19 16 20 17 22 18 23 19 24 80 25 20 26 79 27
REMARK SMILES IDX 21 28 22 29 23 30 73 31 24 32 78 33 72 34 74 35 25 36 77 37
REMARK SMILES IDX 71 38 70 39 26 41 58 42 38 43 57 44 39 45 42 46 56 47 75 48
REMARK SMILES IDX 40 49 41 50 55 52 76 53 43 54 27 55 28 56 36 57 29 58 30 59
REMARK SMILES IDX 34 60 37 61 31 62 32 63 35 64 33 65 59 66 60 67 68 68 61 69
REMARK SMILES IDX 62 70 66 71 69 72 63 73 64 74 67 75 65 76 44 77 45 78 53 79
REMARK SMILES IDX 46 80 47 81 51 82 54 83 48 84 49 85 52 86 50 87
REMARK H PARENT 10 6 4 12 4 13 15 21 74 40 42 51
REMARK Flexibility Score: inf
ROOT
ATOM      1  C   UNL A   1      37.038  20.729  24.741  1.00  0.00     0.023 C 
ENDROOT
BRANCH   1   2
ATOM      2  C   UNL A   1      37.152  21.980  25.608  1.00  0.00     0.116 C 
BRANCH   2   3
ATOM      3  N   UNL A   1      35.983  22.191  26.440  1.00  0.00    -0.356 N 
ATOM      4  C   UNL A   1      35.022  23.172  26.413  1.00  0.00     0.223 C 
ATOM      5  O   UNL A   1      34.109  23.048  27.243  1.00  0.00    -0.275 OA
ATOM      6  H   UNL A   1      35.857  21.515  27.144  1.00  0.00     0.163 HD
BRANCH   4   7
ATOM      7  C   UNL A   1      35.082  24.366  25.443  1.00  0.00     0.090 C 
ATOM      8  C   UNL A   1      34.040  25.626  24.036  1.00  0.00     0.183 C 
ATOM      9  C   UNL A   1      34.139  25.584  25.580  1.00  0.00     0.078 C 
ATOM     10  C   UNL A   1      34.585  24.184  23.997  1.00  0.00     0.078 C 
BRANCH   8  11
ATOM     11  N   UNL A   1      32.621  25.693  23.668  1.00  0.00    -0.344 N 
ATOM     12  H   UNL A   1      32.368  24.841  23.169  1.00  0.00     0.346 HD
ATOM     13  H   UNL A   1      32.075  25.788  24.525  1.00  0.00     0.346 HD
BRANCH  11  14
ATOM     14  C   UNL A   1      32.338  26.849  22.812  1.00  0.00     0.260 C 
BRANCH  14  15
ATOM     15  C   UNL A   1      33.588  27.668  22.477  1.00  0.00     0.058 C 
ATOM     16  C   UNL A   1      33.572  29.049  23.114  1.00  0.00     0.010 C 
ENDBRANCH  14  15
ENDBRANCH  11  14
ENDBRANCH   8  11
ENDBRANCH   4   7
ENDBRANCH   2   3
ENDBRANCH   1   2
BRANCH   1  17
ATOM     17  C   UNL A   1      38.070  19.639  25.028  1.00  0.00     0.023 C 
BRANCH  17  18
ATOM     18  C   UNL A   1      39.289  20.082  25.829  1.00  0.00     0.116 C 
BRANCH  18  19
ATOM     19  N   UNL A   1      40.364  19.103  25.828  1.00  0.00    -0.352 N 
ATOM     20  C   UNL A   1      41.704  19.276  26.074  1.00  0.00     0.251 C 
ATOM     21  H   UNL A   1      40.092  18.180  25.619  1.00  0.00     0.163 HD
ATOM     22  O   UNL A   1      42.483  18.339  25.907  1.00  0.00    -0.269 OA
BRANCH  20  23
ATOM     23  C   UNL A   1      42.224  20.593  26.504  1.00  0.00     0.039 A 
ATOM     24  C   UNL A   1      42.666  21.488  25.527  1.00  0.00     0.014 A 
ATOM     25  C   UNL A   1      42.280  20.952  27.855  1.00  0.00     0.014 A 
ATOM     26  C   UNL A   1      43.102  22.760  25.898  1.00  0.00     0.010 A 
ATOM     27  C   UNL A   1      42.636  22.250  28.215  1.00  0.00     0.010 A 
ATOM     28  C   UNL A   1      43.054  23.168  27.242  1.00  0.00    -0.014 A 
BRANCH  28  29
ATOM     29  C   UNL A   1      43.427  24.557  27.623  1.00  0.00     0.031 A 
ATOM     30  C   UNL A   1      44.868  24.989  27.640  1.00  0.00     0.074 A 
ATOM     31  C   UNL A   1      42.461  25.424  27.984  1.00  0.00     0.049 A 
ATOM     32  N   UNL A   1      45.376  26.164  27.920  1.00  0.00    -0.248 NA
ATOM     33  C   UNL A   1      45.875  23.964  27.324  1.00  0.00     0.031 C 
ATOM     34  C   UNL A   1      41.034  25.110  28.074  1.00  0.00     0.029 A 
ATOM     35  N   UNL A   1      42.530  26.750  28.336  1.00  0.00    -0.354 N 
ATOM     36  C   UNL A   1      46.753  26.018  27.814  1.00  0.00     0.074 A 
ATOM     37  C   UNL A   1      47.007  24.626  27.511  1.00  0.00     0.031 C 
ATOM     38  C   UNL A   1      40.359  26.219  28.413  1.00  0.00     0.029 A 
ATOM     39  C   UNL A   1      41.305  27.315  28.598  1.00  0.00     0.049 A 
ATOM     40  H   UNL A   1      43.377  27.248  28.394  1.00  0.00     0.167 HD
ATOM     41  C   UNL A   1      47.717  26.964  27.929  1.00  0.00     0.037 A 
ATOM     42  C   UNL A   1      40.981  28.576  28.940  1.00  0.00     0.037 A 
ATOM     43  C   UNL A   1      47.462  28.352  28.219  1.00  0.00     0.049 A 
ATOM     44  C   UNL A   1      42.073  29.605  29.057  1.00  0.00     0.074 A 
ATOM     45  C   UNL A   1      48.367  29.395  28.314  1.00  0.00     0.029 A 
ATOM     46  N   UNL A   1      46.208  28.889  28.466  1.00  0.00    -0.354 N 
ATOM     47  N   UNL A   1      43.364  29.471  28.874  1.00  0.00    -0.248 NA
ATOM     48  C   UNL A   1      41.657  30.968  29.410  1.00  0.00     0.031 C 
ATOM     49  C   UNL A   1      47.666  30.553  28.665  1.00  0.00     0.029 A 
ATOM     50  C   UNL A   1      46.317  30.246  28.729  1.00  0.00     0.049 A 
ATOM     51  H   UNL A   1      45.364  28.382  28.455  1.00  0.00     0.167 HD
ATOM     52  C   UNL A   1      43.909  30.735  29.058  1.00  0.00     0.074 A 
ATOM     53  C   UNL A   1      42.804  31.627  29.338  1.00  0.00     0.031 C 
ATOM     54  C   UNL A   1      45.207  31.123  29.003  1.00  0.00     0.037 A 
BRANCH  41  55
ATOM     55  C   UNL A   1      49.143  26.532  27.725  1.00  0.00     0.064 A 
ATOM     56  C   UNL A   1      49.696  26.406  26.441  1.00  0.00     0.173 A 
ATOM     57  C   UNL A   1      49.980  26.285  28.824  1.00  0.00     0.173 A 
ATOM     58  F   UNL A   1      48.938  26.619  25.355  1.00  0.00    -0.203 F 
ATOM     59  C   UNL A   1      51.024  26.026  26.264  1.00  0.00     0.198 A 
ATOM     60  C   UNL A   1      51.317  25.937  28.644  1.00  0.00     0.198 A 
ATOM     61  F   UNL A   1      49.506  26.395  30.074  1.00  0.00    -0.203 F 
ATOM     62  F   UNL A   1      51.515  25.868  25.028  1.00  0.00    -0.200 F 
ATOM     63  C   UNL A   1      51.835  25.801  27.366  1.00  0.00     0.200 A 
ATOM     64  F   UNL A   1      52.104  25.734  29.710  1.00  0.00    -0.200 F 
ATOM     65  F   UNL A   1      53.116  25.447  27.195  1.00  0.00    -0.200 F 
ENDBRANCH  41  55
BRANCH  42  66
ATOM     66  C   UNL A   1      39.560  28.951  29.162  1.00  0.00     0.064 A 
ATOM     67  C   UNL A   1      38.973  28.840  30.432  1.00  0.00     0.173 A 
ATOM     68  C   UNL A   1      38.749  29.399  28.109  1.00  0.00     0.173 A 
ATOM     69  F   UNL A   1      39.701  28.399  31.468  1.00  0.00    -0.203 F 
ATOM     70  C   UNL A   1      37.625  29.127  30.631  1.00  0.00     0.198 A 
ATOM     71  C   UNL A   1      37.409  29.719  28.317  1.00  0.00     0.198 A 
ATOM     72  F   UNL A   1      39.260  29.531  26.876  1.00  0.00    -0.203 F 
ATOM     73  F   UNL A   1      37.077  28.950  31.841  1.00  0.00    -0.200 F 
ATOM     74  C   UNL A   1      36.844  29.571  29.575  1.00  0.00     0.200 A 
ATOM     75  F   UNL A   1      36.662  30.163  27.297  1.00  0.00    -0.200 F 
ATOM     76  F   UNL A   1      35.547  29.844  29.767  1.00  0.00    -0.200 F 
ENDBRANCH  42  66
BRANCH  54  77
ATOM     77  C   UNL A   1      45.491  32.585  29.207  1.00  0.00     0.064 A 
ATOM     78  C   UNL A   1      45.772  33.116  30.476  1.00  0.00     0.173 A 
ATOM     79  C   UNL A   1      45.473  33.470  28.119  1.00  0.00     0.173 A 
ATOM     80  F   UNL A   1      45.790  32.315  31.554  1.00  0.00    -0.203 F 
ATOM     81  C   UNL A   1      45.973  34.482  30.655  1.00  0.00     0.198 A 
ATOM     82  C   UNL A   1      45.712  34.831  28.294  1.00  0.00     0.198 A 
ATOM     83  F   UNL A   1      45.220  33.017  26.882  1.00  0.00    -0.203 F 
ATOM     84  F   UNL A   1      46.162  34.974  31.886  1.00  0.00    -0.200 F 
ATOM     85  C   UNL A   1      45.947  35.338  29.563  1.00  0.00     0.200 A 
ATOM     86  F   UNL A   1      45.703  35.654  27.236  1.00  0.00    -0.200 F 
ATOM     87  F   UNL A   1      46.133  36.652  29.737  1.00  0.00    -0.200 F 
ENDBRANCH  54  77
ENDBRANCH  28  29
ENDBRANCH  20  23
ENDBRANCH  18  19
ENDBRANCH  17  18
ENDBRANCH   1  17
TORSDOF 14
ENDMDL
MODEL 2
REMARK VINA RESULT:     -10.3      5.500     10.956
REMARK SMILES CCC[NH2+][C@H]1C[C@@H](C(=O)NCCCCNC(=O)c2ccc(-c3c4nc(c(-c5c(F)c(F)c(F)c(F)c5F)c5ccc([nH]5)c(-c5c(F)c(F)c(F)c(F)c5F)c5nc(c(-c6c(F)c(F)c(F)c(F)c6F)c6ccc3[nH]6)C=C5)C=C4)cc2)C1
REMARK SMILES IDX 12 1 11 2 10 3 8 4 9 5 7 7 5 8 81 9 6 10 4 11 3 14 2 15 1 16
REMARK SMILES IDX 13 17 14 18 15 19 16 20 17 22 18 23 19 24 80 25 20 26 79 27
REMARK SMILES IDX 21 28 22 29 23 30 73 31 24 32 78 33 72 34 74 35 25 36 77 37
REMARK SMILES IDX 71 38 70 39 26 41 58 42 38 43 57 44 39 45 42 46 56 47 75 48
REMARK SMILES IDX 40 49 41 50 55 52 76 53 43 54 27 55 28 56 36 57 29 58 30 59
REMARK SMILES IDX 34 60 37 61 31 62 32 63 35 64 33 65 59 66 60 67 68 68 61 69
REMARK SMILES IDX 62 70 66 71 69 72 63 73 64 74 67 75 65 76 44 77 45 78 53 79
REMARK SMILES IDX 46 80 47 81 51 82 54 83 48 84 49 85 52 86 50 87
REMARK H PARENT 10 6 4 12 4 13 15 21 74 40 42 51
REMARK Flexibility Score: inf
ROOT
ATOM      1  C   UNL A   1      31.585  30.395  26.125  1.00  0.00     0.023 C 
ENDROOT
BRANCH   1   2
ATOM      2  C   UNL A   1      33.034  29.929  26.020  1.00  0.00     0.116 C 
BRANCH   2   3
ATOM      3  N   UNL A   1      33.448  29.696  24.650  1.00  0.00    -0.356 N 
ATOM      4  C   UNL A   1      33.473  28.546  23.900  1.00  0.00     0.223 C 
ATOM      5  O   UNL A   1      33.845  28.684  22.724  1.00  0.00    -0.275 OA
ATOM      6  H   UNL A   1      33.765  30.499  24.178  1.00  0.00     0.163 HD
BRANCH   4   7
ATOM      7  C   UNL A   1      33.095  27.170  24.476  1.00  0.00     0.090 C 
ATOM      8  C   UNL A   1      33.691  25.137  24.884  1.00  0.00     0.183 C 
ATOM      9  C   UNL A   1      33.920  26.493  25.595  1.00  0.00     0.078 C 
ATOM     10  C   UNL A   1      33.295  25.912  23.611  1.00  0.00     0.078 C 
BRANCH   8  11
ATOM     11  N   UNL A   1      34.989  24.466  24.745  1.00  0.00    -0.344 N 
ATOM     12  H   UNL A   1      35.398  24.723  23.846  1.00  0.00     0.346 HD
ATOM     13  H   UNL A   1      35.587  24.767  25.515  1.00  0.00     0.346 HD
BRANCH  11  14
ATOM     14  C   UNL A   1      34.854  23.008  24.809  1.00  0.00     0.260 C 
BRANCH  14  15
ATOM     15  C   UNL A   1      35.924  22.344  25.680  1.00  0.00     0.058 C 
ATOM     16  C   UNL A   1      36.536  21.116  25.024  1.00  0.00     0.010 C 
ENDBRANCH  14  15
ENDBRANCH  11  14
ENDBRANCH   8  11
ENDBRANCH   4   7
ENDBRANCH   2   3
ENDBRANCH   1   2
BRANCH   1  17
ATOM     17  C   UNL A   1      31.397  31.869  26.488  1.00  0.00     0.023 C 
BRANCH  17  18
ATOM     18  C   UNL A   1      32.632  32.574  27.034  1.00  0.00     0.116 C 
BRANCH  18  19
ATOM     19  N   UNL A   1      32.362  33.922  27.507  1.00  0.00    -0.352 N 
ATOM     20  C   UNL A   1      32.992  34.647  28.488  1.00  0.00     0.251 C 
ATOM     21  H   UNL A   1      31.617  34.384  27.057  1.00  0.00     0.163 HD
ATOM     22  O   UNL A   1      32.538  35.738  28.830  1.00  0.00    -0.269 OA
BRANCH  20  23
ATOM     23  C   UNL A   1      34.192  34.109  29.165  1.00  0.00     0.039 A 
ATOM     24  C   UNL A   1      34.018  33.211  30.221  1.00  0.00     0.014 A 
ATOM     25  C   UNL A   1      35.482  34.478  28.771  1.00  0.00     0.014 A 
ATOM     26  C   UNL A   1      35.131  32.638  30.836  1.00  0.00     0.010 A 
ATOM     27  C   UNL A   1      36.590  33.843  29.330  1.00  0.00     0.010 A 
ATOM     28  C   UNL A   1      36.428  32.917  30.370  1.00  0.00    -0.014 A 
BRANCH  28  29
ATOM     29  C   UNL A   1      37.607  32.232  30.963  1.00  0.00     0.031 A 
ATOM     30  C   UNL A   1      38.094  32.591  32.340  1.00  0.00     0.074 A 
ATOM     31  C   UNL A   1      38.259  31.300  30.241  1.00  0.00     0.049 A 
ATOM     32  N   UNL A   1      39.088  32.082  33.026  1.00  0.00    -0.248 NA
ATOM     33  C   UNL A   1      37.390  33.682  33.033  1.00  0.00     0.031 C 
ATOM     34  C   UNL A   1      37.929  30.909  28.870  1.00  0.00     0.029 A 
ATOM     35  N   UNL A   1      39.333  30.505  30.562  1.00  0.00    -0.354 N 
ATOM     36  C   UNL A   1      39.126  32.787  34.222  1.00  0.00     0.074 A 
ATOM     37  C   UNL A   1      38.102  33.805  34.143  1.00  0.00     0.031 C 
ATOM     38  C   UNL A   1      38.752  29.921  28.483  1.00  0.00     0.029 A 
ATOM     39  C   UNL A   1      39.689  29.631  29.563  1.00  0.00     0.049 A 
ATOM     40  H   UNL A   1      39.802  30.556  31.426  1.00  0.00     0.167 HD
ATOM     41  C   UNL A   1      39.922  32.584  35.300  1.00  0.00     0.037 A 
ATOM     42  C   UNL A   1      40.657  28.696  29.527  1.00  0.00     0.037 A 
ATOM     43  C   UNL A   1      40.934  31.563  35.381  1.00  0.00     0.049 A 
ATOM     44  C   UNL A   1      41.523  28.492  30.740  1.00  0.00     0.074 A 
ATOM     45  C   UNL A   1      41.763  31.250  36.445  1.00  0.00     0.029 A 
ATOM     46  N   UNL A   1      41.257  30.688  34.354  1.00  0.00    -0.354 N 
ATOM     47  N   UNL A   1      41.495  29.112  31.895  1.00  0.00    -0.248 NA
ATOM     48  C   UNL A   1      42.547  27.443  30.649  1.00  0.00     0.031 C 
ATOM     49  C   UNL A   1      42.620  30.220  36.045  1.00  0.00     0.029 A 
ATOM     50  C   UNL A   1      42.285  29.847  34.754  1.00  0.00     0.049 A 
ATOM     51  H   UNL A   1      40.822  30.668  33.472  1.00  0.00     0.167 HD
ATOM     52  C   UNL A   1      42.471  28.508  32.676  1.00  0.00     0.074 A 
ATOM     53  C   UNL A   1      43.052  27.454  31.873  1.00  0.00     0.031 C 
ATOM     54  C   UNL A   1      42.853  28.799  33.944  1.00  0.00     0.037 A 
BRANCH  41  55
ATOM     55  C   UNL A   1      39.721  33.481  36.491  1.00  0.00     0.064 A 
ATOM     56  C   UNL A   1      40.355  34.730  36.584  1.00  0.00     0.173 A 
ATOM     57  C   UNL A   1      38.851  33.110  37.527  1.00  0.00     0.173 A 
ATOM     58  F   UNL A   1      41.206  35.130  35.627  1.00  0.00    -0.203 F 
ATOM     59  C   UNL A   1      40.145  35.562  37.681  1.00  0.00     0.198 A 
ATOM     60  C   UNL A   1      38.618  33.959  38.607  1.00  0.00     0.198 A 
ATOM     61  F   UNL A   1      38.215  31.930  37.488  1.00  0.00    -0.203 F 
ATOM     62  F   UNL A   1      40.798  36.728  37.770  1.00  0.00    -0.200 F 
ATOM     63  C   UNL A   1      39.271  35.180  38.686  1.00  0.00     0.200 A 
ATOM     64  F   UNL A   1      37.761  33.594  39.571  1.00  0.00    -0.200 F 
ATOM     65  F   UNL A   1      39.060  35.986  39.736  1.00  0.00    -0.200 F 
ENDBRANCH  41  55
BRANCH  42  66
ATOM     66  C   UNL A   1      40.840  27.853  28.315  1.00  0.00     0.064 A 
ATOM     67  C   UNL A   1      40.217  26.601  28.206  1.00  0.00     0.173 A 
ATOM     68  C   UNL A   1      41.662  28.264  27.256  1.00  0.00     0.173 A 
ATOM     69  F   UNL A   1      39.435  26.154  29.201  1.00  0.00    -0.203 F 
ATOM     70  C   UNL A   1      40.438  25.779  27.104  1.00  0.00     0.198 A 
ATOM     71  C   UNL A   1      41.854  27.455  26.137  1.00  0.00     0.198 A 
ATOM     72  F   UNL A   1      42.277  29.455  27.305  1.00  0.00    -0.203 F 
ATOM     73  F   UNL A   1      39.880  24.561  27.057  1.00  0.00    -0.200 F 
ATOM     74  C   UNL A   1      41.253  26.208  26.068  1.00  0.00     0.200 A 
ATOM     75  F   UNL A   1      42.631  27.881  25.131  1.00  0.00    -0.200 F 
ATOM     76  F   UNL A   1      41.466  25.416  25.009  1.00  0.00    -0.200 F 
ENDBRANCH  42  66
BRANCH  54  77
ATOM     77  C   UNL A   1      43.922  27.934  34.550  1.00  0.00     0.064 A 
ATOM     78  C   UNL A   1      45.282  28.280  34.485  1.00  0.00     0.173 A 
ATOM     79  C   UNL A   1      43.583  26.737  35.199  1.00  0.00     0.173 A 
ATOM     80  F   UNL A   1      45.662  29.409  33.866  1.00  0.00    -0.203 F 
ATOM     81  C   UNL A   1      46.262  27.436  34.999  1.00  0.00     0.198 A 
ATOM     82  C   UNL A   1      44.564  25.913  35.746  1.00  0.00     0.198 A 
ATOM     83  F   UNL A   1      42.299  26.362  35.300  1.00  0.00    -0.203 F 
ATOM     84  F   UNL A   1      47.556  27.751  34.856  1.00  0.00    -0.200 F 
ATOM     85  C   UNL A   1      45.902  26.255  35.633  1.00  0.00     0.200 A 
ATOM     86  F   UNL A   1      44.213  24.781  36.373  1.00  0.00    -0.200 F 
ATOM     87  F   UNL A   1      46.847  25.441  36.121  1.00  0.00    -0.200 F 
ENDBRANCH  54  77
ENDBRANCH  28  29
ENDBRANCH  20  23
ENDBRANCH  18  19
ENDBRANCH  17  18
ENDBRANCH   1  17
TORSDOF 14
ENDMDL
MODEL 3
REMARK VINA RESULT:     -10.3      5.743     11.024
REMARK SMILES CCC[NH2+][C@H]1C[C@@H](C(=O)NCCCCNC(=O)c2ccc(-c3c4nc(c(-c5c(F)c(F)c(F)c(F)c5F)c5ccc([nH]5)c(-c5c(F)c(F)c(F)c(F)c5F)c5nc(c(-c6c(F)c(F)c(F)c(F)c6F)c6ccc3[nH]6)C=C5)C=C4)cc2)C1
REMARK SMILES IDX 12 1 11 2 10 3 8 4 9 5 7 7 5 8 81 9 6 10 4 11 3 14 2 15 1 16
REMARK SMILES IDX 13 17 14 18 15 19 16 20 17 22 18 23 19 24 80 25 20 26 79 27
REMARK SMILES IDX 21 28 22 29 23 30 73 31 24 32 78 33 72 34 74 35 25 36 77 37
REMARK SMILES IDX 71 38 70 39 26 41 58 42 38 43 57 44 39 45 42 46 56 47 75 48
REMARK SMILES IDX 40 49 41 50 55 52 76 53 43 54 27 55 28 56 36 57 29 58 30 59
REMARK SMILES IDX 34 60 37 61 31 62 32 63 35 64 33 65 59 66 60 67 68 68 61 69
REMARK SMILES IDX 62 70 66 71 69 72 63 73 64 74 67 75 65 76 44 77 45 78 53 79
REMARK SMILES IDX 46 80 47 81 51 82 54 83 48 84 49 85 52 86 50 87
REMARK H PARENT 10 6 4 12 4 13 15 21 74 40 42 51
REMARK Flexibility Score: inf
ROOT
ATOM      1  C   UNL A   1      31.772  30.156  26.830  1.00  0.00     0.023 C 
ENDROOT
BRANCH   1   2
ATOM      2  C   UNL A   1      31.716  29.418  25.495  1.00  0.00     0.116 C 
BRANCH   2   3
ATOM      3  N   UNL A   1      31.482  27.996  25.653  1.00  0.00    -0.356 N 
ATOM      4  C   UNL A   1      30.951  27.069  24.790  1.00  0.00     0.223 C 
ATOM      5  O   UNL A   1      30.924  25.902  25.211  1.00  0.00    -0.275 OA
ATOM      6  H   UNL A   1      31.751  27.633  26.528  1.00  0.00     0.163 HD
BRANCH   4   7
ATOM      7  C   UNL A   1      30.395  27.445  23.405  1.00  0.00     0.090 C 
ATOM      8  C   UNL A   1      29.900  29.007  22.001  1.00  0.00     0.183 C 
ATOM      9  C   UNL A   1      31.211  28.282  22.392  1.00  0.00     0.078 C 
ATOM     10  C   UNL A   1      29.264  28.485  23.306  1.00  0.00     0.078 C 
BRANCH   8  11
ATOM     11  N   UNL A   1      30.145  30.453  22.042  1.00  0.00    -0.344 N 
ATOM     12  H   UNL A   1      30.538  30.696  22.952  1.00  0.00     0.346 HD
ATOM     13  H   UNL A   1      30.795  30.687  21.291  1.00  0.00     0.346 HD
BRANCH  11  14
ATOM     14  C   UNL A   1      28.910  31.216  21.837  1.00  0.00     0.260 C 
BRANCH  14  15
ATOM     15  C   UNL A   1      28.544  32.099  23.033  1.00  0.00     0.058 C 
ATOM     16  C   UNL A   1      27.344  31.573  23.805  1.00  0.00     0.010 C 
ENDBRANCH  14  15
ENDBRANCH  11  14
ENDBRANCH   8  11
ENDBRANCH   4   7
ENDBRANCH   2   3
ENDBRANCH   1   2
BRANCH   1  17
ATOM     17  C   UNL A   1      31.518  31.662  26.755  1.00  0.00     0.023 C 
BRANCH  17  18
ATOM     18  C   UNL A   1      32.746  32.546  26.930  1.00  0.00     0.116 C 
BRANCH  18  19
ATOM     19  N   UNL A   1      32.431  33.876  27.428  1.00  0.00    -0.352 N 
ATOM     20  C   UNL A   1      33.017  34.590  28.444  1.00  0.00     0.251 C 
ATOM     21  H   UNL A   1      31.688  34.331  26.969  1.00  0.00     0.163 HD
ATOM     22  O   UNL A   1      32.528  35.661  28.800  1.00  0.00    -0.269 OA
BRANCH  20  23
ATOM     23  C   UNL A   1      34.211  34.063  29.141  1.00  0.00     0.039 A 
ATOM     24  C   UNL A   1      34.028  33.156  30.187  1.00  0.00     0.014 A 
ATOM     25  C   UNL A   1      35.503  34.453  28.774  1.00  0.00     0.014 A 
ATOM     26  C   UNL A   1      35.137  32.594  30.820  1.00  0.00     0.010 A 
ATOM     27  C   UNL A   1      36.608  33.828  29.350  1.00  0.00     0.010 A 
ATOM     28  C   UNL A   1      36.439  32.894  30.381  1.00  0.00    -0.014 A 
BRANCH  28  29
ATOM     29  C   UNL A   1      37.615  32.220  30.992  1.00  0.00     0.031 A 
ATOM     30  C   UNL A   1      38.089  32.598  32.369  1.00  0.00     0.074 A 
ATOM     31  C   UNL A   1      38.277  31.281  30.288  1.00  0.00     0.049 A 
ATOM     32  N   UNL A   1      39.079  32.101  33.069  1.00  0.00    -0.248 NA
ATOM     33  C   UNL A   1      37.376  33.695  33.042  1.00  0.00     0.031 C 
ATOM     34  C   UNL A   1      37.960  30.872  28.918  1.00  0.00     0.029 A 
ATOM     35  N   UNL A   1      39.351  30.495  30.627  1.00  0.00    -0.354 N 
ATOM     36  C   UNL A   1      39.105  32.820  34.257  1.00  0.00     0.074 A 
ATOM     37  C   UNL A   1      38.077  33.834  34.157  1.00  0.00     0.031 C 
ATOM     38  C   UNL A   1      38.789  29.882  28.551  1.00  0.00     0.029 A 
ATOM     39  C   UNL A   1      39.718  29.610  29.643  1.00  0.00     0.049 A 
ATOM     40  H   UNL A   1      39.812  30.558  31.494  1.00  0.00     0.167 HD
ATOM     41  C   UNL A   1      39.892  32.634  35.344  1.00  0.00     0.037 A 
ATOM     42  C   UNL A   1      40.690  28.678  29.626  1.00  0.00     0.037 A 
ATOM     43  C   UNL A   1      40.908  31.618  35.446  1.00  0.00     0.049 A 
ATOM     44  C   UNL A   1      41.547  28.492  30.849  1.00  0.00     0.074 A 
ATOM     45  C   UNL A   1      41.729  31.322  36.520  1.00  0.00     0.029 A 
ATOM     46  N   UNL A   1      41.242  30.732  34.433  1.00  0.00    -0.354 N 
ATOM     47  N   UNL A   1      41.506  29.126  31.996  1.00  0.00    -0.248 NA
ATOM     48  C   UNL A   1      42.574  27.445  30.779  1.00  0.00     0.031 C 
ATOM     49  C   UNL A   1      42.592  30.289  36.141  1.00  0.00     0.029 A 
ATOM     50  C   UNL A   1      42.270  29.900  34.852  1.00  0.00     0.049 A 
ATOM     51  H   UNL A   1      40.814  30.699  33.547  1.00  0.00     0.167 HD
ATOM     52  C   UNL A   1      42.477  28.535  32.793  1.00  0.00     0.074 A 
ATOM     53  C   UNL A   1      43.070  27.473  32.007  1.00  0.00     0.031 C 
ATOM     54  C   UNL A   1      42.848  28.844  34.060  1.00  0.00     0.037 A 
BRANCH  41  55
ATOM     55  C   UNL A   1      39.678  33.545  36.522  1.00  0.00     0.064 A 
ATOM     56  C   UNL A   1      40.292  34.805  36.596  1.00  0.00     0.173 A 
ATOM     57  C   UNL A   1      38.815  33.176  37.565  1.00  0.00     0.173 A 
ATOM     58  F   UNL A   1      41.135  35.205  35.632  1.00  0.00    -0.203 F 
ATOM     59  C   UNL A   1      40.070  35.650  37.681  1.00  0.00     0.198 A 
ATOM     60  C   UNL A   1      38.569  34.036  38.632  1.00  0.00     0.198 A 
ATOM     61  F   UNL A   1      38.198  31.985  37.542  1.00  0.00    -0.203 F 
ATOM     62  F   UNL A   1      40.704  36.827  37.752  1.00  0.00    -0.200 F 
ATOM     63  C   UNL A   1      39.202  35.268  38.693  1.00  0.00     0.200 A 
ATOM     64  F   UNL A   1      37.719  33.672  39.602  1.00  0.00    -0.200 F 
ATOM     65  F   UNL A   1      38.980  36.087  39.731  1.00  0.00    -0.200 F 
ENDBRANCH  41  55
BRANCH  42  66
ATOM     66  C   UNL A   1      40.886  27.821  28.426  1.00  0.00     0.064 A 
ATOM     67  C   UNL A   1      41.707  28.237  27.367  1.00  0.00     0.173 A 
ATOM     68  C   UNL A   1      40.237  26.584  28.297  1.00  0.00     0.173 A 
ATOM     69  F   UNL A   1      42.336  29.420  27.433  1.00  0.00    -0.203 F 
ATOM     70  C   UNL A   1      41.842  27.468  26.213  1.00  0.00     0.198 A 
ATOM     71  C   UNL A   1      40.400  25.800  27.157  1.00  0.00     0.198 A 
ATOM     72  F   UNL A   1      39.446  26.135  29.282  1.00  0.00    -0.203 F 
ATOM     73  F   UNL A   1      42.582  27.922  25.192  1.00  0.00    -0.200 F 
ATOM     74  C   UNL A   1      41.192  26.248  26.110  1.00  0.00     0.200 A 
ATOM     75  F   UNL A   1      39.782  24.614  27.068  1.00  0.00    -0.200 F 
ATOM     76  F   UNL A   1      41.319  25.511  24.999  1.00  0.00    -0.200 F 
ENDBRANCH  42  66
BRANCH  54  77
ATOM     77  C   UNL A   1      43.915  27.990  34.686  1.00  0.00     0.064 A 
ATOM     78  C   UNL A   1      43.611  26.796  35.359  1.00  0.00     0.173 A 
ATOM     79  C   UNL A   1      45.263  28.376  34.617  1.00  0.00     0.173 A 
ATOM     80  F   UNL A   1      42.337  26.387  35.463  1.00  0.00    -0.203 F 
ATOM     81  C   UNL A   1      44.607  26.051  35.983  1.00  0.00     0.198 A 
ATOM     82  C   UNL A   1      46.262  27.608  35.211  1.00  0.00     0.198 A 
ATOM     83  F   UNL A   1      45.613  29.502  33.978  1.00  0.00    -0.203 F 
ATOM     84  F   UNL A   1      44.281  24.957  36.685  1.00  0.00    -0.200 F 
ATOM     85  C   UNL A   1      45.932  26.455  35.905  1.00  0.00     0.200 A 
ATOM     86  F   UNL A   1      47.543  27.991  35.120  1.00  0.00    -0.200 F 
ATOM     87  F   UNL A   1      46.888  25.740  36.513  1.00  0.00    -0.200 F 
ENDBRANCH  54  77
ENDBRANCH  28  29
ENDBRANCH  20  23
ENDBRANCH  18  19
ENDBRANCH  17  18
ENDBRANCH   1  17
TORSDOF 14
ENDMDL
