MODEL 1
REMARK VINA RESULT:     -13.3      0.000      0.000
REMARK SMILES O=C(NCCCCNC(=O)[C@@H]1CC(=O)N(c2ccc(Cl)cc2C(=O)c2ccccc2)C1)c1ccc(-c2c3nc(c(-c4c(F)c(F)c(F)c(F)c4F)c4ccc([nH]4)c(-c4c(F)c(F)c(F)c(F)c4F)c4nc(c(-c5c(F)c(F)c(F)c(F)c5F)c5ccc2[nH]5)C=C4)C=C3)cc1
REMARK SMILES IDX 6 1 5 2 4 3 3 4 1 5 2 6 32 8 33 9 94 10 34 11 93 12 35 13
REMARK SMILES IDX 36 14 37 15 87 16 38 17 92 18 86 19 88 20 39 21 91 22 85 23
REMARK SMILES IDX 84 24 40 26 72 27 52 28 71 29 53 30 56 31 70 32 89 33 54 34
REMARK SMILES IDX 55 35 69 37 90 38 57 39 41 40 42 41 50 42 43 43 44 44 48 45
REMARK SMILES IDX 51 46 45 47 46 48 49 49 47 50 73 51 74 52 82 53 75 54 76 55
REMARK SMILES IDX 80 56 83 57 77 58 78 59 81 60 79 61 58 62 59 63 67 64 60 65
REMARK SMILES IDX 61 66 65 67 68 68 62 69 63 70 66 71 64 72 7 73 8 74 9 75
REMARK SMILES IDX 10 77 11 78 12 79 31 80 13 81 15 82 14 83 16 84 17 85 22 86
REMARK SMILES IDX 18 87 21 88 19 89 20 90 23 91 24 92 25 93 26 94 30 95 27 96
REMARK SMILES IDX 29 97 28 98
REMARK H PARENT 3 7 88 25 56 36 8 76
REMARK Flexibility Score: inf
ROOT
ATOM      1  C   UNL A   1      32.007  28.953  23.032  1.00  0.00     0.023 C 
ENDROOT
BRANCH   1   2
ATOM      2  C   UNL A   1      33.366  28.915  23.737  1.00  0.00     0.023 C 
BRANCH   2   3
ATOM      3  C   UNL A   1      33.329  28.962  25.262  1.00  0.00     0.116 C 
BRANCH   3   4
ATOM      4  N   UNL A   1      32.765  30.199  25.781  1.00  0.00    -0.352 N 
ATOM      5  O   UNL A   1      32.435  31.923  27.188  1.00  0.00    -0.269 OA
ATOM      6  C   UNL A   1      33.159  30.998  26.829  1.00  0.00     0.251 C 
ATOM      7  H   UNL A   1      31.966  30.516  25.303  1.00  0.00     0.163 HD
BRANCH   6   8
ATOM      8  C   UNL A   1      34.431  30.747  27.544  1.00  0.00     0.039 A 
ATOM      9  C   UNL A   1      34.755  29.476  28.015  1.00  0.00     0.014 A 
ATOM     10  C   UNL A   1      35.343  31.797  27.708  1.00  0.00     0.014 A 
ATOM     11  C   UNL A   1      35.895  29.293  28.790  1.00  0.00     0.010 A 
ATOM     12  C   UNL A   1      36.544  31.586  28.396  1.00  0.00     0.010 A 
ATOM     13  C   UNL A   1      36.816  30.338  28.975  1.00  0.00    -0.014 A 
BRANCH  13  14
ATOM     14  C   UNL A   1      38.078  30.056  29.711  1.00  0.00     0.031 A 
ATOM     15  C   UNL A   1      38.327  30.600  31.090  1.00  0.00     0.074 A 
ATOM     16  C   UNL A   1      38.982  29.236  29.138  1.00  0.00     0.049 A 
ATOM     17  N   UNL A   1      39.335  30.373  31.896  1.00  0.00    -0.248 NA
ATOM     18  C   UNL A   1      37.324  31.526  31.637  1.00  0.00     0.031 C 
ATOM     19  C   UNL A   1      38.867  28.671  27.791  1.00  0.00     0.029 A 
ATOM     20  N   UNL A   1      40.154  28.709  29.618  1.00  0.00    -0.354 N 
ATOM     21  C   UNL A   1      39.089  31.120  33.040  1.00  0.00     0.074 A 
ATOM     22  C   UNL A   1      37.857  31.845  32.809  1.00  0.00     0.031 C 
ATOM     23  C   UNL A   1      39.890  27.834  27.574  1.00  0.00     0.029 A 
ATOM     24  C   UNL A   1      40.769  27.851  28.737  1.00  0.00     0.049 A 
ATOM     25  H   UNL A   1      40.520  28.926  30.505  1.00  0.00     0.167 HD
ATOM     26  C   UNL A   1      39.815  31.181  34.183  1.00  0.00     0.037 A 
ATOM     27  C   UNL A   1      41.920  27.163  28.845  1.00  0.00     0.037 A 
ATOM     28  C   UNL A   1      41.045  30.460  34.406  1.00  0.00     0.049 A 
ATOM     29  C   UNL A   1      42.713  27.268  30.118  1.00  0.00     0.074 A 
ATOM     30  C   UNL A   1      41.849  30.452  35.534  1.00  0.00     0.029 A 
ATOM     31  N   UNL A   1      41.651  29.621  33.482  1.00  0.00    -0.354 N 
ATOM     32  N   UNL A   1      42.445  27.949  31.206  1.00  0.00    -0.248 NA
ATOM     33  C   UNL A   1      43.964  26.503  30.179  1.00  0.00     0.031 C 
ATOM     34  C   UNL A   1      42.963  29.646  35.274  1.00  0.00     0.029 A 
ATOM     35  C   UNL A   1      42.826  29.104  34.007  1.00  0.00     0.049 A 
ATOM     36  H   UNL A   1      41.298  29.422  32.585  1.00  0.00     0.167 HD
ATOM     37  C   UNL A   1      43.487  27.687  32.083  1.00  0.00     0.074 A 
ATOM     38  C   UNL A   1      44.370  26.754  31.414  1.00  0.00     0.031 C 
ATOM     39  C   UNL A   1      43.699  28.182  33.327  1.00  0.00     0.037 A 
BRANCH  26  40
ATOM     40  C   UNL A   1      39.305  32.059  35.292  1.00  0.00     0.064 A 
ATOM     41  C   UNL A   1      38.497  31.548  36.320  1.00  0.00     0.173 A 
ATOM     42  C   UNL A   1      39.678  33.411  35.365  1.00  0.00     0.173 A 
ATOM     43  F   UNL A   1      38.104  30.266  36.295  1.00  0.00    -0.203 F 
ATOM     44  C   UNL A   1      38.069  32.361  37.368  1.00  0.00     0.198 A 
ATOM     45  C   UNL A   1      39.272  34.212  36.430  1.00  0.00     0.198 A 
ATOM     46  F   UNL A   1      40.454  33.950  34.413  1.00  0.00    -0.203 F 
ATOM     47  F   UNL A   1      37.268  31.858  38.317  1.00  0.00    -0.200 F 
ATOM     48  C   UNL A   1      38.464  33.689  37.427  1.00  0.00     0.200 A 
ATOM     49  F   UNL A   1      39.667  35.491  36.492  1.00  0.00    -0.200 F 
ATOM     50  F   UNL A   1      38.061  34.464  38.442  1.00  0.00    -0.200 F 
ENDBRANCH  26  40
BRANCH  27  51
ATOM     51  C   UNL A   1      42.396  26.332  27.709  1.00  0.00     0.064 A 
ATOM     52  C   UNL A   1      43.371  26.801  26.819  1.00  0.00     0.173 A 
ATOM     53  C   UNL A   1      41.875  25.048  27.486  1.00  0.00     0.173 A 
ATOM     54  F   UNL A   1      43.889  28.029  26.977  1.00  0.00    -0.203 F 
ATOM     55  C   UNL A   1      43.787  26.030  25.735  1.00  0.00     0.198 A 
ATOM     56  C   UNL A   1      42.318  24.264  26.425  1.00  0.00     0.198 A 
ATOM     57  F   UNL A   1      40.944  24.549  28.312  1.00  0.00    -0.203 F 
ATOM     58  F   UNL A   1      44.678  26.526  24.866  1.00  0.00    -0.200 F 
ATOM     59  C   UNL A   1      43.265  24.760  25.542  1.00  0.00     0.200 A 
ATOM     60  F   UNL A   1      41.825  23.029  26.257  1.00  0.00    -0.200 F 
ATOM     61  F   UNL A   1      43.668  24.018  24.503  1.00  0.00    -0.200 F 
ENDBRANCH  27  51
BRANCH  39  62
ATOM     62  C   UNL A   1      44.927  27.702  34.048  1.00  0.00     0.064 A 
ATOM     63  C   UNL A   1      46.149  28.384  33.954  1.00  0.00     0.173 A 
ATOM     64  C   UNL A   1      44.881  26.545  34.839  1.00  0.00     0.173 A 
ATOM     65  F   UNL A   1      46.251  29.487  33.196  1.00  0.00    -0.203 F 
ATOM     66  C   UNL A   1      47.289  27.903  34.592  1.00  0.00     0.198 A 
ATOM     67  C   UNL A   1      46.014  26.085  35.503  1.00  0.00     0.198 A 
ATOM     68  F   UNL A   1      43.735  25.858  34.969  1.00  0.00    -0.203 F 
ATOM     69  F   UNL A   1      48.460  28.534  34.432  1.00  0.00    -0.200 F 
ATOM     70  C   UNL A   1      47.220  26.757  35.370  1.00  0.00     0.200 A 
ATOM     71  F   UNL A   1      45.942  24.986  36.266  1.00  0.00    -0.200 F 
ATOM     72  F   UNL A   1      48.319  26.292  35.980  1.00  0.00    -0.200 F 
ENDBRANCH  39  62
ENDBRANCH  13  14
ENDBRANCH   6   8
ENDBRANCH   3   4
ENDBRANCH   2   3
ENDBRANCH   1   2
BRANCH   1  73
ATOM     73  C   UNL A   1      31.012  27.873  23.445  1.00  0.00     0.116 C 
BRANCH  73  74
ATOM     74  N   UNL A   1      31.202  26.610  22.761  1.00  0.00    -0.356 N 
ATOM     75  C   UNL A   1      31.179  25.454  23.491  1.00  0.00     0.225 C 
ATOM     76  H   UNL A   1      31.343  26.584  21.786  1.00  0.00     0.163 HD
ATOM     77  O   UNL A   1      30.147  24.791  23.496  1.00  0.00    -0.275 OA
BRANCH  75  78
ATOM     78  C   UNL A   1      32.384  25.127  24.353  1.00  0.00     0.107 C 
ATOM     79  C   UNL A   1      33.698  25.106  23.566  1.00  0.00     0.116 C 
ATOM     80  C   UNL A   1      32.263  23.704  24.885  1.00  0.00     0.139 C 
ATOM     81  C   UNL A   1      33.916  23.645  23.242  1.00  0.00     0.227 C 
ATOM     82  N   UNL A   1      32.924  22.909  23.882  1.00  0.00    -0.311 N 
ATOM     83  O   UNL A   1      34.821  23.217  22.538  1.00  0.00    -0.274 OA
BRANCH  82  84
ATOM     84  C   UNL A   1      32.902  21.505  23.939  1.00  0.00     0.055 A 
ATOM     85  C   UNL A   1      32.202  20.829  22.924  1.00  0.00     0.028 A 
ATOM     86  C   UNL A   1      33.631  20.765  24.891  1.00  0.00     0.048 A 
ATOM     87  C   UNL A   1      32.258  19.437  22.825  1.00  0.00     0.023 A 
ATOM     88  C   UNL A   1      33.675  19.362  24.776  1.00  0.00     0.035 A 
ATOM     89  C   UNL A   1      33.001  18.710  23.747  1.00  0.00     0.041 A 
ATOM     90  Cl  UNL A   1      33.101  16.999  23.605  1.00  0.00    -0.084 Cl
BRANCH  86  91
ATOM     91  C   UNL A   1      34.441  21.326  26.008  1.00  0.00     0.195 C 
ATOM     92  O   UNL A   1      33.911  21.358  27.121  1.00  0.00    -0.289 OA
BRANCH  91  93
ATOM     93  C   UNL A   1      35.812  21.889  25.871  1.00  0.00     0.023 A 
ATOM     94  C   UNL A   1      35.986  23.255  26.146  1.00  0.00     0.012 A 
ATOM     95  C   UNL A   1      36.917  21.140  25.461  1.00  0.00     0.012 A 
ATOM     96  C   UNL A   1      37.254  23.840  26.105  1.00  0.00     0.001 A 
ATOM     97  C   UNL A   1      38.191  21.723  25.435  1.00  0.00     0.001 A 
ATOM     98  C   UNL A   1      38.360  23.066  25.769  1.00  0.00     0.000 A 
ENDBRANCH  91  93
ENDBRANCH  86  91
ENDBRANCH  82  84
ENDBRANCH  75  78
ENDBRANCH  73  74
ENDBRANCH   1  73
TORSDOF 14
ENDMDL
MODEL 2
REMARK VINA RESULT:     -13.3      2.934      8.910
REMARK SMILES O=C(NCCCCNC(=O)[C@@H]1CC(=O)N(c2ccc(Cl)cc2C(=O)c2ccccc2)C1)c1ccc(-c2c3nc(c(-c4c(F)c(F)c(F)c(F)c4F)c4ccc([nH]4)c(-c4c(F)c(F)c(F)c(F)c4F)c4nc(c(-c5c(F)c(F)c(F)c(F)c5F)c5ccc2[nH]5)C=C4)C=C3)cc1
REMARK SMILES IDX 6 1 5 2 4 3 3 4 1 5 2 6 32 8 33 9 94 10 34 11 93 12 35 13
REMARK SMILES IDX 36 14 37 15 87 16 38 17 92 18 86 19 88 20 39 21 91 22 85 23
REMARK SMILES IDX 84 24 40 26 72 27 52 28 71 29 53 30 56 31 70 32 89 33 54 34
REMARK SMILES IDX 55 35 69 37 90 38 57 39 41 40 42 41 50 42 43 43 44 44 48 45
REMARK SMILES IDX 51 46 45 47 46 48 49 49 47 50 73 51 74 52 82 53 75 54 76 55
REMARK SMILES IDX 80 56 83 57 77 58 78 59 81 60 79 61 58 62 59 63 67 64 60 65
REMARK SMILES IDX 61 66 65 67 68 68 62 69 63 70 66 71 64 72 7 73 8 74 9 75
REMARK SMILES IDX 10 77 11 78 12 79 31 80 13 81 15 82 14 83 16 84 17 85 22 86
REMARK SMILES IDX 18 87 21 88 19 89 20 90 23 91 24 92 25 93 26 94 30 95 27 96
REMARK SMILES IDX 29 97 28 98
REMARK H PARENT 3 7 88 25 56 36 8 76
REMARK Flexibility Score: inf
ROOT
ATOM      1  C   UNL A   1      34.429  33.688  29.076  1.00  0.00     0.023 C 
ENDROOT
BRANCH   1   2
ATOM      2  C   UNL A   1      33.171  34.548  28.925  1.00  0.00     0.023 C 
BRANCH   2   3
ATOM      3  C   UNL A   1      33.299  36.002  29.369  1.00  0.00     0.116 C 
BRANCH   3   4
ATOM      4  N   UNL A   1      32.494  36.316  30.539  1.00  0.00    -0.352 N 
ATOM      5  O   UNL A   1      31.714  36.177  32.644  1.00  0.00    -0.269 OA
ATOM      6  C   UNL A   1      32.607  35.905  31.847  1.00  0.00     0.251 C 
ATOM      7  H   UNL A   1      31.740  36.924  30.365  1.00  0.00     0.163 HD
BRANCH   6   8
ATOM      8  C   UNL A   1      33.778  35.122  32.302  1.00  0.00     0.039 A 
ATOM      9  C   UNL A   1      35.058  35.673  32.299  1.00  0.00     0.014 A 
ATOM     10  C   UNL A   1      33.587  33.823  32.788  1.00  0.00     0.014 A 
ATOM     11  C   UNL A   1      36.156  34.879  32.613  1.00  0.00     0.010 A 
ATOM     12  C   UNL A   1      34.683  33.059  33.207  1.00  0.00     0.010 A 
ATOM     13  C   UNL A   1      35.984  33.569  33.091  1.00  0.00    -0.014 A 
BRANCH  13  14
ATOM     14  C   UNL A   1      37.184  32.805  33.527  1.00  0.00     0.031 A 
ATOM     15  C   UNL A   1      37.833  31.779  32.640  1.00  0.00     0.074 A 
ATOM     16  C   UNL A   1      37.728  33.099  34.725  1.00  0.00     0.049 A 
ATOM     17  N   UNL A   1      38.933  31.094  32.839  1.00  0.00    -0.248 NA
ATOM     18  C   UNL A   1      37.162  31.472  31.367  1.00  0.00     0.031 C 
ATOM     19  C   UNL A   1      37.172  34.052  35.688  1.00  0.00     0.029 A 
ATOM     20  N   UNL A   1      38.879  32.656  35.326  1.00  0.00    -0.354 N 
ATOM     21  C   UNL A   1      39.088  30.281  31.724  1.00  0.00     0.074 A 
ATOM     22  C   UNL A   1      37.944  30.523  30.868  1.00  0.00     0.031 C 
ATOM     23  C   UNL A   1      38.007  34.167  36.728  1.00  0.00     0.029 A 
ATOM     24  C   UNL A   1      39.125  33.250  36.541  1.00  0.00     0.049 A 
ATOM     25  H   UNL A   1      39.471  31.979  34.927  1.00  0.00     0.167 HD
ATOM     26  C   UNL A   1      40.098  29.426  31.434  1.00  0.00     0.037 A 
ATOM     27  C   UNL A   1      40.130  33.070  37.416  1.00  0.00     0.037 A 
ATOM     28  C   UNL A   1      41.233  29.185  32.293  1.00  0.00     0.049 A 
ATOM     29  C   UNL A   1      41.226  32.099  37.075  1.00  0.00     0.074 A 
ATOM     30  C   UNL A   1      42.311  28.342  32.083  1.00  0.00     0.029 A 
ATOM     31  N   UNL A   1      41.433  29.785  33.528  1.00  0.00    -0.354 N 
ATOM     32  N   UNL A   1      41.376  31.367  35.998  1.00  0.00    -0.248 NA
ATOM     33  C   UNL A   1      42.294  31.934  38.069  1.00  0.00     0.031 C 
ATOM     34  C   UNL A   1      43.139  28.397  33.209  1.00  0.00     0.029 A 
ATOM     35  C   UNL A   1      42.609  29.318  34.098  1.00  0.00     0.049 A 
ATOM     36  H   UNL A   1      40.830  30.446  33.939  1.00  0.00     0.167 HD
ATOM     37  C   UNL A   1      42.558  30.664  36.179  1.00  0.00     0.074 A 
ATOM     38  C   UNL A   1      43.104  31.088  37.453  1.00  0.00     0.031 C 
ATOM     39  C   UNL A   1      43.135  29.743  35.369  1.00  0.00     0.037 A 
BRANCH  26  40
ATOM     40  C   UNL A   1      40.032  28.678  30.131  1.00  0.00     0.064 A 
ATOM     41  C   UNL A   1      40.627  29.183  28.965  1.00  0.00     0.173 A 
ATOM     42  C   UNL A   1      39.425  27.414  30.060  1.00  0.00     0.173 A 
ATOM     43  F   UNL A   1      41.213  30.390  28.974  1.00  0.00    -0.203 F 
ATOM     44  C   UNL A   1      40.600  28.460  27.774  1.00  0.00     0.198 A 
ATOM     45  C   UNL A   1      39.426  26.682  28.875  1.00  0.00     0.198 A 
ATOM     46  F   UNL A   1      38.847  26.880  31.147  1.00  0.00    -0.203 F 
ATOM     47  F   UNL A   1      41.142  28.981  26.664  1.00  0.00    -0.200 F 
ATOM     48  C   UNL A   1      40.008  27.207  27.733  1.00  0.00     0.200 A 
ATOM     49  F   UNL A   1      38.866  25.464  28.842  1.00  0.00    -0.200 F 
ATOM     50  F   UNL A   1      39.996  26.508  26.590  1.00  0.00    -0.200 F 
ENDBRANCH  26  40
BRANCH  27  51
ATOM     51  C   UNL A   1      40.134  33.811  38.705  1.00  0.00     0.064 A 
ATOM     52  C   UNL A   1      39.398  33.361  39.809  1.00  0.00     0.173 A 
ATOM     53  C   UNL A   1      40.872  34.996  38.853  1.00  0.00     0.173 A 
ATOM     54  F   UNL A   1      38.662  32.244  39.714  1.00  0.00    -0.203 F 
ATOM     55  C   UNL A   1      39.379  34.081  41.002  1.00  0.00     0.198 A 
ATOM     56  C   UNL A   1      40.881  35.694  40.057  1.00  0.00     0.198 A 
ATOM     57  F   UNL A   1      41.598  35.467  37.828  1.00  0.00    -0.203 F 
ATOM     58  F   UNL A   1      38.621  33.660  42.023  1.00  0.00    -0.200 F 
ATOM     59  C   UNL A   1      40.124  35.243  41.127  1.00  0.00     0.200 A 
ATOM     60  F   UNL A   1      41.622  36.804  40.178  1.00  0.00    -0.200 F 
ATOM     61  F   UNL A   1      40.108  35.932  42.276  1.00  0.00    -0.200 F 
ENDBRANCH  27  51
BRANCH  39  62
ATOM     62  C   UNL A   1      44.436  29.151  35.834  1.00  0.00     0.064 A 
ATOM     63  C   UNL A   1      45.668  29.742  35.518  1.00  0.00     0.173 A 
ATOM     64  C   UNL A   1      44.449  27.979  36.604  1.00  0.00     0.173 A 
ATOM     65  F   UNL A   1      45.712  30.855  34.770  1.00  0.00    -0.203 F 
ATOM     66  C   UNL A   1      46.867  29.158  35.919  1.00  0.00     0.198 A 
ATOM     67  C   UNL A   1      45.648  27.416  37.033  1.00  0.00     0.198 A 
ATOM     68  F   UNL A   1      43.298  27.377  36.942  1.00  0.00    -0.203 F 
ATOM     69  F   UNL A   1      48.033  29.704  35.547  1.00  0.00    -0.200 F 
ATOM     70  C   UNL A   1      46.856  27.999  36.680  1.00  0.00     0.200 A 
ATOM     71  F   UNL A   1      45.635  26.305  37.781  1.00  0.00    -0.200 F 
ATOM     72  F   UNL A   1      48.010  27.436  37.063  1.00  0.00    -0.200 F 
ENDBRANCH  39  62
ENDBRANCH  13  14
ENDBRANCH   6   8
ENDBRANCH   3   4
ENDBRANCH   2   3
ENDBRANCH   1   2
BRANCH   1  73
ATOM     73  C   UNL A   1      34.609  32.586  28.037  1.00  0.00     0.116 C 
BRANCH  73  74
ATOM     74  N   UNL A   1      34.246  31.266  28.513  1.00  0.00    -0.356 N 
ATOM     75  C   UNL A   1      34.198  30.232  27.620  1.00  0.00     0.225 C 
ATOM     76  H   UNL A   1      34.038  31.117  29.465  1.00  0.00     0.163 HD
ATOM     77  O   UNL A   1      35.155  29.466  27.568  1.00  0.00    -0.275 OA
BRANCH  75  78
ATOM     78  C   UNL A   1      33.027  30.168  26.658  1.00  0.00     0.107 C 
ATOM     79  C   UNL A   1      31.812  29.435  27.237  1.00  0.00     0.116 C 
ATOM     80  C   UNL A   1      33.405  29.331  25.443  1.00  0.00     0.139 C 
ATOM     81  C   UNL A   1      31.937  28.027  26.700  1.00  0.00     0.227 C 
ATOM     82  N   UNL A   1      33.009  27.996  25.814  1.00  0.00    -0.311 N 
ATOM     83  O   UNL A   1      31.201  27.098  27.009  1.00  0.00    -0.274 OA
BRANCH  82  84
ATOM     84  C   UNL A   1      33.324  26.893  25.002  1.00  0.00     0.055 A 
ATOM     85  C   UNL A   1      34.143  25.895  25.558  1.00  0.00     0.028 A 
ATOM     86  C   UNL A   1      32.773  26.704  23.718  1.00  0.00     0.048 A 
ATOM     87  C   UNL A   1      34.378  24.702  24.872  1.00  0.00     0.023 A 
ATOM     88  C   UNL A   1      33.022  25.495  23.041  1.00  0.00     0.035 A 
ATOM     89  C   UNL A   1      33.810  24.504  23.619  1.00  0.00     0.041 A 
ATOM     90  Cl  UNL A   1      34.069  23.020  22.789  1.00  0.00    -0.084 Cl
BRANCH  86  91
ATOM     91  C   UNL A   1      31.871  27.648  23.001  1.00  0.00     0.195 C 
ATOM     92  O   UNL A   1      32.402  28.443  22.222  1.00  0.00    -0.289 OA
BRANCH  91  93
ATOM     93  C   UNL A   1      30.397  27.733  23.191  1.00  0.00     0.023 A 
ATOM     94  C   UNL A   1      29.754  28.911  22.777  1.00  0.00     0.012 A 
ATOM     95  C   UNL A   1      29.634  26.721  23.776  1.00  0.00     0.012 A 
ATOM     96  C   UNL A   1      28.366  29.038  22.860  1.00  0.00     0.001 A 
ATOM     97  C   UNL A   1      28.240  26.842  23.845  1.00  0.00     0.001 A 
ATOM     98  C   UNL A   1      27.607  27.992  23.376  1.00  0.00     0.000 A 
ENDBRANCH  91  93
ENDBRANCH  86  91
ENDBRANCH  82  84
ENDBRANCH  75  78
ENDBRANCH  73  74
ENDBRANCH   1  73
TORSDOF 14
ENDMDL
MODEL 3
REMARK VINA RESULT:     -13.2      0.724      1.896
REMARK SMILES O=C(NCCCCNC(=O)[C@@H]1CC(=O)N(c2ccc(Cl)cc2C(=O)c2ccccc2)C1)c1ccc(-c2c3nc(c(-c4c(F)c(F)c(F)c(F)c4F)c4ccc([nH]4)c(-c4c(F)c(F)c(F)c(F)c4F)c4nc(c(-c5c(F)c(F)c(F)c(F)c5F)c5ccc2[nH]5)C=C4)C=C3)cc1
REMARK SMILES IDX 6 1 5 2 4 3 3 4 1 5 2 6 32 8 33 9 94 10 34 11 93 12 35 13
REMARK SMILES IDX 36 14 37 15 87 16 38 17 92 18 86 19 88 20 39 21 91 22 85 23
REMARK SMILES IDX 84 24 40 26 72 27 52 28 71 29 53 30 56 31 70 32 89 33 54 34
REMARK SMILES IDX 55 35 69 37 90 38 57 39 41 40 42 41 50 42 43 43 44 44 48 45
REMARK SMILES IDX 51 46 45 47 46 48 49 49 47 50 73 51 74 52 82 53 75 54 76 55
REMARK SMILES IDX 80 56 83 57 77 58 78 59 81 60 79 61 58 62 59 63 67 64 60 65
REMARK SMILES IDX 61 66 65 67 68 68 62 69 63 70 66 71 64 72 7 73 8 74 9 75
REMARK SMILES IDX 10 77 11 78 12 79 31 80 13 81 15 82 14 83 16 84 17 85 22 86
REMARK SMILES IDX 18 87 21 88 19 89 20 90 23 91 24 92 25 93 26 94 30 95 27 96
REMARK SMILES IDX 29 97 28 98
REMARK H PARENT 3 7 88 25 56 36 8 76
REMARK Flexibility Score: inf
ROOT
ATOM      1  C   UNL A   1      33.307  28.428  22.751  1.00  0.00     0.023 C 
ENDROOT
BRANCH   1   2
ATOM      2  C   UNL A   1      32.594  28.582  24.098  1.00  0.00     0.023 C 
BRANCH   2   3
ATOM      3  C   UNL A   1      33.432  29.157  25.236  1.00  0.00     0.116 C 
BRANCH   3   4
ATOM      4  N   UNL A   1      32.880  30.384  25.789  1.00  0.00    -0.352 N 
ATOM      5  O   UNL A   1      32.557  32.064  27.249  1.00  0.00    -0.269 OA
ATOM      6  C   UNL A   1      33.271  31.140  26.870  1.00  0.00     0.251 C 
ATOM      7  H   UNL A   1      32.094  30.731  25.310  1.00  0.00     0.163 HD
BRANCH   6   8
ATOM      8  C   UNL A   1      34.527  30.844  27.594  1.00  0.00     0.039 A 
ATOM      9  C   UNL A   1      34.777  29.577  28.117  1.00  0.00     0.014 A 
ATOM     10  C   UNL A   1      35.500  31.844  27.715  1.00  0.00     0.014 A 
ATOM     11  C   UNL A   1      35.906  29.358  28.899  1.00  0.00     0.010 A 
ATOM     12  C   UNL A   1      36.689  31.591  28.411  1.00  0.00     0.010 A 
ATOM     13  C   UNL A   1      36.888  30.354  29.041  1.00  0.00    -0.014 A 
BRANCH  13  14
ATOM     14  C   UNL A   1      38.132  30.028  29.787  1.00  0.00     0.031 A 
ATOM     15  C   UNL A   1      38.376  30.542  31.179  1.00  0.00     0.074 A 
ATOM     16  C   UNL A   1      39.023  29.196  29.212  1.00  0.00     0.049 A 
ATOM     17  N   UNL A   1      39.368  30.275  31.994  1.00  0.00    -0.248 NA
ATOM     18  C   UNL A   1      37.388  31.482  31.730  1.00  0.00     0.031 C 
ATOM     19  C   UNL A   1      38.913  28.658  27.853  1.00  0.00     0.029 A 
ATOM     20  N   UNL A   1      40.176  28.632  29.697  1.00  0.00    -0.354 N 
ATOM     21  C   UNL A   1      39.125  31.007  33.148  1.00  0.00     0.074 A 
ATOM     22  C   UNL A   1      37.914  31.767  32.914  1.00  0.00     0.031 C 
ATOM     23  C   UNL A   1      39.918  27.800  27.635  1.00  0.00     0.029 A 
ATOM     24  C   UNL A   1      40.782  27.775  28.809  1.00  0.00     0.049 A 
ATOM     25  H   UNL A   1      40.536  28.824  30.593  1.00  0.00     0.167 HD
ATOM     26  C   UNL A   1      39.837  31.031  34.301  1.00  0.00     0.037 A 
ATOM     27  C   UNL A   1      41.914  27.057  28.920  1.00  0.00     0.037 A 
ATOM     28  C   UNL A   1      41.046  30.276  34.527  1.00  0.00     0.049 A 
ATOM     29  C   UNL A   1      42.692  27.119  30.204  1.00  0.00     0.074 A 
ATOM     30  C   UNL A   1      41.834  30.228  35.665  1.00  0.00     0.029 A 
ATOM     31  N   UNL A   1      41.643  29.439  33.595  1.00  0.00    -0.354 N 
ATOM     32  N   UNL A   1      42.427  27.788  31.300  1.00  0.00    -0.248 NA
ATOM     33  C   UNL A   1      43.923  26.323  30.268  1.00  0.00     0.031 C 
ATOM     34  C   UNL A   1      42.931  29.400  35.405  1.00  0.00     0.029 A 
ATOM     35  C   UNL A   1      42.799  28.884  34.126  1.00  0.00     0.049 A 
ATOM     36  H   UNL A   1      41.297  29.264  32.690  1.00  0.00     0.167 HD
ATOM     37  C   UNL A   1      43.450  27.485  32.186  1.00  0.00     0.074 A 
ATOM     38  C   UNL A   1      44.319  26.542  31.512  1.00  0.00     0.031 C 
ATOM     39  C   UNL A   1      43.657  27.953  33.441  1.00  0.00     0.037 A 
BRANCH  26  40
ATOM     40  C   UNL A   1      39.333  31.902  35.419  1.00  0.00     0.064 A 
ATOM     41  C   UNL A   1      39.636  33.271  35.475  1.00  0.00     0.173 A 
ATOM     42  C   UNL A   1      38.486  31.379  36.409  1.00  0.00     0.173 A 
ATOM     43  F   UNL A   1      40.448  33.821  34.560  1.00  0.00    -0.203 F 
ATOM     44  C   UNL A   1      39.125  34.078  36.490  1.00  0.00     0.198 A 
ATOM     45  C   UNL A   1      37.954  32.195  37.404  1.00  0.00     0.198 A 
ATOM     46  F   UNL A   1      38.158  30.078  36.399  1.00  0.00    -0.203 F 
ATOM     47  F   UNL A   1      39.460  35.375  36.543  1.00  0.00    -0.200 F 
ATOM     48  C   UNL A   1      38.278  33.542  37.447  1.00  0.00     0.200 A 
ATOM     49  F   UNL A   1      37.124  31.677  38.319  1.00  0.00    -0.200 F 
ATOM     50  F   UNL A   1      37.777  34.323  38.414  1.00  0.00    -0.200 F 
ENDBRANCH  26  40
BRANCH  27  51
ATOM     51  C   UNL A   1      42.385  26.235  27.774  1.00  0.00     0.064 A 
ATOM     52  C   UNL A   1      43.349  26.714  26.878  1.00  0.00     0.173 A 
ATOM     53  C   UNL A   1      41.869  24.949  27.550  1.00  0.00     0.173 A 
ATOM     54  F   UNL A   1      43.861  27.944  27.038  1.00  0.00    -0.203 F 
ATOM     55  C   UNL A   1      43.759  25.951  25.787  1.00  0.00     0.198 A 
ATOM     56  C   UNL A   1      42.308  24.173  26.481  1.00  0.00     0.198 A 
ATOM     57  F   UNL A   1      40.948  24.440  28.382  1.00  0.00    -0.203 F 
ATOM     58  F   UNL A   1      44.640  26.456  24.912  1.00  0.00    -0.200 F 
ATOM     59  C   UNL A   1      43.243  24.679  25.592  1.00  0.00     0.200 A 
ATOM     60  F   UNL A   1      41.821  22.936  26.311  1.00  0.00    -0.200 F 
ATOM     61  F   UNL A   1      43.641  23.944  24.545  1.00  0.00    -0.200 F 
ENDBRANCH  27  51
BRANCH  39  62
ATOM     62  C   UNL A   1      44.864  27.430  34.169  1.00  0.00     0.064 A 
ATOM     63  C   UNL A   1      44.812  26.250  34.927  1.00  0.00     0.173 A 
ATOM     64  C   UNL A   1      46.085  28.117  34.108  1.00  0.00     0.173 A 
ATOM     65  F   UNL A   1      43.664  25.564  35.031  1.00  0.00    -0.203 F 
ATOM     66  C   UNL A   1      45.926  25.802  35.631  1.00  0.00     0.198 A 
ATOM     67  C   UNL A   1      47.206  27.647  34.785  1.00  0.00     0.198 A 
ATOM     68  F   UNL A   1      46.192  29.247  33.392  1.00  0.00    -0.203 F 
ATOM     69  F   UNL A   1      45.833  24.710  36.402  1.00  0.00    -0.200 F 
ATOM     70  C   UNL A   1      47.123  26.497  35.556  1.00  0.00     0.200 A 
ATOM     71  F   UNL A   1      48.366  28.313  34.701  1.00  0.00    -0.200 F 
ATOM     72  F   UNL A   1      48.194  26.066  36.237  1.00  0.00    -0.200 F 
ENDBRANCH  39  62
ENDBRANCH  13  14
ENDBRANCH   6   8
ENDBRANCH   3   4
ENDBRANCH   2   3
ENDBRANCH   1   2
BRANCH   1  73
ATOM     73  C   UNL A   1      33.457  27.000  22.238  1.00  0.00     0.116 C 
BRANCH  73  74
ATOM     74  N   UNL A   1      33.665  26.020  23.285  1.00  0.00    -0.356 N 
ATOM     75  C   UNL A   1      33.662  24.692  22.955  1.00  0.00     0.225 C 
ATOM     76  H   UNL A   1      33.807  26.305  24.217  1.00  0.00     0.163 HD
ATOM     77  O   UNL A   1      34.742  24.126  22.820  1.00  0.00    -0.275 OA
BRANCH  75  78
ATOM     78  C   UNL A   1      32.331  24.032  22.651  1.00  0.00     0.107 C 
ATOM     79  C   UNL A   1      31.369  24.040  23.844  1.00  0.00     0.116 C 
ATOM     80  C   UNL A   1      32.545  22.549  22.375  1.00  0.00     0.139 C 
ATOM     81  C   UNL A   1      31.552  22.681  24.480  1.00  0.00     0.227 C 
ATOM     82  N   UNL A   1      32.407  21.938  23.672  1.00  0.00    -0.311 N 
ATOM     83  O   UNL A   1      31.021  22.325  25.524  1.00  0.00    -0.274 OA
BRANCH  82  84
ATOM     84  C   UNL A   1      32.678  20.573  23.864  1.00  0.00     0.055 A 
ATOM     85  C   UNL A   1      32.159  19.673  22.917  1.00  0.00     0.028 A 
ATOM     86  C   UNL A   1      33.522  20.094  24.887  1.00  0.00     0.048 A 
ATOM     87  C   UNL A   1      32.507  18.321  22.952  1.00  0.00     0.023 A 
ATOM     88  C   UNL A   1      33.861  18.728  24.907  1.00  0.00     0.035 A 
ATOM     89  C   UNL A   1      33.363  17.856  23.944  1.00  0.00     0.041 A 
ATOM     90  Cl  UNL A   1      33.821  16.198  23.968  1.00  0.00    -0.084 Cl
BRANCH  86  91
ATOM     91  C   UNL A   1      34.170  20.915  25.947  1.00  0.00     0.195 C 
ATOM     92  O   UNL A   1      33.648  20.896  27.065  1.00  0.00    -0.289 OA
BRANCH  91  93
ATOM     93  C   UNL A   1      35.361  21.786  25.747  1.00  0.00     0.023 A 
ATOM     94  C   UNL A   1      35.231  23.149  26.058  1.00  0.00     0.012 A 
ATOM     95  C   UNL A   1      36.580  21.324  25.246  1.00  0.00     0.012 A 
ATOM     96  C   UNL A   1      36.323  24.014  25.961  1.00  0.00     0.001 A 
ATOM     97  C   UNL A   1      37.679  22.188  25.164  1.00  0.00     0.001 A 
ATOM     98  C   UNL A   1      37.554  23.527  25.533  1.00  0.00     0.000 A 
ENDBRANCH  91  93
ENDBRANCH  86  91
ENDBRANCH  82  84
ENDBRANCH  75  78
ENDBRANCH  73  74
ENDBRANCH   1  73
TORSDOF 14
ENDMDL
