MODEL 1
REMARK VINA RESULT:     -13.2      0.000      0.000
REMARK SMILES Cc1ncc(CC(=O)N2CCc3c(c(C(=O)NCCCCNC(=O)c4ccc(-c5c6nc(c(-c7c(F)c(F)c(F)c(F)c7F)c7ccc([nH]7)c(-c7c(F)c(F)c(F)c(F)c7F)c7nc(c(-c8c(F)c(F)c(F)c(F)c8F)c8ccc5[nH]8)C=C7)C=C6)cc4)nn3CC3CC3)C2)c(=O)[nH]1
REMARK SMILES IDX 19 1 18 2 17 3 15 4 16 5 14 7 9 8 10 9 94 10 11 11 13 12
REMARK SMILES IDX 12 13 89 14 88 15 7 16 8 17 6 18 5 19 1 20 2 21 3 22 97 23
REMARK SMILES IDX 4 24 95 25 96 27 90 28 91 29 92 30 93 31 20 32 21 33 22 34
REMARK SMILES IDX 23 35 24 37 25 38 26 39 87 40 27 41 86 42 28 43 29 44 30 45
REMARK SMILES IDX 80 46 31 47 85 48 79 49 81 50 32 51 84 52 78 53 77 54 33 56
REMARK SMILES IDX 65 57 45 58 64 59 46 60 49 61 63 62 82 63 47 64 48 65 62 67
REMARK SMILES IDX 83 68 50 69 34 70 35 71 43 72 36 73 37 74 41 75 44 76 38 77
REMARK SMILES IDX 39 78 42 79 40 80 66 81 67 82 75 83 68 84 69 85 73 86 76 87
REMARK SMILES IDX 70 88 71 89 74 90 72 91 51 92 52 93 60 94 53 95 54 96 58 97
REMARK SMILES IDX 61 98 55 99 56 100 59 101 57 102
REMARK H PARENT 17 6 97 26 22 36 81 55 49 66
REMARK Flexibility Score: inf
ROOT
ATOM      1  C   UNL A   1      38.505  23.901  26.728  1.00  0.00     0.023 C 
ENDROOT
BRANCH   1   2
ATOM      2  C   UNL A   1      37.117  23.779  26.082  1.00  0.00     0.116 C 
BRANCH   2   3
ATOM      3  N   UNL A   1      37.167  23.553  24.643  1.00  0.00    -0.351 N 
ATOM      4  C   UNL A   1      36.352  22.824  23.792  1.00  0.00     0.272 C 
ATOM      5  O   UNL A   1      36.654  22.823  22.595  1.00  0.00    -0.267 OA
ATOM      6  H   UNL A   1      37.919  24.000  24.192  1.00  0.00     0.163 HD
BRANCH   4   7
ATOM      7  C   UNL A   1      35.195  22.050  24.284  1.00  0.00     0.155 A 
ATOM      8  N   UNL A   1      31.954  23.845  25.186  1.00  0.00    -0.338 N 
ATOM      9  C   UNL A   1      31.111  22.738  24.707  1.00  0.00     0.126 C 
ATOM     10  C   UNL A   1      33.295  23.928  24.549  1.00  0.00     0.159 C 
ATOM     11  C   UNL A   1      31.685  21.383  25.150  1.00  0.00     0.078 C 
ATOM     12  C   UNL A   1      33.882  22.541  24.574  1.00  0.00     0.026 A 
ATOM     13  C   UNL A   1      33.139  21.407  24.857  1.00  0.00     0.046 A 
ATOM     14  N   UNL A   1      33.992  20.357  24.824  1.00  0.00    -0.268 N 
ATOM     15  N   UNL A   1      35.246  20.726  24.528  1.00  0.00    -0.167 NA
BRANCH   8  16
ATOM     16  C   UNL A   1      31.617  24.788  26.143  1.00  0.00     0.227 C 
ATOM     17  O   UNL A   1      31.266  24.428  27.273  1.00  0.00    -0.275 OA
BRANCH  16  18
ATOM     18  C   UNL A   1      31.383  26.262  25.744  1.00  0.00     0.143 C 
BRANCH  18  19
ATOM     19  C   UNL A   1      32.349  27.322  26.148  1.00  0.00     0.045 A 
ATOM     20  C   UNL A   1      35.297  29.976  27.612  1.00  0.00     0.087 C 
ATOM     21  C   UNL A   1      34.248  29.079  27.023  1.00  0.00     0.105 A 
ATOM     22  N   UNL A   1      34.431  28.506  25.878  1.00  0.00    -0.243 NA
ATOM     23  N   UNL A   1      33.127  28.899  27.782  1.00  0.00    -0.311 N 
ATOM     24  C   UNL A   1      33.449  27.652  25.454  1.00  0.00     0.123 A 
ATOM     25  C   UNL A   1      32.116  28.060  27.407  1.00  0.00     0.254 A 
ATOM     26  H   UNL A   1      33.045  29.390  28.630  1.00  0.00     0.171 HD
ATOM     27  O   UNL A   1      31.113  27.901  28.088  1.00  0.00    -0.269 OA
ENDBRANCH  18  19
ENDBRANCH  16  18
ENDBRANCH   8  16
BRANCH  14  28
ATOM     28  C   UNL A   1      33.703  18.951  25.075  1.00  0.00     0.148 C 
BRANCH  28  29
ATOM     29  C   UNL A   1      34.562  17.981  24.307  1.00  0.00     0.011 C 
ATOM     30  C   UNL A   1      34.456  16.471  24.395  1.00  0.00     0.006 C 
ATOM     31  C   UNL A   1      33.948  17.186  23.176  1.00  0.00     0.006 C 
ENDBRANCH  28  29
ENDBRANCH  14  28
ENDBRANCH   4   7
ENDBRANCH   2   3
ENDBRANCH   1   2
BRANCH   1  32
ATOM     32  C   UNL A   1      39.437  22.689  26.576  1.00  0.00     0.023 C 
BRANCH  32  33
ATOM     33  C   UNL A   1      40.761  22.803  27.319  1.00  0.00     0.116 C 
BRANCH  33  34
ATOM     34  N   UNL A   1      41.956  22.746  26.459  1.00  0.00    -0.352 N 
ATOM     35  C   UNL A   1      42.596  23.799  25.802  1.00  0.00     0.251 C 
ATOM     36  H   UNL A   1      42.354  21.854  26.332  1.00  0.00     0.163 HD
ATOM     37  O   UNL A   1      43.333  23.618  24.851  1.00  0.00    -0.269 OA
BRANCH  35  38
ATOM     38  C   UNL A   1      42.374  25.159  26.328  1.00  0.00     0.039 A 
ATOM     39  C   UNL A   1      41.336  26.010  25.935  1.00  0.00     0.014 A 
ATOM     40  C   UNL A   1      43.239  25.526  27.342  1.00  0.00     0.014 A 
ATOM     41  C   UNL A   1      41.166  27.207  26.634  1.00  0.00     0.010 A 
ATOM     42  C   UNL A   1      42.823  26.459  28.232  1.00  0.00     0.010 A 
ATOM     43  C   UNL A   1      41.930  27.414  27.789  1.00  0.00    -0.014 A 
BRANCH  43  44
ATOM     44  C   UNL A   1      41.865  28.596  28.626  1.00  0.00     0.031 A 
ATOM     45  C   UNL A   1      42.881  29.630  28.330  1.00  0.00     0.074 A 
ATOM     46  C   UNL A   1      40.766  28.844  29.378  1.00  0.00     0.049 A 
ATOM     47  N   UNL A   1      43.830  30.035  29.104  1.00  0.00    -0.248 NA
ATOM     48  C   UNL A   1      42.937  30.189  26.971  1.00  0.00     0.031 C 
ATOM     49  C   UNL A   1      39.523  28.062  29.504  1.00  0.00     0.029 A 
ATOM     50  N   UNL A   1      40.477  29.958  30.100  1.00  0.00    -0.354 N 
ATOM     51  C   UNL A   1      44.485  31.044  28.407  1.00  0.00     0.074 A 
ATOM     52  C   UNL A   1      44.024  30.960  27.046  1.00  0.00     0.031 C 
ATOM     53  C   UNL A   1      38.550  28.829  30.040  1.00  0.00     0.029 A 
ATOM     54  C   UNL A   1      39.135  30.086  30.453  1.00  0.00     0.049 A 
ATOM     55  H   UNL A   1      41.160  30.619  30.355  1.00  0.00     0.167 HD
ATOM     56  C   UNL A   1      45.165  32.022  29.069  1.00  0.00     0.037 A 
ATOM     57  C   UNL A   1      38.569  31.196  30.988  1.00  0.00     0.037 A 
ATOM     58  C   UNL A   1      45.378  31.664  30.451  1.00  0.00     0.049 A 
ATOM     59  C   UNL A   1      39.682  31.991  31.585  1.00  0.00     0.074 A 
ATOM     60  C   UNL A   1      45.998  30.601  31.082  1.00  0.00     0.029 A 
ATOM     61  N   UNL A   1      44.548  32.218  31.399  1.00  0.00    -0.354 N 
ATOM     62  N   UNL A   1      40.390  31.571  32.603  1.00  0.00    -0.248 NA
ATOM     63  C   UNL A   1      40.343  32.963  30.724  1.00  0.00     0.031 C 
ATOM     64  C   UNL A   1      45.121  30.255  32.155  1.00  0.00     0.029 A 
ATOM     65  C   UNL A   1      44.079  31.182  32.171  1.00  0.00     0.049 A 
ATOM     66  H   UNL A   1      44.333  33.172  31.505  1.00  0.00     0.167 HD
ATOM     67  C   UNL A   1      41.702  31.893  32.283  1.00  0.00     0.074 A 
ATOM     68  C   UNL A   1      41.604  32.793  31.132  1.00  0.00     0.031 C 
ATOM     69  C   UNL A   1      42.758  31.165  32.758  1.00  0.00     0.037 A 
BRANCH  56  70
ATOM     70  C   UNL A   1      45.308  33.441  28.585  1.00  0.00     0.064 A 
ATOM     71  C   UNL A   1      44.148  34.170  28.261  1.00  0.00     0.173 A 
ATOM     72  C   UNL A   1      46.525  34.001  28.145  1.00  0.00     0.173 A 
ATOM     73  F   UNL A   1      42.936  33.719  28.620  1.00  0.00    -0.203 F 
ATOM     74  C   UNL A   1      44.199  35.325  27.479  1.00  0.00     0.198 A 
ATOM     75  C   UNL A   1      46.577  35.185  27.412  1.00  0.00     0.198 A 
ATOM     76  F   UNL A   1      47.697  33.375  28.297  1.00  0.00    -0.203 F 
ATOM     77  F   UNL A   1      43.061  35.912  27.083  1.00  0.00    -0.200 F 
ATOM     78  C   UNL A   1      45.414  35.828  27.049  1.00  0.00     0.200 A 
ATOM     79  F   UNL A   1      47.763  35.647  26.990  1.00  0.00    -0.200 F 
ATOM     80  F   UNL A   1      45.462  36.898  26.244  1.00  0.00    -0.200 F 
ENDBRANCH  56  70
BRANCH  57  81
ATOM     81  C   UNL A   1      37.228  31.752  30.670  1.00  0.00     0.064 A 
ATOM     82  C   UNL A   1      36.205  31.806  31.630  1.00  0.00     0.173 A 
ATOM     83  C   UNL A   1      36.997  32.469  29.477  1.00  0.00     0.173 A 
ATOM     84  F   UNL A   1      36.360  31.198  32.814  1.00  0.00    -0.203 F 
ATOM     85  C   UNL A   1      35.029  32.538  31.411  1.00  0.00     0.198 A 
ATOM     86  C   UNL A   1      35.823  33.192  29.257  1.00  0.00     0.198 A 
ATOM     87  F   UNL A   1      37.943  32.557  28.532  1.00  0.00    -0.203 F 
ATOM     88  F   UNL A   1      34.094  32.606  32.370  1.00  0.00    -0.200 F 
ATOM     89  C   UNL A   1      34.842  33.235  30.229  1.00  0.00     0.200 A 
ATOM     90  F   UNL A   1      35.675  33.890  28.122  1.00  0.00    -0.200 F 
ATOM     91  F   UNL A   1      33.740  33.975  30.040  1.00  0.00    -0.200 F 
ENDBRANCH  57  81
BRANCH  69  92
ATOM     92  C   UNL A   1      42.497  30.099  33.791  1.00  0.00     0.064 A 
ATOM     93  C   UNL A   1      42.205  28.758  33.480  1.00  0.00     0.173 A 
ATOM     94  C   UNL A   1      42.738  30.399  35.137  1.00  0.00     0.173 A 
ATOM     95  F   UNL A   1      42.070  28.359  32.213  1.00  0.00    -0.203 F 
ATOM     96  C   UNL A   1      42.118  27.779  34.470  1.00  0.00     0.198 A 
ATOM     97  C   UNL A   1      42.686  29.415  36.121  1.00  0.00     0.198 A 
ATOM     98  F   UNL A   1      43.086  31.645  35.494  1.00  0.00    -0.203 F 
ATOM     99  F   UNL A   1      41.838  26.511  34.138  1.00  0.00    -0.200 F 
ATOM    100  C   UNL A   1      42.367  28.108  35.790  1.00  0.00     0.200 A 
ATOM    101  F   UNL A   1      42.980  29.727  37.391  1.00  0.00    -0.200 F 
ATOM    102  F   UNL A   1      42.328  27.161  36.738  1.00  0.00    -0.200 F 
ENDBRANCH  69  92
ENDBRANCH  43  44
ENDBRANCH  35  38
ENDBRANCH  33  34
ENDBRANCH  32  33
ENDBRANCH   1  32
TORSDOF 16
ENDMDL
MODEL 2
REMARK VINA RESULT:     -13.0      3.067      9.072
REMARK SMILES Cc1ncc(CC(=O)N2CCc3c(c(C(=O)NCCCCNC(=O)c4ccc(-c5c6nc(c(-c7c(F)c(F)c(F)c(F)c7F)c7ccc([nH]7)c(-c7c(F)c(F)c(F)c(F)c7F)c7nc(c(-c8c(F)c(F)c(F)c(F)c8F)c8ccc5[nH]8)C=C7)C=C6)cc4)nn3CC3CC3)C2)c(=O)[nH]1
REMARK SMILES IDX 19 1 18 2 17 3 15 4 16 5 14 7 9 8 10 9 94 10 11 11 13 12
REMARK SMILES IDX 12 13 89 14 88 15 7 16 8 17 6 18 5 19 1 20 2 21 3 22 97 23
REMARK SMILES IDX 4 24 95 25 96 27 90 28 91 29 92 30 93 31 20 32 21 33 22 34
REMARK SMILES IDX 23 35 24 37 25 38 26 39 87 40 27 41 86 42 28 43 29 44 30 45
REMARK SMILES IDX 80 46 31 47 85 48 79 49 81 50 32 51 84 52 78 53 77 54 33 56
REMARK SMILES IDX 65 57 45 58 64 59 46 60 49 61 63 62 82 63 47 64 48 65 62 67
REMARK SMILES IDX 83 68 50 69 34 70 35 71 43 72 36 73 37 74 41 75 44 76 38 77
REMARK SMILES IDX 39 78 42 79 40 80 66 81 67 82 75 83 68 84 69 85 73 86 76 87
REMARK SMILES IDX 70 88 71 89 74 90 72 91 51 92 52 93 60 94 53 95 54 96 58 97
REMARK SMILES IDX 61 98 55 99 56 100 59 101 57 102
REMARK H PARENT 17 6 97 26 22 36 81 55 49 66
REMARK Flexibility Score: inf
ROOT
ATOM      1  C   UNL A   1      35.232  29.877  27.600  1.00  0.00     0.023 C 
ENDROOT
BRANCH   1   2
ATOM      2  C   UNL A   1      34.389  28.818  26.874  1.00  0.00     0.116 C 
BRANCH   2   3
ATOM      3  N   UNL A   1      33.141  28.505  27.559  1.00  0.00    -0.351 N 
ATOM      4  C   UNL A   1      31.902  28.101  27.087  1.00  0.00     0.272 C 
ATOM      5  O   UNL A   1      31.021  27.906  27.928  1.00  0.00    -0.267 OA
ATOM      6  H   UNL A   1      33.186  28.598  28.538  1.00  0.00     0.163 HD
BRANCH   4   7
ATOM      7  C   UNL A   1      31.625  27.944  25.645  1.00  0.00     0.155 A 
ATOM      8  N   UNL A   1      32.561  24.700  23.874  1.00  0.00    -0.338 N 
ATOM      9  C   UNL A   1      31.387  24.749  22.987  1.00  0.00     0.126 C 
ATOM     10  C   UNL A   1      32.396  25.418  25.165  1.00  0.00     0.159 C 
ATOM     11  C   UNL A   1      31.162  26.174  22.457  1.00  0.00     0.078 C 
ATOM     12  C   UNL A   1      31.817  26.772  24.847  1.00  0.00     0.026 A 
ATOM     13  C   UNL A   1      31.274  27.094  23.614  1.00  0.00     0.046 A 
ATOM     14  N   UNL A   1      30.887  28.389  23.679  1.00  0.00    -0.268 N 
ATOM     15  N   UNL A   1      31.133  28.936  24.879  1.00  0.00    -0.167 NA
BRANCH   8  16
ATOM     16  C   UNL A   1      33.763  24.060  23.621  1.00  0.00     0.227 C 
ATOM     17  O   UNL A   1      34.235  24.054  22.478  1.00  0.00    -0.275 OA
BRANCH  16  18
ATOM     18  C   UNL A   1      34.379  23.104  24.666  1.00  0.00     0.143 C 
BRANCH  18  19
ATOM     19  C   UNL A   1      33.907  21.695  24.780  1.00  0.00     0.045 A 
ATOM     20  C   UNL A   1      32.632  17.752  25.618  1.00  0.00     0.087 C 
ATOM     21  C   UNL A   1      33.039  19.148  25.252  1.00  0.00     0.105 A 
ATOM     22  N   UNL A   1      32.152  20.062  25.026  1.00  0.00    -0.243 NA
ATOM     23  N   UNL A   1      34.385  19.381  25.203  1.00  0.00    -0.311 N 
ATOM     24  C   UNL A   1      32.618  21.322  24.766  1.00  0.00     0.123 A 
ATOM     25  C   UNL A   1      34.904  20.618  24.947  1.00  0.00     0.254 A 
ATOM     26  H   UNL A   1      35.001  18.631  25.358  1.00  0.00     0.171 HD
ATOM     27  O   UNL A   1      36.109  20.823  24.902  1.00  0.00    -0.269 OA
ENDBRANCH  18  19
ENDBRANCH  16  18
ENDBRANCH   8  16
BRANCH  14  28
ATOM     28  C   UNL A   1      30.279  29.204  22.636  1.00  0.00     0.148 C 
BRANCH  28  29
ATOM     29  C   UNL A   1      28.780  29.321  22.716  1.00  0.00     0.011 C 
ATOM     30  C   UNL A   1      28.030  30.557  23.169  1.00  0.00     0.006 C 
ATOM     31  C   UNL A   1      28.052  30.189  21.714  1.00  0.00     0.006 C 
ENDBRANCH  28  29
ENDBRANCH  14  28
ENDBRANCH   4   7
ENDBRANCH   2   3
ENDBRANCH   1   2
BRANCH   1  32
ATOM     32  C   UNL A   1      34.696  31.316  27.567  1.00  0.00     0.023 C 
BRANCH  32  33
ATOM     33  C   UNL A   1      35.632  32.361  28.158  1.00  0.00     0.116 C 
BRANCH  33  34
ATOM     34  N   UNL A   1      35.243  32.851  29.492  1.00  0.00    -0.352 N 
ATOM     35  C   UNL A   1      35.523  32.280  30.735  1.00  0.00     0.251 C 
ATOM     36  H   UNL A   1      34.722  33.687  29.510  1.00  0.00     0.163 HD
ATOM     37  O   UNL A   1      34.875  32.544  31.731  1.00  0.00    -0.269 OA
BRANCH  35  38
ATOM     38  C   UNL A   1      36.671  31.356  30.813  1.00  0.00     0.039 A 
ATOM     39  C   UNL A   1      36.580  29.962  30.758  1.00  0.00     0.014 A 
ATOM     40  C   UNL A   1      37.903  31.981  30.855  1.00  0.00     0.014 A 
ATOM     41  C   UNL A   1      37.767  29.228  30.690  1.00  0.00     0.010 A 
ATOM     42  C   UNL A   1      38.981  31.302  30.395  1.00  0.00     0.010 A 
ATOM     43  C   UNL A   1      38.968  29.926  30.510  1.00  0.00    -0.014 A 
BRANCH  43  44
ATOM     44  C   UNL A   1      40.278  29.313  30.411  1.00  0.00     0.031 A 
ATOM     45  C   UNL A   1      40.943  29.045  31.704  1.00  0.00     0.074 A 
ATOM     46  C   UNL A   1      40.685  28.749  29.248  1.00  0.00     0.049 A 
ATOM     47  N   UNL A   1      42.036  29.572  32.143  1.00  0.00    -0.248 NA
ATOM     48  C   UNL A   1      40.252  28.195  32.686  1.00  0.00     0.031 C 
ATOM     49  C   UNL A   1      39.974  28.640  27.962  1.00  0.00     0.029 A 
ATOM     50  N   UNL A   1      41.804  28.014  29.018  1.00  0.00    -0.354 N 
ATOM     51  C   UNL A   1      42.281  28.972  33.374  1.00  0.00     0.074 A 
ATOM     52  C   UNL A   1      41.066  28.291  33.739  1.00  0.00     0.031 C 
ATOM     53  C   UNL A   1      40.556  27.695  27.193  1.00  0.00     0.029 A 
ATOM     54  C   UNL A   1      41.770  27.259  27.848  1.00  0.00     0.049 A 
ATOM     55  H   UNL A   1      42.577  28.017  29.628  1.00  0.00     0.167 HD
ATOM     56  C   UNL A   1      43.547  28.882  33.866  1.00  0.00     0.037 A 
ATOM     57  C   UNL A   1      42.666  26.300  27.509  1.00  0.00     0.037 A 
ATOM     58  C   UNL A   1      44.449  29.749  33.147  1.00  0.00     0.049 A 
ATOM     59  C   UNL A   1      43.899  26.574  28.303  1.00  0.00     0.074 A 
ATOM     60  C   UNL A   1      44.483  31.110  32.904  1.00  0.00     0.029 A 
ATOM     61  N   UNL A   1      45.261  29.187  32.188  1.00  0.00    -0.354 N 
ATOM     62  N   UNL A   1      44.628  27.650  28.139  1.00  0.00    -0.248 NA
ATOM     63  C   UNL A   1      43.999  25.949  29.616  1.00  0.00     0.031 C 
ATOM     64  C   UNL A   1      44.849  31.224  31.529  1.00  0.00     0.029 A 
ATOM     65  C   UNL A   1      45.110  29.941  31.049  1.00  0.00     0.049 A 
ATOM     66  H   UNL A   1      45.839  28.398  32.297  1.00  0.00     0.167 HD
ATOM     67  C   UNL A   1      44.941  28.070  29.425  1.00  0.00     0.074 A 
ATOM     68  C   UNL A   1      44.565  26.952  30.293  1.00  0.00     0.031 C 
ATOM     69  C   UNL A   1      45.174  29.385  29.716  1.00  0.00     0.037 A 
BRANCH  56  70
ATOM     70  C   UNL A   1      44.049  27.757  34.733  1.00  0.00     0.064 A 
ATOM     71  C   UNL A   1      44.769  28.067  35.902  1.00  0.00     0.173 A 
ATOM     72  C   UNL A   1      44.115  26.411  34.313  1.00  0.00     0.173 A 
ATOM     73  F   UNL A   1      44.785  29.320  36.381  1.00  0.00    -0.203 F 
ATOM     74  C   UNL A   1      45.566  27.120  36.549  1.00  0.00     0.198 A 
ATOM     75  C   UNL A   1      44.866  25.456  34.994  1.00  0.00     0.198 A 
ATOM     76  F   UNL A   1      43.560  25.991  33.170  1.00  0.00    -0.203 F 
ATOM     77  F   UNL A   1      46.337  27.492  37.579  1.00  0.00    -0.200 F 
ATOM     78  C   UNL A   1      45.619  25.816  36.089  1.00  0.00     0.200 A 
ATOM     79  F   UNL A   1      44.918  24.202  34.522  1.00  0.00    -0.200 F 
ATOM     80  F   UNL A   1      46.432  24.923  36.668  1.00  0.00    -0.200 F 
ENDBRANCH  56  70
BRANCH  57  81
ATOM     81  C   UNL A   1      42.371  24.998  26.855  1.00  0.00     0.064 A 
ATOM     82  C   UNL A   1      43.042  24.587  25.692  1.00  0.00     0.173 A 
ATOM     83  C   UNL A   1      41.592  24.015  27.500  1.00  0.00     0.173 A 
ATOM     84  F   UNL A   1      43.847  25.440  25.042  1.00  0.00    -0.203 F 
ATOM     85  C   UNL A   1      42.944  23.275  25.210  1.00  0.00     0.198 A 
ATOM     86  C   UNL A   1      41.489  22.709  27.017  1.00  0.00     0.198 A 
ATOM     87  F   UNL A   1      40.982  24.275  28.666  1.00  0.00    -0.203 F 
ATOM     88  F   UNL A   1      43.636  22.905  24.123  1.00  0.00    -0.200 F 
ATOM     89  C   UNL A   1      42.173  22.335  25.876  1.00  0.00     0.200 A 
ATOM     90  F   UNL A   1      40.768  21.805  27.694  1.00  0.00    -0.200 F 
ATOM     91  F   UNL A   1      42.118  21.067  25.445  1.00  0.00    -0.200 F 
ENDBRANCH  57  81
BRANCH  69  92
ATOM     92  C   UNL A   1      45.263  30.373  28.580  1.00  0.00     0.064 A 
ATOM     93  C   UNL A   1      44.197  31.193  28.167  1.00  0.00     0.173 A 
ATOM     94  C   UNL A   1      46.520  30.636  28.020  1.00  0.00     0.173 A 
ATOM     95  F   UNL A   1      42.991  31.089  28.729  1.00  0.00    -0.203 F 
ATOM     96  C   UNL A   1      44.372  32.195  27.212  1.00  0.00     0.198 A 
ATOM     97  C   UNL A   1      46.700  31.660  27.092  1.00  0.00     0.198 A 
ATOM     98  F   UNL A   1      47.592  29.935  28.419  1.00  0.00    -0.203 F 
ATOM     99  F   UNL A   1      43.333  32.958  26.841  1.00  0.00    -0.200 F 
ATOM    100  C   UNL A   1      45.626  32.432  26.681  1.00  0.00     0.200 A 
ATOM    101  F   UNL A   1      47.928  31.921  26.621  1.00  0.00    -0.200 F 
ATOM    102  F   UNL A   1      45.807  33.423  25.797  1.00  0.00    -0.200 F 
ENDBRANCH  69  92
ENDBRANCH  43  44
ENDBRANCH  35  38
ENDBRANCH  33  34
ENDBRANCH  32  33
ENDBRANCH   1  32
TORSDOF 16
ENDMDL
MODEL 3
REMARK VINA RESULT:     -12.7      2.991      8.956
REMARK SMILES Cc1ncc(CC(=O)N2CCc3c(c(C(=O)NCCCCNC(=O)c4ccc(-c5c6nc(c(-c7c(F)c(F)c(F)c(F)c7F)c7ccc([nH]7)c(-c7c(F)c(F)c(F)c(F)c7F)c7nc(c(-c8c(F)c(F)c(F)c(F)c8F)c8ccc5[nH]8)C=C7)C=C6)cc4)nn3CC3CC3)C2)c(=O)[nH]1
REMARK SMILES IDX 19 1 18 2 17 3 15 4 16 5 14 7 9 8 10 9 94 10 11 11 13 12
REMARK SMILES IDX 12 13 89 14 88 15 7 16 8 17 6 18 5 19 1 20 2 21 3 22 97 23
REMARK SMILES IDX 4 24 95 25 96 27 90 28 91 29 92 30 93 31 20 32 21 33 22 34
REMARK SMILES IDX 23 35 24 37 25 38 26 39 87 40 27 41 86 42 28 43 29 44 30 45
REMARK SMILES IDX 80 46 31 47 85 48 79 49 81 50 32 51 84 52 78 53 77 54 33 56
REMARK SMILES IDX 65 57 45 58 64 59 46 60 49 61 63 62 82 63 47 64 48 65 62 67
REMARK SMILES IDX 83 68 50 69 34 70 35 71 43 72 36 73 37 74 41 75 44 76 38 77
REMARK SMILES IDX 39 78 42 79 40 80 66 81 67 82 75 83 68 84 69 85 73 86 76 87
REMARK SMILES IDX 70 88 71 89 74 90 72 91 51 92 52 93 60 94 53 95 54 96 58 97
REMARK SMILES IDX 61 98 55 99 56 100 59 101 57 102
REMARK H PARENT 17 6 97 26 22 36 81 55 49 66
REMARK Flexibility Score: inf
ROOT
ATOM      1  C   UNL A   1      35.300  29.804  27.360  1.00  0.00     0.023 C 
ENDROOT
BRANCH   1   2
ATOM      2  C   UNL A   1      34.420  28.647  26.863  1.00  0.00     0.116 C 
BRANCH   2   3
ATOM      3  N   UNL A   1      33.173  28.511  27.605  1.00  0.00    -0.351 N 
ATOM      4  C   UNL A   1      31.886  28.195  27.200  1.00  0.00     0.272 C 
ATOM      5  O   UNL A   1      31.020  28.152  28.079  1.00  0.00    -0.267 OA
ATOM      6  H   UNL A   1      33.260  28.674  28.572  1.00  0.00     0.163 HD
BRANCH   4   7
ATOM      7  C   UNL A   1      31.544  27.956  25.784  1.00  0.00     0.155 A 
ATOM      8  N   UNL A   1      31.413  24.390  24.439  1.00  0.00    -0.338 N 
ATOM      9  C   UNL A   1      30.292  24.686  23.532  1.00  0.00     0.126 C 
ATOM     10  C   UNL A   1      31.501  25.276  25.630  1.00  0.00     0.159 C 
ATOM     11  C   UNL A   1      30.501  26.035  22.828  1.00  0.00     0.078 C 
ATOM     12  C   UNL A   1      31.354  26.693  25.139  1.00  0.00     0.026 A 
ATOM     13  C   UNL A   1      30.910  27.012  23.866  1.00  0.00     0.046 A 
ATOM     14  N   UNL A   1      30.937  28.362  23.766  1.00  0.00    -0.268 N 
ATOM     15  N   UNL A   1      31.362  28.949  24.894  1.00  0.00    -0.167 NA
BRANCH   8  16
ATOM     16  C   UNL A   1      32.358  23.390  24.288  1.00  0.00     0.227 C 
ATOM     17  O   UNL A   1      32.599  22.927  23.167  1.00  0.00    -0.275 OA
BRANCH  16  18
ATOM     18  C   UNL A   1      32.904  22.632  25.518  1.00  0.00     0.143 C 
BRANCH  18  19
ATOM     19  C   UNL A   1      34.356  22.321  25.639  1.00  0.00     0.045 A 
ATOM     20  C   UNL A   1      38.513  21.562  25.477  1.00  0.00     0.087 C 
ATOM     21  C   UNL A   1      37.046  21.847  25.615  1.00  0.00     0.105 A 
ATOM     22  N   UNL A   1      36.631  22.971  26.103  1.00  0.00    -0.243 NA
ATOM     23  N   UNL A   1      36.206  20.865  25.173  1.00  0.00    -0.311 N 
ATOM     24  C   UNL A   1      35.276  23.168  26.126  1.00  0.00     0.123 A 
ATOM     25  C   UNL A   1      34.848  21.008  25.175  1.00  0.00     0.254 A 
ATOM     26  H   UNL A   1      36.594  20.024  24.840  1.00  0.00     0.171 HD
ATOM     27  O   UNL A   1      34.098  20.126  24.780  1.00  0.00    -0.269 OA
ENDBRANCH  18  19
ENDBRANCH  16  18
ENDBRANCH   8  16
BRANCH  14  28
ATOM     28  C   UNL A   1      30.584  29.189  22.620  1.00  0.00     0.148 C 
BRANCH  28  29
ATOM     29  C   UNL A   1      29.289  29.944  22.758  1.00  0.00     0.011 C 
ATOM     30  C   UNL A   1      28.233  30.058  21.677  1.00  0.00     0.006 C 
ATOM     31  C   UNL A   1      27.992  29.173  22.865  1.00  0.00     0.006 C 
ENDBRANCH  28  29
ENDBRANCH  14  28
ENDBRANCH   4   7
ENDBRANCH   2   3
ENDBRANCH   1   2
BRANCH   1  32
ATOM     32  C   UNL A   1      34.609  31.166  27.522  1.00  0.00     0.023 C 
BRANCH  32  33
ATOM     33  C   UNL A   1      35.508  32.284  28.031  1.00  0.00     0.116 C 
BRANCH  33  34
ATOM     34  N   UNL A   1      35.141  32.814  29.355  1.00  0.00    -0.352 N 
ATOM     35  C   UNL A   1      35.442  32.282  30.611  1.00  0.00     0.251 C 
ATOM     36  H   UNL A   1      34.618  33.649  29.357  1.00  0.00     0.163 HD
ATOM     37  O   UNL A   1      34.810  32.575  31.609  1.00  0.00    -0.269 OA
BRANCH  35  38
ATOM     38  C   UNL A   1      36.594  31.364  30.698  1.00  0.00     0.039 A 
ATOM     39  C   UNL A   1      36.516  29.971  30.600  1.00  0.00     0.014 A 
ATOM     40  C   UNL A   1      37.819  31.995  30.797  1.00  0.00     0.014 A 
ATOM     41  C   UNL A   1      37.709  29.248  30.548  1.00  0.00     0.010 A 
ATOM     42  C   UNL A   1      38.917  31.337  30.352  1.00  0.00     0.010 A 
ATOM     43  C   UNL A   1      38.910  29.958  30.426  1.00  0.00    -0.014 A 
BRANCH  43  44
ATOM     44  C   UNL A   1      40.227  29.356  30.351  1.00  0.00     0.031 A 
ATOM     45  C   UNL A   1      40.876  29.104  31.656  1.00  0.00     0.074 A 
ATOM     46  C   UNL A   1      40.657  28.788  29.198  1.00  0.00     0.049 A 
ATOM     47  N   UNL A   1      41.957  29.644  32.107  1.00  0.00    -0.248 NA
ATOM     48  C   UNL A   1      40.178  28.255  32.634  1.00  0.00     0.031 C 
ATOM     49  C   UNL A   1      39.965  28.664  27.903  1.00  0.00     0.029 A 
ATOM     50  N   UNL A   1      41.786  28.063  28.990  1.00  0.00    -0.354 N 
ATOM     51  C   UNL A   1      42.189  29.055  33.345  1.00  0.00     0.074 A 
ATOM     52  C   UNL A   1      40.975  28.365  33.698  1.00  0.00     0.031 C 
ATOM     53  C   UNL A   1      40.568  27.719  27.149  1.00  0.00     0.029 A 
ATOM     54  C   UNL A   1      41.776  27.299  27.825  1.00  0.00     0.049 A 
ATOM     55  H   UNL A   1      42.550  28.077  29.612  1.00  0.00     0.167 HD
ATOM     56  C   UNL A   1      43.449  28.980  33.857  1.00  0.00     0.037 A 
ATOM     57  C   UNL A   1      42.686  26.345  27.506  1.00  0.00     0.037 A 
ATOM     58  C   UNL A   1      44.353  29.851  33.145  1.00  0.00     0.049 A 
ATOM     59  C   UNL A   1      43.904  26.637  28.317  1.00  0.00     0.074 A 
ATOM     60  C   UNL A   1      44.378  31.210  32.893  1.00  0.00     0.029 A 
ATOM     61  N   UNL A   1      45.185  29.290  32.202  1.00  0.00    -0.354 N 
ATOM     62  N   UNL A   1      44.625  27.718  28.155  1.00  0.00    -0.248 NA
ATOM     63  C   UNL A   1      43.990  26.022  29.635  1.00  0.00     0.031 C 
ATOM     64  C   UNL A   1      44.764  31.318  31.523  1.00  0.00     0.029 A 
ATOM     65  C   UNL A   1      45.043  30.034  31.056  1.00  0.00     0.049 A 
ATOM     66  H   UNL A   1      45.768  28.507  32.325  1.00  0.00     0.167 HD
ATOM     67  C   UNL A   1      44.916  28.150  29.443  1.00  0.00     0.074 A 
ATOM     68  C   UNL A   1      44.537  27.035  30.313  1.00  0.00     0.031 C 
ATOM     69  C   UNL A   1      45.132  29.470  29.728  1.00  0.00     0.037 A 
BRANCH  56  70
ATOM     70  C   UNL A   1      43.948  27.866  34.739  1.00  0.00     0.064 A 
ATOM     71  C   UNL A   1      43.812  26.536  34.298  1.00  0.00     0.173 A 
ATOM     72  C   UNL A   1      44.271  28.028  36.103  1.00  0.00     0.173 A 
ATOM     73  F   UNL A   1      43.493  26.269  33.023  1.00  0.00    -0.203 F 
ATOM     74  C   UNL A   1      43.904  25.455  35.178  1.00  0.00     0.198 A 
ATOM     75  C   UNL A   1      44.418  26.944  36.966  1.00  0.00     0.198 A 
ATOM     76  F   UNL A   1      44.340  29.231  36.683  1.00  0.00    -0.203 F 
ATOM     77  F   UNL A   1      43.636  24.217  34.742  1.00  0.00    -0.200 F 
ATOM     78  C   UNL A   1      44.200  25.661  36.513  1.00  0.00     0.200 A 
ATOM     79  F   UNL A   1      44.689  27.166  38.260  1.00  0.00    -0.200 F 
ATOM     80  F   UNL A   1      44.225  24.634  37.372  1.00  0.00    -0.200 F 
ENDBRANCH  56  70
BRANCH  57  81
ATOM     81  C   UNL A   1      42.413  25.037  26.857  1.00  0.00     0.064 A 
ATOM     82  C   UNL A   1      43.036  24.665  25.655  1.00  0.00     0.173 A 
ATOM     83  C   UNL A   1      41.715  24.015  27.535  1.00  0.00     0.173 A 
ATOM     84  F   UNL A   1      43.764  25.557  24.970  1.00  0.00    -0.203 F 
ATOM     85  C   UNL A   1      42.968  23.352  25.167  1.00  0.00     0.198 A 
ATOM     86  C   UNL A   1      41.642  22.710  27.046  1.00  0.00     0.198 A 
ATOM     87  F   UNL A   1      41.159  24.240  28.735  1.00  0.00    -0.203 F 
ATOM     88  F   UNL A   1      43.615  23.021  24.040  1.00  0.00    -0.200 F 
ATOM     89  C   UNL A   1      42.278  22.374  25.866  1.00  0.00     0.200 A 
ATOM     90  F   UNL A   1      41.001  21.769  27.754  1.00  0.00    -0.200 F 
ATOM     91  F   UNL A   1      42.255  21.108  25.426  1.00  0.00    -0.200 F 
ENDBRANCH  57  81
BRANCH  69  92
ATOM     92  C   UNL A   1      45.229  30.451  28.587  1.00  0.00     0.064 A 
ATOM     93  C   UNL A   1      44.167  31.273  28.165  1.00  0.00     0.173 A 
ATOM     94  C   UNL A   1      46.488  30.705  28.029  1.00  0.00     0.173 A 
ATOM     95  F   UNL A   1      42.959  31.176  28.724  1.00  0.00    -0.203 F 
ATOM     96  C   UNL A   1      44.349  32.268  27.205  1.00  0.00     0.198 A 
ATOM     97  C   UNL A   1      46.676  31.722  27.096  1.00  0.00     0.198 A 
ATOM     98  F   UNL A   1      47.556  30.002  28.435  1.00  0.00    -0.203 F 
ATOM     99  F   UNL A   1      43.315  33.033  26.826  1.00  0.00    -0.200 F 
ATOM    100  C   UNL A   1      45.606  32.497  26.677  1.00  0.00     0.200 A 
ATOM    101  F   UNL A   1      47.906  31.976  26.627  1.00  0.00    -0.200 F 
ATOM    102  F   UNL A   1      45.794  33.482  25.787  1.00  0.00    -0.200 F 
ENDBRANCH  69  92
ENDBRANCH  43  44
ENDBRANCH  35  38
ENDBRANCH  33  34
ENDBRANCH  32  33
ENDBRANCH   1  32
TORSDOF 16
ENDMDL
