MODEL 1
REMARK VINA RESULT:     -12.9      0.000      0.000
REMARK SMILES O=C(NCCCCNC(=O)c1ccc(NS(=O)(=O)c2ccc3c(c2)CCC3)cc1Cl)c1ccc(-c2c3nc(c(-c4c(F)c(F)c(F)c(F)c4F)c4ccc([nH]4)c(-c4c(F)c(F)c(F)c(F)c4F)c4nc(c(-c5c(F)c(F)c(F)c(F)c5F)c5ccc2[nH]5)C=C4)C=C3)cc1
REMARK SMILES IDX 6 1 5 2 4 3 3 4 1 5 2 6 31 8 32 9 93 10 33 11 92 12 34 13
REMARK SMILES IDX 35 14 36 15 86 16 37 17 91 18 85 19 87 20 38 21 90 22 84 23
REMARK SMILES IDX 83 24 39 26 71 27 51 28 70 29 52 30 55 31 69 32 88 33 53 34
REMARK SMILES IDX 54 35 68 37 89 38 56 39 40 40 41 41 49 42 42 43 43 44 47 45
REMARK SMILES IDX 50 46 44 47 45 48 48 49 46 50 72 51 73 52 81 53 74 54 75 55
REMARK SMILES IDX 79 56 82 57 76 58 77 59 80 60 78 61 57 62 58 63 66 64 59 65
REMARK SMILES IDX 60 66 64 67 67 68 61 69 62 70 65 71 63 72 7 73 8 74 9 75
REMARK SMILES IDX 10 77 11 78 12 79 29 80 13 81 28 82 30 83 14 84 15 85 16 87
REMARK SMILES IDX 17 88 18 89 19 90 20 91 24 92 21 93 23 94 22 95 25 96 27 97
REMARK SMILES IDX 26 98
REMARK H PARENT 3 7 87 25 55 36 8 76 15 86
REMARK Flexibility Score: inf
ROOT
ATOM      1  C   UNL A   1      32.952  29.298  24.814  1.00  0.00     0.023 C 
ENDROOT
BRANCH   1   2
ATOM      2  C   UNL A   1      33.548  28.078  25.514  1.00  0.00     0.023 C 
BRANCH   2   3
ATOM      3  C   UNL A   1      34.027  28.313  26.941  1.00  0.00     0.116 C 
BRANCH   3   4
ATOM      4  N   UNL A   1      33.844  29.689  27.374  1.00  0.00    -0.352 N 
ATOM      5  O   UNL A   1      34.283  31.575  28.531  1.00  0.00    -0.269 OA
ATOM      6  C   UNL A   1      34.673  30.487  28.123  1.00  0.00     0.251 C 
ATOM      7  H   UNL A   1      33.002  30.111  27.088  1.00  0.00     0.163 HD
BRANCH   6   8
ATOM      8  C   UNL A   1      36.032  30.017  28.460  1.00  0.00     0.039 A 
ATOM      9  C   UNL A   1      36.307  29.448  29.707  1.00  0.00     0.014 A 
ATOM     10  C   UNL A   1      37.043  30.142  27.504  1.00  0.00     0.014 A 
ATOM     11  C   UNL A   1      37.617  29.131  30.050  1.00  0.00     0.010 A 
ATOM     12  C   UNL A   1      38.343  29.747  27.821  1.00  0.00     0.010 A 
ATOM     13  C   UNL A   1      38.645  29.264  29.105  1.00  0.00    -0.014 A 
BRANCH  13  14
ATOM     14  C   UNL A   1      40.028  28.848  29.439  1.00  0.00     0.031 A 
ATOM     15  C   UNL A   1      40.948  29.773  30.180  1.00  0.00     0.074 A 
ATOM     16  C   UNL A   1      40.465  27.645  29.025  1.00  0.00     0.049 A 
ATOM     17  N   UNL A   1      42.220  29.630  30.455  1.00  0.00    -0.248 NA
ATOM     18  C   UNL A   1      40.366  31.032  30.664  1.00  0.00     0.031 C 
ATOM     19  C   UNL A   1      39.660  26.664  28.296  1.00  0.00     0.029 A 
ATOM     20  N   UNL A   1      41.696  27.052  29.134  1.00  0.00    -0.354 N 
ATOM     21  C   UNL A   1      42.597  30.789  31.121  1.00  0.00     0.074 A 
ATOM     22  C   UNL A   1      41.424  31.636  31.184  1.00  0.00     0.031 C 
ATOM     23  C   UNL A   1      40.416  25.593  28.023  1.00  0.00     0.029 A 
ATOM     24  C   UNL A   1      41.774  25.839  28.496  1.00  0.00     0.049 A 
ATOM     25  H   UNL A   1      42.450  27.454  29.624  1.00  0.00     0.167 HD
ATOM     26  C   UNL A   1      43.811  31.110  31.630  1.00  0.00     0.037 A 
ATOM     27  C   UNL A   1      42.829  25.035  28.272  1.00  0.00     0.037 A 
ATOM     28  C   UNL A   1      44.969  30.254  31.557  1.00  0.00     0.049 A 
ATOM     29  C   UNL A   1      44.177  25.430  28.801  1.00  0.00     0.074 A 
ATOM     30  C   UNL A   1      46.231  30.464  32.081  1.00  0.00     0.029 A 
ATOM     31  N   UNL A   1      45.006  29.029  30.902  1.00  0.00    -0.354 N 
ATOM     32  N   UNL A   1      44.517  26.508  29.465  1.00  0.00    -0.248 NA
ATOM     33  C   UNL A   1      45.286  24.501  28.555  1.00  0.00     0.031 C 
ATOM     34  C   UNL A   1      47.052  29.402  31.685  1.00  0.00     0.029 A 
ATOM     35  C   UNL A   1      46.282  28.491  30.978  1.00  0.00     0.049 A 
ATOM     36  H   UNL A   1      44.241  28.607  30.451  1.00  0.00     0.167 HD
ATOM     37  C   UNL A   1      45.870  26.377  29.742  1.00  0.00     0.074 A 
ATOM     38  C   UNL A   1      46.289  25.112  29.173  1.00  0.00     0.031 C 
ATOM     39  C   UNL A   1      46.685  27.225  30.415  1.00  0.00     0.037 A 
BRANCH  26  40
ATOM     40  C   UNL A   1      43.959  32.462  32.270  1.00  0.00     0.064 A 
ATOM     41  C   UNL A   1      43.729  32.670  33.639  1.00  0.00     0.173 A 
ATOM     42  C   UNL A   1      44.346  33.571  31.500  1.00  0.00     0.173 A 
ATOM     43  F   UNL A   1      43.352  31.648  34.423  1.00  0.00    -0.203 F 
ATOM     44  C   UNL A   1      43.832  33.941  34.200  1.00  0.00     0.198 A 
ATOM     45  C   UNL A   1      44.484  34.833  32.071  1.00  0.00     0.198 A 
ATOM     46  F   UNL A   1      44.592  33.432  30.189  1.00  0.00    -0.203 F 
ATOM     47  F   UNL A   1      43.538  34.125  35.496  1.00  0.00    -0.200 F 
ATOM     48  C   UNL A   1      44.213  35.020  33.418  1.00  0.00     0.200 A 
ATOM     49  F   UNL A   1      44.869  35.871  31.317  1.00  0.00    -0.200 F 
ATOM     50  F   UNL A   1      44.307  36.242  33.958  1.00  0.00    -0.200 F 
ENDBRANCH  26  40
BRANCH  27  51
ATOM     51  C   UNL A   1      42.629  23.787  27.493  1.00  0.00     0.064 A 
ATOM     52  C   UNL A   1      42.935  23.730  26.129  1.00  0.00     0.173 A 
ATOM     53  C   UNL A   1      42.190  22.608  28.116  1.00  0.00     0.173 A 
ATOM     54  F   UNL A   1      43.343  24.834  25.487  1.00  0.00    -0.203 F 
ATOM     55  C   UNL A   1      42.808  22.540  25.414  1.00  0.00     0.198 A 
ATOM     56  C   UNL A   1      42.093  21.413  27.409  1.00  0.00     0.198 A 
ATOM     57  F   UNL A   1      41.896  22.610  29.425  1.00  0.00    -0.203 F 
ATOM     58  F   UNL A   1      43.085  22.515  24.103  1.00  0.00    -0.200 F 
ATOM     59  C   UNL A   1      42.399  21.381  26.058  1.00  0.00     0.200 A 
ATOM     60  F   UNL A   1      41.719  20.292  28.040  1.00  0.00    -0.200 F 
ATOM     61  F   UNL A   1      42.300  20.232  25.375  1.00  0.00    -0.200 F 
ENDBRANCH  27  51
BRANCH  39  62
ATOM     62  C   UNL A   1      48.109  26.801  30.627  1.00  0.00     0.064 A 
ATOM     63  C   UNL A   1      48.482  25.955  31.681  1.00  0.00     0.173 A 
ATOM     64  C   UNL A   1      49.100  27.181  29.708  1.00  0.00     0.173 A 
ATOM     65  F   UNL A   1      47.577  25.576  32.596  1.00  0.00    -0.203 F 
ATOM     66  C   UNL A   1      49.796  25.510  31.810  1.00  0.00     0.198 A 
ATOM     67  C   UNL A   1      50.404  26.712  29.823  1.00  0.00     0.198 A 
ATOM     68  F   UNL A   1      48.793  27.988  28.681  1.00  0.00    -0.203 F 
ATOM     69  F   UNL A   1      50.137  24.726  32.842  1.00  0.00    -0.200 F 
ATOM     70  C   UNL A   1      50.752  25.879  30.875  1.00  0.00     0.200 A 
ATOM     71  F   UNL A   1      51.321  27.055  28.909  1.00  0.00    -0.200 F 
ATOM     72  F   UNL A   1      52.009  25.429  30.987  1.00  0.00    -0.200 F 
ENDBRANCH  39  62
ENDBRANCH  13  14
ENDBRANCH   6   8
ENDBRANCH   3   4
ENDBRANCH   2   3
ENDBRANCH   1   2
BRANCH   1  73
ATOM     73  C   UNL A   1      31.434  29.420  24.900  1.00  0.00     0.116 C 
BRANCH  73  74
ATOM     74  N   UNL A   1      30.809  29.691  23.619  1.00  0.00    -0.352 N 
ATOM     75  C   UNL A   1      30.368  28.804  22.672  1.00  0.00     0.252 C 
ATOM     76  H   UNL A   1      30.685  30.641  23.400  1.00  0.00     0.163 HD
ATOM     77  O   UNL A   1      29.876  29.219  21.626  1.00  0.00    -0.269 OA
BRANCH  75  78
ATOM     78  C   UNL A   1      30.583  27.357  22.849  1.00  0.00     0.058 A 
ATOM     79  C   UNL A   1      31.761  26.849  22.307  1.00  0.00     0.017 A 
ATOM     80  C   UNL A   1      29.673  26.475  23.433  1.00  0.00     0.055 A 
ATOM     81  C   UNL A   1      32.039  25.485  22.399  1.00  0.00     0.027 A 
ATOM     82  C   UNL A   1      30.012  25.119  23.598  1.00  0.00     0.048 A 
ATOM     83  Cl  UNL A   1      28.071  26.951  23.876  1.00  0.00    -0.083 Cl
ATOM     84  C   UNL A   1      31.228  24.614  23.123  1.00  0.00     0.050 A 
BRANCH  84  85
ATOM     85  N   UNL A   1      31.415  23.184  23.117  1.00  0.00    -0.280 N 
ATOM     86  H   UNL A   1      31.144  22.687  22.312  1.00  0.00     0.180 HD
BRANCH  85  87
ATOM     87  S   UNL A   1      32.078  22.301  24.420  1.00  0.00     0.261 S 
ATOM     88  O   UNL A   1      31.284  22.647  25.585  1.00  0.00    -0.201 OA
ATOM     89  O   UNL A   1      32.154  20.928  23.977  1.00  0.00    -0.201 OA
BRANCH  87  90
ATOM     90  C   UNL A   1      33.727  22.882  24.682  1.00  0.00     0.088 A 
ATOM     91  C   UNL A   1      33.935  24.110  25.342  1.00  0.00     0.022 A 
ATOM     92  C   UNL A   1      34.796  22.051  24.324  1.00  0.00     0.026 A 
ATOM     93  C   UNL A   1      35.223  24.468  25.751  1.00  0.00     0.005 A 
ATOM     94  C   UNL A   1      36.055  22.402  24.772  1.00  0.00    -0.043 A 
ATOM     95  C   UNL A   1      36.264  23.585  25.494  1.00  0.00    -0.045 A 
ATOM     96  C   UNL A   1      37.327  21.630  24.627  1.00  0.00     0.036 C 
ATOM     97  C   UNL A   1      37.699  23.702  25.906  1.00  0.00     0.036 C 
ATOM     98  C   UNL A   1      38.170  22.247  25.751  1.00  0.00     0.010 C 
ENDBRANCH  87  90
ENDBRANCH  85  87
ENDBRANCH  84  85
ENDBRANCH  75  78
ENDBRANCH  73  74
ENDBRANCH   1  73
TORSDOF 14
ENDMDL
MODEL 2
REMARK VINA RESULT:     -12.9      3.757      8.472
REMARK SMILES O=C(NCCCCNC(=O)c1ccc(NS(=O)(=O)c2ccc3c(c2)CCC3)cc1Cl)c1ccc(-c2c3nc(c(-c4c(F)c(F)c(F)c(F)c4F)c4ccc([nH]4)c(-c4c(F)c(F)c(F)c(F)c4F)c4nc(c(-c5c(F)c(F)c(F)c(F)c5F)c5ccc2[nH]5)C=C4)C=C3)cc1
REMARK SMILES IDX 6 1 5 2 4 3 3 4 1 5 2 6 31 8 32 9 93 10 33 11 92 12 34 13
REMARK SMILES IDX 35 14 36 15 86 16 37 17 91 18 85 19 87 20 38 21 90 22 84 23
REMARK SMILES IDX 83 24 39 26 71 27 51 28 70 29 52 30 55 31 69 32 88 33 53 34
REMARK SMILES IDX 54 35 68 37 89 38 56 39 40 40 41 41 49 42 42 43 43 44 47 45
REMARK SMILES IDX 50 46 44 47 45 48 48 49 46 50 72 51 73 52 81 53 74 54 75 55
REMARK SMILES IDX 79 56 82 57 76 58 77 59 80 60 78 61 57 62 58 63 66 64 59 65
REMARK SMILES IDX 60 66 64 67 67 68 61 69 62 70 65 71 63 72 7 73 8 74 9 75
REMARK SMILES IDX 10 77 11 78 12 79 29 80 13 81 28 82 30 83 14 84 15 85 16 87
REMARK SMILES IDX 17 88 18 89 19 90 20 91 24 92 21 93 23 94 22 95 25 96 27 97
REMARK SMILES IDX 26 98
REMARK H PARENT 3 7 87 25 55 36 8 76 15 86
REMARK Flexibility Score: inf
ROOT
ATOM      1  C   UNL A   1      31.409  30.680  26.231  1.00  0.00     0.023 C 
ENDROOT
BRANCH   1   2
ATOM      2  C   UNL A   1      31.403  32.191  26.457  1.00  0.00     0.023 C 
BRANCH   2   3
ATOM      3  C   UNL A   1      32.587  32.738  27.244  1.00  0.00     0.116 C 
BRANCH   3   4
ATOM      4  N   UNL A   1      32.378  34.104  27.694  1.00  0.00    -0.352 N 
ATOM      5  O   UNL A   1      32.623  35.911  29.023  1.00  0.00    -0.269 OA
ATOM      6  C   UNL A   1      33.041  34.816  28.663  1.00  0.00     0.251 C 
ATOM      7  H   UNL A   1      31.656  34.592  27.236  1.00  0.00     0.163 HD
BRANCH   6   8
ATOM      8  C   UNL A   1      34.248  34.245  29.293  1.00  0.00     0.039 A 
ATOM      9  C   UNL A   1      35.524  34.557  28.816  1.00  0.00     0.014 A 
ATOM     10  C   UNL A   1      34.094  33.388  30.386  1.00  0.00     0.014 A 
ATOM     11  C   UNL A   1      36.638  33.911  29.341  1.00  0.00     0.010 A 
ATOM     12  C   UNL A   1      35.220  32.802  30.965  1.00  0.00     0.010 A 
ATOM     13  C   UNL A   1      36.498  33.037  30.430  1.00  0.00    -0.014 A 
BRANCH  13  14
ATOM     14  C   UNL A   1      37.692  32.410  31.045  1.00  0.00     0.031 A 
ATOM     15  C   UNL A   1      38.411  31.289  30.354  1.00  0.00     0.074 A 
ATOM     16  C   UNL A   1      38.094  32.827  32.260  1.00  0.00     0.049 A 
ATOM     17  N   UNL A   1      39.396  30.544  30.789  1.00  0.00    -0.248 NA
ATOM     18  C   UNL A   1      37.955  30.952  28.999  1.00  0.00     0.031 C 
ATOM     19  C   UNL A   1      37.471  33.907  33.026  1.00  0.00     0.029 A 
ATOM     20  N   UNL A   1      39.105  32.380  33.072  1.00  0.00    -0.354 N 
ATOM     21  C   UNL A   1      39.660  29.634  29.775  1.00  0.00     0.074 A 
ATOM     22  C   UNL A   1      38.714  29.904  28.712  1.00  0.00     0.031 C 
ATOM     23  C   UNL A   1      38.110  34.040  34.195  1.00  0.00     0.029 A 
ATOM     24  C   UNL A   1      39.141  33.012  34.290  1.00  0.00     0.049 A 
ATOM     25  H   UNL A   1      39.742  31.677  32.808  1.00  0.00     0.167 HD
ATOM     26  C   UNL A   1      40.607  28.665  29.739  1.00  0.00     0.037 A 
ATOM     27  C   UNL A   1      39.886  32.762  35.382  1.00  0.00     0.037 A 
ATOM     28  C   UNL A   1      41.541  28.410  30.807  1.00  0.00     0.049 A 
ATOM     29  C   UNL A   1      40.897  31.653  35.341  1.00  0.00     0.074 A 
ATOM     30  C   UNL A   1      42.568  27.485  30.852  1.00  0.00     0.029 A 
ATOM     31  N   UNL A   1      41.547  29.074  32.028  1.00  0.00    -0.354 N 
ATOM     32  N   UNL A   1      41.170  30.823  34.364  1.00  0.00    -0.248 NA
ATOM     33  C   UNL A   1      41.705  31.445  36.550  1.00  0.00     0.031 C 
ATOM     34  C   UNL A   1      43.150  27.539  32.123  1.00  0.00     0.029 A 
ATOM     35  C   UNL A   1      42.537  28.552  32.845  1.00  0.00     0.049 A 
ATOM     36  H   UNL A   1      40.938  29.806  32.275  1.00  0.00     0.167 HD
ATOM     37  C   UNL A   1      42.197  30.012  34.824  1.00  0.00     0.074 A 
ATOM     38  C   UNL A   1      42.500  30.452  36.172  1.00  0.00     0.031 C 
ATOM     39  C   UNL A   1      42.836  29.004  34.183  1.00  0.00     0.037 A 
BRANCH  26  40
ATOM     40  C   UNL A   1      40.648  27.781  28.524  1.00  0.00     0.064 A 
ATOM     41  C   UNL A   1      39.940  26.570  28.457  1.00  0.00     0.173 A 
ATOM     42  C   UNL A   1      41.405  28.154  27.402  1.00  0.00     0.173 A 
ATOM     43  F   UNL A   1      39.204  26.159  29.501  1.00  0.00    -0.203 F 
ATOM     44  C   UNL A   1      40.029  25.748  27.336  1.00  0.00     0.198 A 
ATOM     45  C   UNL A   1      41.463  27.347  26.269  1.00  0.00     0.198 A 
ATOM     46  F   UNL A   1      42.094  29.306  27.403  1.00  0.00    -0.203 F 
ATOM     47  F   UNL A   1      39.399  24.564  27.326  1.00  0.00    -0.200 F 
ATOM     48  C   UNL A   1      40.785  26.137  26.242  1.00  0.00     0.200 A 
ATOM     49  F   UNL A   1      42.181  27.735  25.207  1.00  0.00    -0.200 F 
ATOM     50  F   UNL A   1      40.873  25.343  25.167  1.00  0.00    -0.200 F 
ENDBRANCH  26  40
BRANCH  27  51
ATOM     51  C   UNL A   1      39.675  33.584  36.600  1.00  0.00     0.064 A 
ATOM     52  C   UNL A   1      40.278  34.838  36.740  1.00  0.00     0.173 A 
ATOM     53  C   UNL A   1      38.809  33.155  37.620  1.00  0.00     0.173 A 
ATOM     54  F   UNL A   1      41.123  35.284  35.799  1.00  0.00    -0.203 F 
ATOM     55  C   UNL A   1      40.025  35.636  37.854  1.00  0.00     0.198 A 
ATOM     56  C   UNL A   1      38.534  33.965  38.718  1.00  0.00     0.198 A 
ATOM     57  F   UNL A   1      38.198  31.965  37.526  1.00  0.00    -0.203 F 
ATOM     58  F   UNL A   1      40.632  36.824  37.977  1.00  0.00    -0.200 F 
ATOM     59  C   UNL A   1      39.146  35.203  38.837  1.00  0.00     0.200 A 
ATOM     60  F   UNL A   1      37.667  33.553  39.652  1.00  0.00    -0.200 F 
ATOM     61  F   UNL A   1      38.886  35.982  39.897  1.00  0.00    -0.200 F 
ENDBRANCH  27  51
BRANCH  39  62
ATOM     62  C   UNL A   1      43.967  28.328  34.900  1.00  0.00     0.064 A 
ATOM     63  C   UNL A   1      45.264  28.861  34.908  1.00  0.00     0.173 A 
ATOM     64  C   UNL A   1      43.727  27.174  35.663  1.00  0.00     0.173 A 
ATOM     65  F   UNL A   1      45.551  29.952  34.181  1.00  0.00    -0.203 F 
ATOM     66  C   UNL A   1      46.280  28.258  35.647  1.00  0.00     0.198 A 
ATOM     67  C   UNL A   1      44.735  26.593  36.424  1.00  0.00     0.198 A 
ATOM     68  F   UNL A   1      42.501  26.627  35.691  1.00  0.00    -0.203 F 
ATOM     69  F   UNL A   1      47.519  28.767  35.617  1.00  0.00    -0.200 F 
ATOM     70  C   UNL A   1      46.011  27.134  36.414  1.00  0.00     0.200 A 
ATOM     71  F   UNL A   1      44.469  25.517  37.176  1.00  0.00    -0.200 F 
ATOM     72  F   UNL A   1      46.984  26.571  37.144  1.00  0.00    -0.200 F 
ENDBRANCH  39  62
ENDBRANCH  13  14
ENDBRANCH   6   8
ENDBRANCH   3   4
ENDBRANCH   2   3
ENDBRANCH   1   2
BRANCH   1  73
ATOM     73  C   UNL A   1      32.791  30.044  26.123  1.00  0.00     0.116 C 
BRANCH  73  74
ATOM     74  N   UNL A   1      33.277  29.962  24.759  1.00  0.00    -0.352 N 
ATOM     75  C   UNL A   1      33.059  28.983  23.825  1.00  0.00     0.252 C 
ATOM     76  H   UNL A   1      33.841  30.711  24.463  1.00  0.00     0.163 HD
ATOM     77  O   UNL A   1      33.573  29.071  22.713  1.00  0.00    -0.269 OA
BRANCH  75  78
ATOM     78  C   UNL A   1      32.305  27.767  24.181  1.00  0.00     0.058 A 
ATOM     79  C   UNL A   1      33.074  26.649  24.495  1.00  0.00     0.017 A 
ATOM     80  C   UNL A   1      30.916  27.644  24.146  1.00  0.00     0.055 A 
ATOM     81  C   UNL A   1      32.450  25.444  24.818  1.00  0.00     0.027 A 
ATOM     82  C   UNL A   1      30.304  26.448  24.563  1.00  0.00     0.048 A 
ATOM     83  Cl  UNL A   1      29.891  28.876  23.499  1.00  0.00    -0.083 Cl
ATOM     84  C   UNL A   1      31.067  25.341  24.952  1.00  0.00     0.050 A 
BRANCH  84  85
ATOM     85  N   UNL A   1      30.391  24.083  25.146  1.00  0.00    -0.280 N 
ATOM     86  H   UNL A   1      29.650  23.858  24.538  1.00  0.00     0.180 HD
BRANCH  85  87
ATOM     87  S   UNL A   1      30.795  22.957  26.365  1.00  0.00     0.261 S 
ATOM     88  O   UNL A   1      31.333  23.734  27.467  1.00  0.00    -0.201 OA
ATOM     89  O   UNL A   1      29.622  22.137  26.560  1.00  0.00    -0.201 OA
BRANCH  87  90
ATOM     90  C   UNL A   1      32.086  21.923  25.738  1.00  0.00     0.088 A 
ATOM     91  C   UNL A   1      33.361  21.962  26.337  1.00  0.00     0.022 A 
ATOM     92  C   UNL A   1      31.779  21.005  24.726  1.00  0.00     0.026 A 
ATOM     93  C   UNL A   1      34.315  20.997  26.000  1.00  0.00     0.005 A 
ATOM     94  C   UNL A   1      32.719  20.036  24.436  1.00  0.00    -0.043 A 
ATOM     95  C   UNL A   1      33.964  20.019  25.079  1.00  0.00    -0.045 A 
ATOM     96  C   UNL A   1      32.586  18.884  23.492  1.00  0.00     0.036 C 
ATOM     97  C   UNL A   1      34.772  18.842  24.626  1.00  0.00     0.036 C 
ATOM     98  C   UNL A   1      33.678  17.946  24.024  1.00  0.00     0.010 C 
ENDBRANCH  87  90
ENDBRANCH  85  87
ENDBRANCH  84  85
ENDBRANCH  75  78
ENDBRANCH  73  74
ENDBRANCH   1  73
TORSDOF 14
ENDMDL
MODEL 3
REMARK VINA RESULT:     -12.9      3.236      7.802
REMARK SMILES O=C(NCCCCNC(=O)c1ccc(NS(=O)(=O)c2ccc3c(c2)CCC3)cc1Cl)c1ccc(-c2c3nc(c(-c4c(F)c(F)c(F)c(F)c4F)c4ccc([nH]4)c(-c4c(F)c(F)c(F)c(F)c4F)c4nc(c(-c5c(F)c(F)c(F)c(F)c5F)c5ccc2[nH]5)C=C4)C=C3)cc1
REMARK SMILES IDX 6 1 5 2 4 3 3 4 1 5 2 6 31 8 32 9 93 10 33 11 92 12 34 13
REMARK SMILES IDX 35 14 36 15 86 16 37 17 91 18 85 19 87 20 38 21 90 22 84 23
REMARK SMILES IDX 83 24 39 26 71 27 51 28 70 29 52 30 55 31 69 32 88 33 53 34
REMARK SMILES IDX 54 35 68 37 89 38 56 39 40 40 41 41 49 42 42 43 43 44 47 45
REMARK SMILES IDX 50 46 44 47 45 48 48 49 46 50 72 51 73 52 81 53 74 54 75 55
REMARK SMILES IDX 79 56 82 57 76 58 77 59 80 60 78 61 57 62 58 63 66 64 59 65
REMARK SMILES IDX 60 66 64 67 67 68 61 69 62 70 65 71 63 72 7 73 8 74 9 75
REMARK SMILES IDX 10 77 11 78 12 79 29 80 13 81 28 82 30 83 14 84 15 85 16 87
REMARK SMILES IDX 17 88 18 89 19 90 20 91 24 92 21 93 23 94 22 95 25 96 27 97
REMARK SMILES IDX 26 98
REMARK H PARENT 3 7 87 25 55 36 8 76 15 86
REMARK Flexibility Score: inf
ROOT
ATOM      1  C   UNL A   1      36.753  20.758  24.677  1.00  0.00     0.023 C 
ENDROOT
BRANCH   1   2
ATOM      2  C   UNL A   1      37.804  19.694  24.987  1.00  0.00     0.023 C 
BRANCH   2   3
ATOM      3  C   UNL A   1      39.037  20.192  25.731  1.00  0.00     0.116 C 
BRANCH   3   4
ATOM      4  N   UNL A   1      40.098  19.199  25.786  1.00  0.00    -0.352 N 
ATOM      5  O   UNL A   1      42.215  18.430  25.911  1.00  0.00    -0.269 OA
ATOM      6  C   UNL A   1      41.432  19.360  26.068  1.00  0.00     0.251 C 
ATOM      7  H   UNL A   1      39.819  18.275  25.594  1.00  0.00     0.163 HD
BRANCH   6   8
ATOM      8  C   UNL A   1      41.927  20.670  26.536  1.00  0.00     0.039 A 
ATOM      9  C   UNL A   1      42.055  20.943  27.901  1.00  0.00     0.014 A 
ATOM     10  C   UNL A   1      42.276  21.635  25.588  1.00  0.00     0.014 A 
ATOM     11  C   UNL A   1      42.401  22.223  28.322  1.00  0.00     0.010 A 
ATOM     12  C   UNL A   1      42.702  22.894  26.012  1.00  0.00     0.010 A 
ATOM     13  C   UNL A   1      42.742  23.207  27.381  1.00  0.00    -0.014 A 
BRANCH  13  14
ATOM     14  C   UNL A   1      43.191  24.547  27.828  1.00  0.00     0.031 A 
ATOM     15  C   UNL A   1      42.195  25.618  28.161  1.00  0.00     0.074 A 
ATOM     16  C   UNL A   1      44.510  24.807  27.883  1.00  0.00     0.049 A 
ATOM     17  N   UNL A   1      42.399  26.877  28.453  1.00  0.00    -0.248 NA
ATOM     18  C   UNL A   1      40.779  25.225  28.151  1.00  0.00     0.031 C 
ATOM     19  C   UNL A   1      45.570  23.843  27.581  1.00  0.00     0.029 A 
ATOM     20  N   UNL A   1      45.184  25.961  28.189  1.00  0.00    -0.354 N 
ATOM     21  C   UNL A   1      41.140  27.434  28.636  1.00  0.00     0.074 A 
ATOM     22  C   UNL A   1      40.177  26.379  28.396  1.00  0.00     0.031 C 
ATOM     23  C   UNL A   1      46.759  24.444  27.715  1.00  0.00     0.029 A 
ATOM     24  C   UNL A   1      46.545  25.849  28.045  1.00  0.00     0.049 A 
ATOM     25  H   UNL A   1      44.738  26.788  28.484  1.00  0.00     0.167 HD
ATOM     26  C   UNL A   1      40.825  28.708  28.974  1.00  0.00     0.037 A 
ATOM     27  C   UNL A   1      47.511  26.782  28.121  1.00  0.00     0.037 A 
ATOM     28  C   UNL A   1      41.798  29.745  29.209  1.00  0.00     0.049 A 
ATOM     29  C   UNL A   1      47.138  28.199  28.448  1.00  0.00     0.074 A 
ATOM     30  C   UNL A   1      41.585  31.054  29.602  1.00  0.00     0.029 A 
ATOM     31  N   UNL A   1      43.170  29.592  29.054  1.00  0.00    -0.354 N 
ATOM     32  N   UNL A   1      45.950  28.709  28.661  1.00  0.00    -0.248 NA
ATOM     33  C   UNL A   1      48.236  29.168  28.550  1.00  0.00     0.031 C 
ATOM     34  C   UNL A   1      42.820  31.712  29.616  1.00  0.00     0.029 A 
ATOM     35  C   UNL A   1      43.812  30.794  29.308  1.00  0.00     0.049 A 
ATOM     36  H   UNL A   1      43.619  28.753  28.801  1.00  0.00     0.167 HD
ATOM     37  C   UNL A   1      46.154  30.051  28.948  1.00  0.00     0.074 A 
ATOM     38  C   UNL A   1      47.584  30.275  28.884  1.00  0.00     0.031 C 
ATOM     39  C   UNL A   1      45.238  31.004  29.249  1.00  0.00     0.037 A 
BRANCH  26  40
ATOM     40  C   UNL A   1      39.366  29.059  29.065  1.00  0.00     0.064 A 
ATOM     41  C   UNL A   1      38.668  29.046  30.284  1.00  0.00     0.173 A 
ATOM     42  C   UNL A   1      38.653  29.425  27.912  1.00  0.00     0.173 A 
ATOM     43  F   UNL A   1      39.297  28.699  31.418  1.00  0.00    -0.203 F 
ATOM     44  C   UNL A   1      37.307  29.335  30.336  1.00  0.00     0.198 A 
ATOM     45  C   UNL A   1      37.300  29.749  27.973  1.00  0.00     0.198 A 
ATOM     46  F   UNL A   1      39.268  29.469  26.721  1.00  0.00    -0.203 F 
ATOM     47  F   UNL A   1      36.649  29.245  31.501  1.00  0.00    -0.200 F 
ATOM     48  C   UNL A   1      36.625  29.690  29.183  1.00  0.00     0.200 A 
ATOM     49  F   UNL A   1      36.648  30.110  26.860  1.00  0.00    -0.200 F 
ATOM     50  F   UNL A   1      35.314  29.963  29.234  1.00  0.00    -0.200 F 
ENDBRANCH  26  40
BRANCH  27  51
ATOM     51  C   UNL A   1      48.917  26.383  27.863  1.00  0.00     0.064 A 
ATOM     52  C   UNL A   1      49.411  26.277  26.558  1.00  0.00     0.173 A 
ATOM     53  C   UNL A   1      49.814  26.165  28.922  1.00  0.00     0.173 A 
ATOM     54  F   UNL A   1      48.590  26.462  25.514  1.00  0.00    -0.203 F 
ATOM     55  C   UNL A   1      50.748  25.966  26.319  1.00  0.00     0.198 A 
ATOM     56  C   UNL A   1      51.156  25.885  28.683  1.00  0.00     0.198 A 
ATOM     57  F   UNL A   1      49.390  26.267  30.191  1.00  0.00    -0.203 F 
ATOM     58  F   UNL A   1      51.193  25.847  25.060  1.00  0.00    -0.200 F 
ATOM     59  C   UNL A   1      51.622  25.781  27.382  1.00  0.00     0.200 A 
ATOM     60  F   UNL A   1      51.999  25.729  29.712  1.00  0.00    -0.200 F 
ATOM     61  F   UNL A   1      52.913  25.506  27.151  1.00  0.00    -0.200 F 
ENDBRANCH  27  51
BRANCH  39  62
ATOM     62  C   UNL A   1      45.746  32.376  29.584  1.00  0.00     0.064 A 
ATOM     63  C   UNL A   1      46.156  32.718  30.881  1.00  0.00     0.173 A 
ATOM     64  C   UNL A   1      45.902  33.334  28.571  1.00  0.00     0.173 A 
ATOM     65  F   UNL A   1      46.012  31.844  31.888  1.00  0.00    -0.203 F 
ATOM     66  C   UNL A   1      46.699  33.972  31.150  1.00  0.00     0.198 A 
ATOM     67  C   UNL A   1      46.472  34.575  28.838  1.00  0.00     0.198 A 
ATOM     68  F   UNL A   1      45.527  33.055  27.313  1.00  0.00    -0.203 F 
ATOM     69  F   UNL A   1      47.058  34.289  32.402  1.00  0.00    -0.200 F 
ATOM     70  C   UNL A   1      46.868  34.894  30.127  1.00  0.00     0.200 A 
ATOM     71  F   UNL A   1      46.649  35.457  27.845  1.00  0.00    -0.200 F 
ATOM     72  F   UNL A   1      47.413  36.091  30.385  1.00  0.00    -0.200 F 
ENDBRANCH  39  62
ENDBRANCH  13  14
ENDBRANCH   6   8
ENDBRANCH   3   4
ENDBRANCH   2   3
ENDBRANCH   1   2
BRANCH   1  73
ATOM     73  C   UNL A   1      36.563  21.819  25.755  1.00  0.00     0.116 C 
BRANCH  73  74
ATOM     74  N   UNL A   1      35.566  21.457  26.744  1.00  0.00    -0.352 N 
ATOM     75  C   UNL A   1      34.207  21.626  26.698  1.00  0.00     0.252 C 
ATOM     76  H   UNL A   1      35.913  21.033  27.561  1.00  0.00     0.163 HD
ATOM     77  O   UNL A   1      33.513  21.273  27.647  1.00  0.00    -0.269 OA
BRANCH  75  78
ATOM     78  C   UNL A   1      33.582  22.332  25.565  1.00  0.00     0.058 A 
ATOM     79  C   UNL A   1      33.350  23.692  25.753  1.00  0.00     0.017 A 
ATOM     80  C   UNL A   1      33.145  21.729  24.385  1.00  0.00     0.055 A 
ATOM     81  C   UNL A   1      32.737  24.440  24.748  1.00  0.00     0.027 A 
ATOM     82  C   UNL A   1      32.613  22.516  23.347  1.00  0.00     0.048 A 
ATOM     83  Cl  UNL A   1      33.125  20.014  24.170  1.00  0.00    -0.083 Cl
ATOM     84  C   UNL A   1      32.445  23.898  23.499  1.00  0.00     0.050 A 
BRANCH  84  85
ATOM     85  N   UNL A   1      31.688  24.605  22.496  1.00  0.00    -0.280 N 
ATOM     86  H   UNL A   1      30.794  24.264  22.267  1.00  0.00     0.180 HD
BRANCH  85  87
ATOM     87  S   UNL A   1      32.247  25.998  21.681  1.00  0.00     0.261 S 
ATOM     88  O   UNL A   1      33.654  25.768  21.412  1.00  0.00    -0.201 OA
ATOM     89  O   UNL A   1      31.327  26.223  20.590  1.00  0.00    -0.201 OA
BRANCH  87  90
ATOM     90  C   UNL A   1      32.115  27.365  22.796  1.00  0.00     0.088 A 
ATOM     91  C   UNL A   1      30.904  28.080  22.879  1.00  0.00     0.022 A 
ATOM     92  C   UNL A   1      33.188  27.637  23.654  1.00  0.00     0.026 A 
ATOM     93  C   UNL A   1      30.716  29.009  23.907  1.00  0.00     0.005 A 
ATOM     94  C   UNL A   1      32.969  28.528  24.687  1.00  0.00    -0.043 A 
ATOM     95  C   UNL A   1      31.742  29.191  24.824  1.00  0.00    -0.045 A 
ATOM     96  C   UNL A   1      33.905  28.894  25.794  1.00  0.00     0.036 C 
ATOM     97  C   UNL A   1      31.747  30.055  26.048  1.00  0.00     0.036 C 
ATOM     98  C   UNL A   1      32.920  29.448  26.833  1.00  0.00     0.010 C 
ENDBRANCH  87  90
ENDBRANCH  85  87
ENDBRANCH  84  85
ENDBRANCH  75  78
ENDBRANCH  73  74
ENDBRANCH   1  73
TORSDOF 14
ENDMDL
