MODEL 1
REMARK VINA RESULT:     -10.3      0.000      0.000
REMARK SMILES Cc1nc(CCc2ccc(S(=O)(=O)N3CCCC3)cc2)ncc1C(=O)NCCCCNC(=O)c1ccc(-c2c3nc(c(-c4c(F)c(F)c(F)c(F)c4F)c4ccc([nH]4)c(-c4c(F)c(F)c(F)c(F)c4F)c4nc(c(-c5c(F)c(F)c(F)c(F)c5F)c5ccc2[nH]5)C=C4)C=C3)cc1
REMARK SMILES IDX 27 1 26 2 24 3 25 4 23 6 1 7 2 8 3 9 4 10 22 11 21 12 5 13
REMARK SMILES IDX 6 14 7 15 8 16 20 17 9 18 19 19 10 20 11 21 12 22 13 23
REMARK SMILES IDX 14 24 15 25 18 26 16 27 17 28 28 29 29 30 30 31 31 32 32 33
REMARK SMILES IDX 33 35 34 36 35 37 96 38 36 39 95 40 37 41 38 42 39 43 89 44
REMARK SMILES IDX 40 45 94 46 88 47 90 48 41 49 93 50 87 51 86 52 42 54 74 55
REMARK SMILES IDX 54 56 73 57 55 58 58 59 72 60 91 61 56 62 57 63 71 65 92 66
REMARK SMILES IDX 59 67 43 68 44 69 52 70 45 71 46 72 50 73 53 74 47 75 48 76
REMARK SMILES IDX 51 77 49 78 75 79 76 80 84 81 77 82 78 83 82 84 85 85 79 86
REMARK SMILES IDX 80 87 83 88 81 89 60 90 61 91 69 92 62 93 63 94 67 95 70 96
REMARK SMILES IDX 64 97 65 98 68 99 66 100
REMARK H PARENT 26 5 31 34 90 53 58 64
REMARK Flexibility Score: inf
ROOT
ATOM      1  C   UNL A   1      33.428  35.156  30.311  1.00  0.00     0.116 C 
ENDROOT
BRANCH   1   2
ATOM      2  N   UNL A   1      33.647  36.141  31.351  1.00  0.00    -0.352 N 
ATOM      3  C   UNL A   1      34.424  36.067  32.489  1.00  0.00     0.254 C 
ATOM      4  O   UNL A   1      34.428  37.031  33.253  1.00  0.00    -0.269 OA
ATOM      5  H   UNL A   1      33.169  36.993  31.226  1.00  0.00     0.163 HD
BRANCH   3   6
ATOM      6  C   UNL A   1      35.182  34.858  32.887  1.00  0.00     0.079 A 
ATOM      7  C   UNL A   1      33.256  33.217  33.262  1.00  0.00     0.068 C 
ATOM      8  C   UNL A   1      34.694  33.610  33.232  1.00  0.00     0.054 A 
ATOM      9  N   UNL A   1      35.511  32.602  33.628  1.00  0.00    -0.237 NA
ATOM     10  C   UNL A   1      36.835  32.820  33.655  1.00  0.00     0.128 A 
ATOM     11  C   UNL A   1      36.565  34.944  32.852  1.00  0.00     0.129 A 
ATOM     12  N   UNL A   1      37.411  33.963  33.252  1.00  0.00    -0.241 NA
BRANCH  10  13
ATOM     13  C   UNL A   1      37.687  31.754  34.285  1.00  0.00     0.082 C 
BRANCH  13  14
ATOM     14  C   UNL A   1      37.848  30.535  33.368  1.00  0.00     0.043 C 
BRANCH  14  15
ATOM     15  C   UNL A   1      39.197  29.843  33.424  1.00  0.00    -0.047 A 
ATOM     16  C   UNL A   1      39.366  28.565  32.877  1.00  0.00     0.005 A 
ATOM     17  C   UNL A   1      40.307  30.477  34.005  1.00  0.00     0.005 A 
ATOM     18  C   UNL A   1      40.614  27.937  32.907  1.00  0.00     0.022 A 
ATOM     19  C   UNL A   1      41.566  29.859  34.020  1.00  0.00     0.022 A 
ATOM     20  C   UNL A   1      41.717  28.583  33.478  1.00  0.00     0.082 A 
BRANCH  20  21
ATOM     21  S   UNL A   1      43.283  27.718  33.477  1.00  0.00     0.243 S 
ATOM     22  O   UNL A   1      43.365  27.019  32.212  1.00  0.00    -0.207 OA
ATOM     23  O   UNL A   1      44.292  28.675  33.880  1.00  0.00    -0.207 OA
BRANCH  21  24
ATOM     24  N   UNL A   1      43.186  26.534  34.658  1.00  0.00    -0.198 NA
ATOM     25  C   UNL A   1      44.032  25.339  34.589  1.00  0.00     0.102 C 
ATOM     26  C   UNL A   1      41.905  26.224  35.314  1.00  0.00     0.102 C 
ATOM     27  C   UNL A   1      43.021  24.211  34.625  1.00  0.00     0.018 C 
ATOM     28  C   UNL A   1      41.952  24.726  35.571  1.00  0.00     0.018 C 
ENDBRANCH  21  24
ENDBRANCH  20  21
ENDBRANCH  14  15
ENDBRANCH  13  14
ENDBRANCH  10  13
ENDBRANCH   3   6
ENDBRANCH   1   2
BRANCH   1  29
ATOM     29  C   UNL A   1      34.685  34.586  29.663  1.00  0.00     0.023 C 
BRANCH  29  30
ATOM     30  C   UNL A   1      34.774  33.084  29.370  1.00  0.00     0.023 C 
BRANCH  30  31
ATOM     31  C   UNL A   1      34.888  32.595  27.929  1.00  0.00     0.116 C 
BRANCH  31  32
ATOM     32  N   UNL A   1      34.285  31.293  27.673  1.00  0.00    -0.352 N 
ATOM     33  C   UNL A   1      34.809  30.020  27.726  1.00  0.00     0.251 C 
ATOM     34  H   UNL A   1      33.336  31.330  27.416  1.00  0.00     0.163 HD
ATOM     35  O   UNL A   1      34.132  29.048  27.404  1.00  0.00    -0.269 OA
BRANCH  33  36
ATOM     36  C   UNL A   1      36.193  29.808  28.172  1.00  0.00     0.039 A 
ATOM     37  C   UNL A   1      36.448  29.338  29.464  1.00  0.00     0.014 A 
ATOM     38  C   UNL A   1      37.240  30.077  27.294  1.00  0.00     0.014 A 
ATOM     39  C   UNL A   1      37.758  29.040  29.837  1.00  0.00     0.010 A 
ATOM     40  C   UNL A   1      38.523  29.678  27.625  1.00  0.00     0.010 A 
ATOM     41  C   UNL A   1      38.797  29.160  28.899  1.00  0.00    -0.014 A 
BRANCH  41  42
ATOM     42  C   UNL A   1      40.189  28.758  29.204  1.00  0.00     0.031 A 
ATOM     43  C   UNL A   1      41.105  29.734  29.885  1.00  0.00     0.074 A 
ATOM     44  C   UNL A   1      40.650  27.577  28.750  1.00  0.00     0.049 A 
ATOM     45  N   UNL A   1      42.394  29.655  30.094  1.00  0.00    -0.248 NA
ATOM     46  C   UNL A   1      40.499  30.993  30.349  1.00  0.00     0.031 C 
ATOM     47  C   UNL A   1      39.862  26.583  28.018  1.00  0.00     0.029 A 
ATOM     48  N   UNL A   1      41.903  27.023  28.814  1.00  0.00    -0.354 N 
ATOM     49  C   UNL A   1      42.751  30.860  30.685  1.00  0.00     0.074 A 
ATOM     50  C   UNL A   1      41.561  31.678  30.739  1.00  0.00     0.031 C 
ATOM     51  C   UNL A   1      40.643  25.533  27.722  1.00  0.00     0.029 A 
ATOM     52  C   UNL A   1      41.994  25.798  28.200  1.00  0.00     0.049 A 
ATOM     53  H   UNL A   1      42.664  27.461  29.258  1.00  0.00     0.167 HD
ATOM     54  C   UNL A   1      43.960  31.235  31.164  1.00  0.00     0.037 A 
ATOM     55  C   UNL A   1      43.057  24.987  28.036  1.00  0.00     0.037 A 
ATOM     56  C   UNL A   1      45.127  30.393  31.131  1.00  0.00     0.049 A 
ATOM     57  C   UNL A   1      44.387  25.422  28.590  1.00  0.00     0.074 A 
ATOM     58  C   UNL A   1      46.384  30.637  31.650  1.00  0.00     0.029 A 
ATOM     59  N   UNL A   1      45.171  29.136  30.543  1.00  0.00    -0.354 N 
ATOM     60  N   UNL A   1      44.700  26.531  29.215  1.00  0.00    -0.248 NA
ATOM     61  C   UNL A   1      45.508  24.488  28.425  1.00  0.00     0.031 C 
ATOM     62  C   UNL A   1      47.204  29.550  31.332  1.00  0.00     0.029 A 
ATOM     63  C   UNL A   1      46.443  28.602  30.666  1.00  0.00     0.049 A 
ATOM     64  H   UNL A   1      44.411  28.691  30.102  1.00  0.00     0.167 HD
ATOM     65  C   UNL A   1      46.045  26.419  29.542  1.00  0.00     0.074 A 
ATOM     66  C   UNL A   1      46.482  25.124  29.061  1.00  0.00     0.031 C 
ATOM     67  C   UNL A   1      46.848  27.307  30.180  1.00  0.00     0.037 A 
BRANCH  54  68
ATOM     68  C   UNL A   1      44.075  32.606  31.767  1.00  0.00     0.064 A 
ATOM     69  C   UNL A   1      44.022  32.808  33.157  1.00  0.00     0.173 A 
ATOM     70  C   UNL A   1      44.260  33.732  30.952  1.00  0.00     0.173 A 
ATOM     71  F   UNL A   1      43.833  31.769  33.983  1.00  0.00    -0.203 F 
ATOM     72  C   UNL A   1      44.111  34.087  33.701  1.00  0.00     0.198 A 
ATOM     73  C   UNL A   1      44.384  35.006  31.501  1.00  0.00     0.198 A 
ATOM     74  F   UNL A   1      44.320  33.599  29.617  1.00  0.00    -0.203 F 
ATOM     75  F   UNL A   1      43.995  34.259  35.024  1.00  0.00    -0.200 F 
ATOM     76  C   UNL A   1      44.300  35.183  32.874  1.00  0.00     0.200 A 
ATOM     77  F   UNL A   1      44.580  36.063  30.701  1.00  0.00    -0.200 F 
ATOM     78  F   UNL A   1      44.392  36.413  33.399  1.00  0.00    -0.200 F 
ENDBRANCH  54  68
BRANCH  55  79
ATOM     79  C   UNL A   1      42.897  23.679  27.350  1.00  0.00     0.064 A 
ATOM     80  C   UNL A   1      43.328  23.506  26.027  1.00  0.00     0.173 A 
ATOM     81  C   UNL A   1      42.326  22.573  27.997  1.00  0.00     0.173 A 
ATOM     82  F   UNL A   1      43.868  24.537  25.359  1.00  0.00    -0.203 F 
ATOM     83  C   UNL A   1      43.173  22.287  25.370  1.00  0.00     0.198 A 
ATOM     84  C   UNL A   1      42.199  21.345  27.349  1.00  0.00     0.198 A 
ATOM     85  F   UNL A   1      41.908  22.680  29.267  1.00  0.00    -0.203 F 
ATOM     86  F   UNL A   1      43.552  22.165  24.091  1.00  0.00    -0.200 F 
ATOM     87  C   UNL A   1      42.614  21.206  26.033  1.00  0.00     0.200 A 
ATOM     88  F   UNL A   1      41.676  20.297  28.000  1.00  0.00    -0.200 F 
ATOM     89  F   UNL A   1      42.471  20.032  25.405  1.00  0.00    -0.200 F 
ENDBRANCH  55  79
BRANCH  67  90
ATOM     90  C   UNL A   1      48.268  26.888  30.425  1.00  0.00     0.064 A 
ATOM     91  C   UNL A   1      49.299  27.228  29.536  1.00  0.00     0.173 A 
ATOM     92  C   UNL A   1      48.606  26.175  31.585  1.00  0.00     0.173 A 
ATOM     93  F   UNL A   1      49.023  27.896  28.406  1.00  0.00    -0.203 F 
ATOM     94  C   UNL A   1      50.613  26.844  29.786  1.00  0.00     0.198 A 
ATOM     95  C   UNL A   1      49.926  25.823  31.849  1.00  0.00     0.198 A 
ATOM     96  F   UNL A   1      47.658  25.834  32.471  1.00  0.00    -0.203 F 
ATOM     97  F   UNL A   1      51.574  27.132  28.898  1.00  0.00    -0.200 F 
ATOM     98  C   UNL A   1      50.927  26.150  30.946  1.00  0.00     0.200 A 
ATOM     99  F   UNL A   1      50.230  25.167  32.977  1.00  0.00    -0.200 F 
ATOM    100  F   UNL A   1      52.194  25.788  31.188  1.00  0.00    -0.200 F 
ENDBRANCH  67  90
ENDBRANCH  41  42
ENDBRANCH  33  36
ENDBRANCH  31  32
ENDBRANCH  30  31
ENDBRANCH  29  30
ENDBRANCH   1  29
TORSDOF 16
ENDMDL
MODEL 2
REMARK VINA RESULT:     -10.1      5.104     11.393
REMARK SMILES Cc1nc(CCc2ccc(S(=O)(=O)N3CCCC3)cc2)ncc1C(=O)NCCCCNC(=O)c1ccc(-c2c3nc(c(-c4c(F)c(F)c(F)c(F)c4F)c4ccc([nH]4)c(-c4c(F)c(F)c(F)c(F)c4F)c4nc(c(-c5c(F)c(F)c(F)c(F)c5F)c5ccc2[nH]5)C=C4)C=C3)cc1
REMARK SMILES IDX 27 1 26 2 24 3 25 4 23 6 1 7 2 8 3 9 4 10 22 11 21 12 5 13
REMARK SMILES IDX 6 14 7 15 8 16 20 17 9 18 19 19 10 20 11 21 12 22 13 23
REMARK SMILES IDX 14 24 15 25 18 26 16 27 17 28 28 29 29 30 30 31 31 32 32 33
REMARK SMILES IDX 33 35 34 36 35 37 96 38 36 39 95 40 37 41 38 42 39 43 89 44
REMARK SMILES IDX 40 45 94 46 88 47 90 48 41 49 93 50 87 51 86 52 42 54 74 55
REMARK SMILES IDX 54 56 73 57 55 58 58 59 72 60 91 61 56 62 57 63 71 65 92 66
REMARK SMILES IDX 59 67 43 68 44 69 52 70 45 71 46 72 50 73 53 74 47 75 48 76
REMARK SMILES IDX 51 77 49 78 75 79 76 80 84 81 77 82 78 83 82 84 85 85 79 86
REMARK SMILES IDX 80 87 83 88 81 89 60 90 61 91 69 92 62 93 63 94 67 95 70 96
REMARK SMILES IDX 64 97 65 98 68 99 66 100
REMARK H PARENT 26 5 31 34 90 53 58 64
REMARK Flexibility Score: inf
ROOT
ATOM      1  C   UNL A   1      37.405  21.439  24.258  1.00  0.00     0.116 C 
ENDROOT
BRANCH   1   2
ATOM      2  N   UNL A   1      37.569  22.616  25.086  1.00  0.00    -0.352 N 
ATOM      3  C   UNL A   1      36.619  23.391  25.718  1.00  0.00     0.254 C 
ATOM      4  O   UNL A   1      36.998  24.377  26.349  1.00  0.00    -0.269 OA
ATOM      5  H   UNL A   1      38.501  22.907  25.218  1.00  0.00     0.163 HD
BRANCH   3   6
ATOM      6  C   UNL A   1      35.161  23.155  25.606  1.00  0.00     0.079 A 
ATOM      7  C   UNL A   1      34.744  24.007  23.231  1.00  0.00     0.068 C 
ATOM      8  C   UNL A   1      34.325  23.420  24.535  1.00  0.00     0.054 A 
ATOM      9  N   UNL A   1      32.988  23.196  24.593  1.00  0.00    -0.237 NA
ATOM     10  C   UNL A   1      32.472  22.673  25.716  1.00  0.00     0.128 A 
ATOM     11  C   UNL A   1      34.542  22.525  26.675  1.00  0.00     0.129 A 
ATOM     12  N   UNL A   1      33.209  22.297  26.772  1.00  0.00    -0.241 NA
BRANCH  10  13
ATOM     13  C   UNL A   1      30.973  22.626  25.816  1.00  0.00     0.082 C 
BRANCH  13  14
ATOM     14  C   UNL A   1      30.415  23.815  26.609  1.00  0.00     0.043 C 
BRANCH  14  15
ATOM     15  C   UNL A   1      30.517  25.167  25.928  1.00  0.00    -0.047 A 
ATOM     16  C   UNL A   1      31.262  26.202  26.506  1.00  0.00     0.005 A 
ATOM     17  C   UNL A   1      29.885  25.401  24.696  1.00  0.00     0.005 A 
ATOM     18  C   UNL A   1      31.375  27.441  25.868  1.00  0.00     0.022 A 
ATOM     19  C   UNL A   1      30.012  26.635  24.042  1.00  0.00     0.022 A 
ATOM     20  C   UNL A   1      30.751  27.659  24.634  1.00  0.00     0.082 A 
BRANCH  20  21
ATOM     21  S   UNL A   1      30.943  29.268  23.875  1.00  0.00     0.243 S 
ATOM     22  O   UNL A   1      31.463  30.146  24.902  1.00  0.00    -0.207 OA
ATOM     23  O   UNL A   1      31.648  29.063  22.627  1.00  0.00    -0.207 OA
BRANCH  21  24
ATOM     24  N   UNL A   1      29.404  29.826  23.520  1.00  0.00    -0.198 NA
ATOM     25  C   UNL A   1      28.640  29.250  22.411  1.00  0.00     0.102 C 
ATOM     26  C   UNL A   1      29.050  31.241  23.714  1.00  0.00     0.102 C 
ATOM     27  C   UNL A   1      28.315  30.463  21.562  1.00  0.00     0.018 C 
ATOM     28  C   UNL A   1      28.077  31.556  22.588  1.00  0.00     0.018 C 
ENDBRANCH  21  24
ENDBRANCH  20  21
ENDBRANCH  14  15
ENDBRANCH  13  14
ENDBRANCH  10  13
ENDBRANCH   3   6
ENDBRANCH   1   2
BRANCH   1  29
ATOM     29  C   UNL A   1      37.208  20.124  25.005  1.00  0.00     0.023 C 
BRANCH  29  30
ATOM     30  C   UNL A   1      38.412  19.210  25.263  1.00  0.00     0.023 C 
BRANCH  30  31
ATOM     31  C   UNL A   1      39.634  19.751  26.001  1.00  0.00     0.116 C 
BRANCH  31  32
ATOM     32  N   UNL A   1      40.767  18.838  26.061  1.00  0.00    -0.352 N 
ATOM     33  C   UNL A   1      42.121  19.071  26.175  1.00  0.00     0.251 C 
ATOM     34  H   UNL A   1      40.524  17.885  26.010  1.00  0.00     0.163 HD
ATOM     35  O   UNL A   1      42.923  18.143  26.141  1.00  0.00    -0.269 OA
BRANCH  33  36
ATOM     36  C   UNL A   1      42.622  20.443  26.340  1.00  0.00     0.039 A 
ATOM     37  C   UNL A   1      43.044  21.172  25.224  1.00  0.00     0.014 A 
ATOM     38  C   UNL A   1      42.667  21.004  27.614  1.00  0.00     0.014 A 
ATOM     39  C   UNL A   1      43.416  22.507  25.380  1.00  0.00     0.010 A 
ATOM     40  C   UNL A   1      42.928  22.355  27.752  1.00  0.00     0.010 A 
ATOM     41  C   UNL A   1      43.309  23.120  26.639  1.00  0.00    -0.014 A 
BRANCH  41  42
ATOM     42  C   UNL A   1      43.587  24.560  26.845  1.00  0.00     0.031 A 
ATOM     43  C   UNL A   1      44.978  25.080  26.624  1.00  0.00     0.074 A 
ATOM     44  C   UNL A   1      42.623  25.353  27.352  1.00  0.00     0.049 A 
ATOM     45  N   UNL A   1      45.478  26.256  26.904  1.00  0.00    -0.248 NA
ATOM     46  C   UNL A   1      45.954  24.133  26.061  1.00  0.00     0.031 C 
ATOM     47  C   UNL A   1      41.256  24.932  27.666  1.00  0.00     0.029 A 
ATOM     48  N   UNL A   1      42.655  26.674  27.718  1.00  0.00    -0.354 N 
ATOM     49  C   UNL A   1      46.825  26.177  26.576  1.00  0.00     0.074 A 
ATOM     50  C   UNL A   1      47.081  24.823  26.142  1.00  0.00     0.031 C 
ATOM     51  C   UNL A   1      40.574  25.980  28.155  1.00  0.00     0.029 A 
ATOM     52  C   UNL A   1      41.466  27.130  28.233  1.00  0.00     0.049 A 
ATOM     53  H   UNL A   1      43.453  27.241  27.621  1.00  0.00     0.167 HD
ATOM     54  C   UNL A   1      47.757  27.159  26.608  1.00  0.00     0.037 A 
ATOM     55  C   UNL A   1      41.141  28.342  28.721  1.00  0.00     0.037 A 
ATOM     56  C   UNL A   1      47.476  28.511  27.011  1.00  0.00     0.049 A 
ATOM     57  C   UNL A   1      42.191  29.420  28.733  1.00  0.00     0.074 A 
ATOM     58  C   UNL A   1      48.320  29.605  27.015  1.00  0.00     0.029 A 
ATOM     59  N   UNL A   1      46.246  28.951  27.482  1.00  0.00    -0.354 N 
ATOM     60  N   UNL A   1      43.444  29.358  28.350  1.00  0.00    -0.248 NA
ATOM     61  C   UNL A   1      41.781  30.737  29.235  1.00  0.00     0.031 C 
ATOM     62  C   UNL A   1      47.617  30.695  27.536  1.00  0.00     0.029 A 
ATOM     63  C   UNL A   1      46.316  30.296  27.802  1.00  0.00     0.049 A 
ATOM     64  H   UNL A   1      45.443  28.389  27.576  1.00  0.00     0.167 HD
ATOM     65  C   UNL A   1      43.964  30.631  28.538  1.00  0.00     0.074 A 
ATOM     66  C   UNL A   1      42.884  31.448  29.053  1.00  0.00     0.031 C 
ATOM     67  C   UNL A   1      45.222  31.085  28.309  1.00  0.00     0.037 A 
BRANCH  54  68
ATOM     68  C   UNL A   1      49.155  26.805  26.190  1.00  0.00     0.064 A 
ATOM     69  C   UNL A   1      50.095  26.302  27.106  1.00  0.00     0.173 A 
ATOM     70  C   UNL A   1      49.561  26.950  24.855  1.00  0.00     0.173 A 
ATOM     71  F   UNL A   1      49.766  26.155  28.398  1.00  0.00    -0.203 F 
ATOM     72  C   UNL A   1      51.394  25.995  26.708  1.00  0.00     0.198 A 
ATOM     73  C   UNL A   1      50.850  26.609  24.453  1.00  0.00     0.198 A 
ATOM     74  F   UNL A   1      48.705  27.424  23.936  1.00  0.00    -0.203 F 
ATOM     75  F   UNL A   1      52.288  25.577  27.614  1.00  0.00    -0.200 F 
ATOM     76  C   UNL A   1      51.768  26.141  25.382  1.00  0.00     0.200 A 
ATOM     77  F   UNL A   1      51.206  26.738  23.168  1.00  0.00    -0.200 F 
ATOM     78  F   UNL A   1      53.016  25.841  24.999  1.00  0.00    -0.200 F 
ENDBRANCH  54  68
BRANCH  55  79
ATOM     79  C   UNL A   1      39.760  28.605  29.203  1.00  0.00     0.064 A 
ATOM     80  C   UNL A   1      39.404  28.347  30.535  1.00  0.00     0.173 A 
ATOM     81  C   UNL A   1      38.772  29.129  28.357  1.00  0.00     0.173 A 
ATOM     82  F   UNL A   1      40.309  27.832  31.381  1.00  0.00    -0.203 F 
ATOM     83  C   UNL A   1      38.110  28.579  30.994  1.00  0.00     0.198 A 
ATOM     84  C   UNL A   1      37.485  29.389  28.826  1.00  0.00     0.198 A 
ATOM     85  F   UNL A   1      39.062  29.406  27.077  1.00  0.00    -0.203 F 
ATOM     86  F   UNL A   1      37.787  28.279  32.260  1.00  0.00    -0.200 F 
ATOM     87  C   UNL A   1      37.153  29.106  30.141  1.00  0.00     0.200 A 
ATOM     88  F   UNL A   1      36.568  29.917  28.002  1.00  0.00    -0.200 F 
ATOM     89  F   UNL A   1      35.910  29.336  30.585  1.00  0.00    -0.200 F 
ENDBRANCH  55  79
BRANCH  67  90
ATOM     90  C   UNL A   1      45.483  32.538  28.580  1.00  0.00     0.064 A 
ATOM     91  C   UNL A   1      45.986  32.978  29.813  1.00  0.00     0.173 A 
ATOM     92  C   UNL A   1      45.266  33.495  27.577  1.00  0.00     0.173 A 
ATOM     93  F   UNL A   1      46.195  32.103  30.808  1.00  0.00    -0.203 F 
ATOM     94  C   UNL A   1      46.235  34.328  30.042  1.00  0.00     0.198 A 
ATOM     95  C   UNL A   1      45.550  34.839  27.797  1.00  0.00     0.198 A 
ATOM     96  F   UNL A   1      44.794  33.124  26.377  1.00  0.00    -0.203 F 
ATOM     97  F   UNL A   1      46.665  34.733  31.244  1.00  0.00    -0.200 F 
ATOM     98  C   UNL A   1      46.025  35.256  29.032  1.00  0.00     0.200 A 
ATOM     99  F   UNL A   1      45.361  35.732  26.816  1.00  0.00    -0.200 F 
ATOM    100  F   UNL A   1      46.274  36.554  29.252  1.00  0.00    -0.200 F 
ENDBRANCH  67  90
ENDBRANCH  41  42
ENDBRANCH  33  36
ENDBRANCH  31  32
ENDBRANCH  30  31
ENDBRANCH  29  30
ENDBRANCH   1  29
TORSDOF 16
ENDMDL
MODEL 3
REMARK VINA RESULT:     -10.0      1.678      2.956
REMARK SMILES Cc1nc(CCc2ccc(S(=O)(=O)N3CCCC3)cc2)ncc1C(=O)NCCCCNC(=O)c1ccc(-c2c3nc(c(-c4c(F)c(F)c(F)c(F)c4F)c4ccc([nH]4)c(-c4c(F)c(F)c(F)c(F)c4F)c4nc(c(-c5c(F)c(F)c(F)c(F)c5F)c5ccc2[nH]5)C=C4)C=C3)cc1
REMARK SMILES IDX 27 1 26 2 24 3 25 4 23 6 1 7 2 8 3 9 4 10 22 11 21 12 5 13
REMARK SMILES IDX 6 14 7 15 8 16 20 17 9 18 19 19 10 20 11 21 12 22 13 23
REMARK SMILES IDX 14 24 15 25 18 26 16 27 17 28 28 29 29 30 30 31 31 32 32 33
REMARK SMILES IDX 33 35 34 36 35 37 96 38 36 39 95 40 37 41 38 42 39 43 89 44
REMARK SMILES IDX 40 45 94 46 88 47 90 48 41 49 93 50 87 51 86 52 42 54 74 55
REMARK SMILES IDX 54 56 73 57 55 58 58 59 72 60 91 61 56 62 57 63 71 65 92 66
REMARK SMILES IDX 59 67 43 68 44 69 52 70 45 71 46 72 50 73 53 74 47 75 48 76
REMARK SMILES IDX 51 77 49 78 75 79 76 80 84 81 77 82 78 83 82 84 85 85 79 86
REMARK SMILES IDX 80 87 83 88 81 89 60 90 61 91 69 92 62 93 63 94 67 95 70 96
REMARK SMILES IDX 64 97 65 98 68 99 66 100
REMARK H PARENT 26 5 31 34 90 53 58 64
REMARK Flexibility Score: inf
ROOT
ATOM      1  C   UNL A   1      37.116  34.114  31.271  1.00  0.00     0.116 C 
ENDROOT
BRANCH   1   2
ATOM      2  N   UNL A   1      36.259  33.936  32.425  1.00  0.00    -0.352 N 
ATOM      3  C   UNL A   1      36.322  33.001  33.438  1.00  0.00     0.254 C 
ATOM      4  O   UNL A   1      35.451  33.024  34.306  1.00  0.00    -0.269 OA
ATOM      5  H   UNL A   1      35.518  34.581  32.497  1.00  0.00     0.163 HD
BRANCH   3   6
ATOM      6  C   UNL A   1      37.328  31.914  33.489  1.00  0.00     0.079 A 
ATOM      7  C   UNL A   1      39.253  33.131  34.653  1.00  0.00     0.068 C 
ATOM      8  C   UNL A   1      38.610  31.950  34.008  1.00  0.00     0.054 A 
ATOM      9  N   UNL A   1      39.445  30.884  33.940  1.00  0.00    -0.237 NA
ATOM     10  C   UNL A   1      38.996  29.751  33.376  1.00  0.00     0.128 A 
ATOM     11  C   UNL A   1      36.932  30.670  33.022  1.00  0.00     0.129 A 
ATOM     12  N   UNL A   1      37.743  29.586  32.928  1.00  0.00    -0.241 NA
BRANCH  10  13
ATOM     13  C   UNL A   1      40.007  28.664  33.139  1.00  0.00     0.082 C 
BRANCH  13  14
ATOM     14  C   UNL A   1      41.131  28.691  34.183  1.00  0.00     0.043 C 
BRANCH  14  15
ATOM     15  C   UNL A   1      41.980  27.437  34.270  1.00  0.00    -0.047 A 
ATOM     16  C   UNL A   1      43.082  27.262  33.425  1.00  0.00     0.005 A 
ATOM     17  C   UNL A   1      41.690  26.436  35.211  1.00  0.00     0.005 A 
ATOM     18  C   UNL A   1      43.879  26.117  33.520  1.00  0.00     0.022 A 
ATOM     19  C   UNL A   1      42.497  25.296  35.325  1.00  0.00     0.022 A 
ATOM     20  C   UNL A   1      43.588  25.132  34.471  1.00  0.00     0.082 A 
BRANCH  20  21
ATOM     21  S   UNL A   1      44.654  23.696  34.536  1.00  0.00     0.243 S 
ATOM     22  O   UNL A   1      43.796  22.560  34.797  1.00  0.00    -0.207 OA
ATOM     23  O   UNL A   1      45.503  23.750  33.364  1.00  0.00    -0.207 OA
BRANCH  21  24
ATOM     24  N   UNL A   1      45.623  23.870  35.892  1.00  0.00    -0.198 NA
ATOM     25  C   UNL A   1      46.289  25.145  36.173  1.00  0.00     0.102 C 
ATOM     26  C   UNL A   1      46.423  22.744  36.398  1.00  0.00     0.102 C 
ATOM     27  C   UNL A   1      47.748  24.745  36.271  1.00  0.00     0.018 C 
ATOM     28  C   UNL A   1      47.695  23.382  36.937  1.00  0.00     0.018 C 
ENDBRANCH  21  24
ENDBRANCH  20  21
ENDBRANCH  14  15
ENDBRANCH  13  14
ENDBRANCH  10  13
ENDBRANCH   3   6
ENDBRANCH   1   2
BRANCH   1  29
ATOM     29  C   UNL A   1      36.735  33.312  30.031  1.00  0.00     0.023 C 
BRANCH  29  30
ATOM     30  C   UNL A   1      35.281  33.315  29.544  1.00  0.00     0.023 C 
BRANCH  30  31
ATOM     31  C   UNL A   1      34.973  33.071  28.069  1.00  0.00     0.116 C 
BRANCH  31  32
ATOM     32  N   UNL A   1      34.090  31.943  27.805  1.00  0.00    -0.352 N 
ATOM     33  C   UNL A   1      34.337  30.589  27.736  1.00  0.00     0.251 C 
ATOM     34  H   UNL A   1      33.151  32.191  27.647  1.00  0.00     0.163 HD
ATOM     35  O   UNL A   1      33.445  29.802  27.431  1.00  0.00    -0.269 OA
BRANCH  33  36
ATOM     36  C   UNL A   1      35.680  30.067  28.027  1.00  0.00     0.039 A 
ATOM     37  C   UNL A   1      36.685  30.145  27.059  1.00  0.00     0.014 A 
ATOM     38  C   UNL A   1      35.935  29.503  29.275  1.00  0.00     0.014 A 
ATOM     39  C   UNL A   1      37.981  29.745  27.386  1.00  0.00     0.010 A 
ATOM     40  C   UNL A   1      37.239  29.211  29.633  1.00  0.00     0.010 A 
ATOM     41  C   UNL A   1      38.275  29.325  28.693  1.00  0.00    -0.014 A 
BRANCH  41  42
ATOM     42  C   UNL A   1      39.651  28.991  29.127  1.00  0.00     0.031 A 
ATOM     43  C   UNL A   1      40.438  29.997  29.917  1.00  0.00     0.074 A 
ATOM     44  C   UNL A   1      40.220  27.849  28.697  1.00  0.00     0.049 A 
ATOM     45  N   UNL A   1      41.702  29.983  30.251  1.00  0.00    -0.248 NA
ATOM     46  C   UNL A   1      39.719  31.210  30.343  1.00  0.00     0.031 C 
ATOM     47  C   UNL A   1      39.566  26.834  27.870  1.00  0.00     0.029 A 
ATOM     48  N   UNL A   1      41.490  27.362  28.876  1.00  0.00    -0.354 N 
ATOM     49  C   UNL A   1      41.931  31.189  30.900  1.00  0.00     0.074 A 
ATOM     50  C   UNL A   1      40.698  31.941  30.852  1.00  0.00     0.031 C 
ATOM     51  C   UNL A   1      40.430  25.835  27.632  1.00  0.00     0.029 A 
ATOM     52  C   UNL A   1      41.710  26.160  28.249  1.00  0.00     0.049 A 
ATOM     53  H   UNL A   1      42.177  27.829  29.402  1.00  0.00     0.167 HD
ATOM     54  C   UNL A   1      43.064  31.617  31.505  1.00  0.00     0.037 A 
ATOM     55  C   UNL A   1      42.828  25.413  28.175  1.00  0.00     0.037 A 
ATOM     56  C   UNL A   1      44.273  30.840  31.572  1.00  0.00     0.049 A 
ATOM     57  C   UNL A   1      44.070  25.904  28.869  1.00  0.00     0.074 A 
ATOM     58  C   UNL A   1      45.458  31.138  32.219  1.00  0.00     0.029 A 
ATOM     59  N   UNL A   1      44.447  29.604  30.965  1.00  0.00    -0.354 N 
ATOM     60  N   UNL A   1      44.257  27.012  29.544  1.00  0.00    -0.248 NA
ATOM     61  C   UNL A   1      45.253  25.037  28.797  1.00  0.00     0.031 C 
ATOM     62  C   UNL A   1      46.365  30.106  31.962  1.00  0.00     0.029 A 
ATOM     63  C   UNL A   1      45.728  29.135  31.204  1.00  0.00     0.049 A 
ATOM     64  H   UNL A   1      43.761  29.129  30.442  1.00  0.00     0.167 HD
ATOM     65  C   UNL A   1      45.567  26.964  30.002  1.00  0.00     0.074 A 
ATOM     66  C   UNL A   1      46.121  25.708  29.541  1.00  0.00     0.031 C 
ATOM     67  C   UNL A   1      46.251  27.877  30.735  1.00  0.00     0.037 A 
BRANCH  54  68
ATOM     68  C   UNL A   1      43.041  32.976  32.145  1.00  0.00     0.064 A 
ATOM     69  C   UNL A   1      42.761  33.144  33.511  1.00  0.00     0.173 A 
ATOM     70  C   UNL A   1      43.320  34.125  31.390  1.00  0.00     0.173 A 
ATOM     71  F   UNL A   1      42.473  32.082  34.277  1.00  0.00    -0.203 F 
ATOM     72  C   UNL A   1      42.726  34.412  34.087  1.00  0.00     0.198 A 
ATOM     73  C   UNL A   1      43.319  35.388  31.977  1.00  0.00     0.198 A 
ATOM     74  F   UNL A   1      43.597  34.024  30.081  1.00  0.00    -0.203 F 
ATOM     75  F   UNL A   1      42.394  34.550  35.378  1.00  0.00    -0.200 F 
ATOM     76  C   UNL A   1      43.012  35.532  33.322  1.00  0.00     0.200 A 
ATOM     77  F   UNL A   1      43.609  36.469  31.239  1.00  0.00    -0.200 F 
ATOM     78  F   UNL A   1      42.983  36.751  33.878  1.00  0.00    -0.200 F 
ENDBRANCH  54  68
BRANCH  55  79
ATOM     79  C   UNL A   1      42.811  24.116  27.450  1.00  0.00     0.064 A 
ATOM     80  C   UNL A   1      42.482  22.926  28.116  1.00  0.00     0.173 A 
ATOM     81  C   UNL A   1      43.109  24.033  26.082  1.00  0.00     0.173 A 
ATOM     82  F   UNL A   1      42.203  22.950  29.428  1.00  0.00    -0.203 F 
ATOM     83  C   UNL A   1      42.475  21.704  27.449  1.00  0.00     0.198 A 
ATOM     84  C   UNL A   1      43.071  22.813  25.408  1.00  0.00     0.198 A 
ATOM     85  F   UNL A   1      43.418  25.142  25.394  1.00  0.00    -0.203 F 
ATOM     86  F   UNL A   1      42.201  20.578  28.122  1.00  0.00    -0.200 F 
ATOM     87  C   UNL A   1      42.763  21.648  26.094  1.00  0.00     0.200 A 
ATOM     88  F   UNL A   1      43.332  22.767  24.094  1.00  0.00    -0.200 F 
ATOM     89  F   UNL A   1      42.749  20.473  25.451  1.00  0.00    -0.200 F 
ENDBRANCH  55  79
BRANCH  67  90
ATOM     90  C   UNL A   1      47.662  27.530  31.112  1.00  0.00     0.064 A 
ATOM     91  C   UNL A   1      47.959  26.844  32.299  1.00  0.00     0.173 A 
ATOM     92  C   UNL A   1      48.723  27.851  30.253  1.00  0.00     0.173 A 
ATOM     93  F   UNL A   1      46.980  26.529  33.161  1.00  0.00    -0.203 F 
ATOM     94  C   UNL A   1      49.272  26.518  32.626  1.00  0.00     0.198 A 
ATOM     95  C   UNL A   1      50.031  27.492  30.566  1.00  0.00     0.198 A 
ATOM     96  F   UNL A   1      48.491  28.499  29.101  1.00  0.00    -0.203 F 
ATOM     97  F   UNL A   1      49.540  25.911  33.790  1.00  0.00    -0.200 F 
ATOM     98  C   UNL A   1      50.305  26.835  31.756  1.00  0.00     0.200 A 
ATOM     99  F   UNL A   1      51.025  27.784  29.717  1.00  0.00    -0.200 F 
ATOM    100  F   UNL A   1      51.568  26.513  32.068  1.00  0.00    -0.200 F 
ENDBRANCH  67  90
ENDBRANCH  41  42
ENDBRANCH  33  36
ENDBRANCH  31  32
ENDBRANCH  30  31
ENDBRANCH  29  30
ENDBRANCH   1  29
TORSDOF 16
ENDMDL
