MODEL 1
REMARK VINA RESULT:     -12.0      0.000      0.000
REMARK SMILES Cc1oc2c(c1C(=O)NCCCC(=O)NCCCCNC(=O)c1ccc(-c3c4nc(c(-c5c(F)c(F)c(F)c(F)c5F)c5ccc([nH]5)c(-c5c(F)c(F)c(F)c(F)c5F)c5nc(c(-c6c(F)c(F)c(F)c(F)c6F)c6ccc3[nH]6)C=C5)C=C4)cc1)CCCC2
REMARK SMILES IDX 16 1 15 2 13 3 14 4 12 6 11 7 10 8 9 9 7 10 8 11 6 13 1 14
REMARK SMILES IDX 2 15 3 16 4 17 5 18 89 19 86 20 88 21 87 22 17 23 18 24
REMARK SMILES IDX 19 25 20 26 21 27 22 29 23 30 24 31 85 32 25 33 84 34 26 35
REMARK SMILES IDX 27 36 28 37 78 38 29 39 83 40 77 41 79 42 30 43 82 44 76 45
REMARK SMILES IDX 75 46 31 48 63 49 43 50 62 51 44 52 47 53 61 54 80 55 45 56
REMARK SMILES IDX 46 57 60 59 81 60 48 61 32 62 33 63 41 64 34 65 35 66 39 67
REMARK SMILES IDX 42 68 36 69 37 70 40 71 38 72 64 73 65 74 73 75 66 76 67 77
REMARK SMILES IDX 71 78 74 79 68 80 69 81 72 82 70 83 49 84 50 85 58 86 51 87
REMARK SMILES IDX 52 88 56 89 59 90 53 91 54 92 57 93 55 94
REMARK H PARENT 15 5 9 12 20 28 79 47 47 58
REMARK Flexibility Score: inf
ROOT
ATOM      1  C   UNL A   1      39.387  21.209  26.130  1.00  0.00     0.116 C 
ENDROOT
BRANCH   1   2
ATOM      2  N   UNL A   1      38.967  22.560  26.460  1.00  0.00    -0.356 N 
ATOM      3  C   UNL A   1      37.894  23.284  26.037  1.00  0.00     0.220 C 
ATOM      4  O   UNL A   1      37.842  24.474  26.353  1.00  0.00    -0.275 OA
ATOM      5  H   UNL A   1      39.556  23.030  27.094  1.00  0.00     0.163 HD
BRANCH   3   6
ATOM      6  C   UNL A   1      36.775  22.646  25.232  1.00  0.00     0.102 C 
BRANCH   6   7
ATOM      7  C   UNL A   1      35.571  22.168  26.051  1.00  0.00     0.031 C 
BRANCH   7   8
ATOM      8  C   UNL A   1      34.196  22.589  25.541  1.00  0.00     0.116 C 
BRANCH   8   9
ATOM      9  N   UNL A   1      34.206  23.567  24.483  1.00  0.00    -0.352 N 
ATOM     10  C   UNL A   1      33.676  24.830  24.404  1.00  0.00     0.255 C 
ATOM     11  O   UNL A   1      33.987  25.463  23.391  1.00  0.00    -0.269 OA
ATOM     12  H   UNL A   1      34.679  23.277  23.669  1.00  0.00     0.163 HD
BRANCH  10  13
ATOM     13  C   UNL A   1      32.733  25.389  25.377  1.00  0.00     0.084 A 
ATOM     14  C   UNL A   1      30.729  23.688  25.951  1.00  0.00     0.088 C 
ATOM     15  C   UNL A   1      31.543  24.918  25.942  1.00  0.00     0.114 A 
ATOM     16  O   UNL A   1      30.978  25.870  26.746  1.00  0.00    -0.465 OA
ATOM     17  C   UNL A   1      31.819  26.911  26.774  1.00  0.00     0.108 A 
ATOM     18  C   UNL A   1      32.941  26.665  26.027  1.00  0.00     0.007 A 
ATOM     19  C   UNL A   1      31.478  28.104  27.573  1.00  0.00     0.076 C 
ATOM     20  C   UNL A   1      34.050  27.665  25.953  1.00  0.00     0.040 C 
ATOM     21  C   UNL A   1      32.427  29.246  27.172  1.00  0.00     0.008 C 
ATOM     22  C   UNL A   1      33.885  28.761  27.036  1.00  0.00     0.005 C 
ENDBRANCH  10  13
ENDBRANCH   8   9
ENDBRANCH   7   8
ENDBRANCH   6   7
ENDBRANCH   3   6
ENDBRANCH   1   2
BRANCH   1  23
ATOM     23  C   UNL A   1      40.813  20.943  26.623  1.00  0.00     0.023 C 
BRANCH  23  24
ATOM     24  C   UNL A   1      41.506  19.674  26.124  1.00  0.00     0.023 C 
BRANCH  24  25
ATOM     25  C   UNL A   1      42.932  19.493  26.614  1.00  0.00     0.116 C 
BRANCH  25  26
ATOM     26  N   UNL A   1      43.895  19.268  25.537  1.00  0.00    -0.352 N 
ATOM     27  C   UNL A   1      44.366  20.210  24.635  1.00  0.00     0.251 C 
ATOM     28  H   UNL A   1      44.244  18.353  25.442  1.00  0.00     0.163 HD
ATOM     29  O   UNL A   1      44.806  19.898  23.542  1.00  0.00    -0.269 OA
BRANCH  27  30
ATOM     30  C   UNL A   1      44.335  21.620  25.057  1.00  0.00     0.039 A 
ATOM     31  C   UNL A   1      43.394  22.522  24.553  1.00  0.00     0.014 A 
ATOM     32  C   UNL A   1      45.232  21.992  26.055  1.00  0.00     0.014 A 
ATOM     33  C   UNL A   1      43.309  23.784  25.135  1.00  0.00     0.010 A 
ATOM     34  C   UNL A   1      45.031  23.162  26.736  1.00  0.00     0.010 A 
ATOM     35  C   UNL A   1      44.116  24.085  26.247  1.00  0.00    -0.014 A 
BRANCH  35  36
ATOM     36  C   UNL A   1      43.917  25.309  27.014  1.00  0.00     0.031 A 
ATOM     37  C   UNL A   1      44.884  26.392  26.684  1.00  0.00     0.074 A 
ATOM     38  C   UNL A   1      42.822  25.524  27.776  1.00  0.00     0.049 A 
ATOM     39  N   UNL A   1      45.804  26.879  27.448  1.00  0.00    -0.248 NA
ATOM     40  C   UNL A   1      44.943  26.887  25.298  1.00  0.00     0.031 C 
ATOM     41  C   UNL A   1      41.637  24.674  27.933  1.00  0.00     0.029 A 
ATOM     42  N   UNL A   1      42.489  26.622  28.511  1.00  0.00    -0.354 N 
ATOM     43  C   UNL A   1      46.416  27.893  26.717  1.00  0.00     0.074 A 
ATOM     44  C   UNL A   1      45.989  27.715  25.355  1.00  0.00     0.031 C 
ATOM     45  C   UNL A   1      40.637  25.380  28.507  1.00  0.00     0.029 A 
ATOM     46  C   UNL A   1      41.156  26.671  28.916  1.00  0.00     0.049 A 
ATOM     47  H   UNL A   1      43.138  27.325  28.738  1.00  0.00     0.167 HD
ATOM     48  C   UNL A   1      46.995  28.948  27.356  1.00  0.00     0.037 A 
ATOM     49  C   UNL A   1      40.532  27.715  29.519  1.00  0.00     0.037 A 
ATOM     50  C   UNL A   1      47.244  28.624  28.743  1.00  0.00     0.049 A 
ATOM     51  C   UNL A   1      41.595  28.585  30.088  1.00  0.00     0.074 A 
ATOM     52  C   UNL A   1      47.957  27.634  29.395  1.00  0.00     0.029 A 
ATOM     53  N   UNL A   1      46.385  29.132  29.687  1.00  0.00    -0.354 N 
ATOM     54  N   UNL A   1      42.357  28.234  31.086  1.00  0.00    -0.248 NA
ATOM     55  C   UNL A   1      42.125  29.633  29.229  1.00  0.00     0.031 C 
ATOM     56  C   UNL A   1      47.139  27.259  30.503  1.00  0.00     0.029 A 
ATOM     57  C   UNL A   1      46.029  28.104  30.521  1.00  0.00     0.049 A 
ATOM     58  H   UNL A   1      46.080  30.066  29.753  1.00  0.00     0.167 HD
ATOM     59  C   UNL A   1      43.622  28.668  30.724  1.00  0.00     0.074 A 
ATOM     60  C   UNL A   1      43.407  29.584  29.603  1.00  0.00     0.031 C 
ATOM     61  C   UNL A   1      44.739  28.017  31.161  1.00  0.00     0.037 A 
BRANCH  48  62
ATOM     62  C   UNL A   1      46.945  30.381  26.866  1.00  0.00     0.064 A 
ATOM     63  C   UNL A   1      48.119  31.161  26.938  1.00  0.00     0.173 A 
ATOM     64  C   UNL A   1      45.755  31.109  26.639  1.00  0.00     0.173 A 
ATOM     65  F   UNL A   1      49.312  30.584  27.150  1.00  0.00    -0.203 F 
ATOM     66  C   UNL A   1      48.086  32.557  26.905  1.00  0.00     0.198 A 
ATOM     67  C   UNL A   1      45.734  32.500  26.554  1.00  0.00     0.198 A 
ATOM     68  F   UNL A   1      44.551  30.531  26.596  1.00  0.00    -0.203 F 
ATOM     69  F   UNL A   1      49.209  33.253  27.128  1.00  0.00    -0.200 F 
ATOM     70  C   UNL A   1      46.891  33.227  26.726  1.00  0.00     0.200 A 
ATOM     71  F   UNL A   1      44.562  33.130  26.393  1.00  0.00    -0.200 F 
ATOM     72  F   UNL A   1      46.845  34.565  26.767  1.00  0.00    -0.200 F 
ENDBRANCH  48  62
BRANCH  49  73
ATOM     73  C   UNL A   1      39.133  28.192  29.376  1.00  0.00     0.064 A 
ATOM     74  C   UNL A   1      38.320  28.382  30.509  1.00  0.00     0.173 A 
ATOM     75  C   UNL A   1      38.673  28.768  28.177  1.00  0.00     0.173 A 
ATOM     76  F   UNL A   1      38.699  27.898  31.701  1.00  0.00    -0.203 F 
ATOM     77  C   UNL A   1      37.146  29.141  30.456  1.00  0.00     0.198 A 
ATOM     78  C   UNL A   1      37.497  29.522  28.124  1.00  0.00     0.198 A 
ATOM     79  F   UNL A   1      39.404  28.699  27.056  1.00  0.00    -0.203 F 
ATOM     80  F   UNL A   1      36.440  29.363  31.573  1.00  0.00    -0.200 F 
ATOM     81  C   UNL A   1      36.745  29.724  29.266  1.00  0.00     0.200 A 
ATOM     82  F   UNL A   1      37.137  30.110  26.974  1.00  0.00    -0.200 F 
ATOM     83  F   UNL A   1      35.662  30.514  29.228  1.00  0.00    -0.200 F 
ENDBRANCH  49  73
BRANCH  61  84
ATOM     84  C   UNL A   1      44.578  26.988  32.246  1.00  0.00     0.064 A 
ATOM     85  C   UNL A   1      44.361  25.616  32.024  1.00  0.00     0.173 A 
ATOM     86  C   UNL A   1      44.776  27.397  33.573  1.00  0.00     0.173 A 
ATOM     87  F   UNL A   1      44.266  25.122  30.783  1.00  0.00    -0.203 F 
ATOM     88  C   UNL A   1      44.291  24.711  33.084  1.00  0.00     0.198 A 
ATOM     89  C   UNL A   1      44.745  26.486  34.625  1.00  0.00     0.198 A 
ATOM     90  F   UNL A   1      45.041  28.683  33.845  1.00  0.00    -0.203 F 
ATOM     91  F   UNL A   1      44.060  23.411  32.845  1.00  0.00    -0.200 F 
ATOM     92  C   UNL A   1      44.489  25.147  34.383  1.00  0.00     0.200 A 
ATOM     93  F   UNL A   1      44.988  26.907  35.873  1.00  0.00    -0.200 F 
ATOM     94  F   UNL A   1      44.456  24.274  35.399  1.00  0.00    -0.200 F 
ENDBRANCH  61  84
ENDBRANCH  35  36
ENDBRANCH  27  30
ENDBRANCH  25  26
ENDBRANCH  24  25
ENDBRANCH  23  24
ENDBRANCH   1  23
TORSDOF 15
ENDMDL
MODEL 2
REMARK VINA RESULT:     -11.9      1.228      2.142
REMARK SMILES Cc1oc2c(c1C(=O)NCCCC(=O)NCCCCNC(=O)c1ccc(-c3c4nc(c(-c5c(F)c(F)c(F)c(F)c5F)c5ccc([nH]5)c(-c5c(F)c(F)c(F)c(F)c5F)c5nc(c(-c6c(F)c(F)c(F)c(F)c6F)c6ccc3[nH]6)C=C5)C=C4)cc1)CCCC2
REMARK SMILES IDX 16 1 15 2 13 3 14 4 12 6 11 7 10 8 9 9 7 10 8 11 6 13 1 14
REMARK SMILES IDX 2 15 3 16 4 17 5 18 89 19 86 20 88 21 87 22 17 23 18 24
REMARK SMILES IDX 19 25 20 26 21 27 22 29 23 30 24 31 85 32 25 33 84 34 26 35
REMARK SMILES IDX 27 36 28 37 78 38 29 39 83 40 77 41 79 42 30 43 82 44 76 45
REMARK SMILES IDX 75 46 31 48 63 49 43 50 62 51 44 52 47 53 61 54 80 55 45 56
REMARK SMILES IDX 46 57 60 59 81 60 48 61 32 62 33 63 41 64 34 65 35 66 39 67
REMARK SMILES IDX 42 68 36 69 37 70 40 71 38 72 64 73 65 74 73 75 66 76 67 77
REMARK SMILES IDX 71 78 74 79 68 80 69 81 72 82 70 83 49 84 50 85 58 86 51 87
REMARK SMILES IDX 52 88 56 89 59 90 53 91 54 92 57 93 55 94
REMARK H PARENT 15 5 9 12 20 28 79 47 47 58
REMARK Flexibility Score: inf
ROOT
ATOM      1  C   UNL A   1      40.053  21.254  26.512  1.00  0.00     0.116 C 
ENDROOT
BRANCH   1   2
ATOM      2  N   UNL A   1      39.354  22.503  26.755  1.00  0.00    -0.356 N 
ATOM      3  C   UNL A   1      38.260  23.041  26.146  1.00  0.00     0.220 C 
ATOM      4  O   UNL A   1      37.947  24.196  26.440  1.00  0.00    -0.275 OA
ATOM      5  H   UNL A   1      39.733  23.053  27.479  1.00  0.00     0.163 HD
BRANCH   3   6
ATOM      6  C   UNL A   1      37.425  22.238  25.163  1.00  0.00     0.102 C 
BRANCH   6   7
ATOM      7  C   UNL A   1      36.210  21.526  25.766  1.00  0.00     0.031 C 
BRANCH   7   8
ATOM      8  C   UNL A   1      35.649  20.353  24.968  1.00  0.00     0.116 C 
BRANCH   8   9
ATOM      9  N   UNL A   1      34.317  19.941  25.335  1.00  0.00    -0.352 N 
ATOM     10  C   UNL A   1      33.083  20.381  24.927  1.00  0.00     0.255 C 
ATOM     11  O   UNL A   1      32.131  19.711  25.340  1.00  0.00    -0.269 OA
ATOM     12  H   UNL A   1      34.288  19.214  25.998  1.00  0.00     0.163 HD
BRANCH  10  13
ATOM     13  C   UNL A   1      32.860  21.598  24.142  1.00  0.00     0.084 A 
ATOM     14  C   UNL A   1      31.906  21.067  21.683  1.00  0.00     0.088 C 
ATOM     15  C   UNL A   1      32.426  21.830  22.832  1.00  0.00     0.114 A 
ATOM     16  O   UNL A   1      32.472  23.165  22.537  1.00  0.00    -0.465 OA
ATOM     17  C   UNL A   1      32.848  23.803  23.652  1.00  0.00     0.108 A 
ATOM     18  C   UNL A   1      33.030  22.926  24.689  1.00  0.00     0.007 A 
ATOM     19  C   UNL A   1      32.984  25.272  23.643  1.00  0.00     0.076 C 
ATOM     20  C   UNL A   1      33.400  23.414  26.053  1.00  0.00     0.040 C 
ATOM     21  C   UNL A   1      33.730  25.701  24.918  1.00  0.00     0.008 C 
ATOM     22  C   UNL A   1      33.216  24.949  26.164  1.00  0.00     0.005 C 
ENDBRANCH  10  13
ENDBRANCH   8   9
ENDBRANCH   7   8
ENDBRANCH   6   7
ENDBRANCH   3   6
ENDBRANCH   1   2
BRANCH   1  23
ATOM     23  C   UNL A   1      41.151  21.029  27.558  1.00  0.00     0.023 C 
BRANCH  23  24
ATOM     24  C   UNL A   1      42.341  20.157  27.153  1.00  0.00     0.023 C 
BRANCH  24  25
ATOM     25  C   UNL A   1      42.341  19.715  25.701  1.00  0.00     0.116 C 
BRANCH  25  26
ATOM     26  N   UNL A   1      43.667  19.362  25.198  1.00  0.00    -0.352 N 
ATOM     27  C   UNL A   1      44.608  20.228  24.659  1.00  0.00     0.251 C 
ATOM     28  H   UNL A   1      43.920  18.412  25.246  1.00  0.00     0.163 HD
ATOM     29  O   UNL A   1      45.474  19.847  23.891  1.00  0.00    -0.269 OA
BRANCH  27  30
ATOM     30  C   UNL A   1      44.533  21.641  25.066  1.00  0.00     0.039 A 
ATOM     31  C   UNL A   1      43.530  22.493  24.599  1.00  0.00     0.014 A 
ATOM     32  C   UNL A   1      45.460  22.065  26.015  1.00  0.00     0.014 A 
ATOM     33  C   UNL A   1      43.417  23.757  25.171  1.00  0.00     0.010 A 
ATOM     34  C   UNL A   1      45.240  23.233  26.693  1.00  0.00     0.010 A 
ATOM     35  C   UNL A   1      44.262  24.108  26.239  1.00  0.00    -0.014 A 
BRANCH  35  36
ATOM     36  C   UNL A   1      44.046  25.333  27.001  1.00  0.00     0.031 A 
ATOM     37  C   UNL A   1      44.989  26.432  26.658  1.00  0.00     0.074 A 
ATOM     38  C   UNL A   1      42.953  25.530  27.771  1.00  0.00     0.049 A 
ATOM     39  N   UNL A   1      45.906  26.940  27.412  1.00  0.00    -0.248 NA
ATOM     40  C   UNL A   1      45.028  26.921  25.269  1.00  0.00     0.031 C 
ATOM     41  C   UNL A   1      41.786  24.658  27.942  1.00  0.00     0.029 A 
ATOM     42  N   UNL A   1      42.605  26.625  28.502  1.00  0.00    -0.354 N 
ATOM     43  C   UNL A   1      46.492  27.962  26.671  1.00  0.00     0.074 A 
ATOM     44  C   UNL A   1      46.058  27.769  25.313  1.00  0.00     0.031 C 
ATOM     45  C   UNL A   1      40.777  25.348  28.520  1.00  0.00     0.029 A 
ATOM     46  C   UNL A   1      41.274  26.650  28.918  1.00  0.00     0.049 A 
ATOM     47  H   UNL A   1      43.242  27.342  28.721  1.00  0.00     0.167 HD
ATOM     48  C   UNL A   1      47.056  29.031  27.300  1.00  0.00     0.037 A 
ATOM     49  C   UNL A   1      40.636  27.686  29.521  1.00  0.00     0.037 A 
ATOM     50  C   UNL A   1      47.322  28.719  28.687  1.00  0.00     0.049 A 
ATOM     51  C   UNL A   1      41.686  28.579  30.077  1.00  0.00     0.074 A 
ATOM     52  C   UNL A   1      48.059  27.747  29.338  1.00  0.00     0.029 A 
ATOM     53  N   UNL A   1      46.461  29.216  29.635  1.00  0.00    -0.354 N 
ATOM     54  N   UNL A   1      42.462  28.248  31.070  1.00  0.00    -0.248 NA
ATOM     55  C   UNL A   1      42.189  29.632  29.209  1.00  0.00     0.031 C 
ATOM     56  C   UNL A   1      47.258  27.362  30.454  1.00  0.00     0.029 A 
ATOM     57  C   UNL A   1      46.132  28.185  30.477  1.00  0.00     0.049 A 
ATOM     58  H   UNL A   1      46.139  30.144  29.699  1.00  0.00     0.167 HD
ATOM     59  C   UNL A   1      43.716  28.704  30.696  1.00  0.00     0.074 A 
ATOM     60  C   UNL A   1      43.474  29.610  29.573  1.00  0.00     0.031 C 
ATOM     61  C   UNL A   1      44.848  28.077  31.127  1.00  0.00     0.037 A 
BRANCH  48  62
ATOM     62  C   UNL A   1      46.974  30.460  26.803  1.00  0.00     0.064 A 
ATOM     63  C   UNL A   1      48.133  31.264  26.865  1.00  0.00     0.173 A 
ATOM     64  C   UNL A   1      45.769  31.163  26.579  1.00  0.00     0.173 A 
ATOM     65  F   UNL A   1      49.338  30.712  27.074  1.00  0.00    -0.203 F 
ATOM     66  C   UNL A   1      48.072  32.659  26.826  1.00  0.00     0.198 A 
ATOM     67  C   UNL A   1      45.719  32.553  26.488  1.00  0.00     0.198 A 
ATOM     68  F   UNL A   1      44.577  30.561  26.546  1.00  0.00    -0.203 F 
ATOM     69  F   UNL A   1      49.182  33.379  27.039  1.00  0.00    -0.200 F 
ATOM     70  C   UNL A   1      46.863  33.304  26.649  1.00  0.00     0.200 A 
ATOM     71  F   UNL A   1      44.534  33.158  26.329  1.00  0.00    -0.200 F 
ATOM     72  F   UNL A   1      46.790  34.641  26.685  1.00  0.00    -0.200 F 
ENDBRANCH  48  62
BRANCH  49  73
ATOM     73  C   UNL A   1      39.226  28.136  29.387  1.00  0.00     0.064 A 
ATOM     74  C   UNL A   1      38.407  28.280  30.522  1.00  0.00     0.173 A 
ATOM     75  C   UNL A   1      38.755  28.729  28.201  1.00  0.00     0.173 A 
ATOM     76  F   UNL A   1      38.796  27.776  31.703  1.00  0.00    -0.203 F 
ATOM     77  C   UNL A   1      37.217  29.014  30.485  1.00  0.00     0.198 A 
ATOM     78  C   UNL A   1      37.563  29.458  28.164  1.00  0.00     0.198 A 
ATOM     79  F   UNL A   1      39.489  28.703  27.080  1.00  0.00    -0.203 F 
ATOM     80  F   UNL A   1      36.505  29.193  31.606  1.00  0.00    -0.200 F 
ATOM     81  C   UNL A   1      36.805  29.617  29.309  1.00  0.00     0.200 A 
ATOM     82  F   UNL A   1      37.192  30.066  27.028  1.00  0.00    -0.200 F 
ATOM     83  F   UNL A   1      35.705  30.383  29.288  1.00  0.00    -0.200 F 
ENDBRANCH  49  73
BRANCH  61  84
ATOM     84  C   UNL A   1      44.716  27.050  32.220  1.00  0.00     0.064 A 
ATOM     85  C   UNL A   1      44.617  27.348  33.591  1.00  0.00     0.173 A 
ATOM     86  C   UNL A   1      44.562  25.709  31.844  1.00  0.00     0.173 A 
ATOM     87  F   UNL A   1      44.648  28.613  34.029  1.00  0.00    -0.203 F 
ATOM     88  C   UNL A   1      44.427  26.343  34.540  1.00  0.00     0.198 A 
ATOM     89  C   UNL A   1      44.333  24.713  32.789  1.00  0.00     0.198 A 
ATOM     90  F   UNL A   1      44.594  25.368  30.547  1.00  0.00    -0.203 F 
ATOM     91  F   UNL A   1      44.358  26.652  35.844  1.00  0.00    -0.200 F 
ATOM     92  C   UNL A   1      44.280  25.027  34.136  1.00  0.00     0.200 A 
ATOM     93  F   UNL A   1      44.141  23.450  32.387  1.00  0.00    -0.200 F 
ATOM     94  F   UNL A   1      44.063  24.065  35.043  1.00  0.00    -0.200 F 
ENDBRANCH  61  84
ENDBRANCH  35  36
ENDBRANCH  27  30
ENDBRANCH  25  26
ENDBRANCH  24  25
ENDBRANCH  23  24
ENDBRANCH   1  23
TORSDOF 15
ENDMDL
MODEL 3
REMARK VINA RESULT:     -11.7      1.619      2.844
REMARK SMILES Cc1oc2c(c1C(=O)NCCCC(=O)NCCCCNC(=O)c1ccc(-c3c4nc(c(-c5c(F)c(F)c(F)c(F)c5F)c5ccc([nH]5)c(-c5c(F)c(F)c(F)c(F)c5F)c5nc(c(-c6c(F)c(F)c(F)c(F)c6F)c6ccc3[nH]6)C=C5)C=C4)cc1)CCCC2
REMARK SMILES IDX 16 1 15 2 13 3 14 4 12 6 11 7 10 8 9 9 7 10 8 11 6 13 1 14
REMARK SMILES IDX 2 15 3 16 4 17 5 18 89 19 86 20 88 21 87 22 17 23 18 24
REMARK SMILES IDX 19 25 20 26 21 27 22 29 23 30 24 31 85 32 25 33 84 34 26 35
REMARK SMILES IDX 27 36 28 37 78 38 29 39 83 40 77 41 79 42 30 43 82 44 76 45
REMARK SMILES IDX 75 46 31 48 63 49 43 50 62 51 44 52 47 53 61 54 80 55 45 56
REMARK SMILES IDX 46 57 60 59 81 60 48 61 32 62 33 63 41 64 34 65 35 66 39 67
REMARK SMILES IDX 42 68 36 69 37 70 40 71 38 72 64 73 65 74 73 75 66 76 67 77
REMARK SMILES IDX 71 78 74 79 68 80 69 81 72 82 70 83 49 84 50 85 58 86 51 87
REMARK SMILES IDX 52 88 56 89 59 90 53 91 54 92 57 93 55 94
REMARK H PARENT 15 5 9 12 20 28 79 47 47 58
REMARK Flexibility Score: inf
ROOT
ATOM      1  C   UNL A   1      39.626  22.234  26.495  1.00  0.00     0.116 C 
ENDROOT
BRANCH   1   2
ATOM      2  N   UNL A   1      38.835  21.306  25.707  1.00  0.00    -0.356 N 
ATOM      3  C   UNL A   1      37.514  21.326  25.372  1.00  0.00     0.220 C 
ATOM      4  O   UNL A   1      37.047  20.333  24.813  1.00  0.00    -0.275 OA
ATOM      5  H   UNL A   1      39.335  20.533  25.357  1.00  0.00     0.163 HD
BRANCH   3   6
ATOM      6  C   UNL A   1      36.647  22.543  25.643  1.00  0.00     0.102 C 
BRANCH   6   7
ATOM      7  C   UNL A   1      36.431  23.472  24.443  1.00  0.00     0.031 C 
BRANCH   7   8
ATOM      8  C   UNL A   1      35.593  22.913  23.297  1.00  0.00     0.116 C 
BRANCH   8   9
ATOM      9  N   UNL A   1      34.210  23.320  23.292  1.00  0.00    -0.352 N 
ATOM     10  C   UNL A   1      33.121  22.856  23.987  1.00  0.00     0.255 C 
ATOM     11  O   UNL A   1      32.093  23.525  23.850  1.00  0.00    -0.269 OA
ATOM     12  H   UNL A   1      34.010  24.064  22.680  1.00  0.00     0.163 HD
BRANCH  10  13
ATOM     13  C   UNL A   1      33.110  21.615  24.767  1.00  0.00     0.084 A 
ATOM     14  C   UNL A   1      33.377  22.065  27.406  1.00  0.00     0.088 C 
ATOM     15  C   UNL A   1      33.256  21.336  26.130  1.00  0.00     0.114 A 
ATOM     16  O   UNL A   1      33.259  19.985  26.350  1.00  0.00    -0.465 OA
ATOM     17  C   UNL A   1      33.039  19.393  25.170  1.00  0.00     0.108 A 
ATOM     18  C   UNL A   1      32.865  20.318  24.174  1.00  0.00     0.007 A 
ATOM     19  C   UNL A   1      32.984  17.921  25.090  1.00  0.00     0.076 C 
ATOM     20  C   UNL A   1      32.550  19.893  22.775  1.00  0.00     0.040 C 
ATOM     21  C   UNL A   1      33.052  17.510  23.609  1.00  0.00     0.008 C 
ATOM     22  C   UNL A   1      32.150  18.397  22.726  1.00  0.00     0.005 C 
ENDBRANCH  10  13
ENDBRANCH   8   9
ENDBRANCH   7   8
ENDBRANCH   6   7
ENDBRANCH   3   6
ENDBRANCH   1   2
BRANCH   1  23
ATOM     23  C   UNL A   1      40.875  21.548  27.058  1.00  0.00     0.023 C 
BRANCH  23  24
ATOM     24  C   UNL A   1      41.439  20.359  26.278  1.00  0.00     0.023 C 
BRANCH  24  25
ATOM     25  C   UNL A   1      42.766  19.832  26.793  1.00  0.00     0.116 C 
BRANCH  25  26
ATOM     26  N   UNL A   1      43.744  19.580  25.736  1.00  0.00    -0.352 N 
ATOM     27  C   UNL A   1      44.249  20.505  24.835  1.00  0.00     0.251 C 
ATOM     28  H   UNL A   1      44.078  18.658  25.655  1.00  0.00     0.163 HD
ATOM     29  O   UNL A   1      44.702  20.175  23.753  1.00  0.00    -0.269 OA
BRANCH  27  30
ATOM     30  C   UNL A   1      44.236  21.920  25.244  1.00  0.00     0.039 A 
ATOM     31  C   UNL A   1      43.399  22.858  24.634  1.00  0.00     0.014 A 
ATOM     32  C   UNL A   1      45.033  22.260  26.334  1.00  0.00     0.014 A 
ATOM     33  C   UNL A   1      43.309  24.128  25.198  1.00  0.00     0.010 A 
ATOM     34  C   UNL A   1      44.812  23.444  26.983  1.00  0.00     0.010 A 
ATOM     35  C   UNL A   1      44.001  24.403  26.391  1.00  0.00    -0.014 A 
BRANCH  35  36
ATOM     36  C   UNL A   1      43.775  25.643  27.126  1.00  0.00     0.031 A 
ATOM     37  C   UNL A   1      44.713  26.739  26.762  1.00  0.00     0.074 A 
ATOM     38  C   UNL A   1      42.677  25.851  27.887  1.00  0.00     0.049 A 
ATOM     39  N   UNL A   1      45.624  27.269  27.508  1.00  0.00    -0.248 NA
ATOM     40  C   UNL A   1      44.754  27.198  25.363  1.00  0.00     0.031 C 
ATOM     41  C   UNL A   1      41.515  24.976  28.073  1.00  0.00     0.029 A 
ATOM     42  N   UNL A   1      42.321  26.959  28.593  1.00  0.00    -0.354 N 
ATOM     43  C   UNL A   1      46.207  28.278  26.746  1.00  0.00     0.074 A 
ATOM     44  C   UNL A   1      45.779  28.053  25.392  1.00  0.00     0.031 C 
ATOM     45  C   UNL A   1      40.500  25.673  28.632  1.00  0.00     0.029 A 
ATOM     46  C   UNL A   1      40.989  26.986  29.004  1.00  0.00     0.049 A 
ATOM     47  H   UNL A   1      42.953  27.684  28.798  1.00  0.00     0.167 HD
ATOM     48  C   UNL A   1      46.763  29.364  27.354  1.00  0.00     0.037 A 
ATOM     49  C   UNL A   1      40.342  28.031  29.582  1.00  0.00     0.037 A 
ATOM     50  C   UNL A   1      47.026  29.084  28.748  1.00  0.00     0.049 A 
ATOM     51  C   UNL A   1      41.385  28.942  30.121  1.00  0.00     0.074 A 
ATOM     52  C   UNL A   1      47.766  28.130  29.423  1.00  0.00     0.029 A 
ATOM     53  N   UNL A   1      46.158  29.597  29.682  1.00  0.00    -0.354 N 
ATOM     54  N   UNL A   1      42.160  28.638  31.124  1.00  0.00    -0.248 NA
ATOM     55  C   UNL A   1      41.885  29.979  29.232  1.00  0.00     0.031 C 
ATOM     56  C   UNL A   1      46.962  27.766  30.545  1.00  0.00     0.029 A 
ATOM     57  C   UNL A   1      45.832  28.583  30.545  1.00  0.00     0.049 A 
ATOM     58  H   UNL A   1      45.830  30.524  29.725  1.00  0.00     0.167 HD
ATOM     59  C   UNL A   1      43.412  29.093  30.745  1.00  0.00     0.074 A 
ATOM     60  C   UNL A   1      43.169  29.972  29.601  1.00  0.00     0.031 C 
ATOM     61  C   UNL A   1      44.547  28.481  31.193  1.00  0.00     0.037 A 
BRANCH  48  62
ATOM     62  C   UNL A   1      46.675  30.782  26.826  1.00  0.00     0.064 A 
ATOM     63  C   UNL A   1      47.833  31.587  26.858  1.00  0.00     0.173 A 
ATOM     64  C   UNL A   1      45.467  31.478  26.597  1.00  0.00     0.173 A 
ATOM     65  F   UNL A   1      49.041  31.041  27.067  1.00  0.00    -0.203 F 
ATOM     66  C   UNL A   1      47.770  32.981  26.787  1.00  0.00     0.198 A 
ATOM     67  C   UNL A   1      45.415  32.866  26.474  1.00  0.00     0.198 A 
ATOM     68  F   UNL A   1      44.275  30.874  26.589  1.00  0.00    -0.203 F 
ATOM     69  F   UNL A   1      48.881  33.707  26.973  1.00  0.00    -0.200 F 
ATOM     70  C   UNL A   1      46.559  33.621  26.608  1.00  0.00     0.200 A 
ATOM     71  F   UNL A   1      44.227  33.466  26.314  1.00  0.00    -0.200 F 
ATOM     72  F   UNL A   1      46.485  34.958  26.613  1.00  0.00    -0.200 F 
ENDBRANCH  48  62
BRANCH  49  73
ATOM     73  C   UNL A   1      38.931  28.470  29.433  1.00  0.00     0.064 A 
ATOM     74  C   UNL A   1      38.116  28.663  30.563  1.00  0.00     0.173 A 
ATOM     75  C   UNL A   1      38.453  29.007  28.223  1.00  0.00     0.173 A 
ATOM     76  F   UNL A   1      38.511  28.215  31.765  1.00  0.00    -0.203 F 
ATOM     77  C   UNL A   1      36.923  29.391  30.497  1.00  0.00     0.198 A 
ATOM     78  C   UNL A   1      37.259  29.729  28.156  1.00  0.00     0.198 A 
ATOM     79  F   UNL A   1      39.182  28.931  27.101  1.00  0.00    -0.203 F 
ATOM     80  F   UNL A   1      36.215  29.619  31.612  1.00  0.00    -0.200 F 
ATOM     81  C   UNL A   1      36.504  29.938  29.297  1.00  0.00     0.200 A 
ATOM     82  F   UNL A   1      36.880  30.283  26.995  1.00  0.00    -0.200 F 
ATOM     83  F   UNL A   1      35.402  30.699  29.245  1.00  0.00    -0.200 F 
ENDBRANCH  49  73
BRANCH  61  84
ATOM     84  C   UNL A   1      44.417  27.479  32.307  1.00  0.00     0.064 A 
ATOM     85  C   UNL A   1      44.235  26.096  32.123  1.00  0.00     0.173 A 
ATOM     86  C   UNL A   1      44.606  27.929  33.621  1.00  0.00     0.173 A 
ATOM     87  F   UNL A   1      44.149  25.566  30.897  1.00  0.00    -0.203 F 
ATOM     88  C   UNL A   1      44.192  25.219  33.207  1.00  0.00     0.198 A 
ATOM     89  C   UNL A   1      44.603  27.047  34.698  1.00  0.00     0.198 A 
ATOM     90  F   UNL A   1      44.838  29.229  33.857  1.00  0.00    -0.203 F 
ATOM     91  F   UNL A   1      43.995  23.907  33.005  1.00  0.00    -0.200 F 
ATOM     92  C   UNL A   1      44.382  25.696  34.494  1.00  0.00     0.200 A 
ATOM     93  F   UNL A   1      44.838  27.508  35.933  1.00  0.00    -0.200 F 
ATOM     94  F   UNL A   1      44.375  24.850  35.533  1.00  0.00    -0.200 F 
ENDBRANCH  61  84
ENDBRANCH  35  36
ENDBRANCH  27  30
ENDBRANCH  25  26
ENDBRANCH  24  25
ENDBRANCH  23  24
ENDBRANCH   1  23
TORSDOF 15
ENDMDL
