MODEL 1
REMARK VINA RESULT:     -12.5      0.000      0.000
REMARK SMILES Cc1nc(CNC(=O)[C@H]2CCO[C@H]2C)sc1C(=O)NCCCCNC(=O)c1ccc(-c2c3nc(c(-c4c(F)c(F)c(F)c(F)c4F)c4ccc([nH]4)c(-c4c(F)c(F)c(F)c(F)c4F)c4nc(c(-c5c(F)c(F)c(F)c(F)c5F)c5ccc2[nH]5)C=C4)C=C3)cc1
REMARK SMILES IDX 21 1 20 2 19 3 17 4 18 5 16 7 1 8 2 9 3 10 4 11 15 12 5 13
REMARK SMILES IDX 6 14 7 15 8 17 9 18 10 19 13 20 11 21 12 22 14 23 22 24
REMARK SMILES IDX 23 25 24 26 25 27 26 29 27 30 28 31 89 32 29 33 88 34 30 35
REMARK SMILES IDX 31 36 32 37 82 38 33 39 87 40 81 41 83 42 34 43 86 44 80 45
REMARK SMILES IDX 79 46 35 48 67 49 47 50 66 51 48 52 51 53 65 54 84 55 49 56
REMARK SMILES IDX 50 57 64 59 85 60 52 61 36 62 37 63 45 64 38 65 39 66 43 67
REMARK SMILES IDX 46 68 40 69 41 70 44 71 42 72 68 73 69 74 77 75 70 76 71 77
REMARK SMILES IDX 75 78 78 79 72 80 73 81 76 82 74 83 53 84 54 85 62 86 55 87
REMARK SMILES IDX 56 88 60 89 63 90 57 91 58 92 61 93 59 94
REMARK H PARENT 19 6 6 16 24 28 83 47 51 58
REMARK Flexibility Score: inf
ROOT
ATOM      1  C   UNL A   1      32.173  30.363  26.830  1.00  0.00     0.023 C 
ENDROOT
BRANCH   1   2
ATOM      2  C   UNL A   1      32.619  29.843  25.463  1.00  0.00     0.116 C 
BRANCH   2   3
ATOM      3  N   UNL A   1      31.522  29.875  24.530  1.00  0.00    -0.351 N 
ATOM      4  C   UNL A   1      30.698  28.914  24.004  1.00  0.00     0.263 C 
ATOM      5  O   UNL A   1      29.868  29.386  23.215  1.00  0.00    -0.268 OA
ATOM      6  H   UNL A   1      31.321  30.780  24.199  1.00  0.00     0.163 HD
BRANCH   4   7
ATOM      7  C   UNL A   1      30.738  27.491  24.333  1.00  0.00     0.115 A 
ATOM      8  C   UNL A   1      31.107  26.995  26.894  1.00  0.00     0.068 C 
ATOM      9  C   UNL A   1      30.882  26.685  25.461  1.00  0.00     0.061 A 
ATOM     10  N   UNL A   1      30.885  25.319  25.210  1.00  0.00    -0.244 NA
ATOM     11  C   UNL A   1      30.856  25.064  23.927  1.00  0.00     0.113 A 
ATOM     12  S   UNL A   1      30.654  26.430  22.938  1.00  0.00    -0.111 S 
BRANCH  11  13
ATOM     13  C   UNL A   1      31.007  23.690  23.347  1.00  0.00     0.183 C 
BRANCH  13  14
ATOM     14  N   UNL A   1      32.268  23.627  22.618  1.00  0.00    -0.349 N 
ATOM     15  C   UNL A   1      33.491  23.196  23.033  1.00  0.00     0.226 C 
ATOM     16  H   UNL A   1      32.228  23.941  21.686  1.00  0.00     0.163 HD
ATOM     17  O   UNL A   1      34.442  23.323  22.262  1.00  0.00    -0.275 OA
BRANCH  15  18
ATOM     18  C   UNL A   1      33.635  22.550  24.396  1.00  0.00     0.109 C 
ATOM     19  C   UNL A   1      34.853  21.656  24.526  1.00  0.00     0.044 C 
ATOM     20  C   UNL A   1      33.843  23.512  25.559  1.00  0.00     0.127 C 
ATOM     21  C   UNL A   1      34.982  21.521  26.028  1.00  0.00     0.161 C 
ATOM     22  O   UNL A   1      34.429  22.711  26.611  1.00  0.00    -0.378 OA
ATOM     23  C   UNL A   1      34.800  24.674  25.302  1.00  0.00     0.039 C 
ENDBRANCH  15  18
ENDBRANCH  13  14
ENDBRANCH  11  13
ENDBRANCH   4   7
ENDBRANCH   2   3
ENDBRANCH   1   2
BRANCH   1  24
ATOM     24  C   UNL A   1      31.816  31.848  26.867  1.00  0.00     0.023 C 
BRANCH  24  25
ATOM     25  C   UNL A   1      32.926  32.755  27.380  1.00  0.00     0.116 C 
BRANCH  25  26
ATOM     26  N   UNL A   1      32.485  34.108  27.686  1.00  0.00    -0.352 N 
ATOM     27  C   UNL A   1      33.002  34.985  28.613  1.00  0.00     0.251 C 
ATOM     28  H   UNL A   1      31.720  34.439  27.162  1.00  0.00     0.163 HD
ATOM     29  O   UNL A   1      32.479  36.070  28.808  1.00  0.00    -0.269 OA
BRANCH  27  30
ATOM     30  C   UNL A   1      34.169  34.562  29.412  1.00  0.00     0.039 A 
ATOM     31  C   UNL A   1      33.949  33.986  30.664  1.00  0.00     0.014 A 
ATOM     32  C   UNL A   1      35.461  34.668  28.892  1.00  0.00     0.014 A 
ATOM     33  C   UNL A   1      35.024  33.437  31.364  1.00  0.00     0.010 A 
ATOM     34  C   UNL A   1      36.517  34.056  29.555  1.00  0.00     0.010 A 
ATOM     35  C   UNL A   1      36.307  33.429  30.793  1.00  0.00    -0.014 A 
BRANCH  35  36
ATOM     36  C   UNL A   1      37.443  32.760  31.468  1.00  0.00     0.031 A 
ATOM     37  C   UNL A   1      38.130  31.601  30.806  1.00  0.00     0.074 A 
ATOM     38  C   UNL A   1      37.800  33.147  32.707  1.00  0.00     0.049 A 
ATOM     39  N   UNL A   1      39.087  30.836  31.265  1.00  0.00    -0.248 NA
ATOM     40  C   UNL A   1      37.656  31.233  29.463  1.00  0.00     0.031 C 
ATOM     41  C   UNL A   1      37.166  34.220  33.474  1.00  0.00     0.029 A 
ATOM     42  N   UNL A   1      38.777  32.672  33.546  1.00  0.00    -0.354 N 
ATOM     43  C   UNL A   1      39.315  29.888  30.278  1.00  0.00     0.074 A 
ATOM     44  C   UNL A   1      38.363  30.140  29.218  1.00  0.00     0.031 C 
ATOM     45  C   UNL A   1      37.783  34.337  34.662  1.00  0.00     0.029 A 
ATOM     46  C   UNL A   1      38.835  33.327  34.751  1.00  0.00     0.049 A 
ATOM     47  H   UNL A   1      39.379  31.932  33.305  1.00  0.00     0.167 HD
ATOM     48  C   UNL A   1      40.252  28.911  30.247  1.00  0.00     0.037 A 
ATOM     49  C   UNL A   1      39.644  33.132  35.808  1.00  0.00     0.037 A 
ATOM     50  C   UNL A   1      41.220  28.688  31.287  1.00  0.00     0.049 A 
ATOM     51  C   UNL A   1      40.689  32.052  35.741  1.00  0.00     0.074 A 
ATOM     52  C   UNL A   1      42.260  27.776  31.318  1.00  0.00     0.029 A 
ATOM     53  N   UNL A   1      41.268  29.392  32.482  1.00  0.00    -0.354 N 
ATOM     54  N   UNL A   1      40.945  31.209  34.771  1.00  0.00    -0.248 NA
ATOM     55  C   UNL A   1      41.559  31.899  36.915  1.00  0.00     0.031 C 
ATOM     56  C   UNL A   1      42.915  27.903  32.547  1.00  0.00     0.029 A 
ATOM     57  C   UNL A   1      42.307  28.920  33.266  1.00  0.00     0.049 A 
ATOM     58  H   UNL A   1      40.653  30.118  32.735  1.00  0.00     0.167 HD
ATOM     59  C   UNL A   1      42.017  30.443  35.204  1.00  0.00     0.074 A 
ATOM     60  C   UNL A   1      42.374  30.930  36.521  1.00  0.00     0.031 C 
ATOM     61  C   UNL A   1      42.648  29.423  34.571  1.00  0.00     0.037 A 
BRANCH  48  62
ATOM     62  C   UNL A   1      40.279  28.018  29.043  1.00  0.00     0.064 A 
ATOM     63  C   UNL A   1      41.016  28.353  27.897  1.00  0.00     0.173 A 
ATOM     64  C   UNL A   1      39.581  26.801  29.043  1.00  0.00     0.173 A 
ATOM     65  F   UNL A   1      41.689  29.513  27.843  1.00  0.00    -0.203 F 
ATOM     66  C   UNL A   1      41.030  27.517  26.785  1.00  0.00     0.198 A 
ATOM     67  C   UNL A   1      39.619  25.954  27.937  1.00  0.00     0.198 A 
ATOM     68  F   UNL A   1      38.862  26.433  30.114  1.00  0.00    -0.203 F 
ATOM     69  F   UNL A   1      41.701  27.882  25.682  1.00  0.00    -0.200 F 
ATOM     70  C   UNL A   1      40.337  26.317  26.808  1.00  0.00     0.200 A 
ATOM     71  F   UNL A   1      38.957  24.790  27.964  1.00  0.00    -0.200 F 
ATOM     72  F   UNL A   1      40.354  25.512  25.736  1.00  0.00    -0.200 F 
ENDBRANCH  48  62
BRANCH  49  73
ATOM     73  C   UNL A   1      39.521  33.999  37.008  1.00  0.00     0.064 A 
ATOM     74  C   UNL A   1      38.782  33.579  38.122  1.00  0.00     0.173 A 
ATOM     75  C   UNL A   1      40.133  35.259  37.065  1.00  0.00     0.173 A 
ATOM     76  F   UNL A   1      38.163  32.391  38.105  1.00  0.00    -0.203 F 
ATOM     77  C   UNL A   1      38.645  34.396  39.243  1.00  0.00     0.198 A 
ATOM     78  C   UNL A   1      40.015  36.064  38.196  1.00  0.00     0.198 A 
ATOM     79  F   UNL A   1      40.855  35.704  36.025  1.00  0.00    -0.203 F 
ATOM     80  F   UNL A   1      37.900  33.987  40.279  1.00  0.00    -0.200 F 
ATOM     81  C   UNL A   1      39.266  35.635  39.281  1.00  0.00     0.200 A 
ATOM     82  F   UNL A   1      40.626  37.257  38.235  1.00  0.00    -0.200 F 
ATOM     83  F   UNL A   1      39.136  36.419  40.361  1.00  0.00    -0.200 F 
ENDBRANCH  49  73
BRANCH  61  84
ATOM     84  C   UNL A   1      43.801  28.784  35.285  1.00  0.00     0.064 A 
ATOM     85  C   UNL A   1      43.616  27.689  36.142  1.00  0.00     0.173 A 
ATOM     86  C   UNL A   1      45.109  29.244  35.077  1.00  0.00     0.173 A 
ATOM     87  F   UNL A   1      42.380  27.224  36.384  1.00  0.00    -0.203 F 
ATOM     88  C   UNL A   1      44.698  27.090  36.779  1.00  0.00     0.198 A 
ATOM     89  C   UNL A   1      46.192  28.626  35.695  1.00  0.00     0.198 A 
ATOM     90  F   UNL A   1      45.338  30.286  34.263  1.00  0.00    -0.203 F 
ATOM     91  F   UNL A   1      44.494  26.070  37.624  1.00  0.00    -0.200 F 
ATOM     92  C   UNL A   1      45.985  27.554  36.550  1.00  0.00     0.200 A 
ATOM     93  F   UNL A   1      47.436  29.069  35.465  1.00  0.00    -0.200 F 
ATOM     94  F   UNL A   1      47.026  26.971  37.159  1.00  0.00    -0.200 F 
ENDBRANCH  61  84
ENDBRANCH  35  36
ENDBRANCH  27  30
ENDBRANCH  25  26
ENDBRANCH  24  25
ENDBRANCH   1  24
TORSDOF 14
ENDMDL
MODEL 2
REMARK VINA RESULT:     -12.4      0.518      7.413
REMARK SMILES Cc1nc(CNC(=O)[C@H]2CCO[C@H]2C)sc1C(=O)NCCCCNC(=O)c1ccc(-c2c3nc(c(-c4c(F)c(F)c(F)c(F)c4F)c4ccc([nH]4)c(-c4c(F)c(F)c(F)c(F)c4F)c4nc(c(-c5c(F)c(F)c(F)c(F)c5F)c5ccc2[nH]5)C=C4)C=C3)cc1
REMARK SMILES IDX 21 1 20 2 19 3 17 4 18 5 16 7 1 8 2 9 3 10 4 11 15 12 5 13
REMARK SMILES IDX 6 14 7 15 8 17 9 18 10 19 13 20 11 21 12 22 14 23 22 24
REMARK SMILES IDX 23 25 24 26 25 27 26 29 27 30 28 31 89 32 29 33 88 34 30 35
REMARK SMILES IDX 31 36 32 37 82 38 33 39 87 40 81 41 83 42 34 43 86 44 80 45
REMARK SMILES IDX 79 46 35 48 67 49 47 50 66 51 48 52 51 53 65 54 84 55 49 56
REMARK SMILES IDX 50 57 64 59 85 60 52 61 36 62 37 63 45 64 38 65 39 66 43 67
REMARK SMILES IDX 46 68 40 69 41 70 44 71 42 72 68 73 69 74 77 75 70 76 71 77
REMARK SMILES IDX 75 78 78 79 72 80 73 81 76 82 74 83 53 84 54 85 62 86 55 87
REMARK SMILES IDX 56 88 60 89 63 90 57 91 58 92 61 93 59 94
REMARK H PARENT 19 6 6 16 24 28 83 47 51 58
REMARK Flexibility Score: inf
ROOT
ATOM      1  C   UNL A   1      31.835  30.510  26.866  1.00  0.00     0.023 C 
ENDROOT
BRANCH   1   2
ATOM      2  C   UNL A   1      32.447  29.934  25.589  1.00  0.00     0.116 C 
BRANCH   2   3
ATOM      3  N   UNL A   1      31.475  29.923  24.527  1.00  0.00    -0.351 N 
ATOM      4  C   UNL A   1      30.744  28.934  23.922  1.00  0.00     0.263 C 
ATOM      5  O   UNL A   1      30.009  29.370  23.026  1.00  0.00    -0.268 OA
ATOM      6  H   UNL A   1      31.298  30.817  24.154  1.00  0.00     0.163 HD
BRANCH   4   7
ATOM      7  C   UNL A   1      30.773  27.518  24.283  1.00  0.00     0.115 A 
ATOM      8  C   UNL A   1      31.083  27.078  26.862  1.00  0.00     0.068 C 
ATOM      9  C   UNL A   1      30.890  26.737  25.432  1.00  0.00     0.061 A 
ATOM     10  N   UNL A   1      30.895  25.365  25.212  1.00  0.00    -0.244 NA
ATOM     11  C   UNL A   1      30.893  25.082  23.934  1.00  0.00     0.113 A 
ATOM     12  S   UNL A   1      30.718  26.426  22.911  1.00  0.00    -0.111 S 
BRANCH  11  13
ATOM     13  C   UNL A   1      31.054  23.696  23.388  1.00  0.00     0.183 C 
BRANCH  13  14
ATOM     14  N   UNL A   1      32.294  23.634  22.626  1.00  0.00    -0.349 N 
ATOM     15  C   UNL A   1      33.529  23.205  23.006  1.00  0.00     0.226 C 
ATOM     16  H   UNL A   1      32.228  23.949  21.695  1.00  0.00     0.163 HD
ATOM     17  O   UNL A   1      34.458  23.333  22.209  1.00  0.00    -0.275 OA
BRANCH  15  18
ATOM     18  C   UNL A   1      33.711  22.559  24.364  1.00  0.00     0.109 C 
ATOM     19  C   UNL A   1      34.987  21.750  24.493  1.00  0.00     0.044 C 
ATOM     20  C   UNL A   1      33.847  23.523  25.537  1.00  0.00     0.127 C 
ATOM     21  C   UNL A   1      35.118  21.611  25.995  1.00  0.00     0.161 C 
ATOM     22  O   UNL A   1      34.483  22.754  26.585  1.00  0.00    -0.378 OA
ATOM     23  C   UNL A   1      34.722  24.750  25.294  1.00  0.00     0.039 C 
ENDBRANCH  15  18
ENDBRANCH  13  14
ENDBRANCH  11  13
ENDBRANCH   4   7
ENDBRANCH   2   3
ENDBRANCH   1   2
BRANCH   1  24
ATOM     24  C   UNL A   1      31.595  32.019  26.840  1.00  0.00     0.023 C 
BRANCH  24  25
ATOM     25  C   UNL A   1      32.776  32.858  27.310  1.00  0.00     0.116 C 
BRANCH  25  26
ATOM     26  N   UNL A   1      32.416  34.215  27.696  1.00  0.00    -0.352 N 
ATOM     27  C   UNL A   1      33.004  35.015  28.648  1.00  0.00     0.251 C 
ATOM     28  H   UNL A   1      31.655  34.611  27.212  1.00  0.00     0.163 HD
ATOM     29  O   UNL A   1      32.545  36.115  28.913  1.00  0.00    -0.269 OA
BRANCH  27  30
ATOM     30  C   UNL A   1      34.169  34.493  29.389  1.00  0.00     0.039 A 
ATOM     31  C   UNL A   1      33.951  33.833  30.600  1.00  0.00     0.014 A 
ATOM     32  C   UNL A   1      35.455  34.591  28.851  1.00  0.00     0.014 A 
ATOM     33  C   UNL A   1      35.018  33.196  31.234  1.00  0.00     0.010 A 
ATOM     34  C   UNL A   1      36.500  33.895  29.445  1.00  0.00     0.010 A 
ATOM     35  C   UNL A   1      36.289  33.185  30.637  1.00  0.00    -0.014 A 
BRANCH  35  36
ATOM     36  C   UNL A   1      37.413  32.427  31.237  1.00  0.00     0.031 A 
ATOM     37  C   UNL A   1      37.920  32.795  32.601  1.00  0.00     0.074 A 
ATOM     38  C   UNL A   1      38.022  31.466  30.519  1.00  0.00     0.049 A 
ATOM     39  N   UNL A   1      38.938  32.308  33.263  1.00  0.00    -0.248 NA
ATOM     40  C   UNL A   1      37.208  33.875  33.301  1.00  0.00     0.031 C 
ATOM     41  C   UNL A   1      37.656  31.063  29.160  1.00  0.00     0.029 A 
ATOM     42  N   UNL A   1      39.088  30.659  30.828  1.00  0.00    -0.354 N 
ATOM     43  C   UNL A   1      39.000  33.034  34.443  1.00  0.00     0.074 A 
ATOM     44  C   UNL A   1      37.950  34.028  34.387  1.00  0.00     0.031 C 
ATOM     45  C   UNL A   1      38.469  30.071  28.760  1.00  0.00     0.029 A 
ATOM     46  C   UNL A   1      39.432  29.790  29.821  1.00  0.00     0.049 A 
ATOM     47  H   UNL A   1      39.562  30.700  31.690  1.00  0.00     0.167 HD
ATOM     48  C   UNL A   1      39.840  32.869  35.492  1.00  0.00     0.037 A 
ATOM     49  C   UNL A   1      40.415  28.873  29.763  1.00  0.00     0.037 A 
ATOM     50  C   UNL A   1      40.857  31.854  35.559  1.00  0.00     0.049 A 
ATOM     51  C   UNL A   1      41.323  28.697  30.949  1.00  0.00     0.074 A 
ATOM     52  C   UNL A   1      41.709  31.553  36.607  1.00  0.00     0.029 A 
ATOM     53  N   UNL A   1      41.157  30.972  34.531  1.00  0.00    -0.354 N 
ATOM     54  N   UNL A   1      41.325  29.339  32.092  1.00  0.00    -0.248 NA
ATOM     55  C   UNL A   1      42.364  27.666  30.838  1.00  0.00     0.031 C 
ATOM     56  C   UNL A   1      42.549  30.511  36.200  1.00  0.00     0.029 A 
ATOM     57  C   UNL A   1      42.195  30.138  34.914  1.00  0.00     0.049 A 
ATOM     58  H   UNL A   1      40.700  30.943  33.660  1.00  0.00     0.167 HD
ATOM     59  C   UNL A   1      42.346  28.777  32.844  1.00  0.00     0.074 A 
ATOM     60  C   UNL A   1      42.935  27.730  32.034  1.00  0.00     0.031 C 
ATOM     61  C   UNL A   1      42.762  29.100  34.093  1.00  0.00     0.037 A 
BRANCH  48  62
ATOM     62  C   UNL A   1      39.683  33.801  36.656  1.00  0.00     0.064 A 
ATOM     63  C   UNL A   1      40.323  35.049  36.687  1.00  0.00     0.173 A 
ATOM     64  C   UNL A   1      38.864  33.455  37.741  1.00  0.00     0.173 A 
ATOM     65  F   UNL A   1      41.128  35.420  35.679  1.00  0.00    -0.203 F 
ATOM     66  C   UNL A   1      40.172  35.905  37.774  1.00  0.00     0.198 A 
ATOM     67  C   UNL A   1      38.694  34.325  38.815  1.00  0.00     0.198 A 
ATOM     68  F   UNL A   1      38.228  32.274  37.760  1.00  0.00    -0.203 F 
ATOM     69  F   UNL A   1      40.834  37.071  37.804  1.00  0.00    -0.200 F 
ATOM     70  C   UNL A   1      39.354  35.545  38.834  1.00  0.00     0.200 A 
ATOM     71  F   UNL A   1      37.896  33.981  39.834  1.00  0.00    -0.200 F 
ATOM     72  F   UNL A   1      39.208  36.371  39.879  1.00  0.00    -0.200 F 
ENDBRANCH  48  62
BRANCH  49  73
ATOM     73  C   UNL A   1      40.572  28.029  28.551  1.00  0.00     0.064 A 
ATOM     74  C   UNL A   1      41.342  28.469  27.466  1.00  0.00     0.173 A 
ATOM     75  C   UNL A   1      39.957  26.773  28.451  1.00  0.00     0.173 A 
ATOM     76  F   UNL A   1      41.932  29.671  27.510  1.00  0.00    -0.203 F 
ATOM     77  C   UNL A   1      41.477  27.691  26.318  1.00  0.00     0.198 A 
ATOM     78  C   UNL A   1      40.113  25.986  27.312  1.00  0.00     0.198 A 
ATOM     79  F   UNL A   1      39.213  26.306  29.465  1.00  0.00    -0.203 F 
ATOM     80  F   UNL A   1      42.187  28.153  25.279  1.00  0.00    -0.200 F 
ATOM     81  C   UNL A   1      40.867  26.448  26.244  1.00  0.00     0.200 A 
ATOM     82  F   UNL A   1      39.531  24.780  27.248  1.00  0.00    -0.200 F 
ATOM     83  F   UNL A   1      40.999  25.700  25.140  1.00  0.00    -0.200 F 
ENDBRANCH  49  73
BRANCH  61  84
ATOM     84  C   UNL A   1      43.893  28.298  34.666  1.00  0.00     0.064 A 
ATOM     85  C   UNL A   1      45.222  28.738  34.573  1.00  0.00     0.173 A 
ATOM     86  C   UNL A   1      43.640  27.102  35.351  1.00  0.00     0.173 A 
ATOM     87  F   UNL A   1      45.513  29.869  33.912  1.00  0.00    -0.203 F 
ATOM     88  C   UNL A   1      46.259  27.996  35.130  1.00  0.00     0.198 A 
ATOM     89  C   UNL A   1      44.677  26.376  35.930  1.00  0.00     0.198 A 
ATOM     90  F   UNL A   1      42.385  26.643  35.470  1.00  0.00    -0.203 F 
ATOM     91  F   UNL A   1      47.525  28.413  34.995  1.00  0.00    -0.200 F 
ATOM     92  C   UNL A   1      45.985  26.820  35.814  1.00  0.00     0.200 A 
ATOM     93  F   UNL A   1      44.410  25.246  36.599  1.00  0.00    -0.200 F 
ATOM     94  F   UNL A   1      46.985  26.112  36.356  1.00  0.00    -0.200 F 
ENDBRANCH  61  84
ENDBRANCH  35  36
ENDBRANCH  27  30
ENDBRANCH  25  26
ENDBRANCH  24  25
ENDBRANCH   1  24
TORSDOF 14
ENDMDL
MODEL 3
REMARK VINA RESULT:     -12.3      5.645     11.410
REMARK SMILES Cc1nc(CNC(=O)[C@H]2CCO[C@H]2C)sc1C(=O)NCCCCNC(=O)c1ccc(-c2c3nc(c(-c4c(F)c(F)c(F)c(F)c4F)c4ccc([nH]4)c(-c4c(F)c(F)c(F)c(F)c4F)c4nc(c(-c5c(F)c(F)c(F)c(F)c5F)c5ccc2[nH]5)C=C4)C=C3)cc1
REMARK SMILES IDX 21 1 20 2 19 3 17 4 18 5 16 7 1 8 2 9 3 10 4 11 15 12 5 13
REMARK SMILES IDX 6 14 7 15 8 17 9 18 10 19 13 20 11 21 12 22 14 23 22 24
REMARK SMILES IDX 23 25 24 26 25 27 26 29 27 30 28 31 89 32 29 33 88 34 30 35
REMARK SMILES IDX 31 36 32 37 82 38 33 39 87 40 81 41 83 42 34 43 86 44 80 45
REMARK SMILES IDX 79 46 35 48 67 49 47 50 66 51 48 52 51 53 65 54 84 55 49 56
REMARK SMILES IDX 50 57 64 59 85 60 52 61 36 62 37 63 45 64 38 65 39 66 43 67
REMARK SMILES IDX 46 68 40 69 41 70 44 71 42 72 68 73 69 74 77 75 70 76 71 77
REMARK SMILES IDX 75 78 78 79 72 80 73 81 76 82 74 83 53 84 54 85 62 86 55 87
REMARK SMILES IDX 56 88 60 89 63 90 57 91 58 92 61 93 59 94
REMARK H PARENT 19 6 6 16 24 28 83 47 51 58
REMARK Flexibility Score: inf
ROOT
ATOM      1  C   UNL A   1      37.275  21.371  24.704  1.00  0.00     0.023 C 
ENDROOT
BRANCH   1   2
ATOM      2  C   UNL A   1      36.217  21.715  25.753  1.00  0.00     0.116 C 
BRANCH   2   3
ATOM      3  N   UNL A   1      35.152  20.747  25.729  1.00  0.00    -0.351 N 
ATOM      4  C   UNL A   1      33.810  20.822  25.455  1.00  0.00     0.263 C 
ATOM      5  O   UNL A   1      33.247  19.724  25.556  1.00  0.00    -0.268 OA
ATOM      6  H   UNL A   1      35.449  19.837  25.959  1.00  0.00     0.163 HD
BRANCH   4   7
ATOM      7  C   UNL A   1      33.094  22.031  25.054  1.00  0.00     0.115 A 
ATOM      8  C   UNL A   1      33.794  22.954  22.688  1.00  0.00     0.068 C 
ATOM      9  C   UNL A   1      33.042  22.901  23.966  1.00  0.00     0.061 A 
ATOM     10  N   UNL A   1      32.170  23.972  24.111  1.00  0.00    -0.244 NA
ATOM     11  C   UNL A   1      31.640  24.004  25.307  1.00  0.00     0.113 A 
ATOM     12  S   UNL A   1      32.018  22.668  26.285  1.00  0.00    -0.111 S 
BRANCH  11  13
ATOM     13  C   UNL A   1      30.785  25.128  25.809  1.00  0.00     0.183 C 
BRANCH  13  14
ATOM     14  N   UNL A   1      31.635  26.283  26.069  1.00  0.00    -0.349 N 
ATOM     15  C   UNL A   1      31.711  27.473  25.411  1.00  0.00     0.226 C 
ATOM     16  H   UNL A   1      32.245  26.189  26.836  1.00  0.00     0.163 HD
ATOM     17  O   UNL A   1      32.579  28.273  25.759  1.00  0.00    -0.275 OA
BRANCH  15  18
ATOM     18  C   UNL A   1      30.715  27.785  24.312  1.00  0.00     0.109 C 
ATOM     19  C   UNL A   1      30.630  29.258  23.962  1.00  0.00     0.044 C 
ATOM     20  C   UNL A   1      31.024  27.170  22.952  1.00  0.00     0.127 C 
ATOM     21  C   UNL A   1      29.942  29.219  22.614  1.00  0.00     0.161 C 
ATOM     22  O   UNL A   1      30.278  27.965  22.001  1.00  0.00    -0.378 OA
ATOM     23  C   UNL A   1      32.487  27.214  22.516  1.00  0.00     0.039 C 
ENDBRANCH  15  18
ENDBRANCH  13  14
ENDBRANCH  11  13
ENDBRANCH   4   7
ENDBRANCH   2   3
ENDBRANCH   1   2
BRANCH   1  24
ATOM     24  C   UNL A   1      38.088  20.111  24.999  1.00  0.00     0.023 C 
BRANCH  24  25
ATOM     25  C   UNL A   1      39.349  20.348  25.818  1.00  0.00     0.116 C 
BRANCH  25  26
ATOM     26  N   UNL A   1      40.243  19.199  25.866  1.00  0.00    -0.352 N 
ATOM     27  C   UNL A   1      41.594  19.180  26.126  1.00  0.00     0.251 C 
ATOM     28  H   UNL A   1      39.827  18.324  25.691  1.00  0.00     0.163 HD
ATOM     29  O   UNL A   1      42.230  18.140  26.062  1.00  0.00    -0.269 OA
BRANCH  27  30
ATOM     30  C   UNL A   1      42.275  20.455  26.427  1.00  0.00     0.039 A 
ATOM     31  C   UNL A   1      42.847  21.172  25.374  1.00  0.00     0.014 A 
ATOM     32  C   UNL A   1      42.279  20.969  27.726  1.00  0.00     0.014 A 
ATOM     33  C   UNL A   1      43.353  22.450  25.612  1.00  0.00     0.010 A 
ATOM     34  C   UNL A   1      42.715  22.269  27.946  1.00  0.00     0.010 A 
ATOM     35  C   UNL A   1      43.249  23.024  26.889  1.00  0.00    -0.014 A 
BRANCH  35  36
ATOM     36  C   UNL A   1      43.683  24.418  27.143  1.00  0.00     0.031 A 
ATOM     37  C   UNL A   1      42.697  25.428  27.652  1.00  0.00     0.074 A 
ATOM     38  C   UNL A   1      44.941  24.787  26.838  1.00  0.00     0.049 A 
ATOM     39  N   UNL A   1      42.859  26.709  27.862  1.00  0.00    -0.248 NA
ATOM     40  C   UNL A   1      41.338  24.939  27.935  1.00  0.00     0.031 C 
ATOM     41  C   UNL A   1      45.970  23.907  26.280  1.00  0.00     0.029 A 
ATOM     42  N   UNL A   1      45.567  26.003  26.943  1.00  0.00    -0.354 N 
ATOM     43  C   UNL A   1      41.623  27.181  28.279  1.00  0.00     0.074 A 
ATOM     44  C   UNL A   1      40.707  26.061  28.245  1.00  0.00     0.031 C 
ATOM     45  C   UNL A   1      47.104  24.607  26.112  1.00  0.00     0.029 A 
ATOM     46  C   UNL A   1      46.873  25.990  26.520  1.00  0.00     0.049 A 
ATOM     47  H   UNL A   1      45.120  26.810  27.288  1.00  0.00     0.167 HD
ATOM     48  C   UNL A   1      41.288  28.430  28.680  1.00  0.00     0.037 A 
ATOM     49  C   UNL A   1      47.779  26.983  26.467  1.00  0.00     0.037 A 
ATOM     50  C   UNL A   1      42.212  29.530  28.748  1.00  0.00     0.049 A 
ATOM     51  C   UNL A   1      47.387  28.357  26.936  1.00  0.00     0.074 A 
ATOM     52  C   UNL A   1      41.993  30.814  29.213  1.00  0.00     0.029 A 
ATOM     53  N   UNL A   1      43.537  29.472  28.339  1.00  0.00    -0.354 N 
ATOM     54  N   UNL A   1      46.235  28.776  27.400  1.00  0.00    -0.248 NA
ATOM     55  C   UNL A   1      48.424  29.398  26.877  1.00  0.00     0.031 C 
ATOM     56  C   UNL A   1      43.176  31.544  29.052  1.00  0.00     0.029 A 
ATOM     57  C   UNL A   1      44.142  30.704  28.523  1.00  0.00     0.049 A 
ATOM     58  H   UNL A   1      43.981  28.673  27.973  1.00  0.00     0.167 HD
ATOM     59  C   UNL A   1      46.412  30.116  27.709  1.00  0.00     0.074 A 
ATOM     60  C   UNL A   1      47.789  30.440  27.394  1.00  0.00     0.031 C 
ATOM     61  C   UNL A   1      45.515  31.002  28.207  1.00  0.00     0.037 A 
BRANCH  48  62
ATOM     62  C   UNL A   1      39.865  28.666  29.087  1.00  0.00     0.064 A 
ATOM     63  C   UNL A   1      39.437  28.468  30.409  1.00  0.00     0.173 A 
ATOM     64  C   UNL A   1      38.923  29.121  28.152  1.00  0.00     0.173 A 
ATOM     65  F   UNL A   1      40.297  28.021  31.336  1.00  0.00    -0.203 F 
ATOM     66  C   UNL A   1      38.112  28.688  30.773  1.00  0.00     0.198 A 
ATOM     67  C   UNL A   1      37.604  29.365  28.527  1.00  0.00     0.198 A 
ATOM     68  F   UNL A   1      39.281  29.328  26.876  1.00  0.00    -0.203 F 
ATOM     69  F   UNL A   1      37.715  28.443  32.030  1.00  0.00    -0.200 F 
ATOM     70  C   UNL A   1      37.199  29.142  29.834  1.00  0.00     0.200 A 
ATOM     71  F   UNL A   1      36.724  29.813  27.621  1.00  0.00    -0.200 F 
ATOM     72  F   UNL A   1      35.924  29.355  30.187  1.00  0.00    -0.200 F 
ENDBRANCH  48  62
BRANCH  49  73
ATOM     73  C   UNL A   1      49.155  26.707  25.981  1.00  0.00     0.064 A 
ATOM     74  C   UNL A   1      49.514  26.977  24.654  1.00  0.00     0.173 A 
ATOM     75  C   UNL A   1      50.135  26.170  26.828  1.00  0.00     0.173 A 
ATOM     76  F   UNL A   1      48.604  27.473  23.803  1.00  0.00    -0.203 F 
ATOM     77  C   UNL A   1      50.797  26.702  24.185  1.00  0.00     0.198 A 
ATOM     78  C   UNL A   1      51.425  25.918  26.364  1.00  0.00     0.198 A 
ATOM     79  F   UNL A   1      49.842  25.899  28.109  1.00  0.00    -0.203 F 
ATOM     80  F   UNL A   1      51.102  26.932  22.901  1.00  0.00    -0.200 F 
ATOM     81  C   UNL A   1      51.753  26.178  25.043  1.00  0.00     0.200 A 
ATOM     82  F   UNL A   1      52.350  25.422  27.198  1.00  0.00    -0.200 F 
ATOM     83  F   UNL A   1      52.988  25.916  24.592  1.00  0.00    -0.200 F 
ENDBRANCH  49  73
BRANCH  61  84
ATOM     84  C   UNL A   1      46.000  32.399  28.461  1.00  0.00     0.064 A 
ATOM     85  C   UNL A   1      45.899  33.398  27.483  1.00  0.00     0.173 A 
ATOM     86  C   UNL A   1      46.532  32.749  29.710  1.00  0.00     0.173 A 
ATOM     87  F   UNL A   1      45.411  33.105  26.267  1.00  0.00    -0.203 F 
ATOM     88  C   UNL A   1      46.331  34.695  27.740  1.00  0.00     0.198 A 
ATOM     89  C   UNL A   1      46.940  34.054  29.973  1.00  0.00     0.198 A 
ATOM     90  F   UNL A   1      46.646  31.829  30.679  1.00  0.00    -0.203 F 
ATOM     91  F   UNL A   1      46.262  35.626  26.778  1.00  0.00    -0.200 F 
ATOM     92  C   UNL A   1      46.845  35.024  28.986  1.00  0.00     0.200 A 
ATOM     93  F   UNL A   1      47.426  34.372  31.180  1.00  0.00    -0.200 F 
ATOM     94  F   UNL A   1      47.254  36.275  29.234  1.00  0.00    -0.200 F 
ENDBRANCH  61  84
ENDBRANCH  35  36
ENDBRANCH  27  30
ENDBRANCH  25  26
ENDBRANCH  24  25
ENDBRANCH   1  24
TORSDOF 14
ENDMDL
