MODEL 1
REMARK VINA RESULT:     -12.8      0.000      0.000
REMARK SMILES O=C(Cc1ccc(F)cc1F)Nc1sccc1C(=O)NCCCCNC(=O)c1ccc(-c2c3nc(c(-c4c(F)c(F)c(F)c(F)c4F)c4ccc([nH]4)c(-c4c(F)c(F)c(F)c(F)c4F)c4nc(c(-c5c(F)c(F)c(F)c(F)c5F)c5ccc2[nH]5)C=C4)C=C3)cc1
REMARK SMILES IDX 22 1 21 2 20 3 18 4 19 5 17 7 13 8 14 9 15 10 16 11 12 12
REMARK SMILES IDX 1 13 2 14 3 16 4 17 5 18 10 19 6 20 9 21 11 22 7 23 8 24
REMARK SMILES IDX 23 25 24 26 25 27 26 28 27 30 28 31 29 32 90 33 30 34 89 35
REMARK SMILES IDX 31 36 32 37 33 38 83 39 34 40 88 41 82 42 84 43 35 44 87 45
REMARK SMILES IDX 81 46 80 47 36 49 68 50 48 51 67 52 49 53 52 54 66 55 85 56
REMARK SMILES IDX 50 57 51 58 65 60 86 61 53 62 37 63 38 64 46 65 39 66 40 67
REMARK SMILES IDX 44 68 47 69 41 70 42 71 45 72 43 73 69 74 70 75 78 76 71 77
REMARK SMILES IDX 72 78 76 79 79 80 73 81 74 82 77 83 75 84 54 85 55 86 63 87
REMARK SMILES IDX 56 88 57 89 61 90 64 91 58 92 59 93 62 94 60 95
REMARK H PARENT 20 6 12 15 25 29 84 48 52 59
REMARK Flexibility Score: inf
ROOT
ATOM      1  C   UNL A   1      32.234  30.058  27.210  1.00  0.00     0.023 C 
ENDROOT
BRANCH   1   2
ATOM      2  C   UNL A   1      33.468  29.452  26.560  1.00  0.00     0.116 C 
BRANCH   2   3
ATOM      3  N   UNL A   1      33.610  29.616  25.141  1.00  0.00    -0.352 N 
ATOM      4  C   UNL A   1      33.245  28.748  24.131  1.00  0.00     0.254 C 
ATOM      5  O   UNL A   1      33.374  29.157  22.975  1.00  0.00    -0.269 OA
ATOM      6  H   UNL A   1      34.022  30.462  24.849  1.00  0.00     0.163 HD
BRANCH   4   7
ATOM      7  C   UNL A   1      32.925  27.338  24.396  1.00  0.00     0.074 A 
ATOM      8  C   UNL A   1      31.720  26.648  24.399  1.00  0.00     0.108 A 
ATOM      9  S   UNL A   1      31.864  25.058  25.017  1.00  0.00    -0.126 S 
ATOM     10  C   UNL A   1      33.561  25.156  25.066  1.00  0.00     0.068 A 
ATOM     11  C   UNL A   1      33.998  26.411  24.714  1.00  0.00     0.028 A 
BRANCH   8  12
ATOM     12  N   UNL A   1      30.406  26.915  24.068  1.00  0.00    -0.317 N 
ATOM     13  O   UNL A   1      30.714  27.451  21.853  1.00  0.00    -0.274 OA
ATOM     14  C   UNL A   1      30.018  27.462  22.867  1.00  0.00     0.229 C 
ATOM     15  H   UNL A   1      29.707  26.702  24.729  1.00  0.00     0.170 HD
BRANCH  14  16
ATOM     16  C   UNL A   1      28.765  28.317  22.937  1.00  0.00     0.139 C 
BRANCH  16  17
ATOM     17  C   UNL A   1      28.830  29.804  22.751  1.00  0.00    -0.003 A 
ATOM     18  C   UNL A   1      28.033  30.455  21.796  1.00  0.00     0.010 A 
ATOM     19  C   UNL A   1      29.520  30.580  23.692  1.00  0.00     0.129 A 
ATOM     20  C   UNL A   1      27.928  31.847  21.804  1.00  0.00     0.040 A 
ATOM     21  C   UNL A   1      29.409  31.963  23.714  1.00  0.00     0.078 A 
ATOM     22  F   UNL A   1      30.246  29.978  24.645  1.00  0.00    -0.207 F 
ATOM     23  C   UNL A   1      28.606  32.585  22.770  1.00  0.00     0.126 A 
ATOM     24  F   UNL A   1      28.458  33.915  22.802  1.00  0.00    -0.207 F 
ENDBRANCH  16  17
ENDBRANCH  14  16
ENDBRANCH   8  12
ENDBRANCH   4   7
ENDBRANCH   2   3
ENDBRANCH   1   2
BRANCH   1  25
ATOM     25  C   UNL A   1      31.963  31.535  26.908  1.00  0.00     0.023 C 
BRANCH  25  26
ATOM     26  C   UNL A   1      33.025  32.560  27.316  1.00  0.00     0.116 C 
BRANCH  26  27
ATOM     27  N   UNL A   1      32.509  33.867  27.701  1.00  0.00    -0.352 N 
ATOM     28  C   UNL A   1      33.039  34.810  28.560  1.00  0.00     0.251 C 
ATOM     29  H   UNL A   1      31.652  34.116  27.285  1.00  0.00     0.163 HD
ATOM     30  O   UNL A   1      32.476  35.883  28.708  1.00  0.00    -0.269 OA
BRANCH  28  31
ATOM     31  C   UNL A   1      34.232  34.480  29.377  1.00  0.00     0.039 A 
ATOM     32  C   UNL A   1      34.024  33.952  30.655  1.00  0.00     0.014 A 
ATOM     33  C   UNL A   1      35.528  34.599  28.873  1.00  0.00     0.014 A 
ATOM     34  C   UNL A   1      35.099  33.414  31.368  1.00  0.00     0.010 A 
ATOM     35  C   UNL A   1      36.590  34.004  29.555  1.00  0.00     0.010 A 
ATOM     36  C   UNL A   1      36.377  33.367  30.790  1.00  0.00    -0.014 A 
BRANCH  36  37
ATOM     37  C   UNL A   1      37.471  32.574  31.412  1.00  0.00     0.031 A 
ATOM     38  C   UNL A   1      38.000  32.923  32.771  1.00  0.00     0.074 A 
ATOM     39  C   UNL A   1      38.052  31.586  30.701  1.00  0.00     0.049 A 
ATOM     40  N   UNL A   1      39.006  32.399  33.424  1.00  0.00    -0.248 NA
ATOM     41  C   UNL A   1      37.327  34.021  33.482  1.00  0.00     0.031 C 
ATOM     42  C   UNL A   1      37.672  31.184  29.344  1.00  0.00     0.029 A 
ATOM     43  N   UNL A   1      39.096  30.749  31.011  1.00  0.00    -0.354 N 
ATOM     44  C   UNL A   1      39.100  33.113  34.611  1.00  0.00     0.074 A 
ATOM     45  C   UNL A   1      38.069  34.129  34.575  1.00  0.00     0.031 C 
ATOM     46  C   UNL A   1      38.456  30.170  28.947  1.00  0.00     0.029 A 
ATOM     47  C   UNL A   1      39.419  29.872  30.004  1.00  0.00     0.049 A 
ATOM     48  H   UNL A   1      39.568  30.774  31.874  1.00  0.00     0.167 HD
ATOM     49  C   UNL A   1      39.958  32.925  35.642  1.00  0.00     0.037 A 
ATOM     50  C   UNL A   1      40.385  28.936  29.930  1.00  0.00     0.037 A 
ATOM     51  C   UNL A   1      40.959  31.893  35.694  1.00  0.00     0.049 A 
ATOM     52  C   UNL A   1      41.309  28.733  31.100  1.00  0.00     0.074 A 
ATOM     53  C   UNL A   1      41.824  31.584  36.730  1.00  0.00     0.029 A 
ATOM     54  N   UNL A   1      41.233  31.003  34.666  1.00  0.00    -0.354 N 
ATOM     55  N   UNL A   1      41.342  29.372  32.243  1.00  0.00    -0.248 NA
ATOM     56  C   UNL A   1      42.325  27.678  30.972  1.00  0.00     0.031 C 
ATOM     57  C   UNL A   1      42.644  30.529  36.318  1.00  0.00     0.029 A 
ATOM     58  C   UNL A   1      42.264  30.155  35.040  1.00  0.00     0.049 A 
ATOM     59  H   UNL A   1      40.765  30.977  33.801  1.00  0.00     0.167 HD
ATOM     60  C   UNL A   1      42.365  28.788  32.976  1.00  0.00     0.074 A 
ATOM     61  C   UNL A   1      42.921  27.732  32.155  1.00  0.00     0.031 C 
ATOM     62  C   UNL A   1      42.804  29.104  34.217  1.00  0.00     0.037 A 
BRANCH  49  63
ATOM     63  C   UNL A   1      39.847  33.847  36.818  1.00  0.00     0.064 A 
ATOM     64  C   UNL A   1      38.999  33.533  37.891  1.00  0.00     0.173 A 
ATOM     65  C   UNL A   1      40.522  35.075  36.850  1.00  0.00     0.173 A 
ATOM     66  F   UNL A   1      38.323  32.374  37.903  1.00  0.00    -0.203 F 
ATOM     67  C   UNL A   1      38.824  34.421  38.948  1.00  0.00     0.198 A 
ATOM     68  C   UNL A   1      40.364  35.951  37.922  1.00  0.00     0.198 A 
ATOM     69  F   UNL A   1      41.350  35.416  35.851  1.00  0.00    -0.203 F 
ATOM     70  F   UNL A   1      37.987  34.114  39.950  1.00  0.00    -0.200 F 
ATOM     71  C   UNL A   1      39.509  35.628  38.964  1.00  0.00     0.200 A 
ATOM     72  F   UNL A   1      41.041  37.107  37.944  1.00  0.00    -0.200 F 
ATOM     73  F   UNL A   1      39.346  36.478  39.987  1.00  0.00    -0.200 F 
ENDBRANCH  49  63
BRANCH  50  74
ATOM     74  C   UNL A   1      40.511  28.101  28.709  1.00  0.00     0.064 A 
ATOM     75  C   UNL A   1      39.854  26.866  28.598  1.00  0.00     0.173 A 
ATOM     76  C   UNL A   1      41.308  28.517  27.634  1.00  0.00     0.173 A 
ATOM     77  F   UNL A   1      39.085  26.422  29.601  1.00  0.00    -0.203 F 
ATOM     78  C   UNL A   1      40.003  26.073  27.462  1.00  0.00     0.198 A 
ATOM     79  C   UNL A   1      41.437  27.734  26.489  1.00  0.00     0.198 A 
ATOM     80  F   UNL A   1      41.937  29.700  27.687  1.00  0.00    -0.203 F 
ATOM     81  F   UNL A   1      39.389  24.884  27.390  1.00  0.00    -0.200 F 
ATOM     82  C   UNL A   1      40.791  26.510  26.407  1.00  0.00     0.200 A 
ATOM     83  F   UNL A   1      42.181  28.169  25.463  1.00  0.00    -0.200 F 
ATOM     84  F   UNL A   1      40.924  25.752  25.309  1.00  0.00    -0.200 F 
ENDBRANCH  50  74
BRANCH  62  85
ATOM     85  C   UNL A   1      43.928  28.290  34.784  1.00  0.00     0.064 A 
ATOM     86  C   UNL A   1      45.261  28.666  34.561  1.00  0.00     0.173 A 
ATOM     87  C   UNL A   1      43.687  27.098  35.483  1.00  0.00     0.173 A 
ATOM     88  F   UNL A   1      45.542  29.795  33.893  1.00  0.00    -0.203 F 
ATOM     89  C   UNL A   1      46.313  27.869  35.004  1.00  0.00     0.198 A 
ATOM     90  C   UNL A   1      44.742  26.316  35.945  1.00  0.00     0.198 A 
ATOM     91  F   UNL A   1      42.429  26.706  35.734  1.00  0.00    -0.203 F 
ATOM     92  F   UNL A   1      47.579  28.233  34.754  1.00  0.00    -0.200 F 
ATOM     93  C   UNL A   1      46.052  26.696  35.697  1.00  0.00     0.200 A 
ATOM     94  F   UNL A   1      44.491  25.194  36.634  1.00  0.00    -0.200 F 
ATOM     95  F   UNL A   1      47.066  25.934  36.130  1.00  0.00    -0.200 F 
ENDBRANCH  62  85
ENDBRANCH  36  37
ENDBRANCH  28  31
ENDBRANCH  26  27
ENDBRANCH  25  26
ENDBRANCH   1  25
TORSDOF 14
ENDMDL
MODEL 2
REMARK VINA RESULT:     -12.8      1.324      7.386
REMARK SMILES O=C(Cc1ccc(F)cc1F)Nc1sccc1C(=O)NCCCCNC(=O)c1ccc(-c2c3nc(c(-c4c(F)c(F)c(F)c(F)c4F)c4ccc([nH]4)c(-c4c(F)c(F)c(F)c(F)c4F)c4nc(c(-c5c(F)c(F)c(F)c(F)c5F)c5ccc2[nH]5)C=C4)C=C3)cc1
REMARK SMILES IDX 22 1 21 2 20 3 18 4 19 5 17 7 13 8 14 9 15 10 16 11 12 12
REMARK SMILES IDX 1 13 2 14 3 16 4 17 5 18 10 19 6 20 9 21 11 22 7 23 8 24
REMARK SMILES IDX 23 25 24 26 25 27 26 28 27 30 28 31 29 32 90 33 30 34 89 35
REMARK SMILES IDX 31 36 32 37 33 38 83 39 34 40 88 41 82 42 84 43 35 44 87 45
REMARK SMILES IDX 81 46 80 47 36 49 68 50 48 51 67 52 49 53 52 54 66 55 85 56
REMARK SMILES IDX 50 57 51 58 65 60 86 61 53 62 37 63 38 64 46 65 39 66 40 67
REMARK SMILES IDX 44 68 47 69 41 70 42 71 45 72 43 73 69 74 70 75 78 76 71 77
REMARK SMILES IDX 72 78 76 79 79 80 73 81 74 82 77 83 75 84 54 85 55 86 63 87
REMARK SMILES IDX 56 88 57 89 61 90 64 91 58 92 59 93 62 94 60 95
REMARK H PARENT 20 6 12 15 25 29 84 48 52 59
REMARK Flexibility Score: inf
ROOT
ATOM      1  C   UNL A   1      31.593  30.198  25.988  1.00  0.00     0.023 C 
ENDROOT
BRANCH   1   2
ATOM      2  C   UNL A   1      33.002  29.660  25.791  1.00  0.00     0.116 C 
BRANCH   2   3
ATOM      3  N   UNL A   1      33.384  29.295  24.455  1.00  0.00    -0.352 N 
ATOM      4  C   UNL A   1      33.338  28.052  23.855  1.00  0.00     0.254 C 
ATOM      5  O   UNL A   1      33.623  28.005  22.656  1.00  0.00    -0.269 OA
ATOM      6  H   UNL A   1      33.721  30.029  23.892  1.00  0.00     0.163 HD
BRANCH   4   7
ATOM      7  C   UNL A   1      33.173  26.817  24.635  1.00  0.00     0.074 A 
ATOM      8  C   UNL A   1      32.045  26.191  25.149  1.00  0.00     0.108 A 
ATOM      9  S   UNL A   1      32.423  24.895  26.202  1.00  0.00    -0.126 S 
ATOM     10  C   UNL A   1      34.077  24.970  25.813  1.00  0.00     0.068 A 
ATOM     11  C   UNL A   1      34.345  26.027  24.976  1.00  0.00     0.028 A 
BRANCH   8  12
ATOM     12  N   UNL A   1      30.676  26.360  25.070  1.00  0.00    -0.317 N 
ATOM     13  O   UNL A   1      30.287  25.105  23.181  1.00  0.00    -0.274 OA
ATOM     14  C   UNL A   1      29.919  25.947  23.997  1.00  0.00     0.229 C 
ATOM     15  H   UNL A   1      30.217  26.799  25.822  1.00  0.00     0.170 HD
BRANCH  14  16
ATOM     16  C   UNL A   1      28.684  26.792  23.734  1.00  0.00     0.139 C 
BRANCH  16  17
ATOM     17  C   UNL A   1      28.800  28.187  23.195  1.00  0.00    -0.003 A 
ATOM     18  C   UNL A   1      29.998  28.654  22.630  1.00  0.00     0.010 A 
ATOM     19  C   UNL A   1      27.640  28.958  23.044  1.00  0.00     0.129 A 
ATOM     20  C   UNL A   1      30.014  29.857  21.922  1.00  0.00     0.040 A 
ATOM     21  C   UNL A   1      27.647  30.148  22.330  1.00  0.00     0.078 A 
ATOM     22  F   UNL A   1      26.475  28.507  23.531  1.00  0.00    -0.207 F 
ATOM     23  C   UNL A   1      28.838  30.584  21.769  1.00  0.00     0.126 A 
ATOM     24  F   UNL A   1      28.853  31.709  21.045  1.00  0.00    -0.207 F 
ENDBRANCH  16  17
ENDBRANCH  14  16
ENDBRANCH   8  12
ENDBRANCH   4   7
ENDBRANCH   2   3
ENDBRANCH   1   2
BRANCH   1  25
ATOM     25  C   UNL A   1      31.459  31.450  26.859  1.00  0.00     0.023 C 
BRANCH  25  26
ATOM     26  C   UNL A   1      32.287  32.682  26.482  1.00  0.00     0.116 C 
BRANCH  26  27
ATOM     27  N   UNL A   1      32.207  33.793  27.420  1.00  0.00    -0.352 N 
ATOM     28  C   UNL A   1      33.129  34.234  28.350  1.00  0.00     0.251 C 
ATOM     29  H   UNL A   1      31.369  34.308  27.386  1.00  0.00     0.163 HD
ATOM     30  O   UNL A   1      32.895  35.232  29.012  1.00  0.00    -0.269 OA
BRANCH  28  31
ATOM     31  C   UNL A   1      34.353  33.438  28.615  1.00  0.00     0.039 A 
ATOM     32  C   UNL A   1      35.585  34.097  28.562  1.00  0.00     0.014 A 
ATOM     33  C   UNL A   1      34.293  32.097  28.993  1.00  0.00     0.014 A 
ATOM     34  C   UNL A   1      36.737  33.454  29.026  1.00  0.00     0.010 A 
ATOM     35  C   UNL A   1      35.429  31.477  29.516  1.00  0.00     0.010 A 
ATOM     36  C   UNL A   1      36.652  32.166  29.578  1.00  0.00    -0.014 A 
BRANCH  36  37
ATOM     37  C   UNL A   1      37.802  31.569  30.308  1.00  0.00     0.031 A 
ATOM     38  C   UNL A   1      38.682  30.544  29.656  1.00  0.00     0.074 A 
ATOM     39  C   UNL A   1      37.995  31.891  31.604  1.00  0.00     0.049 A 
ATOM     40  N   UNL A   1      39.668  29.855  30.173  1.00  0.00    -0.248 NA
ATOM     41  C   UNL A   1      38.404  30.233  28.247  1.00  0.00     0.031 C 
ATOM     42  C   UNL A   1      37.174  32.828  32.374  1.00  0.00     0.029 A 
ATOM     43  N   UNL A   1      38.931  31.453  32.509  1.00  0.00    -0.354 N 
ATOM     44  C   UNL A   1      40.116  29.018  29.161  1.00  0.00     0.074 A 
ATOM     45  C   UNL A   1      39.273  29.260  28.009  1.00  0.00     0.031 C 
ATOM     46  C   UNL A   1      37.652  32.910  33.625  1.00  0.00     0.029 A 
ATOM     47  C   UNL A   1      38.789  32.005  33.760  1.00  0.00     0.049 A 
ATOM     48  H   UNL A   1      39.637  30.807  32.284  1.00  0.00     0.167 HD
ATOM     49  C   UNL A   1      41.146  28.140  29.188  1.00  0.00     0.037 A 
ATOM     50  C   UNL A   1      39.488  31.801  34.894  1.00  0.00     0.037 A 
ATOM     51  C   UNL A   1      42.007  27.924  30.321  1.00  0.00     0.049 A 
ATOM     52  C   UNL A   1      40.642  30.838  34.888  1.00  0.00     0.074 A 
ATOM     53  C   UNL A   1      43.120  27.106  30.413  1.00  0.00     0.029 A 
ATOM     54  N   UNL A   1      41.850  28.527  31.560  1.00  0.00    -0.354 N 
ATOM     55  N   UNL A   1      41.095  30.102  33.904  1.00  0.00    -0.248 NA
ATOM     56  C   UNL A   1      41.385  30.680  36.148  1.00  0.00     0.031 C 
ATOM     57  C   UNL A   1      43.618  27.187  31.717  1.00  0.00     0.029 A 
ATOM     58  C   UNL A   1      42.839  28.086  32.426  1.00  0.00     0.049 A 
ATOM     59  H   UNL A   1      41.143  29.172  31.790  1.00  0.00     0.167 HD
ATOM     60  C   UNL A   1      42.183  29.409  34.416  1.00  0.00     0.074 A 
ATOM     61  C   UNL A   1      42.333  29.821  35.796  1.00  0.00     0.031 C 
ATOM     62  C   UNL A   1      42.982  28.509  33.795  1.00  0.00     0.037 A 
BRANCH  49  63
ATOM     63  C   UNL A   1      41.420  27.347  27.945  1.00  0.00     0.064 A 
ATOM     64  C   UNL A   1      40.858  26.073  27.776  1.00  0.00     0.173 A 
ATOM     65  C   UNL A   1      42.295  27.818  26.957  1.00  0.00     0.173 A 
ATOM     66  F   UNL A   1      40.021  25.574  28.698  1.00  0.00    -0.203 F 
ATOM     67  C   UNL A   1      41.172  25.295  26.666  1.00  0.00     0.198 A 
ATOM     68  C   UNL A   1      42.588  27.046  25.835  1.00  0.00     0.198 A 
ATOM     69  F   UNL A   1      42.850  29.034  27.070  1.00  0.00    -0.203 F 
ATOM     70  F   UNL A   1      40.647  24.068  26.537  1.00  0.00    -0.200 F 
ATOM     71  C   UNL A   1      42.035  25.783  25.695  1.00  0.00     0.200 A 
ATOM     72  F   UNL A   1      43.406  27.528  24.889  1.00  0.00    -0.200 F 
ATOM     73  F   UNL A   1      42.330  25.036  24.623  1.00  0.00    -0.200 F 
ENDBRANCH  49  63
BRANCH  50  74
ATOM     74  C   UNL A   1      39.127  32.549  36.126  1.00  0.00     0.064 A 
ATOM     75  C   UNL A   1      39.619  33.840  36.367  1.00  0.00     0.173 A 
ATOM     76  C   UNL A   1      38.295  31.973  37.095  1.00  0.00     0.173 A 
ATOM     77  F   UNL A   1      40.423  34.430  35.472  1.00  0.00    -0.203 F 
ATOM     78  C   UNL A   1      39.303  34.521  37.540  1.00  0.00     0.198 A 
ATOM     79  C   UNL A   1      37.960  32.666  38.258  1.00  0.00     0.198 A 
ATOM     80  F   UNL A   1      37.785  30.750  36.898  1.00  0.00    -0.203 F 
ATOM     81  F   UNL A   1      39.807  35.743  37.762  1.00  0.00    -0.200 F 
ATOM     82  C   UNL A   1      38.470  33.935  38.482  1.00  0.00     0.200 A 
ATOM     83  F   UNL A   1      37.137  32.104  39.154  1.00  0.00    -0.200 F 
ATOM     84  F   UNL A   1      38.155  34.596  39.605  1.00  0.00    -0.200 F 
ENDBRANCH  50  74
BRANCH  62  85
ATOM     85  C   UNL A   1      44.108  27.917  34.588  1.00  0.00     0.064 A 
ATOM     86  C   UNL A   1      45.372  28.526  34.592  1.00  0.00     0.173 A 
ATOM     87  C   UNL A   1      43.957  26.707  35.281  1.00  0.00     0.173 A 
ATOM     88  F   UNL A   1      45.568  29.681  33.939  1.00  0.00    -0.203 F 
ATOM     89  C   UNL A   1      46.448  27.937  35.249  1.00  0.00     0.198 A 
ATOM     90  C   UNL A   1      45.030  26.133  35.957  1.00  0.00     0.198 A 
ATOM     91  F   UNL A   1      42.764  26.095  35.318  1.00  0.00    -0.203 F 
ATOM     92  F   UNL A   1      47.654  28.522  35.216  1.00  0.00    -0.200 F 
ATOM     93  C   UNL A   1      46.276  26.742  35.933  1.00  0.00     0.200 A 
ATOM     94  F   UNL A   1      44.858  24.990  36.636  1.00  0.00    -0.200 F 
ATOM     95  F   UNL A   1      47.311  26.180  36.571  1.00  0.00    -0.200 F 
ENDBRANCH  62  85
ENDBRANCH  36  37
ENDBRANCH  28  31
ENDBRANCH  26  27
ENDBRANCH  25  26
ENDBRANCH   1  25
TORSDOF 14
ENDMDL
MODEL 3
REMARK VINA RESULT:     -12.8      0.945      7.338
REMARK SMILES O=C(Cc1ccc(F)cc1F)Nc1sccc1C(=O)NCCCCNC(=O)c1ccc(-c2c3nc(c(-c4c(F)c(F)c(F)c(F)c4F)c4ccc([nH]4)c(-c4c(F)c(F)c(F)c(F)c4F)c4nc(c(-c5c(F)c(F)c(F)c(F)c5F)c5ccc2[nH]5)C=C4)C=C3)cc1
REMARK SMILES IDX 22 1 21 2 20 3 18 4 19 5 17 7 13 8 14 9 15 10 16 11 12 12
REMARK SMILES IDX 1 13 2 14 3 16 4 17 5 18 10 19 6 20 9 21 11 22 7 23 8 24
REMARK SMILES IDX 23 25 24 26 25 27 26 28 27 30 28 31 29 32 90 33 30 34 89 35
REMARK SMILES IDX 31 36 32 37 33 38 83 39 34 40 88 41 82 42 84 43 35 44 87 45
REMARK SMILES IDX 81 46 80 47 36 49 68 50 48 51 67 52 49 53 52 54 66 55 85 56
REMARK SMILES IDX 50 57 51 58 65 60 86 61 53 62 37 63 38 64 46 65 39 66 40 67
REMARK SMILES IDX 44 68 47 69 41 70 42 71 45 72 43 73 69 74 70 75 78 76 71 77
REMARK SMILES IDX 72 78 76 79 79 80 73 81 74 82 77 83 75 84 54 85 55 86 63 87
REMARK SMILES IDX 56 88 57 89 61 90 64 91 58 92 59 93 62 94 60 95
REMARK H PARENT 20 6 12 15 25 29 84 48 52 59
REMARK Flexibility Score: inf
ROOT
ATOM      1  C   UNL A   1      32.265  29.788  26.990  1.00  0.00     0.023 C 
ENDROOT
BRANCH   1   2
ATOM      2  C   UNL A   1      33.577  29.234  26.455  1.00  0.00     0.116 C 
BRANCH   2   3
ATOM      3  N   UNL A   1      33.676  29.042  25.035  1.00  0.00    -0.352 N 
ATOM      4  C   UNL A   1      33.351  27.924  24.292  1.00  0.00     0.254 C 
ATOM      5  O   UNL A   1      33.425  28.034  23.066  1.00  0.00    -0.269 OA
ATOM      6  H   UNL A   1      34.021  29.810  24.523  1.00  0.00     0.163 HD
BRANCH   4   7
ATOM      7  C   UNL A   1      33.137  26.610  24.916  1.00  0.00     0.074 A 
ATOM      8  C   UNL A   1      31.982  25.957  25.322  1.00  0.00     0.108 A 
ATOM      9  S   UNL A   1      32.301  24.537  26.224  1.00  0.00    -0.126 S 
ATOM     10  C   UNL A   1      33.967  24.616  25.889  1.00  0.00     0.068 A 
ATOM     11  C   UNL A   1      34.281  25.757  25.191  1.00  0.00     0.028 A 
BRANCH   8  12
ATOM     12  N   UNL A   1      30.620  26.167  25.228  1.00  0.00    -0.317 N 
ATOM     13  O   UNL A   1      30.215  24.937  23.327  1.00  0.00    -0.274 OA
ATOM     14  C   UNL A   1      29.863  25.785  24.145  1.00  0.00     0.229 C 
ATOM     15  H   UNL A   1      30.165  26.616  25.978  1.00  0.00     0.170 HD
BRANCH  14  16
ATOM     16  C   UNL A   1      28.658  26.668  23.873  1.00  0.00     0.139 C 
BRANCH  16  17
ATOM     17  C   UNL A   1      28.817  28.036  23.278  1.00  0.00    -0.003 A 
ATOM     18  C   UNL A   1      30.039  28.452  22.724  1.00  0.00     0.010 A 
ATOM     19  C   UNL A   1      27.679  28.824  23.064  1.00  0.00     0.129 A 
ATOM     20  C   UNL A   1      30.099  29.623  21.966  1.00  0.00     0.040 A 
ATOM     21  C   UNL A   1      27.730  29.981  22.300  1.00  0.00     0.078 A 
ATOM     22  F   UNL A   1      26.492  28.420  23.541  1.00  0.00    -0.207 F 
ATOM     23  C   UNL A   1      28.943  30.368  21.751  1.00  0.00     0.126 A 
ATOM     24  F   UNL A   1      29.001  31.460  20.981  1.00  0.00    -0.207 F 
ENDBRANCH  16  17
ENDBRANCH  14  16
ENDBRANCH   8  12
ENDBRANCH   4   7
ENDBRANCH   2   3
ENDBRANCH   1   2
BRANCH   1  25
ATOM     25  C   UNL A   1      32.020  31.284  26.775  1.00  0.00     0.023 C 
BRANCH  25  26
ATOM     26  C   UNL A   1      33.010  32.273  27.396  1.00  0.00     0.116 C 
BRANCH  26  27
ATOM     27  N   UNL A   1      32.475  33.601  27.662  1.00  0.00    -0.352 N 
ATOM     28  C   UNL A   1      33.000  34.633  28.415  1.00  0.00     0.251 C 
ATOM     29  H   UNL A   1      31.605  33.792  27.241  1.00  0.00     0.163 HD
ATOM     30  O   UNL A   1      32.418  35.704  28.470  1.00  0.00    -0.269 OA
BRANCH  28  31
ATOM     31  C   UNL A   1      34.215  34.406  29.237  1.00  0.00     0.039 A 
ATOM     32  C   UNL A   1      34.045  33.885  30.524  1.00  0.00     0.014 A 
ATOM     33  C   UNL A   1      35.498  34.613  28.731  1.00  0.00     0.014 A 
ATOM     34  C   UNL A   1      35.156  33.440  31.246  1.00  0.00     0.010 A 
ATOM     35  C   UNL A   1      36.601  34.110  29.422  1.00  0.00     0.010 A 
ATOM     36  C   UNL A   1      36.435  33.479  30.667  1.00  0.00    -0.014 A 
BRANCH  36  37
ATOM     37  C   UNL A   1      37.584  32.780  31.301  1.00  0.00     0.031 A 
ATOM     38  C   UNL A   1      38.248  31.617  30.625  1.00  0.00     0.074 A 
ATOM     39  C   UNL A   1      37.971  33.143  32.542  1.00  0.00     0.049 A 
ATOM     40  N   UNL A   1      39.199  30.836  31.072  1.00  0.00    -0.248 NA
ATOM     41  C   UNL A   1      37.765  31.269  29.280  1.00  0.00     0.031 C 
ATOM     42  C   UNL A   1      37.369  34.218  33.334  1.00  0.00     0.029 A 
ATOM     43  N   UNL A   1      38.950  32.638  33.362  1.00  0.00    -0.354 N 
ATOM     44  C   UNL A   1      39.416  29.895  30.075  1.00  0.00     0.074 A 
ATOM     45  C   UNL A   1      38.475  30.182  29.013  1.00  0.00     0.031 C 
ATOM     46  C   UNL A   1      38.001  34.305  34.514  1.00  0.00     0.029 A 
ATOM     47  C   UNL A   1      39.028  33.269  34.581  1.00  0.00     0.049 A 
ATOM     48  H   UNL A   1      39.540  31.895  33.103  1.00  0.00     0.167 HD
ATOM     49  C   UNL A   1      40.328  28.894  30.045  1.00  0.00     0.037 A 
ATOM     50  C   UNL A   1      39.830  33.038  35.639  1.00  0.00     0.037 A 
ATOM     51  C   UNL A   1      41.286  28.631  31.085  1.00  0.00     0.049 A 
ATOM     52  C   UNL A   1      40.849  31.936  35.568  1.00  0.00     0.074 A 
ATOM     53  C   UNL A   1      42.295  27.683  31.105  1.00  0.00     0.029 A 
ATOM     54  N   UNL A   1      41.356  29.314  32.290  1.00  0.00    -0.354 N 
ATOM     55  N   UNL A   1      41.087  31.096  34.591  1.00  0.00    -0.248 NA
ATOM     56  C   UNL A   1      41.715  31.751  36.743  1.00  0.00     0.031 C 
ATOM     57  C   UNL A   1      42.954  27.769  32.336  1.00  0.00     0.029 A 
ATOM     58  C   UNL A   1      42.381  28.797  33.066  1.00  0.00     0.049 A 
ATOM     59  H   UNL A   1      40.765  30.056  32.554  1.00  0.00     0.167 HD
ATOM     60  C   UNL A   1      42.137  30.297  35.023  1.00  0.00     0.074 A 
ATOM     61  C   UNL A   1      42.502  30.760  36.345  1.00  0.00     0.031 C 
ATOM     62  C   UNL A   1      42.739  29.270  34.378  1.00  0.00     0.037 A 
BRANCH  49  63
ATOM     63  C   UNL A   1      40.350  28.009  28.836  1.00  0.00     0.064 A 
ATOM     64  C   UNL A   1      39.672  26.780  28.841  1.00  0.00     0.173 A 
ATOM     65  C   UNL A   1      41.103  28.340  27.701  1.00  0.00     0.173 A 
ATOM     66  F   UNL A   1      38.945  26.413  29.907  1.00  0.00    -0.203 F 
ATOM     67  C   UNL A   1      39.755  25.913  27.756  1.00  0.00     0.198 A 
ATOM     68  C   UNL A   1      41.165  27.480  26.608  1.00  0.00     0.198 A 
ATOM     69  F   UNL A   1      41.762  29.507  27.646  1.00  0.00    -0.203 F 
ATOM     70  F   UNL A   1      39.122  24.732  27.793  1.00  0.00    -0.200 F 
ATOM     71  C   UNL A   1      40.499  26.265  26.639  1.00  0.00     0.200 A 
ATOM     72  F   UNL A   1      41.868  27.831  25.522  1.00  0.00    -0.200 F 
ATOM     73  F   UNL A   1      40.573  25.432  25.592  1.00  0.00    -0.200 F 
ENDBRANCH  49  63
BRANCH  50  74
ATOM     74  C   UNL A   1      39.714  33.890  36.850  1.00  0.00     0.064 A 
ATOM     75  C   UNL A   1      38.909  33.513  37.934  1.00  0.00     0.173 A 
ATOM     76  C   UNL A   1      40.396  35.112  36.935  1.00  0.00     0.173 A 
ATOM     77  F   UNL A   1      38.232  32.356  37.898  1.00  0.00    -0.203 F 
ATOM     78  C   UNL A   1      38.779  34.333  39.053  1.00  0.00     0.198 A 
ATOM     79  C   UNL A   1      40.284  35.920  38.065  1.00  0.00     0.198 A 
ATOM     80  F   UNL A   1      41.193  35.504  35.931  1.00  0.00    -0.203 F 
ATOM     81  F   UNL A   1      37.983  33.964  40.065  1.00  0.00    -0.200 F 
ATOM     82  C   UNL A   1      39.471  35.534  39.119  1.00  0.00     0.200 A 
ATOM     83  F   UNL A   1      40.971  37.069  38.134  1.00  0.00    -0.200 F 
ATOM     84  F   UNL A   1      39.356  36.317  40.201  1.00  0.00    -0.200 F 
ENDBRANCH  50  74
BRANCH  62  85
ATOM     85  C   UNL A   1      43.874  28.582  35.076  1.00  0.00     0.064 A 
ATOM     86  C   UNL A   1      43.628  27.498  35.932  1.00  0.00     0.173 A 
ATOM     87  C   UNL A   1      45.192  29.043  34.957  1.00  0.00     0.173 A 
ATOM     88  F   UNL A   1      42.382  27.024  36.084  1.00  0.00    -0.203 F 
ATOM     89  C   UNL A   1      44.662  26.910  36.656  1.00  0.00     0.198 A 
ATOM     90  C   UNL A   1      46.227  28.438  35.665  1.00  0.00     0.198 A 
ATOM     91  F   UNL A   1      45.478  30.067  34.139  1.00  0.00    -0.203 F 
ATOM     92  F   UNL A   1      44.400  25.894  37.491  1.00  0.00    -0.200 F 
ATOM     93  C   UNL A   1      45.960  27.379  36.520  1.00  0.00     0.200 A 
ATOM     94  F   UNL A   1      47.485  28.876  35.517  1.00  0.00    -0.200 F 
ATOM     95  F   UNL A   1      46.955  26.807  37.212  1.00  0.00    -0.200 F 
ENDBRANCH  62  85
ENDBRANCH  36  37
ENDBRANCH  28  31
ENDBRANCH  26  27
ENDBRANCH  25  26
ENDBRANCH   1  25
TORSDOF 14
ENDMDL
