MODEL 1
REMARK VINA RESULT:     -11.8      0.000      0.000
REMARK SMILES COC(=O)[C@@H]1C[C@@H](C(=O)NCCCCNC(=O)c2ccc(-c3c4nc(c(-c5c(F)c(F)c(F)c(F)c5F)c5ccc([nH]5)c(-c5c(F)c(F)c(F)c(F)c5F)c5nc(c(-c6c(F)c(F)c(F)c(F)c6F)c6ccc3[nH]6)C=C5)C=C4)cc2)[C@@H](c2cccc(F)c2F)[N@H+]1C
REMARK SMILES IDX 12 1 11 2 10 3 8 4 9 5 7 7 5 8 6 9 90 10 81 11 91 12 3 14
REMARK SMILES IDX 4 15 2 16 1 17 82 18 83 19 88 20 84 21 86 22 89 23 85 24
REMARK SMILES IDX 87 25 13 26 14 27 15 28 16 29 17 31 18 32 19 33 80 34 20 35
REMARK SMILES IDX 79 36 21 37 22 38 23 39 73 40 24 41 78 42 72 43 74 44 25 45
REMARK SMILES IDX 77 46 71 47 70 48 26 50 58 51 38 52 57 53 39 54 42 55 56 56
REMARK SMILES IDX 75 57 40 58 41 59 55 61 76 62 43 63 27 64 28 65 36 66 29 67
REMARK SMILES IDX 30 68 34 69 37 70 31 71 32 72 35 73 33 74 59 75 60 76 68 77
REMARK SMILES IDX 61 78 62 79 66 80 69 81 63 82 64 83 67 84 65 85 44 86 45 87
REMARK SMILES IDX 53 88 46 89 47 90 51 91 54 92 48 93 49 94 52 95 50 96
REMARK H PARENT 10 6 90 13 15 30 74 49 42 60
REMARK Flexibility Score: inf
ROOT
ATOM      1  C   UNL A   1      39.320  22.449  26.417  1.00  0.00     0.023 C 
ENDROOT
BRANCH   1   2
ATOM      2  C   UNL A   1      38.076  23.285  26.158  1.00  0.00     0.116 C 
BRANCH   2   3
ATOM      3  N   UNL A   1      37.547  23.115  24.820  1.00  0.00    -0.356 N 
ATOM      4  C   UNL A   1      36.366  22.665  24.331  1.00  0.00     0.229 C 
ATOM      5  O   UNL A   1      36.253  22.701  23.098  1.00  0.00    -0.275 OA
ATOM      6  H   UNL A   1      38.181  23.383  24.116  1.00  0.00     0.163 HD
BRANCH   4   7
ATOM      7  C   UNL A   1      35.206  22.131  25.168  1.00  0.00     0.148 C 
ATOM      8  C   UNL A   1      33.278  20.993  24.302  1.00  0.00     0.296 C 
ATOM      9  C   UNL A   1      34.731  20.772  24.655  1.00  0.00     0.097 C 
ATOM     10  N   UNL A   1      32.880  21.936  25.352  1.00  0.00    -0.319 N 
ATOM     11  C   UNL A   1      33.923  22.982  25.526  1.00  0.00     0.231 C 
ATOM     12  C   UNL A   1      31.466  22.204  25.413  1.00  0.00     0.333 C 
ATOM     13  H   UNL A   1      32.897  21.523  26.285  1.00  0.00     0.349 HD
BRANCH   8  14
ATOM     14  C   UNL A   1      32.549  19.648  24.324  1.00  0.00     0.364 C 
ATOM     15  O   UNL A   1      32.284  18.978  25.314  1.00  0.00    -0.245 OA
BRANCH  14  16
ATOM     16  O   UNL A   1      32.275  19.271  23.036  1.00  0.00    -0.465 OA
ATOM     17  C   UNL A   1      32.541  17.893  22.765  1.00  0.00     0.282 C 
ENDBRANCH  14  16
ENDBRANCH   8  14
BRANCH  11  18
ATOM     18  C   UNL A   1      33.803  24.408  24.955  1.00  0.00     0.049 A 
ATOM     19  C   UNL A   1      33.762  25.510  25.845  1.00  0.00     0.013 A 
ATOM     20  C   UNL A   1      33.612  24.765  23.609  1.00  0.00     0.167 A 
ATOM     21  C   UNL A   1      33.793  26.848  25.416  1.00  0.00     0.004 A 
ATOM     22  C   UNL A   1      33.637  26.096  23.174  1.00  0.00     0.159 A 
ATOM     23  F   UNL A   1      33.342  23.869  22.659  1.00  0.00    -0.203 F 
ATOM     24  C   UNL A   1      33.772  27.143  24.064  1.00  0.00     0.042 A 
ATOM     25  F   UNL A   1      33.523  26.368  21.865  1.00  0.00    -0.204 F 
ENDBRANCH  11  18
ENDBRANCH   4   7
ENDBRANCH   2   3
ENDBRANCH   1   2
BRANCH   1  26
ATOM     26  C   UNL A   1      39.325  21.115  25.675  1.00  0.00     0.023 C 
BRANCH  26  27
ATOM     27  C   UNL A   1      39.803  19.969  26.543  1.00  0.00     0.116 C 
BRANCH  27  28
ATOM     28  N   UNL A   1      40.979  19.320  25.979  1.00  0.00    -0.352 N 
ATOM     29  C   UNL A   1      42.210  19.856  25.720  1.00  0.00     0.251 C 
ATOM     30  H   UNL A   1      40.873  18.367  25.754  1.00  0.00     0.163 HD
ATOM     31  O   UNL A   1      43.030  19.235  25.049  1.00  0.00    -0.269 OA
BRANCH  29  32
ATOM     32  C   UNL A   1      42.533  21.194  26.243  1.00  0.00     0.039 A 
ATOM     33  C   UNL A   1      42.613  21.383  27.623  1.00  0.00     0.014 A 
ATOM     34  C   UNL A   1      42.763  22.256  25.365  1.00  0.00     0.014 A 
ATOM     35  C   UNL A   1      42.939  22.642  28.118  1.00  0.00     0.010 A 
ATOM     36  C   UNL A   1      43.213  23.470  25.854  1.00  0.00     0.010 A 
ATOM     37  C   UNL A   1      43.253  23.690  27.236  1.00  0.00    -0.014 A 
BRANCH  37  38
ATOM     38  C   UNL A   1      43.539  25.052  27.736  1.00  0.00     0.031 A 
ATOM     39  C   UNL A   1      44.968  25.500  27.883  1.00  0.00     0.074 A 
ATOM     40  C   UNL A   1      42.520  25.858  28.084  1.00  0.00     0.049 A 
ATOM     41  N   UNL A   1      45.439  26.638  28.323  1.00  0.00    -0.248 NA
ATOM     42  C   UNL A   1      46.012  24.523  27.527  1.00  0.00     0.031 C 
ATOM     43  C   UNL A   1      41.102  25.498  28.042  1.00  0.00     0.029 A 
ATOM     44  N   UNL A   1      42.523  27.150  28.537  1.00  0.00    -0.354 N 
ATOM     45  C   UNL A   1      46.822  26.500  28.314  1.00  0.00     0.074 A 
ATOM     46  C   UNL A   1      47.115  25.147  27.908  1.00  0.00     0.031 C 
ATOM     47  C   UNL A   1      40.368  26.561  28.408  1.00  0.00     0.029 A 
ATOM     48  C   UNL A   1      41.265  27.661  28.745  1.00  0.00     0.049 A 
ATOM     49  H   UNL A   1      43.347  27.664  28.699  1.00  0.00     0.167 HD
ATOM     50  C   UNL A   1      47.763  27.435  28.580  1.00  0.00     0.037 A 
ATOM     51  C   UNL A   1      40.889  28.885  29.154  1.00  0.00     0.037 A 
ATOM     52  C   UNL A   1      47.455  28.790  28.945  1.00  0.00     0.049 A 
ATOM     53  C   UNL A   1      41.955  29.915  29.419  1.00  0.00     0.074 A 
ATOM     54  C   UNL A   1      48.321  29.840  29.185  1.00  0.00     0.029 A 
ATOM     55  N   UNL A   1      46.167  29.283  29.117  1.00  0.00    -0.354 N 
ATOM     56  N   UNL A   1      43.259  29.799  29.339  1.00  0.00    -0.248 NA
ATOM     57  C   UNL A   1      41.494  31.251  29.814  1.00  0.00     0.031 C 
ATOM     58  C   UNL A   1      47.560  30.956  29.553  1.00  0.00     0.029 A 
ATOM     59  C   UNL A   1      46.217  30.618  29.476  1.00  0.00     0.049 A 
ATOM     60  H   UNL A   1      45.343  28.759  29.001  1.00  0.00     0.167 HD
ATOM     61  C   UNL A   1      43.774  31.053  29.637  1.00  0.00     0.074 A 
ATOM     62  C   UNL A   1      42.637  31.918  29.881  1.00  0.00     0.031 C 
ATOM     63  C   UNL A   1      45.067  31.456  29.704  1.00  0.00     0.037 A 
BRANCH  50  64
ATOM     64  C   UNL A   1      49.204  27.020  28.477  1.00  0.00     0.064 A 
ATOM     65  C   UNL A   1      49.898  27.050  27.255  1.00  0.00     0.173 A 
ATOM     66  C   UNL A   1      49.906  26.594  29.614  1.00  0.00     0.173 A 
ATOM     67  F   UNL A   1      49.272  27.430  26.131  1.00  0.00    -0.203 F 
ATOM     68  C   UNL A   1      51.225  26.636  27.172  1.00  0.00     0.198 A 
ATOM     69  C   UNL A   1      51.244  26.217  29.534  1.00  0.00     0.198 A 
ATOM     70  F   UNL A   1      49.295  26.544  30.808  1.00  0.00    -0.203 F 
ATOM     71  F   UNL A   1      51.844  26.611  25.983  1.00  0.00    -0.200 F 
ATOM     72  C   UNL A   1      51.899  26.228  28.312  1.00  0.00     0.200 A 
ATOM     73  F   UNL A   1      51.898  25.834  30.640  1.00  0.00    -0.200 F 
ATOM     74  F   UNL A   1      53.178  25.835  28.231  1.00  0.00    -0.200 F 
ENDBRANCH  50  64
BRANCH  51  75
ATOM     75  C   UNL A   1      39.446  29.216  29.288  1.00  0.00     0.064 A 
ATOM     76  C   UNL A   1      38.684  29.594  28.172  1.00  0.00     0.173 A 
ATOM     77  C   UNL A   1      38.797  29.165  30.530  1.00  0.00     0.173 A 
ATOM     78  F   UNL A   1      39.261  29.669  26.964  1.00  0.00    -0.203 F 
ATOM     79  C   UNL A   1      37.340  29.936  28.299  1.00  0.00     0.198 A 
ATOM     80  C   UNL A   1      37.444  29.476  30.650  1.00  0.00     0.198 A 
ATOM     81  F   UNL A   1      39.475  28.797  31.627  1.00  0.00    -0.203 F 
ATOM     82  F   UNL A   1      36.652  30.345  27.223  1.00  0.00    -0.200 F 
ATOM     83  C   UNL A   1      36.720  29.872  29.536  1.00  0.00     0.200 A 
ATOM     84  F   UNL A   1      36.843  29.393  31.845  1.00  0.00    -0.200 F 
ATOM     85  F   UNL A   1      35.426  30.199  29.658  1.00  0.00    -0.200 F 
ENDBRANCH  51  75
BRANCH  63  86
ATOM     86  C   UNL A   1      45.313  32.908  30.004  1.00  0.00     0.064 A 
ATOM     87  C   UNL A   1      45.497  33.374  31.314  1.00  0.00     0.173 A 
ATOM     88  C   UNL A   1      45.381  33.842  28.958  1.00  0.00     0.173 A 
ATOM     89  F   UNL A   1      45.430  32.523  32.349  1.00  0.00    -0.203 F 
ATOM     90  C   UNL A   1      45.694  34.728  31.569  1.00  0.00     0.198 A 
ATOM     91  C   UNL A   1      45.618  35.188  29.215  1.00  0.00     0.198 A 
ATOM     92  F   UNL A   1      45.225  33.446  27.686  1.00  0.00    -0.203 F 
ATOM     93  F   UNL A   1      45.797  35.160  32.834  1.00  0.00    -0.200 F 
ATOM     94  C   UNL A   1      45.760  35.632  30.520  1.00  0.00     0.200 A 
ATOM     95  F   UNL A   1      45.701  36.057  28.198  1.00  0.00    -0.200 F 
ATOM     96  F   UNL A   1      45.951  36.935  30.767  1.00  0.00    -0.200 F 
ENDBRANCH  63  86
ENDBRANCH  37  38
ENDBRANCH  29  32
ENDBRANCH  27  28
ENDBRANCH  26  27
ENDBRANCH   1  26
TORSDOF 14
ENDMDL
MODEL 2
REMARK VINA RESULT:     -11.8      1.237      7.234
REMARK SMILES COC(=O)[C@@H]1C[C@@H](C(=O)NCCCCNC(=O)c2ccc(-c3c4nc(c(-c5c(F)c(F)c(F)c(F)c5F)c5ccc([nH]5)c(-c5c(F)c(F)c(F)c(F)c5F)c5nc(c(-c6c(F)c(F)c(F)c(F)c6F)c6ccc3[nH]6)C=C5)C=C4)cc2)[C@@H](c2cccc(F)c2F)[N@H+]1C
REMARK SMILES IDX 12 1 11 2 10 3 8 4 9 5 7 7 5 8 6 9 90 10 81 11 91 12 3 14
REMARK SMILES IDX 4 15 2 16 1 17 82 18 83 19 88 20 84 21 86 22 89 23 85 24
REMARK SMILES IDX 87 25 13 26 14 27 15 28 16 29 17 31 18 32 19 33 80 34 20 35
REMARK SMILES IDX 79 36 21 37 22 38 23 39 73 40 24 41 78 42 72 43 74 44 25 45
REMARK SMILES IDX 77 46 71 47 70 48 26 50 58 51 38 52 57 53 39 54 42 55 56 56
REMARK SMILES IDX 75 57 40 58 41 59 55 61 76 62 43 63 27 64 28 65 36 66 29 67
REMARK SMILES IDX 30 68 34 69 37 70 31 71 32 72 35 73 33 74 59 75 60 76 68 77
REMARK SMILES IDX 61 78 62 79 66 80 69 81 63 82 64 83 67 84 65 85 44 86 45 87
REMARK SMILES IDX 53 88 46 89 47 90 51 91 54 92 48 93 49 94 52 95 50 96
REMARK H PARENT 10 6 90 13 15 30 74 49 42 60
REMARK Flexibility Score: inf
ROOT
ATOM      1  C   UNL A   1      39.324  22.428  26.284  1.00  0.00     0.023 C 
ENDROOT
BRANCH   1   2
ATOM      2  C   UNL A   1      38.110  23.315  26.056  1.00  0.00     0.116 C 
BRANCH   2   3
ATOM      3  N   UNL A   1      37.554  23.183  24.725  1.00  0.00    -0.356 N 
ATOM      4  C   UNL A   1      36.353  22.776  24.248  1.00  0.00     0.229 C 
ATOM      5  O   UNL A   1      36.221  22.837  23.018  1.00  0.00    -0.275 OA
ATOM      6  H   UNL A   1      38.184  23.444  24.014  1.00  0.00     0.163 HD
BRANCH   4   7
ATOM      7  C   UNL A   1      35.192  22.263  25.096  1.00  0.00     0.148 C 
ATOM      8  C   UNL A   1      33.277  21.080  24.258  1.00  0.00     0.296 C 
ATOM      9  C   UNL A   1      34.730  20.883  24.627  1.00  0.00     0.097 C 
ATOM     10  N   UNL A   1      32.866  22.056  25.272  1.00  0.00    -0.319 N 
ATOM     11  C   UNL A   1      33.899  23.116  25.416  1.00  0.00     0.231 C 
ATOM     12  C   UNL A   1      31.450  22.315  25.315  1.00  0.00     0.333 C 
ATOM     13  H   UNL A   1      32.879  21.676  26.219  1.00  0.00     0.349 HD
BRANCH   8  14
ATOM     14  C   UNL A   1      32.558  19.731  24.322  1.00  0.00     0.364 C 
ATOM     15  O   UNL A   1      32.399  19.037  25.317  1.00  0.00    -0.245 OA
BRANCH  14  16
ATOM     16  O   UNL A   1      32.155  19.383  23.061  1.00  0.00    -0.465 OA
ATOM     17  C   UNL A   1      32.507  18.051  22.684  1.00  0.00     0.282 C 
ENDBRANCH  14  16
ENDBRANCH   8  14
BRANCH  11  18
ATOM     18  C   UNL A   1      33.772  24.520  24.795  1.00  0.00     0.049 A 
ATOM     19  C   UNL A   1      33.761  25.654  25.644  1.00  0.00     0.013 A 
ATOM     20  C   UNL A   1      33.549  24.827  23.442  1.00  0.00     0.167 A 
ATOM     21  C   UNL A   1      33.788  26.976  25.164  1.00  0.00     0.004 A 
ATOM     22  C   UNL A   1      33.570  26.141  22.956  1.00  0.00     0.159 A 
ATOM     23  F   UNL A   1      33.249  23.898  22.533  1.00  0.00    -0.203 F 
ATOM     24  C   UNL A   1      33.733  27.220  23.803  1.00  0.00     0.042 A 
ATOM     25  F   UNL A   1      33.423  26.364  21.641  1.00  0.00    -0.204 F 
ENDBRANCH  11  18
ENDBRANCH   4   7
ENDBRANCH   2   3
ENDBRANCH   1   2
BRANCH   1  26
ATOM     26  C   UNL A   1      38.987  20.942  26.375  1.00  0.00     0.023 C 
BRANCH  26  27
ATOM     27  C   UNL A   1      39.685  20.121  25.310  1.00  0.00     0.116 C 
BRANCH  27  28
ATOM     28  N   UNL A   1      40.598  19.147  25.892  1.00  0.00    -0.352 N 
ATOM     29  C   UNL A   1      41.855  19.345  26.390  1.00  0.00     0.251 C 
ATOM     30  H   UNL A   1      40.264  18.221  25.932  1.00  0.00     0.163 HD
ATOM     31  O   UNL A   1      42.578  18.386  26.653  1.00  0.00    -0.269 OA
BRANCH  29  32
ATOM     32  C   UNL A   1      42.337  20.721  26.593  1.00  0.00     0.039 A 
ATOM     33  C   UNL A   1      42.417  21.228  27.890  1.00  0.00     0.014 A 
ATOM     34  C   UNL A   1      42.715  21.503  25.498  1.00  0.00     0.014 A 
ATOM     35  C   UNL A   1      42.892  22.522  28.085  1.00  0.00     0.010 A 
ATOM     36  C   UNL A   1      43.307  22.736  25.704  1.00  0.00     0.010 A 
ATOM     37  C   UNL A   1      43.352  23.279  26.994  1.00  0.00    -0.014 A 
BRANCH  37  38
ATOM     38  C   UNL A   1      43.800  24.678  27.168  1.00  0.00     0.031 A 
ATOM     39  C   UNL A   1      42.816  25.713  27.642  1.00  0.00     0.074 A 
ATOM     40  C   UNL A   1      45.067  25.011  26.869  1.00  0.00     0.049 A 
ATOM     41  N   UNL A   1      42.992  26.994  27.837  1.00  0.00    -0.248 NA
ATOM     42  C   UNL A   1      41.437  25.259  27.890  1.00  0.00     0.031 C 
ATOM     43  C   UNL A   1      46.081  24.096  26.340  1.00  0.00     0.029 A 
ATOM     44  N   UNL A   1      45.720  26.209  26.971  1.00  0.00    -0.354 N 
ATOM     45  C   UNL A   1      41.748  27.492  28.209  1.00  0.00     0.074 A 
ATOM     46  C   UNL A   1      40.810  26.399  28.130  1.00  0.00     0.031 C 
ATOM     47  C   UNL A   1      47.242  24.757  26.208  1.00  0.00     0.029 A 
ATOM     48  C   UNL A   1      47.043  26.146  26.607  1.00  0.00     0.049 A 
ATOM     49  H   UNL A   1      45.284  27.037  27.276  1.00  0.00     0.167 HD
ATOM     50  C   UNL A   1      41.428  28.740  28.620  1.00  0.00     0.037 A 
ATOM     51  C   UNL A   1      47.984  27.107  26.610  1.00  0.00     0.037 A 
ATOM     52  C   UNL A   1      42.384  29.808  28.730  1.00  0.00     0.049 A 
ATOM     53  C   UNL A   1      47.609  28.481  27.095  1.00  0.00     0.074 A 
ATOM     54  C   UNL A   1      42.190  31.099  29.186  1.00  0.00     0.029 A 
ATOM     55  N   UNL A   1      43.724  29.701  28.382  1.00  0.00    -0.354 N 
ATOM     56  N   UNL A   1      46.447  28.926  27.513  1.00  0.00    -0.248 NA
ATOM     57  C   UNL A   1      48.682  29.483  27.126  1.00  0.00     0.031 C 
ATOM     58  C   UNL A   1      43.401  31.788  29.065  1.00  0.00     0.029 A 
ATOM     59  C   UNL A   1      44.366  30.908  28.598  1.00  0.00     0.049 A 
ATOM     60  H   UNL A   1      44.153  28.887  28.034  1.00  0.00     0.167 HD
ATOM     61  C   UNL A   1      46.655  30.245  27.891  1.00  0.00     0.074 A 
ATOM     62  C   UNL A   1      48.061  30.520  27.668  1.00  0.00     0.031 C 
ATOM     63  C   UNL A   1      45.769  31.149  28.377  1.00  0.00     0.037 A 
BRANCH  50  64
ATOM     64  C   UNL A   1      39.994  29.007  28.983  1.00  0.00     0.064 A 
ATOM     65  C   UNL A   1      39.042  29.378  28.018  1.00  0.00     0.173 A 
ATOM     66  C   UNL A   1      39.561  28.880  30.312  1.00  0.00     0.173 A 
ATOM     67  F   UNL A   1      39.404  29.532  26.736  1.00  0.00    -0.203 F 
ATOM     68  C   UNL A   1      37.724  29.647  28.376  1.00  0.00     0.198 A 
ATOM     69  C   UNL A   1      38.233  29.114  30.659  1.00  0.00     0.198 A 
ATOM     70  F   UNL A   1      40.426  28.529  31.275  1.00  0.00    -0.203 F 
ATOM     71  F   UNL A   1      36.852  30.064  27.448  1.00  0.00    -0.200 F 
ATOM     72  C   UNL A   1      37.318  29.507  29.694  1.00  0.00     0.200 A 
ATOM     73  F   UNL A   1      37.840  28.966  31.932  1.00  0.00    -0.200 F 
ATOM     74  F   UNL A   1      36.047  29.761  30.036  1.00  0.00    -0.200 F 
ENDBRANCH  50  64
BRANCH  51  75
ATOM     75  C   UNL A   1      49.373  26.790  26.186  1.00  0.00     0.064 A 
ATOM     76  C   UNL A   1      49.794  27.010  24.866  1.00  0.00     0.173 A 
ATOM     77  C   UNL A   1      50.310  26.262  27.087  1.00  0.00     0.173 A 
ATOM     78  F   UNL A   1      48.934  27.502  23.963  1.00  0.00    -0.203 F 
ATOM     79  C   UNL A   1      51.085  26.684  24.457  1.00  0.00     0.198 A 
ATOM     80  C   UNL A   1      51.611  25.967  26.684  1.00  0.00     0.198 A 
ATOM     81  F   UNL A   1      49.964  26.046  28.365  1.00  0.00    -0.203 F 
ATOM     82  F   UNL A   1      51.441  26.854  23.176  1.00  0.00    -0.200 F 
ATOM     83  C   UNL A   1      51.994  26.168  25.367  1.00  0.00     0.200 A 
ATOM     84  F   UNL A   1      52.492  25.488  27.573  1.00  0.00    -0.200 F 
ATOM     85  F   UNL A   1      53.237  25.857  24.974  1.00  0.00    -0.200 F 
ENDBRANCH  51  75
BRANCH  63  86
ATOM     86  C   UNL A   1      46.309  32.502  28.747  1.00  0.00     0.064 A 
ATOM     87  C   UNL A   1      46.789  32.782  30.036  1.00  0.00     0.173 A 
ATOM     88  C   UNL A   1      46.360  33.526  27.790  1.00  0.00     0.173 A 
ATOM     89  F   UNL A   1      46.751  31.839  30.990  1.00  0.00    -0.203 F 
ATOM     90  C   UNL A   1      47.256  34.050  30.363  1.00  0.00     0.198 A 
ATOM     91  C   UNL A   1      46.865  34.781  28.110  1.00  0.00     0.198 A 
ATOM     92  F   UNL A   1      45.926  33.306  26.539  1.00  0.00    -0.203 F 
ATOM     93  F   UNL A   1      47.644  34.315  31.618  1.00  0.00    -0.200 F 
ATOM     94  C   UNL A   1      47.300  35.047  29.400  1.00  0.00     0.200 A 
ATOM     95  F   UNL A   1      46.925  35.737  27.172  1.00  0.00    -0.200 F 
ATOM     96  F   UNL A   1      47.752  36.268  29.716  1.00  0.00    -0.200 F 
ENDBRANCH  63  86
ENDBRANCH  37  38
ENDBRANCH  29  32
ENDBRANCH  27  28
ENDBRANCH  26  27
ENDBRANCH   1  26
TORSDOF 14
ENDMDL
MODEL 3
REMARK VINA RESULT:     -11.8      4.517      9.180
REMARK SMILES COC(=O)[C@@H]1C[C@@H](C(=O)NCCCCNC(=O)c2ccc(-c3c4nc(c(-c5c(F)c(F)c(F)c(F)c5F)c5ccc([nH]5)c(-c5c(F)c(F)c(F)c(F)c5F)c5nc(c(-c6c(F)c(F)c(F)c(F)c6F)c6ccc3[nH]6)C=C5)C=C4)cc2)[C@@H](c2cccc(F)c2F)[N@H+]1C
REMARK SMILES IDX 12 1 11 2 10 3 8 4 9 5 7 7 5 8 6 9 90 10 81 11 91 12 3 14
REMARK SMILES IDX 4 15 2 16 1 17 82 18 83 19 88 20 84 21 86 22 89 23 85 24
REMARK SMILES IDX 87 25 13 26 14 27 15 28 16 29 17 31 18 32 19 33 80 34 20 35
REMARK SMILES IDX 79 36 21 37 22 38 23 39 73 40 24 41 78 42 72 43 74 44 25 45
REMARK SMILES IDX 77 46 71 47 70 48 26 50 58 51 38 52 57 53 39 54 42 55 56 56
REMARK SMILES IDX 75 57 40 58 41 59 55 61 76 62 43 63 27 64 28 65 36 66 29 67
REMARK SMILES IDX 30 68 34 69 37 70 31 71 32 72 35 73 33 74 59 75 60 76 68 77
REMARK SMILES IDX 61 78 62 79 66 80 69 81 63 82 64 83 67 84 65 85 44 86 45 87
REMARK SMILES IDX 53 88 46 89 47 90 51 91 54 92 48 93 49 94 52 95 50 96
REMARK H PARENT 10 6 90 13 15 30 74 49 42 60
REMARK Flexibility Score: inf
ROOT
ATOM      1  C   UNL A   1      33.908  26.384  25.754  1.00  0.00     0.023 C 
ENDROOT
BRANCH   1   2
ATOM      2  C   UNL A   1      33.209  25.163  26.334  1.00  0.00     0.116 C 
BRANCH   2   3
ATOM      3  N   UNL A   1      31.793  25.373  26.555  1.00  0.00    -0.356 N 
ATOM      4  C   UNL A   1      30.675  24.733  26.135  1.00  0.00     0.229 C 
ATOM      5  O   UNL A   1      29.608  25.184  26.572  1.00  0.00    -0.275 OA
ATOM      6  H   UNL A   1      31.602  26.146  27.134  1.00  0.00     0.163 HD
BRANCH   4   7
ATOM      7  C   UNL A   1      30.643  23.536  25.188  1.00  0.00     0.148 C 
ATOM      8  C   UNL A   1      32.469  22.026  24.797  1.00  0.00     0.296 C 
ATOM      9  C   UNL A   1      31.370  22.333  25.790  1.00  0.00     0.097 C 
ATOM     10  N   UNL A   1      31.795  22.343  23.534  1.00  0.00    -0.319 N 
ATOM     11  C   UNL A   1      31.041  23.619  23.660  1.00  0.00     0.231 C 
ATOM     12  C   UNL A   1      32.528  21.965  22.353  1.00  0.00     0.333 C 
ATOM     13  H   UNL A   1      31.024  21.710  23.324  1.00  0.00     0.349 HD
BRANCH   8  14
ATOM     14  C   UNL A   1      32.894  20.565  24.960  1.00  0.00     0.364 C 
ATOM     15  O   UNL A   1      32.153  19.604  25.118  1.00  0.00    -0.245 OA
BRANCH  14  16
ATOM     16  O   UNL A   1      34.262  20.498  24.955  1.00  0.00    -0.465 OA
ATOM     17  C   UNL A   1      34.897  21.513  25.735  1.00  0.00     0.282 C 
ENDBRANCH  14  16
ENDBRANCH   8  14
BRANCH  11  18
ATOM     18  C   UNL A   1      31.543  24.964  23.102  1.00  0.00     0.049 A 
ATOM     19  C   UNL A   1      32.903  25.095  22.728  1.00  0.00     0.013 A 
ATOM     20  C   UNL A   1      30.817  26.165  23.014  1.00  0.00     0.167 A 
ATOM     21  C   UNL A   1      33.419  26.233  22.084  1.00  0.00     0.004 A 
ATOM     22  C   UNL A   1      31.325  27.305  22.378  1.00  0.00     0.159 A 
ATOM     23  F   UNL A   1      29.617  26.322  23.573  1.00  0.00    -0.203 F 
ATOM     24  C   UNL A   1      32.609  27.335  21.870  1.00  0.00     0.042 A 
ATOM     25  F   UNL A   1      30.555  28.397  22.262  1.00  0.00    -0.204 F 
ENDBRANCH  11  18
ENDBRANCH   4   7
ENDBRANCH   2   3
ENDBRANCH   1   2
BRANCH   1  26
ATOM     26  C   UNL A   1      33.040  27.640  25.750  1.00  0.00     0.023 C 
BRANCH  26  27
ATOM     27  C   UNL A   1      33.800  28.869  25.292  1.00  0.00     0.116 C 
BRANCH  27  28
ATOM     28  N   UNL A   1      33.175  30.096  25.768  1.00  0.00    -0.352 N 
ATOM     29  C   UNL A   1      33.482  30.839  26.873  1.00  0.00     0.251 C 
ATOM     30  H   UNL A   1      32.431  30.435  25.219  1.00  0.00     0.163 HD
ATOM     31  O   UNL A   1      32.727  31.731  27.252  1.00  0.00    -0.269 OA
BRANCH  29  32
ATOM     32  C   UNL A   1      34.722  30.547  27.611  1.00  0.00     0.039 A 
ATOM     33  C   UNL A   1      35.734  31.506  27.646  1.00  0.00     0.014 A 
ATOM     34  C   UNL A   1      34.876  29.326  28.272  1.00  0.00     0.014 A 
ATOM     35  C   UNL A   1      36.899  31.239  28.360  1.00  0.00     0.010 A 
ATOM     36  C   UNL A   1      35.975  29.116  29.086  1.00  0.00     0.010 A 
ATOM     37  C   UNL A   1      37.020  30.047  29.095  1.00  0.00    -0.014 A 
BRANCH  37  38
ATOM     38  C   UNL A   1      38.272  29.713  29.808  1.00  0.00     0.031 A 
ATOM     39  C   UNL A   1      38.523  30.299  31.172  1.00  0.00     0.074 A 
ATOM     40  C   UNL A   1      39.180  28.918  29.217  1.00  0.00     0.049 A 
ATOM     41  N   UNL A   1      39.560  30.156  31.956  1.00  0.00    -0.248 NA
ATOM     42  C   UNL A   1      37.491  31.202  31.710  1.00  0.00     0.031 C 
ATOM     43  C   UNL A   1      39.063  28.351  27.872  1.00  0.00     0.029 A 
ATOM     44  N   UNL A   1      40.382  28.446  29.674  1.00  0.00    -0.354 N 
ATOM     45  C   UNL A   1      39.310  30.963  33.060  1.00  0.00     0.074 A 
ATOM     46  C   UNL A   1      38.069  31.657  32.810  1.00  0.00     0.031 C 
ATOM     47  C   UNL A   1      40.127  27.569  27.631  1.00  0.00     0.029 A 
ATOM     48  C   UNL A   1      41.016  27.610  28.787  1.00  0.00     0.049 A 
ATOM     49  H   UNL A   1      40.755  28.682  30.553  1.00  0.00     0.167 HD
ATOM     50  C   UNL A   1      40.030  31.080  34.199  1.00  0.00     0.037 A 
ATOM     51  C   UNL A   1      42.180  26.949  28.908  1.00  0.00     0.037 A 
ATOM     52  C   UNL A   1      41.243  30.352  34.449  1.00  0.00     0.049 A 
ATOM     53  C   UNL A   1      42.950  27.076  30.195  1.00  0.00     0.074 A 
ATOM     54  C   UNL A   1      42.030  30.346  35.585  1.00  0.00     0.029 A 
ATOM     55  N   UNL A   1      41.842  29.489  33.539  1.00  0.00    -0.354 N 
ATOM     56  N   UNL A   1      42.670  27.785  31.263  1.00  0.00    -0.248 NA
ATOM     57  C   UNL A   1      44.190  26.297  30.299  1.00  0.00     0.031 C 
ATOM     58  C   UNL A   1      43.134  29.520  35.345  1.00  0.00     0.029 A 
ATOM     59  C   UNL A   1      42.998  28.958  34.084  1.00  0.00     0.049 A 
ATOM     60  H   UNL A   1      41.495  29.287  32.641  1.00  0.00     0.167 HD
ATOM     61  C   UNL A   1      43.676  27.511  32.180  1.00  0.00     0.074 A 
ATOM     62  C   UNL A   1      44.562  26.555  31.544  1.00  0.00     0.031 C 
ATOM     63  C   UNL A   1      43.855  28.001  33.431  1.00  0.00     0.037 A 
BRANCH  50  64
ATOM     64  C   UNL A   1      39.517  32.022  35.253  1.00  0.00     0.064 A 
ATOM     65  C   UNL A   1      39.900  33.373  35.288  1.00  0.00     0.173 A 
ATOM     66  C   UNL A   1      38.621  31.572  36.235  1.00  0.00     0.173 A 
ATOM     67  F   UNL A   1      40.768  33.854  34.385  1.00  0.00    -0.203 F 
ATOM     68  C   UNL A   1      39.436  34.226  36.287  1.00  0.00     0.198 A 
ATOM     69  C   UNL A   1      38.131  32.437  37.210  1.00  0.00     0.198 A 
ATOM     70  F   UNL A   1      38.221  30.292  36.251  1.00  0.00    -0.203 F 
ATOM     71  F   UNL A   1      39.870  35.493  36.337  1.00  0.00    -0.200 F 
ATOM     72  C   UNL A   1      38.546  33.760  37.241  1.00  0.00     0.200 A 
ATOM     73  F   UNL A   1      37.260  31.988  38.124  1.00  0.00    -0.200 F 
ATOM     74  F   UNL A   1      38.096  34.583  38.198  1.00  0.00    -0.200 F 
ENDBRANCH  50  64
BRANCH  51  75
ATOM     75  C   UNL A   1      42.659  26.075  27.805  1.00  0.00     0.064 A 
ATOM     76  C   UNL A   1      43.599  26.537  26.873  1.00  0.00     0.173 A 
ATOM     77  C   UNL A   1      42.189  24.761  27.657  1.00  0.00     0.173 A 
ATOM     78  F   UNL A   1      44.071  27.789  26.964  1.00  0.00    -0.203 F 
ATOM     79  C   UNL A   1      44.026  25.732  25.819  1.00  0.00     0.198 A 
ATOM     80  C   UNL A   1      42.642  23.946  26.622  1.00  0.00     0.198 A 
ATOM     81  F   UNL A   1      41.300  24.264  28.530  1.00  0.00    -0.203 F 
ATOM     82  F   UNL A   1      44.884  26.220  24.912  1.00  0.00    -0.200 F 
ATOM     83  C   UNL A   1      43.551  24.436  25.697  1.00  0.00     0.200 A 
ATOM     84  F   UNL A   1      42.195  22.687  26.520  1.00  0.00    -0.200 F 
ATOM     85  F   UNL A   1      43.964  23.660  24.685  1.00  0.00    -0.200 F 
ENDBRANCH  51  75
BRANCH  63  86
ATOM     86  C   UNL A   1      45.025  27.470  34.210  1.00  0.00     0.064 A 
ATOM     87  C   UNL A   1      46.281  28.094  34.182  1.00  0.00     0.173 A 
ATOM     88  C   UNL A   1      44.877  26.326  35.010  1.00  0.00     0.173 A 
ATOM     89  F   UNL A   1      46.476  29.184  33.424  1.00  0.00    -0.203 F 
ATOM     90  C   UNL A   1      47.356  27.567  34.888  1.00  0.00     0.198 A 
ATOM     91  C   UNL A   1      45.945  25.825  35.746  1.00  0.00     0.198 A 
ATOM     92  F   UNL A   1      43.694  25.698  35.082  1.00  0.00    -0.203 F 
ATOM     93  F   UNL A   1      48.564  28.140  34.791  1.00  0.00    -0.200 F 
ATOM     94  C   UNL A   1      47.187  26.437  35.675  1.00  0.00     0.200 A 
ATOM     95  F   UNL A   1      45.774  24.744  36.520  1.00  0.00    -0.200 F 
ATOM     96  F   UNL A   1      48.224  25.930  36.355  1.00  0.00    -0.200 F 
ENDBRANCH  63  86
ENDBRANCH  37  38
ENDBRANCH  29  32
ENDBRANCH  27  28
ENDBRANCH  26  27
ENDBRANCH   1  26
TORSDOF 14
ENDMDL
