MODEL 1
REMARK VINA RESULT:     -13.3      0.000      0.000
REMARK SMILES Cc1cc(OC(F)(F)F)cc2c1O[C@H](C(F)(F)F)C(C(=O)NCCCCNC(=O)c1ccc(-c3c4nc(c(-c5c(F)c(F)c(F)c(F)c5F)c5ccc([nH]5)c(-c5c(F)c(F)c(F)c(F)c5F)c5nc(c(-c6c(F)c(F)c(F)c(F)c6F)c6ccc3[nH]6)C=C5)C=C4)cc1)=C2
REMARK SMILES IDX 24 1 23 2 22 3 20 4 21 5 19 7 1 8 2 9 3 10 12 11 4 12 11 13
REMARK SMILES IDX 13 14 10 15 93 16 14 17 5 18 6 19 7 20 8 21 9 22 15 23 16 24
REMARK SMILES IDX 17 25 18 26 25 27 26 28 27 29 28 30 29 32 30 33 31 34 92 35
REMARK SMILES IDX 32 36 91 37 33 38 34 39 35 40 85 41 36 42 90 43 84 44 86 45
REMARK SMILES IDX 37 46 89 47 83 48 82 49 38 51 70 52 50 53 69 54 51 55 54 56
REMARK SMILES IDX 68 57 87 58 52 59 53 60 67 62 88 63 55 64 39 65 40 66 48 67
REMARK SMILES IDX 41 68 42 69 46 70 49 71 43 72 44 73 47 74 45 75 71 76 72 77
REMARK SMILES IDX 80 78 73 79 74 80 78 81 81 82 75 83 76 84 79 85 77 86 56 87
REMARK SMILES IDX 57 88 65 89 58 90 59 91 63 92 66 93 60 94 61 95 64 96 62 97
REMARK H PARENT 22 6 27 31 86 50 54 61
REMARK Flexibility Score: inf
ROOT
ATOM      1  C   UNL A   1      31.887  30.438  26.877  1.00  0.00     0.023 C 
ENDROOT
BRANCH   1   2
ATOM      2  C   UNL A   1      33.339  30.013  26.674  1.00  0.00     0.116 C 
BRANCH   2   3
ATOM      3  N   UNL A   1      33.614  29.664  25.291  1.00  0.00    -0.352 N 
ATOM      4  C   UNL A   1      33.548  28.552  24.523  1.00  0.00     0.251 C 
ATOM      5  O   UNL A   1      33.902  28.706  23.350  1.00  0.00    -0.270 OA
ATOM      6  H   UNL A   1      33.934  30.441  24.779  1.00  0.00     0.163 HD
BRANCH   4   7
ATOM      7  C   UNL A   1      33.094  27.207  24.985  1.00  0.00     0.067 C 
ATOM      8  C   UNL A   1      30.600  23.181  26.969  1.00  0.00     0.048 C 
ATOM      9  C   UNL A   1      32.014  23.450  26.535  1.00  0.00    -0.005 A 
ATOM     10  C   UNL A   1      32.972  22.424  26.570  1.00  0.00     0.054 A 
ATOM     11  C   UNL A   1      32.390  24.714  26.067  1.00  0.00     0.131 A 
ATOM     12  C   UNL A   1      34.288  22.663  26.164  1.00  0.00     0.130 A 
ATOM     13  C   UNL A   1      33.700  24.969  25.663  1.00  0.00     0.021 A 
ATOM     14  O   UNL A   1      31.436  25.695  26.065  1.00  0.00    -0.475 OA
ATOM     15  C   UNL A   1      34.645  23.939  25.713  1.00  0.00     0.058 A 
ATOM     16  C   UNL A   1      34.070  26.312  25.231  1.00  0.00     0.025 C 
ATOM     17  C   UNL A   1      31.657  26.799  25.146  1.00  0.00     0.314 C 
BRANCH  12  18
ATOM     18  O   UNL A   1      35.310  21.757  26.156  1.00  0.00    -0.406 OA
BRANCH  18  19
ATOM     19  C   UNL A   1      35.553  21.043  24.955  1.00  0.00     0.573 C 
ATOM     20  F   UNL A   1      36.306  19.946  25.184  1.00  0.00    -0.132 F 
ATOM     21  F   UNL A   1      34.397  20.681  24.361  1.00  0.00    -0.132 F 
ATOM     22  F   UNL A   1      36.229  21.845  24.103  1.00  0.00    -0.132 F 
ENDBRANCH  18  19
ENDBRANCH  12  18
BRANCH  17  23
ATOM     23  C   UNL A   1      30.973  26.491  23.800  1.00  0.00     0.429 C 
ATOM     24  F   UNL A   1      30.066  25.492  23.948  1.00  0.00    -0.167 F 
ATOM     25  F   UNL A   1      30.292  27.554  23.311  1.00  0.00    -0.167 F 
ATOM     26  F   UNL A   1      31.846  26.107  22.842  1.00  0.00    -0.167 F 
ENDBRANCH  17  23
ENDBRANCH   4   7
ENDBRANCH   2   3
ENDBRANCH   1   2
BRANCH   1  27
ATOM     27  C   UNL A   1      31.667  31.953  26.824  1.00  0.00     0.023 C 
BRANCH  27  28
ATOM     28  C   UNL A   1      32.812  32.800  27.380  1.00  0.00     0.116 C 
BRANCH  28  29
ATOM     29  N   UNL A   1      32.434  34.170  27.692  1.00  0.00    -0.352 N 
ATOM     30  C   UNL A   1      33.017  35.003  28.617  1.00  0.00     0.251 C 
ATOM     31  H   UNL A   1      31.678  34.542  27.184  1.00  0.00     0.163 HD
ATOM     32  O   UNL A   1      32.581  36.126  28.835  1.00  0.00    -0.269 OA
BRANCH  30  33
ATOM     33  C   UNL A   1      34.165  34.487  29.381  1.00  0.00     0.039 A 
ATOM     34  C   UNL A   1      33.924  33.814  30.581  1.00  0.00     0.014 A 
ATOM     35  C   UNL A   1      35.453  34.577  28.847  1.00  0.00     0.014 A 
ATOM     36  C   UNL A   1      34.977  33.159  31.217  1.00  0.00     0.010 A 
ATOM     37  C   UNL A   1      36.493  33.892  29.463  1.00  0.00     0.010 A 
ATOM     38  C   UNL A   1      36.258  33.165  30.641  1.00  0.00    -0.014 A 
BRANCH  38  39
ATOM     39  C   UNL A   1      37.370  32.402  31.248  1.00  0.00     0.031 A 
ATOM     40  C   UNL A   1      37.874  32.777  32.608  1.00  0.00     0.074 A 
ATOM     41  C   UNL A   1      37.966  31.423  30.542  1.00  0.00     0.049 A 
ATOM     42  N   UNL A   1      38.895  32.300  33.270  1.00  0.00    -0.248 NA
ATOM     43  C   UNL A   1      37.139  33.841  33.308  1.00  0.00     0.031 C 
ATOM     44  C   UNL A   1      37.574  30.990  29.201  1.00  0.00     0.029 A 
ATOM     45  N   UNL A   1      39.038  30.626  30.851  1.00  0.00    -0.354 N 
ATOM     46  C   UNL A   1      38.931  33.009  34.462  1.00  0.00     0.074 A 
ATOM     47  C   UNL A   1      37.854  33.975  34.416  1.00  0.00     0.031 C 
ATOM     48  C   UNL A   1      38.388  29.997  28.805  1.00  0.00     0.029 A 
ATOM     49  C   UNL A   1      39.375  29.746  29.853  1.00  0.00     0.049 A 
ATOM     50  H   UNL A   1      39.521  30.679  31.707  1.00  0.00     0.167 HD
ATOM     51  C   UNL A   1      39.778  32.855  35.506  1.00  0.00     0.037 A 
ATOM     52  C   UNL A   1      40.372  28.843  29.791  1.00  0.00     0.037 A 
ATOM     53  C   UNL A   1      40.842  31.890  35.550  1.00  0.00     0.049 A 
ATOM     54  C   UNL A   1      41.309  28.703  30.958  1.00  0.00     0.074 A 
ATOM     55  C   UNL A   1      41.746  31.646  36.569  1.00  0.00     0.029 A 
ATOM     56  N   UNL A   1      41.143  31.003  34.526  1.00  0.00    -0.354 N 
ATOM     57  N   UNL A   1      41.321  29.361  32.090  1.00  0.00    -0.248 NA
ATOM     58  C   UNL A   1      42.370  27.692  30.840  1.00  0.00     0.031 C 
ATOM     59  C   UNL A   1      42.609  30.627  36.152  1.00  0.00     0.029 A 
ATOM     60  C   UNL A   1      42.221  30.213  34.887  1.00  0.00     0.049 A 
ATOM     61  H   UNL A   1      40.659  30.944  33.670  1.00  0.00     0.167 HD
ATOM     62  C   UNL A   1      42.368  28.832  32.830  1.00  0.00     0.074 A 
ATOM     63  C   UNL A   1      42.968  27.792  32.019  1.00  0.00     0.031 C 
ATOM     64  C   UNL A   1      42.792  29.175  34.069  1.00  0.00     0.037 A 
BRANCH  51  65
ATOM     65  C   UNL A   1      39.578  33.752  36.688  1.00  0.00     0.064 A 
ATOM     66  C   UNL A   1      40.155  35.029  36.737  1.00  0.00     0.173 A 
ATOM     67  C   UNL A   1      38.782  33.345  37.769  1.00  0.00     0.173 A 
ATOM     68  F   UNL A   1      40.937  35.455  35.735  1.00  0.00    -0.203 F 
ATOM     69  C   UNL A   1      39.958  35.860  37.837  1.00  0.00     0.198 A 
ATOM     70  C   UNL A   1      38.570  34.188  38.856  1.00  0.00     0.198 A 
ATOM     71  F   UNL A   1      38.208  32.132  37.768  1.00  0.00    -0.203 F 
ATOM     72  F   UNL A   1      40.553  37.061  37.881  1.00  0.00    -0.200 F 
ATOM     73  C   UNL A   1      39.162  35.442  38.892  1.00  0.00     0.200 A 
ATOM     74  F   UNL A   1      37.795  33.785  39.873  1.00  0.00    -0.200 F 
ATOM     75  F   UNL A   1      38.971  36.244  39.947  1.00  0.00    -0.200 F 
ENDBRANCH  51  65
BRANCH  52  76
ATOM     76  C   UNL A   1      40.508  27.979  28.593  1.00  0.00     0.064 A 
ATOM     77  C   UNL A   1      39.862  26.737  28.533  1.00  0.00     0.173 A 
ATOM     78  C   UNL A   1      41.263  28.379  27.483  1.00  0.00     0.173 A 
ATOM     79  F   UNL A   1      39.143  26.306  29.581  1.00  0.00    -0.203 F 
ATOM     80  C   UNL A   1      39.973  25.921  27.409  1.00  0.00     0.198 A 
ATOM     81  C   UNL A   1      41.359  27.572  26.351  1.00  0.00     0.198 A 
ATOM     82  F   UNL A   1      41.897  29.561  27.492  1.00  0.00    -0.203 F 
ATOM     83  F   UNL A   1      39.367  24.728  27.387  1.00  0.00    -0.200 F 
ATOM     84  C   UNL A   1      40.716  26.342  26.317  1.00  0.00     0.200 A 
ATOM     85  F   UNL A   1      42.069  27.985  25.293  1.00  0.00    -0.200 F 
ATOM     86  F   UNL A   1      40.817  25.562  25.232  1.00  0.00    -0.200 F 
ENDBRANCH  52  76
BRANCH  64  87
ATOM     87  C   UNL A   1      43.938  28.399  34.644  1.00  0.00     0.064 A 
ATOM     88  C   UNL A   1      45.261  28.838  34.508  1.00  0.00     0.173 A 
ATOM     89  C   UNL A   1      43.699  27.238  35.395  1.00  0.00     0.173 A 
ATOM     90  F   UNL A   1      45.537  29.936  33.787  1.00  0.00    -0.203 F 
ATOM     91  C   UNL A   1      46.310  28.136  35.096  1.00  0.00     0.198 A 
ATOM     92  C   UNL A   1      44.748  26.549  35.998  1.00  0.00     0.198 A 
ATOM     93  F   UNL A   1      42.448  26.781  35.556  1.00  0.00    -0.203 F 
ATOM     94  F   UNL A   1      47.571  28.558  34.932  1.00  0.00    -0.200 F 
ATOM     95  C   UNL A   1      46.052  26.998  35.846  1.00  0.00     0.200 A 
ATOM     96  F   UNL A   1      44.497  25.455  36.730  1.00  0.00    -0.200 F 
ATOM     97  F   UNL A   1      47.061  26.330  36.421  1.00  0.00    -0.200 F 
ENDBRANCH  64  87
ENDBRANCH  38  39
ENDBRANCH  30  33
ENDBRANCH  28  29
ENDBRANCH  27  28
ENDBRANCH   1  27
TORSDOF 14
ENDMDL
MODEL 2
REMARK VINA RESULT:     -13.1      0.448      7.166
REMARK SMILES Cc1cc(OC(F)(F)F)cc2c1O[C@H](C(F)(F)F)C(C(=O)NCCCCNC(=O)c1ccc(-c3c4nc(c(-c5c(F)c(F)c(F)c(F)c5F)c5ccc([nH]5)c(-c5c(F)c(F)c(F)c(F)c5F)c5nc(c(-c6c(F)c(F)c(F)c(F)c6F)c6ccc3[nH]6)C=C5)C=C4)cc1)=C2
REMARK SMILES IDX 24 1 23 2 22 3 20 4 21 5 19 7 1 8 2 9 3 10 12 11 4 12 11 13
REMARK SMILES IDX 13 14 10 15 93 16 14 17 5 18 6 19 7 20 8 21 9 22 15 23 16 24
REMARK SMILES IDX 17 25 18 26 25 27 26 28 27 29 28 30 29 32 30 33 31 34 92 35
REMARK SMILES IDX 32 36 91 37 33 38 34 39 35 40 85 41 36 42 90 43 84 44 86 45
REMARK SMILES IDX 37 46 89 47 83 48 82 49 38 51 70 52 50 53 69 54 51 55 54 56
REMARK SMILES IDX 68 57 87 58 52 59 53 60 67 62 88 63 55 64 39 65 40 66 48 67
REMARK SMILES IDX 41 68 42 69 46 70 49 71 43 72 44 73 47 74 45 75 71 76 72 77
REMARK SMILES IDX 80 78 73 79 74 80 78 81 81 82 75 83 76 84 79 85 77 86 56 87
REMARK SMILES IDX 57 88 65 89 58 90 59 91 63 92 66 93 60 94 61 95 64 96 62 97
REMARK H PARENT 22 6 27 31 86 50 54 61
REMARK Flexibility Score: inf
ROOT
ATOM      1  C   UNL A   1      32.249  30.191  27.223  1.00  0.00     0.023 C 
ENDROOT
BRANCH   1   2
ATOM      2  C   UNL A   1      33.675  29.721  26.949  1.00  0.00     0.116 C 
BRANCH   2   3
ATOM      3  N   UNL A   1      33.892  29.436  25.542  1.00  0.00    -0.352 N 
ATOM      4  C   UNL A   1      33.722  28.379  24.712  1.00  0.00     0.251 C 
ATOM      5  O   UNL A   1      34.062  28.576  23.541  1.00  0.00    -0.270 OA
ATOM      6  H   UNL A   1      34.260  30.215  25.067  1.00  0.00     0.163 HD
BRANCH   4   7
ATOM      7  C   UNL A   1      33.174  27.049  25.108  1.00  0.00     0.067 C 
ATOM      8  C   UNL A   1      30.357  23.103  26.798  1.00  0.00     0.048 C 
ATOM      9  C   UNL A   1      31.811  23.316  26.484  1.00  0.00    -0.005 A 
ATOM     10  C   UNL A   1      32.717  22.247  26.572  1.00  0.00     0.054 A 
ATOM     11  C   UNL A   1      32.277  24.570  26.075  1.00  0.00     0.131 A 
ATOM     12  C   UNL A   1      34.071  22.434  26.276  1.00  0.00     0.130 A 
ATOM     13  C   UNL A   1      33.626  24.773  25.781  1.00  0.00     0.021 A 
ATOM     14  O   UNL A   1      31.370  25.593  26.019  1.00  0.00    -0.475 OA
ATOM     15  C   UNL A   1      34.518  23.701  25.884  1.00  0.00     0.058 A 
ATOM     16  C   UNL A   1      34.087  26.106  25.411  1.00  0.00     0.025 C 
ATOM     17  C   UNL A   1      31.712  26.703  25.145  1.00  0.00     0.314 C 
BRANCH  12  18
ATOM     18  O   UNL A   1      35.050  21.483  26.330  1.00  0.00    -0.406 OA
BRANCH  18  19
ATOM     19  C   UNL A   1      35.317  20.741  25.151  1.00  0.00     0.573 C 
ATOM     20  F   UNL A   1      34.548  19.632  25.088  1.00  0.00    -0.132 F 
ATOM     21  F   UNL A   1      35.117  21.491  24.047  1.00  0.00    -0.132 F 
ATOM     22  F   UNL A   1      36.611  20.353  25.167  1.00  0.00    -0.132 F 
ENDBRANCH  18  19
ENDBRANCH  12  18
BRANCH  17  23
ATOM     23  C   UNL A   1      31.126  26.451  23.742  1.00  0.00     0.429 C 
ATOM     24  F   UNL A   1      30.045  25.634  23.821  1.00  0.00    -0.167 F 
ATOM     25  F   UNL A   1      30.700  27.590  23.148  1.00  0.00    -0.167 F 
ATOM     26  F   UNL A   1      32.010  25.874  22.898  1.00  0.00    -0.167 F 
ENDBRANCH  17  23
ENDBRANCH   4   7
ENDBRANCH   2   3
ENDBRANCH   1   2
BRANCH   1  27
ATOM     27  C   UNL A   1      32.000  31.663  26.878  1.00  0.00     0.023 C 
BRANCH  27  28
ATOM     28  C   UNL A   1      33.059  32.642  27.385  1.00  0.00     0.116 C 
BRANCH  28  29
ATOM     29  N   UNL A   1      32.543  33.973  27.668  1.00  0.00    -0.352 N 
ATOM     30  C   UNL A   1      33.023  34.872  28.590  1.00  0.00     0.251 C 
ATOM     31  H   UNL A   1      31.765  34.263  27.139  1.00  0.00     0.163 HD
ATOM     32  O   UNL A   1      32.476  35.951  28.781  1.00  0.00    -0.269 OA
BRANCH  30  33
ATOM     33  C   UNL A   1      34.200  34.482  29.385  1.00  0.00     0.039 A 
ATOM     34  C   UNL A   1      33.999  33.885  30.631  1.00  0.00     0.014 A 
ATOM     35  C   UNL A   1      35.480  34.607  28.839  1.00  0.00     0.014 A 
ATOM     36  C   UNL A   1      35.089  33.341  31.308  1.00  0.00     0.010 A 
ATOM     37  C   UNL A   1      36.559  34.032  29.499  1.00  0.00     0.010 A 
ATOM     38  C   UNL A   1      36.368  33.380  30.728  1.00  0.00    -0.014 A 
BRANCH  38  39
ATOM     39  C   UNL A   1      37.523  32.730  31.383  1.00  0.00     0.031 A 
ATOM     40  C   UNL A   1      38.221  31.593  30.701  1.00  0.00     0.074 A 
ATOM     41  C   UNL A   1      37.892  33.120  32.617  1.00  0.00     0.049 A 
ATOM     42  N   UNL A   1      39.185  30.831  31.146  1.00  0.00    -0.248 NA
ATOM     43  C   UNL A   1      37.761  31.261  29.345  1.00  0.00     0.031 C 
ATOM     44  C   UNL A   1      37.269  34.199  33.383  1.00  0.00     0.029 A 
ATOM     45  N   UNL A   1      38.872  32.641  33.448  1.00  0.00    -0.354 N 
ATOM     46  C   UNL A   1      39.444  29.924  30.128  1.00  0.00     0.074 A 
ATOM     47  C   UNL A   1      38.510  30.206  29.059  1.00  0.00     0.031 C 
ATOM     48  C   UNL A   1      37.890  34.308  34.571  1.00  0.00     0.029 A 
ATOM     49  C   UNL A   1      38.932  33.288  34.657  1.00  0.00     0.049 A 
ATOM     50  H   UNL A   1      39.475  31.903  33.202  1.00  0.00     0.167 HD
ATOM     51  C   UNL A   1      40.388  28.956  30.087  1.00  0.00     0.037 A 
ATOM     52  C   UNL A   1      39.735  33.076  35.717  1.00  0.00     0.037 A 
ATOM     53  C   UNL A   1      41.318  28.683  31.148  1.00  0.00     0.049 A 
ATOM     54  C   UNL A   1      40.764  31.982  35.651  1.00  0.00     0.074 A 
ATOM     55  C   UNL A   1      42.321  27.732  31.196  1.00  0.00     0.029 A 
ATOM     56  N   UNL A   1      41.359  29.371  32.353  1.00  0.00    -0.354 N 
ATOM     57  N   UNL A   1      41.017  31.146  34.676  1.00  0.00    -0.248 NA
ATOM     58  C   UNL A   1      41.621  31.805  36.832  1.00  0.00     0.031 C 
ATOM     59  C   UNL A   1      42.955  27.828  32.440  1.00  0.00     0.029 A 
ATOM     60  C   UNL A   1      42.368  28.862  33.153  1.00  0.00     0.049 A 
ATOM     61  H   UNL A   1      40.760  30.112  32.601  1.00  0.00     0.167 HD
ATOM     62  C   UNL A   1      42.075  30.360  35.110  1.00  0.00     0.074 A 
ATOM     63  C   UNL A   1      42.421  30.824  36.438  1.00  0.00     0.031 C 
ATOM     64  C   UNL A   1      42.704  29.349  34.465  1.00  0.00     0.037 A 
BRANCH  51  65
ATOM     65  C   UNL A   1      40.459  28.123  28.844  1.00  0.00     0.064 A 
ATOM     66  C   UNL A   1      41.237  28.520  27.747  1.00  0.00     0.173 A 
ATOM     67  C   UNL A   1      39.768  26.906  28.757  1.00  0.00     0.173 A 
ATOM     68  F   UNL A   1      41.903  29.684  27.778  1.00  0.00    -0.203 F 
ATOM     69  C   UNL A   1      41.305  27.737  26.598  1.00  0.00     0.198 A 
ATOM     70  C   UNL A   1      39.855  26.115  27.615  1.00  0.00     0.198 A 
ATOM     71  F   UNL A   1      39.010  26.484  29.781  1.00  0.00    -0.203 F 
ATOM     72  F   UNL A   1      42.022  28.155  25.545  1.00  0.00    -0.200 F 
ATOM     73  C   UNL A   1      40.619  26.533  26.535  1.00  0.00     0.200 A 
ATOM     74  F   UNL A   1      39.197  24.949  27.557  1.00  0.00    -0.200 F 
ATOM     75  F   UNL A   1      40.688  25.779  25.430  1.00  0.00    -0.200 F 
ENDBRANCH  51  65
BRANCH  52  76
ATOM     76  C   UNL A   1      39.617  33.943  36.915  1.00  0.00     0.064 A 
ATOM     77  C   UNL A   1      40.274  35.181  36.965  1.00  0.00     0.173 A 
ATOM     78  C   UNL A   1      38.837  33.570  38.017  1.00  0.00     0.173 A 
ATOM     79  F   UNL A   1      41.046  35.570  35.940  1.00  0.00    -0.203 F 
ATOM     80  C   UNL A   1      40.162  36.009  38.080  1.00  0.00     0.198 A 
ATOM     81  C   UNL A   1      38.709  34.408  39.123  1.00  0.00     0.198 A 
ATOM     82  F   UNL A   1      38.186  32.397  38.012  1.00  0.00    -0.203 F 
ATOM     83  F   UNL A   1      40.820  37.175  38.114  1.00  0.00    -0.200 F 
ATOM     84  C   UNL A   1      39.375  35.625  39.154  1.00  0.00     0.200 A 
ATOM     85  F   UNL A   1      37.941  34.038  40.156  1.00  0.00    -0.200 F 
ATOM     86  F   UNL A   1      39.260  36.425  40.223  1.00  0.00    -0.200 F 
ENDBRANCH  52  76
BRANCH  64  87
ATOM     87  C   UNL A   1      43.855  28.694  35.168  1.00  0.00     0.064 A 
ATOM     88  C   UNL A   1      45.162  29.180  35.041  1.00  0.00     0.173 A 
ATOM     89  C   UNL A   1      43.631  27.609  36.029  1.00  0.00     0.173 A 
ATOM     90  F   UNL A   1      45.423  30.206  34.218  1.00  0.00    -0.203 F 
ATOM     91  C   UNL A   1      46.212  28.594  35.744  1.00  0.00     0.198 A 
ATOM     92  C   UNL A   1      44.679  27.039  36.746  1.00  0.00     0.198 A 
ATOM     93  F   UNL A   1      42.394  27.113  36.186  1.00  0.00    -0.203 F 
ATOM     94  F   UNL A   1      47.460  29.056  35.589  1.00  0.00    -0.200 F 
ATOM     95  C   UNL A   1      45.968  27.531  36.601  1.00  0.00     0.200 A 
ATOM     96  F   UNL A   1      44.441  26.018  37.581  1.00  0.00    -0.200 F 
ATOM     97  F   UNL A   1      46.977  26.976  37.287  1.00  0.00    -0.200 F 
ENDBRANCH  64  87
ENDBRANCH  38  39
ENDBRANCH  30  33
ENDBRANCH  28  29
ENDBRANCH  27  28
ENDBRANCH   1  27
TORSDOF 14
ENDMDL
MODEL 3
REMARK VINA RESULT:     -13.1      5.025     10.261
REMARK SMILES Cc1cc(OC(F)(F)F)cc2c1O[C@H](C(F)(F)F)C(C(=O)NCCCCNC(=O)c1ccc(-c3c4nc(c(-c5c(F)c(F)c(F)c(F)c5F)c5ccc([nH]5)c(-c5c(F)c(F)c(F)c(F)c5F)c5nc(c(-c6c(F)c(F)c(F)c(F)c6F)c6ccc3[nH]6)C=C5)C=C4)cc1)=C2
REMARK SMILES IDX 24 1 23 2 22 3 20 4 21 5 19 7 1 8 2 9 3 10 12 11 4 12 11 13
REMARK SMILES IDX 13 14 10 15 93 16 14 17 5 18 6 19 7 20 8 21 9 22 15 23 16 24
REMARK SMILES IDX 17 25 18 26 25 27 26 28 27 29 28 30 29 32 30 33 31 34 92 35
REMARK SMILES IDX 32 36 91 37 33 38 34 39 35 40 85 41 36 42 90 43 84 44 86 45
REMARK SMILES IDX 37 46 89 47 83 48 82 49 38 51 70 52 50 53 69 54 51 55 54 56
REMARK SMILES IDX 68 57 87 58 52 59 53 60 67 62 88 63 55 64 39 65 40 66 48 67
REMARK SMILES IDX 41 68 42 69 46 70 49 71 43 72 44 73 47 74 45 75 71 76 72 77
REMARK SMILES IDX 80 78 73 79 74 80 78 81 81 82 75 83 76 84 79 85 77 86 56 87
REMARK SMILES IDX 57 88 65 89 58 90 59 91 63 92 66 93 60 94 61 95 64 96 62 97
REMARK H PARENT 22 6 27 31 86 50 54 61
REMARK Flexibility Score: inf
ROOT
ATOM      1  C   UNL A   1      39.292  22.735  26.392  1.00  0.00     0.023 C 
ENDROOT
BRANCH   1   2
ATOM      2  C   UNL A   1      38.093  23.585  25.982  1.00  0.00     0.116 C 
BRANCH   2   3
ATOM      3  N   UNL A   1      37.669  23.306  24.621  1.00  0.00    -0.352 N 
ATOM      4  C   UNL A   1      36.498  23.253  23.945  1.00  0.00     0.251 C 
ATOM      5  O   UNL A   1      36.598  22.953  22.751  1.00  0.00    -0.270 OA
ATOM      6  H   UNL A   1      38.435  23.100  24.038  1.00  0.00     0.163 HD
BRANCH   4   7
ATOM      7  C   UNL A   1      35.150  23.523  24.527  1.00  0.00     0.067 C 
ATOM      8  C   UNL A   1      30.309  23.333  26.227  1.00  0.00     0.048 C 
ATOM      9  C   UNL A   1      31.279  24.432  25.896  1.00  0.00    -0.005 A 
ATOM     10  C   UNL A   1      30.929  25.774  26.115  1.00  0.00     0.054 A 
ATOM     11  C   UNL A   1      32.550  24.135  25.391  1.00  0.00     0.131 A 
ATOM     12  C   UNL A   1      31.827  26.803  25.816  1.00  0.00     0.130 A 
ATOM     13  C   UNL A   1      33.455  25.152  25.083  1.00  0.00     0.021 A 
ATOM     14  O   UNL A   1      32.850  22.819  25.172  1.00  0.00    -0.475 OA
ATOM     15  C   UNL A   1      33.088  26.484  25.297  1.00  0.00     0.058 A 
ATOM     16  C   UNL A   1      34.751  24.809  24.508  1.00  0.00     0.025 C 
ATOM     17  C   UNL A   1      34.264  22.481  25.148  1.00  0.00     0.314 C 
BRANCH  12  18
ATOM     18  O   UNL A   1      31.607  28.142  25.975  1.00  0.00    -0.406 OA
BRANCH  18  19
ATOM     19  C   UNL A   1      31.864  28.707  27.249  1.00  0.00     0.573 C 
ATOM     20  F   UNL A   1      31.029  28.205  28.184  1.00  0.00    -0.132 F 
ATOM     21  F   UNL A   1      33.142  28.497  27.627  1.00  0.00    -0.132 F 
ATOM     22  F   UNL A   1      31.661  30.042  27.180  1.00  0.00    -0.132 F 
ENDBRANCH  18  19
ENDBRANCH  12  18
BRANCH  17  23
ATOM     23  C   UNL A   1      34.720  22.081  26.565  1.00  0.00     0.429 C 
ATOM     24  F   UNL A   1      35.812  21.279  26.501  1.00  0.00    -0.167 F 
ATOM     25  F   UNL A   1      35.076  23.151  27.314  1.00  0.00    -0.167 F 
ATOM     26  F   UNL A   1      33.768  21.415  27.256  1.00  0.00    -0.167 F 
ENDBRANCH  17  23
ENDBRANCH   4   7
ENDBRANCH   2   3
ENDBRANCH   1   2
BRANCH   1  27
ATOM     27  C   UNL A   1      39.271  21.312  25.826  1.00  0.00     0.023 C 
BRANCH  27  28
ATOM     28  C   UNL A   1      39.816  20.229  26.758  1.00  0.00     0.116 C 
BRANCH  28  29
ATOM     29  N   UNL A   1      40.777  19.337  26.126  1.00  0.00    -0.352 N 
ATOM     30  C   UNL A   1      42.106  19.587  25.880  1.00  0.00     0.251 C 
ATOM     31  H   UNL A   1      40.439  18.456  25.846  1.00  0.00     0.163 HD
ATOM     32  O   UNL A   1      42.813  18.779  25.292  1.00  0.00    -0.269 OA
BRANCH  30  33
ATOM     33  C   UNL A   1      42.652  20.887  26.305  1.00  0.00     0.039 A 
ATOM     34  C   UNL A   1      43.028  21.809  25.326  1.00  0.00     0.014 A 
ATOM     35  C   UNL A   1      42.680  21.219  27.662  1.00  0.00     0.014 A 
ATOM     36  C   UNL A   1      43.367  23.106  25.707  1.00  0.00     0.010 A 
ATOM     37  C   UNL A   1      42.983  22.523  28.036  1.00  0.00     0.010 A 
ATOM     38  C   UNL A   1      43.310  23.478  27.061  1.00  0.00    -0.014 A 
BRANCH  38  39
ATOM     39  C   UNL A   1      43.576  24.871  27.481  1.00  0.00     0.031 A 
ATOM     40  C   UNL A   1      44.989  25.335  27.662  1.00  0.00     0.074 A 
ATOM     41  C   UNL A   1      42.545  25.687  27.764  1.00  0.00     0.049 A 
ATOM     42  N   UNL A   1      45.430  26.479  28.116  1.00  0.00    -0.248 NA
ATOM     43  C   UNL A   1      46.045  24.377  27.302  1.00  0.00     0.031 C 
ATOM     44  C   UNL A   1      41.130  25.333  27.644  1.00  0.00     0.029 A 
ATOM     45  N   UNL A   1      42.529  26.978  28.224  1.00  0.00    -0.354 N 
ATOM     46  C   UNL A   1      46.813  26.379  28.101  1.00  0.00     0.074 A 
ATOM     47  C   UNL A   1      47.139  25.049  27.631  1.00  0.00     0.031 C 
ATOM     48  C   UNL A   1      40.382  26.387  28.012  1.00  0.00     0.029 A 
ATOM     49  C   UNL A   1      41.265  27.477  28.420  1.00  0.00     0.049 A 
ATOM     50  H   UNL A   1      43.346  27.499  28.398  1.00  0.00     0.167 HD
ATOM     51  C   UNL A   1      47.727  27.319  28.434  1.00  0.00     0.037 A 
ATOM     52  C   UNL A   1      40.867  28.678  28.882  1.00  0.00     0.037 A 
ATOM     53  C   UNL A   1      47.399  28.641  28.894  1.00  0.00     0.049 A 
ATOM     54  C   UNL A   1      41.903  29.699  29.261  1.00  0.00     0.074 A 
ATOM     55  C   UNL A   1      48.254  29.671  29.244  1.00  0.00     0.029 A 
ATOM     56  N   UNL A   1      46.107  29.116  29.064  1.00  0.00    -0.354 N 
ATOM     57  N   UNL A   1      43.209  29.603  29.221  1.00  0.00    -0.248 NA
ATOM     58  C   UNL A   1      41.410  30.996  29.746  1.00  0.00     0.031 C 
ATOM     59  C   UNL A   1      47.479  30.763  29.648  1.00  0.00     0.029 A 
ATOM     60  C   UNL A   1      46.140  30.424  29.518  1.00  0.00     0.049 A 
ATOM     61  H   UNL A   1      45.287  28.600  28.887  1.00  0.00     0.167 HD
ATOM     62  C   UNL A   1      43.695  30.830  29.650  1.00  0.00     0.074 A 
ATOM     63  C   UNL A   1      42.543  31.657  29.941  1.00  0.00     0.031 C 
ATOM     64  C   UNL A   1      44.981  31.234  29.787  1.00  0.00     0.037 A 
BRANCH  51  65
ATOM     65  C   UNL A   1      49.172  26.945  28.306  1.00  0.00     0.064 A 
ATOM     66  C   UNL A   1      49.860  27.110  27.096  1.00  0.00     0.173 A 
ATOM     67  C   UNL A   1      49.881  26.445  29.407  1.00  0.00     0.173 A 
ATOM     68  F   UNL A   1      49.219  27.570  26.011  1.00  0.00    -0.203 F 
ATOM     69  C   UNL A   1      51.206  26.767  26.987  1.00  0.00     0.198 A 
ATOM     70  C   UNL A   1      51.232  26.124  29.300  1.00  0.00     0.198 A 
ATOM     71  F   UNL A   1      49.266  26.269  30.586  1.00  0.00    -0.203 F 
ATOM     72  F   UNL A   1      51.834  26.894  25.810  1.00  0.00    -0.200 F 
ATOM     73  C   UNL A   1      51.891  26.280  28.089  1.00  0.00     0.200 A 
ATOM     74  F   UNL A   1      51.895  25.660  30.368  1.00  0.00    -0.200 F 
ATOM     75  F   UNL A   1      53.186  25.954  27.983  1.00  0.00    -0.200 F 
ENDBRANCH  51  65
BRANCH  52  76
ATOM     76  C   UNL A   1      39.419  28.987  28.976  1.00  0.00     0.064 A 
ATOM     77  C   UNL A   1      38.755  28.920  30.208  1.00  0.00     0.173 A 
ATOM     78  C   UNL A   1      38.678  29.372  27.851  1.00  0.00     0.173 A 
ATOM     79  F   UNL A   1      39.422  28.538  31.307  1.00  0.00    -0.203 F 
ATOM     80  C   UNL A   1      37.398  29.219  30.311  1.00  0.00     0.198 A 
ATOM     81  C   UNL A   1      37.325  29.689  27.958  1.00  0.00     0.198 A 
ATOM     82  F   UNL A   1      39.271  29.454  26.651  1.00  0.00    -0.203 F 
ATOM     83  F   UNL A   1      36.780  29.122  31.495  1.00  0.00    -0.200 F 
ATOM     84  C   UNL A   1      36.686  29.609  29.186  1.00  0.00     0.200 A 
ATOM     85  F   UNL A   1      36.642  30.075  26.872  1.00  0.00    -0.200 F 
ATOM     86  F   UNL A   1      35.383  29.904  29.286  1.00  0.00    -0.200 F 
ENDBRANCH  52  76
BRANCH  64  87
ATOM     87  C   UNL A   1      45.215  32.643  30.239  1.00  0.00     0.064 A 
ATOM     88  C   UNL A   1      45.270  33.705  29.328  1.00  0.00     0.173 A 
ATOM     89  C   UNL A   1      45.321  32.937  31.607  1.00  0.00     0.173 A 
ATOM     90  F   UNL A   1      45.189  33.467  28.010  1.00  0.00    -0.203 F 
ATOM     91  C   UNL A   1      45.434  35.016  29.769  1.00  0.00     0.198 A 
ATOM     92  C   UNL A   1      45.463  34.250  32.046  1.00  0.00     0.198 A 
ATOM     93  F   UNL A   1      45.268  31.953  32.517  1.00  0.00    -0.203 F 
ATOM     94  F   UNL A   1      45.511  36.015  28.879  1.00  0.00    -0.200 F 
ATOM     95  C   UNL A   1      45.521  35.287  31.126  1.00  0.00     0.200 A 
ATOM     96  F   UNL A   1      45.538  34.513  33.358  1.00  0.00    -0.200 F 
ATOM     97  F   UNL A   1      45.666  36.550  31.550  1.00  0.00    -0.200 F 
ENDBRANCH  64  87
ENDBRANCH  38  39
ENDBRANCH  30  33
ENDBRANCH  28  29
ENDBRANCH  27  28
ENDBRANCH   1  27
TORSDOF 14
ENDMDL
