MODEL 1
REMARK VINA RESULT:     -13.0      0.000      0.000
REMARK SMILES Cc1ccc(-c2nn(CCC(=O)NCCCCNC(=O)c3ccc(-c4c5nc(c(-c6c(F)c(F)c(F)c(F)c6F)c6ccc([nH]6)c(-c6c(F)c(F)c(F)c(F)c6F)c6nc(c(-c7c(F)c(F)c(F)c(F)c7F)c7ccc4[nH]7)C=C6)C=C5)cc3)c(=O)c3noc(C)c23)cc1C
REMARK SMILES IDX 15 1 14 2 13 3 11 4 12 5 10 7 9 8 8 9 6 10 7 11 91 12 86 13
REMARK SMILES IDX 89 14 84 15 87 16 88 17 90 18 85 19 5 20 1 21 2 22 3 23
REMARK SMILES IDX 93 24 4 25 92 26 94 27 16 28 17 29 18 30 19 31 20 33 21 34
REMARK SMILES IDX 22 35 83 36 23 37 82 38 24 39 25 40 26 41 76 42 27 43 81 44
REMARK SMILES IDX 75 45 77 46 28 47 80 48 74 49 73 50 29 52 61 53 41 54 60 55
REMARK SMILES IDX 42 56 45 57 59 58 78 59 43 60 44 61 58 63 79 64 46 65 30 66
REMARK SMILES IDX 31 67 39 68 32 69 33 70 37 71 40 72 34 73 35 74 38 75 36 76
REMARK SMILES IDX 62 77 63 78 71 79 64 80 65 81 69 82 72 83 66 84 67 85 70 86
REMARK SMILES IDX 68 87 47 88 48 89 56 90 49 91 50 92 54 93 57 94 51 95 52 96
REMARK SMILES IDX 55 97 53 98
REMARK H PARENT 13 6 18 32 77 51 45 62
REMARK Flexibility Score: inf
ROOT
ATOM      1  C   UNL A   1      35.866  21.191  25.423  1.00  0.00     0.023 C 
ENDROOT
BRANCH   1   2
ATOM      2  C   UNL A   1      34.759  20.462  24.668  1.00  0.00     0.116 C 
BRANCH   2   3
ATOM      3  N   UNL A   1      33.459  20.976  25.059  1.00  0.00    -0.356 N 
ATOM      4  C   UNL A   1      32.659  21.894  24.449  1.00  0.00     0.221 C 
ATOM      5  O   UNL A   1      31.662  22.291  25.054  1.00  0.00    -0.275 OA
ATOM      6  H   UNL A   1      33.100  20.603  25.896  1.00  0.00     0.163 HD
BRANCH   4   7
ATOM      7  C   UNL A   1      32.950  22.380  23.044  1.00  0.00     0.124 C 
BRANCH   7   8
ATOM      8  C   UNL A   1      33.953  23.528  23.004  1.00  0.00     0.158 C 
BRANCH   8   9
ATOM      9  N   UNL A   1      33.491  24.736  23.692  1.00  0.00    -0.227 N 
ATOM     10  C   UNL A   1      31.936  26.508  23.635  1.00  0.00     0.104 A 
ATOM     11  N   UNL A   1      32.383  25.399  23.109  1.00  0.00    -0.169 NA
ATOM     12  C   UNL A   1      32.644  27.107  24.727  1.00  0.00     0.078 A 
ATOM     13  C   UNL A   1      33.614  26.374  25.420  1.00  0.00     0.183 A 
ATOM     14  C   UNL A   1      32.655  28.350  25.310  1.00  0.00     0.143 A 
ATOM     15  C   UNL A   1      34.049  25.068  24.954  1.00  0.00     0.296 A 
ATOM     16  N   UNL A   1      34.147  27.079  26.426  1.00  0.00    -0.074 NA
ATOM     17  O   UNL A   1      33.543  28.329  26.348  1.00  0.00    -0.360 OA
ATOM     18  C   UNL A   1      32.004  29.648  25.045  1.00  0.00     0.091 C 
ATOM     19  O   UNL A   1      34.867  24.377  25.545  1.00  0.00    -0.265 OA
BRANCH  10  20
ATOM     20  C   UNL A   1      30.610  27.046  23.298  1.00  0.00     0.003 A 
ATOM     21  C   UNL A   1      26.680  28.794  23.138  1.00  0.00     0.044 C 
ATOM     22  C   UNL A   1      28.061  28.193  23.137  1.00  0.00    -0.048 A 
ATOM     23  C   UNL A   1      28.265  27.006  23.858  1.00  0.00     0.004 A 
ATOM     24  C   UNL A   1      29.147  28.791  22.459  1.00  0.00    -0.048 A 
ATOM     25  C   UNL A   1      29.530  26.436  23.941  1.00  0.00     0.011 A 
ATOM     26  C   UNL A   1      30.425  28.201  22.539  1.00  0.00     0.014 A 
ATOM     27  C   UNL A   1      29.012  30.087  21.704  1.00  0.00     0.044 C 
ENDBRANCH  10  20
ENDBRANCH   8   9
ENDBRANCH   7   8
ENDBRANCH   4   7
ENDBRANCH   2   3
ENDBRANCH   1   2
BRANCH   1  28
ATOM     28  C   UNL A   1      36.965  21.846  24.584  1.00  0.00     0.023 C 
BRANCH  28  29
ATOM     29  C   UNL A   1      38.009  22.642  25.371  1.00  0.00     0.116 C 
BRANCH  29  30
ATOM     30  N   UNL A   1      38.806  21.804  26.254  1.00  0.00    -0.352 N 
ATOM     31  C   UNL A   1      39.825  22.093  27.119  1.00  0.00     0.251 C 
ATOM     32  H   UNL A   1      38.566  20.849  26.224  1.00  0.00     0.163 HD
ATOM     33  O   UNL A   1      40.406  21.168  27.683  1.00  0.00    -0.269 OA
BRANCH  31  34
ATOM     34  C   UNL A   1      40.254  23.476  27.397  1.00  0.00     0.039 A 
ATOM     35  C   UNL A   1      41.605  23.783  27.196  1.00  0.00     0.014 A 
ATOM     36  C   UNL A   1      39.390  24.426  27.948  1.00  0.00     0.014 A 
ATOM     37  C   UNL A   1      42.081  25.055  27.494  1.00  0.00     0.010 A 
ATOM     38  C   UNL A   1      39.867  25.705  28.238  1.00  0.00     0.010 A 
ATOM     39  C   UNL A   1      41.207  26.030  27.990  1.00  0.00    -0.014 A 
BRANCH  39  40
ATOM     40  C   UNL A   1      41.721  27.407  28.083  1.00  0.00     0.031 A 
ATOM     41  C   UNL A   1      40.664  28.462  27.949  1.00  0.00     0.074 A 
ATOM     42  C   UNL A   1      42.825  27.701  28.800  1.00  0.00     0.049 A 
ATOM     43  N   UNL A   1      39.893  28.833  28.932  1.00  0.00    -0.248 NA
ATOM     44  C   UNL A   1      40.222  28.951  26.642  1.00  0.00     0.031 C 
ATOM     45  C   UNL A   1      43.184  27.063  30.070  1.00  0.00     0.029 A 
ATOM     46  N   UNL A   1      43.722  28.737  28.673  1.00  0.00    -0.354 N 
ATOM     47  C   UNL A   1      38.849  29.561  28.388  1.00  0.00     0.074 A 
ATOM     48  C   UNL A   1      39.100  29.615  26.964  1.00  0.00     0.031 C 
ATOM     49  C   UNL A   1      44.098  27.835  30.694  1.00  0.00     0.029 A 
ATOM     50  C   UNL A   1      44.481  28.943  29.820  1.00  0.00     0.049 A 
ATOM     51  H   UNL A   1      43.817  29.277  27.854  1.00  0.00     0.167 HD
ATOM     52  C   UNL A   1      37.838  30.075  29.137  1.00  0.00     0.037 A 
ATOM     53  C   UNL A   1      44.906  30.166  30.246  1.00  0.00     0.037 A 
ATOM     54  C   UNL A   1      37.932  29.843  30.547  1.00  0.00     0.049 A 
ATOM     55  C   UNL A   1      43.617  30.717  30.814  1.00  0.00     0.074 A 
ATOM     56  C   UNL A   1      37.418  28.964  31.475  1.00  0.00     0.029 A 
ATOM     57  N   UNL A   1      38.773  30.656  31.270  1.00  0.00    -0.354 N 
ATOM     58  N   UNL A   1      43.074  30.396  31.961  1.00  0.00    -0.248 NA
ATOM     59  C   UNL A   1      42.707  31.383  29.877  1.00  0.00     0.031 C 
ATOM     60  C   UNL A   1      38.335  28.997  32.574  1.00  0.00     0.029 A 
ATOM     61  C   UNL A   1      39.366  29.868  32.221  1.00  0.00     0.049 A 
ATOM     62  H   UNL A   1      38.921  31.620  31.130  1.00  0.00     0.167 HD
ATOM     63  C   UNL A   1      41.699  30.570  31.781  1.00  0.00     0.074 A 
ATOM     64  C   UNL A   1      41.545  31.208  30.491  1.00  0.00     0.031 C 
ATOM     65  C   UNL A   1      40.753  30.014  32.593  1.00  0.00     0.037 A 
BRANCH  52  66
ATOM     66  C   UNL A   1      36.794  30.993  28.645  1.00  0.00     0.064 A 
ATOM     67  C   UNL A   1      37.048  32.371  28.736  1.00  0.00     0.173 A 
ATOM     68  C   UNL A   1      35.497  30.578  28.336  1.00  0.00     0.173 A 
ATOM     69  F   UNL A   1      38.282  32.804  29.046  1.00  0.00    -0.203 F 
ATOM     70  C   UNL A   1      36.031  33.302  28.578  1.00  0.00     0.198 A 
ATOM     71  C   UNL A   1      34.478  31.517  28.163  1.00  0.00     0.198 A 
ATOM     72  F   UNL A   1      35.203  29.272  28.256  1.00  0.00    -0.203 F 
ATOM     73  F   UNL A   1      36.292  34.606  28.735  1.00  0.00    -0.200 F 
ATOM     74  C   UNL A   1      34.742  32.875  28.302  1.00  0.00     0.200 A 
ATOM     75  F   UNL A   1      33.228  31.109  27.900  1.00  0.00    -0.200 F 
ATOM     76  F   UNL A   1      33.752  33.770  28.188  1.00  0.00    -0.200 F 
ENDBRANCH  52  66
BRANCH  53  77
ATOM     77  C   UNL A   1      45.778  30.914  29.280  1.00  0.00     0.064 A 
ATOM     78  C   UNL A   1      47.108  31.196  29.661  1.00  0.00     0.173 A 
ATOM     79  C   UNL A   1      45.403  31.350  28.001  1.00  0.00     0.173 A 
ATOM     80  F   UNL A   1      47.519  30.940  30.914  1.00  0.00    -0.203 F 
ATOM     81  C   UNL A   1      48.042  31.716  28.766  1.00  0.00     0.198 A 
ATOM     82  C   UNL A   1      46.344  31.848  27.094  1.00  0.00     0.198 A 
ATOM     83  F   UNL A   1      44.131  31.283  27.591  1.00  0.00    -0.203 F 
ATOM     84  F   UNL A   1      49.310  31.903  29.156  1.00  0.00    -0.200 F 
ATOM     85  C   UNL A   1      47.668  32.003  27.468  1.00  0.00     0.200 A 
ATOM     86  F   UNL A   1      45.968  32.142  25.841  1.00  0.00    -0.200 F 
ATOM     87  F   UNL A   1      48.577  32.428  26.580  1.00  0.00    -0.200 F 
ENDBRANCH  53  77
BRANCH  65  88
ATOM     88  C   UNL A   1      41.268  29.320  33.805  1.00  0.00     0.064 A 
ATOM     89  C   UNL A   1      41.511  27.943  33.779  1.00  0.00     0.173 A 
ATOM     90  C   UNL A   1      41.573  30.025  34.979  1.00  0.00     0.173 A 
ATOM     91  F   UNL A   1      41.245  27.227  32.674  1.00  0.00    -0.203 F 
ATOM     92  C   UNL A   1      42.064  27.296  34.880  1.00  0.00     0.198 A 
ATOM     93  C   UNL A   1      42.155  29.380  36.067  1.00  0.00     0.198 A 
ATOM     94  F   UNL A   1      41.340  31.343  35.072  1.00  0.00    -0.203 F 
ATOM     95  F   UNL A   1      42.298  25.978  34.832  1.00  0.00    -0.200 F 
ATOM     96  C   UNL A   1      42.400  28.018  36.015  1.00  0.00     0.200 A 
ATOM     97  F   UNL A   1      42.498  30.083  37.155  1.00  0.00    -0.200 F 
ATOM     98  F   UNL A   1      42.976  27.401  37.057  1.00  0.00    -0.200 F 
ENDBRANCH  65  88
ENDBRANCH  39  40
ENDBRANCH  31  34
ENDBRANCH  29  30
ENDBRANCH  28  29
ENDBRANCH   1  28
TORSDOF 14
ENDMDL
MODEL 2
REMARK VINA RESULT:     -12.6      9.350     13.947
REMARK SMILES Cc1ccc(-c2nn(CCC(=O)NCCCCNC(=O)c3ccc(-c4c5nc(c(-c6c(F)c(F)c(F)c(F)c6F)c6ccc([nH]6)c(-c6c(F)c(F)c(F)c(F)c6F)c6nc(c(-c7c(F)c(F)c(F)c(F)c7F)c7ccc4[nH]7)C=C6)C=C5)cc3)c(=O)c3noc(C)c23)cc1C
REMARK SMILES IDX 15 1 14 2 13 3 11 4 12 5 10 7 9 8 8 9 6 10 7 11 91 12 86 13
REMARK SMILES IDX 89 14 84 15 87 16 88 17 90 18 85 19 5 20 1 21 2 22 3 23
REMARK SMILES IDX 93 24 4 25 92 26 94 27 16 28 17 29 18 30 19 31 20 33 21 34
REMARK SMILES IDX 22 35 83 36 23 37 82 38 24 39 25 40 26 41 76 42 27 43 81 44
REMARK SMILES IDX 75 45 77 46 28 47 80 48 74 49 73 50 29 52 61 53 41 54 60 55
REMARK SMILES IDX 42 56 45 57 59 58 78 59 43 60 44 61 58 63 79 64 46 65 30 66
REMARK SMILES IDX 31 67 39 68 32 69 33 70 37 71 40 72 34 73 35 74 38 75 36 76
REMARK SMILES IDX 62 77 63 78 71 79 64 80 65 81 69 82 72 83 66 84 67 85 70 86
REMARK SMILES IDX 68 87 47 88 48 89 56 90 49 91 50 92 54 93 57 94 51 95 52 96
REMARK SMILES IDX 55 97 53 98
REMARK H PARENT 13 6 18 32 77 51 45 62
REMARK Flexibility Score: inf
ROOT
ATOM      1  C   UNL A   1      42.517  40.755  26.103  1.00  0.00     0.023 C 
ENDROOT
BRANCH   1   2
ATOM      2  C   UNL A   1      41.966  41.323  24.800  1.00  0.00     0.116 C 
BRANCH   2   3
ATOM      3  N   UNL A   1      42.437  42.682  24.601  1.00  0.00    -0.356 N 
ATOM      4  C   UNL A   1      42.579  43.402  23.455  1.00  0.00     0.221 C 
ATOM      5  O   UNL A   1      43.151  44.492  23.519  1.00  0.00    -0.275 OA
ATOM      6  H   UNL A   1      42.694  43.156  25.425  1.00  0.00     0.163 HD
BRANCH   4   7
ATOM      7  C   UNL A   1      42.007  42.910  22.142  1.00  0.00     0.124 C 
BRANCH   7   8
ATOM      8  C   UNL A   1      43.033  42.187  21.275  1.00  0.00     0.158 C 
BRANCH   8   9
ATOM      9  N   UNL A   1      43.938  43.090  20.560  1.00  0.00    -0.227 N 
ATOM     10  C   UNL A   1      44.107  44.646  18.797  1.00  0.00     0.104 A 
ATOM     11  N   UNL A   1      43.360  43.851  19.513  1.00  0.00    -0.169 NA
ATOM     12  C   UNL A   1      45.525  44.656  18.999  1.00  0.00     0.078 A 
ATOM     13  C   UNL A   1      46.075  44.059  20.139  1.00  0.00     0.183 A 
ATOM     14  C   UNL A   1      46.605  45.105  18.279  1.00  0.00     0.143 A 
ATOM     15  C   UNL A   1      45.258  43.274  21.049  1.00  0.00     0.296 A 
ATOM     16  N   UNL A   1      47.407  44.191  20.178  1.00  0.00    -0.074 NA
ATOM     17  O   UNL A   1      47.738  44.847  18.998  1.00  0.00    -0.360 OA
ATOM     18  C   UNL A   1      46.810  45.716  16.951  1.00  0.00     0.091 C 
ATOM     19  O   UNL A   1      45.686  42.765  22.074  1.00  0.00    -0.265 OA
BRANCH  10  20
ATOM     20  C   UNL A   1      43.527  45.698  17.948  1.00  0.00     0.003 A 
ATOM     21  C   UNL A   1      41.089  48.479  15.746  1.00  0.00     0.044 C 
ATOM     22  C   UNL A   1      41.987  47.542  16.511  1.00  0.00    -0.048 A 
ATOM     23  C   UNL A   1      41.913  46.171  16.221  1.00  0.00     0.004 A 
ATOM     24  C   UNL A   1      42.874  47.995  17.515  1.00  0.00    -0.048 A 
ATOM     25  C   UNL A   1      42.675  45.253  16.934  1.00  0.00     0.011 A 
ATOM     26  C   UNL A   1      43.652  47.058  18.227  1.00  0.00     0.014 A 
ATOM     27  C   UNL A   1      42.973  49.444  17.910  1.00  0.00     0.044 C 
ENDBRANCH  10  20
ENDBRANCH   8   9
ENDBRANCH   7   8
ENDBRANCH   4   7
ENDBRANCH   2   3
ENDBRANCH   1   2
BRANCH   1  28
ATOM     28  C   UNL A   1      41.519  40.074  27.042  1.00  0.00     0.023 C 
BRANCH  28  29
ATOM     29  C   UNL A   1      42.047  38.842  27.783  1.00  0.00     0.116 C 
BRANCH  29  30
ATOM     30  N   UNL A   1      43.112  38.165  27.059  1.00  0.00    -0.352 N 
ATOM     31  C   UNL A   1      43.660  36.919  27.190  1.00  0.00     0.251 C 
ATOM     32  H   UNL A   1      43.513  38.704  26.339  1.00  0.00     0.163 HD
ATOM     33  O   UNL A   1      44.636  36.624  26.503  1.00  0.00    -0.269 OA
BRANCH  31  34
ATOM     34  C   UNL A   1      43.124  35.917  28.129  1.00  0.00     0.039 A 
ATOM     35  C   UNL A   1      44.049  35.158  28.857  1.00  0.00     0.014 A 
ATOM     36  C   UNL A   1      41.758  35.640  28.221  1.00  0.00     0.014 A 
ATOM     37  C   UNL A   1      43.606  34.159  29.717  1.00  0.00     0.010 A 
ATOM     38  C   UNL A   1      41.314  34.644  29.091  1.00  0.00     0.010 A 
ATOM     39  C   UNL A   1      42.234  33.916  29.859  1.00  0.00    -0.014 A 
BRANCH  39  40
ATOM     40  C   UNL A   1      41.822  33.000  30.935  1.00  0.00     0.031 A 
ATOM     41  C   UNL A   1      40.371  33.103  31.302  1.00  0.00     0.074 A 
ATOM     42  C   UNL A   1      42.444  31.820  31.133  1.00  0.00     0.049 A 
ATOM     43  N   UNL A   1      39.419  32.520  30.632  1.00  0.00    -0.248 NA
ATOM     44  C   UNL A   1      39.887  34.095  32.264  1.00  0.00     0.031 C 
ATOM     45  C   UNL A   1      42.955  30.960  30.061  1.00  0.00     0.029 A 
ATOM     46  N   UNL A   1      42.566  31.055  32.271  1.00  0.00    -0.354 N 
ATOM     47  C   UNL A   1      38.221  33.081  31.038  1.00  0.00     0.074 A 
ATOM     48  C   UNL A   1      38.561  34.049  32.058  1.00  0.00     0.031 C 
ATOM     49  C   UNL A   1      43.156  29.724  30.562  1.00  0.00     0.029 A 
ATOM     50  C   UNL A   1      42.914  29.735  32.004  1.00  0.00     0.049 A 
ATOM     51  H   UNL A   1      42.423  31.406  33.181  1.00  0.00     0.167 HD
ATOM     52  C   UNL A   1      37.021  32.722  30.511  1.00  0.00     0.037 A 
ATOM     53  C   UNL A   1      42.482  28.669  32.735  1.00  0.00     0.037 A 
ATOM     54  C   UNL A   1      37.063  31.691  29.519  1.00  0.00     0.049 A 
ATOM     55  C   UNL A   1      41.059  28.557  32.233  1.00  0.00     0.074 A 
ATOM     56  C   UNL A   1      37.059  31.594  28.145  1.00  0.00     0.029 A 
ATOM     57  N   UNL A   1      37.169  30.391  29.957  1.00  0.00    -0.354 N 
ATOM     58  N   UNL A   1      40.677  28.053  31.088  1.00  0.00    -0.248 NA
ATOM     59  C   UNL A   1      40.052  29.391  32.896  1.00  0.00     0.031 C 
ATOM     60  C   UNL A   1      37.640  30.317  27.855  1.00  0.00     0.029 A 
ATOM     61  C   UNL A   1      37.993  29.742  29.076  1.00  0.00     0.049 A 
ATOM     62  H   UNL A   1      36.737  30.003  30.752  1.00  0.00     0.167 HD
ATOM     63  C   UNL A   1      39.496  28.729  30.762  1.00  0.00     0.074 A 
ATOM     64  C   UNL A   1      39.153  29.512  31.929  1.00  0.00     0.031 C 
ATOM     65  C   UNL A   1      38.971  28.769  29.503  1.00  0.00     0.037 A 
BRANCH  52  66
ATOM     66  C   UNL A   1      35.704  33.159  31.014  1.00  0.00     0.064 A 
ATOM     67  C   UNL A   1      35.061  34.198  30.325  1.00  0.00     0.173 A 
ATOM     68  C   UNL A   1      35.197  32.775  32.258  1.00  0.00     0.173 A 
ATOM     69  F   UNL A   1      35.531  34.602  29.132  1.00  0.00    -0.203 F 
ATOM     70  C   UNL A   1      33.980  34.868  30.881  1.00  0.00     0.198 A 
ATOM     71  C   UNL A   1      34.101  33.442  32.809  1.00  0.00     0.198 A 
ATOM     72  F   UNL A   1      35.791  31.799  32.961  1.00  0.00    -0.203 F 
ATOM     73  F   UNL A   1      33.428  35.899  30.226  1.00  0.00    -0.200 F 
ATOM     74  C   UNL A   1      33.506  34.498  32.128  1.00  0.00     0.200 A 
ATOM     75  F   UNL A   1      33.641  33.089  34.018  1.00  0.00    -0.200 F 
ATOM     76  F   UNL A   1      32.488  35.170  32.683  1.00  0.00    -0.200 F 
ENDBRANCH  52  66
BRANCH  53  77
ATOM     77  C   UNL A   1      42.854  28.694  34.188  1.00  0.00     0.064 A 
ATOM     78  C   UNL A   1      43.626  27.628  34.699  1.00  0.00     0.173 A 
ATOM     79  C   UNL A   1      42.523  29.703  35.105  1.00  0.00     0.173 A 
ATOM     80  F   UNL A   1      43.877  26.551  33.937  1.00  0.00    -0.203 F 
ATOM     81  C   UNL A   1      44.175  27.656  35.980  1.00  0.00     0.198 A 
ATOM     82  C   UNL A   1      43.093  29.746  36.381  1.00  0.00     0.198 A 
ATOM     83  F   UNL A   1      41.666  30.679  34.781  1.00  0.00    -0.203 F 
ATOM     84  F   UNL A   1      44.958  26.652  36.395  1.00  0.00    -0.200 F 
ATOM     85  C   UNL A   1      43.941  28.738  36.808  1.00  0.00     0.200 A 
ATOM     86  F   UNL A   1      42.845  30.791  37.184  1.00  0.00    -0.200 F 
ATOM     87  F   UNL A   1      44.528  28.810  38.009  1.00  0.00    -0.200 F 
ENDBRANCH  53  77
BRANCH  65  88
ATOM     88  C   UNL A   1      39.646  27.911  28.492  1.00  0.00     0.064 A 
ATOM     89  C   UNL A   1      39.390  26.536  28.451  1.00  0.00     0.173 A 
ATOM     90  C   UNL A   1      40.507  28.453  27.526  1.00  0.00     0.173 A 
ATOM     91  F   UNL A   1      38.564  25.972  29.347  1.00  0.00    -0.203 F 
ATOM     92  C   UNL A   1      39.956  25.735  27.463  1.00  0.00     0.198 A 
ATOM     93  C   UNL A   1      41.046  27.655  26.522  1.00  0.00     0.198 A 
ATOM     94  F   UNL A   1      40.809  29.761  27.530  1.00  0.00    -0.203 F 
ATOM     95  F   UNL A   1      39.692  24.422  27.435  1.00  0.00    -0.200 F 
ATOM     96  C   UNL A   1      40.769  26.298  26.491  1.00  0.00     0.200 A 
ATOM     97  F   UNL A   1      41.815  28.205  25.571  1.00  0.00    -0.200 F 
ATOM     98  F   UNL A   1      41.275  25.534  25.514  1.00  0.00    -0.200 F 
ENDBRANCH  65  88
ENDBRANCH  39  40
ENDBRANCH  31  34
ENDBRANCH  29  30
ENDBRANCH  28  29
ENDBRANCH   1  28
TORSDOF 14
ENDMDL
MODEL 3
REMARK VINA RESULT:     -12.4      9.042     14.990
REMARK SMILES Cc1ccc(-c2nn(CCC(=O)NCCCCNC(=O)c3ccc(-c4c5nc(c(-c6c(F)c(F)c(F)c(F)c6F)c6ccc([nH]6)c(-c6c(F)c(F)c(F)c(F)c6F)c6nc(c(-c7c(F)c(F)c(F)c(F)c7F)c7ccc4[nH]7)C=C6)C=C5)cc3)c(=O)c3noc(C)c23)cc1C
REMARK SMILES IDX 15 1 14 2 13 3 11 4 12 5 10 7 9 8 8 9 6 10 7 11 91 12 86 13
REMARK SMILES IDX 89 14 84 15 87 16 88 17 90 18 85 19 5 20 1 21 2 22 3 23
REMARK SMILES IDX 93 24 4 25 92 26 94 27 16 28 17 29 18 30 19 31 20 33 21 34
REMARK SMILES IDX 22 35 83 36 23 37 82 38 24 39 25 40 26 41 76 42 27 43 81 44
REMARK SMILES IDX 75 45 77 46 28 47 80 48 74 49 73 50 29 52 61 53 41 54 60 55
REMARK SMILES IDX 42 56 45 57 59 58 78 59 43 60 44 61 58 63 79 64 46 65 30 66
REMARK SMILES IDX 31 67 39 68 32 69 33 70 37 71 40 72 34 73 35 74 38 75 36 76
REMARK SMILES IDX 62 77 63 78 71 79 64 80 65 81 69 82 72 83 66 84 67 85 70 86
REMARK SMILES IDX 68 87 47 88 48 89 56 90 49 91 50 92 54 93 57 94 51 95 52 96
REMARK SMILES IDX 55 97 53 98
REMARK H PARENT 13 6 18 32 77 51 45 62
REMARK Flexibility Score: inf
ROOT
ATOM      1  C   UNL A   1      45.881  19.576  36.347  1.00  0.00     0.023 C 
ENDROOT
BRANCH   1   2
ATOM      2  C   UNL A   1      45.869  18.750  37.629  1.00  0.00     0.116 C 
BRANCH   2   3
ATOM      3  N   UNL A   1      44.862  17.708  37.550  1.00  0.00    -0.356 N 
ATOM      4  C   UNL A   1      44.527  16.742  38.449  1.00  0.00     0.221 C 
ATOM      5  O   UNL A   1      43.739  15.863  38.093  1.00  0.00    -0.275 OA
ATOM      6  H   UNL A   1      44.340  17.699  36.715  1.00  0.00     0.163 HD
BRANCH   4   7
ATOM      7  C   UNL A   1      45.062  16.767  39.865  1.00  0.00     0.124 C 
BRANCH   7   8
ATOM      8  C   UNL A   1      44.097  17.406  40.859  1.00  0.00     0.158 C 
BRANCH   8   9
ATOM      9  N   UNL A   1      44.190  16.847  42.210  1.00  0.00    -0.227 N 
ATOM     10  C   UNL A   1      43.545  15.058  43.603  1.00  0.00     0.104 A 
ATOM     11  N   UNL A   1      43.547  15.603  42.416  1.00  0.00    -0.169 NA
ATOM     12  C   UNL A   1      44.092  15.780  44.712  1.00  0.00     0.078 A 
ATOM     13  C   UNL A   1      44.887  16.911  44.489  1.00  0.00     0.183 A 
ATOM     14  C   UNL A   1      44.004  15.673  46.078  1.00  0.00     0.143 A 
ATOM     15  C   UNL A   1      45.036  17.478  43.160  1.00  0.00     0.296 A 
ATOM     16  N   UNL A   1      45.337  17.437  45.635  1.00  0.00    -0.074 NA
ATOM     17  O   UNL A   1      44.772  16.656  46.637  1.00  0.00    -0.360 OA
ATOM     18  C   UNL A   1      43.261  14.819  47.025  1.00  0.00     0.091 C 
ATOM     19  O   UNL A   1      45.746  18.442  42.912  1.00  0.00    -0.265 OA
BRANCH  10  20
ATOM     20  C   UNL A   1      43.208  13.641  43.804  1.00  0.00     0.003 A 
ATOM     21  C   UNL A   1      42.105   9.488  43.557  1.00  0.00     0.044 C 
ATOM     22  C   UNL A   1      42.517  10.930  43.694  1.00  0.00    -0.048 A 
ATOM     23  C   UNL A   1      41.578  11.919  43.365  1.00  0.00     0.004 A 
ATOM     24  C   UNL A   1      43.811  11.311  44.117  1.00  0.00    -0.048 A 
ATOM     25  C   UNL A   1      41.919  13.266  43.418  1.00  0.00     0.011 A 
ATOM     26  C   UNL A   1      44.146  12.680  44.178  1.00  0.00     0.014 A 
ATOM     27  C   UNL A   1      44.883  10.304  44.441  1.00  0.00     0.044 C 
ENDBRANCH  10  20
ENDBRANCH   8   9
ENDBRANCH   7   8
ENDBRANCH   4   7
ENDBRANCH   2   3
ENDBRANCH   1   2
BRANCH   1  28
ATOM     28  C   UNL A   1      46.366  21.023  36.456  1.00  0.00     0.023 C 
BRANCH  28  29
ATOM     29  C   UNL A   1      45.800  21.988  35.411  1.00  0.00     0.116 C 
BRANCH  29  30
ATOM     30  N   UNL A   1      44.495  22.516  35.783  1.00  0.00    -0.352 N 
ATOM     31  C   UNL A   1      43.763  23.567  35.305  1.00  0.00     0.251 C 
ATOM     32  H   UNL A   1      44.058  22.023  36.516  1.00  0.00     0.163 HD
ATOM     33  O   UNL A   1      42.714  23.866  35.873  1.00  0.00    -0.269 OA
BRANCH  31  34
ATOM     34  C   UNL A   1      44.186  24.356  34.135  1.00  0.00     0.039 A 
ATOM     35  C   UNL A   1      43.904  23.831  32.868  1.00  0.00     0.014 A 
ATOM     36  C   UNL A   1      44.941  25.525  34.261  1.00  0.00     0.014 A 
ATOM     37  C   UNL A   1      44.327  24.503  31.727  1.00  0.00     0.010 A 
ATOM     38  C   UNL A   1      45.358  26.203  33.114  1.00  0.00     0.010 A 
ATOM     39  C   UNL A   1      45.033  25.707  31.845  1.00  0.00    -0.014 A 
BRANCH  39  40
ATOM     40  C   UNL A   1      45.265  26.472  30.609  1.00  0.00     0.031 A 
ATOM     41  C   UNL A   1      45.140  25.659  29.355  1.00  0.00     0.074 A 
ATOM     42  C   UNL A   1      45.000  27.793  30.537  1.00  0.00     0.049 A 
ATOM     43  N   UNL A   1      43.998  25.372  28.797  1.00  0.00    -0.248 NA
ATOM     44  C   UNL A   1      46.262  24.885  28.823  1.00  0.00     0.031 C 
ATOM     45  C   UNL A   1      43.868  28.450  31.199  1.00  0.00     0.029 A 
ATOM     46  N   UNL A   1      45.532  28.767  29.723  1.00  0.00    -0.354 N 
ATOM     47  C   UNL A   1      44.227  24.363  27.879  1.00  0.00     0.074 A 
ATOM     48  C   UNL A   1      45.649  24.098  27.924  1.00  0.00     0.031 C 
ATOM     49  C   UNL A   1      43.676  29.655  30.623  1.00  0.00     0.029 A 
ATOM     50  C   UNL A   1      44.739  29.908  29.651  1.00  0.00     0.049 A 
ATOM     51  H   UNL A   1      46.385  28.668  29.241  1.00  0.00     0.167 HD
ATOM     52  C   UNL A   1      43.237  23.800  27.137  1.00  0.00     0.037 A 
ATOM     53  C   UNL A   1      44.613  30.681  28.536  1.00  0.00     0.037 A 
ATOM     54  C   UNL A   1      41.927  24.341  27.340  1.00  0.00     0.049 A 
ATOM     55  C   UNL A   1      43.701  29.807  27.703  1.00  0.00     0.074 A 
ATOM     56  C   UNL A   1      40.794  24.032  28.059  1.00  0.00     0.029 A 
ATOM     57  N   UNL A   1      41.621  25.522  26.706  1.00  0.00    -0.354 N 
ATOM     58  N   UNL A   1      42.411  29.655  27.864  1.00  0.00    -0.248 NA
ATOM     59  C   UNL A   1      44.337  28.769  26.886  1.00  0.00     0.031 C 
ATOM     60  C   UNL A   1      40.081  25.267  28.191  1.00  0.00     0.029 A 
ATOM     61  C   UNL A   1      40.853  26.251  27.574  1.00  0.00     0.049 A 
ATOM     62  H   UNL A   1      41.903  25.793  25.801  1.00  0.00     0.167 HD
ATOM     63  C   UNL A   1      42.130  28.365  27.404  1.00  0.00     0.074 A 
ATOM     64  C   UNL A   1      43.350  27.890  26.787  1.00  0.00     0.031 C 
ATOM     65  C   UNL A   1      40.991  27.681  27.718  1.00  0.00     0.037 A 
BRANCH  52  66
ATOM     66  C   UNL A   1      43.438  22.845  26.030  1.00  0.00     0.064 A 
ATOM     67  C   UNL A   1      43.277  21.481  26.316  1.00  0.00     0.173 A 
ATOM     68  C   UNL A   1      44.015  23.203  24.810  1.00  0.00     0.173 A 
ATOM     69  F   UNL A   1      42.738  21.101  27.488  1.00  0.00    -0.203 F 
ATOM     70  C   UNL A   1      43.724  20.504  25.436  1.00  0.00     0.198 A 
ATOM     71  C   UNL A   1      44.451  22.219  23.920  1.00  0.00     0.198 A 
ATOM     72  F   UNL A   1      44.205  24.494  24.501  1.00  0.00    -0.203 F 
ATOM     73  F   UNL A   1      43.614  19.210  25.767  1.00  0.00    -0.200 F 
ATOM     74  C   UNL A   1      44.322  20.873  24.243  1.00  0.00     0.200 A 
ATOM     75  F   UNL A   1      45.034  22.570  22.765  1.00  0.00    -0.200 F 
ATOM     76  F   UNL A   1      44.790  19.932  23.412  1.00  0.00    -0.200 F 
ENDBRANCH  52  66
BRANCH  53  77
ATOM     77  C   UNL A   1      45.890  31.280  28.023  1.00  0.00     0.064 A 
ATOM     78  C   UNL A   1      45.962  32.684  27.888  1.00  0.00     0.173 A 
ATOM     79  C   UNL A   1      47.050  30.572  27.678  1.00  0.00     0.173 A 
ATOM     80  F   UNL A   1      44.864  33.435  28.063  1.00  0.00    -0.203 F 
ATOM     81  C   UNL A   1      47.158  33.340  27.601  1.00  0.00     0.198 A 
ATOM     82  C   UNL A   1      48.256  31.230  27.415  1.00  0.00     0.198 A 
ATOM     83  F   UNL A   1      47.052  29.235  27.612  1.00  0.00    -0.203 F 
ATOM     84  F   UNL A   1      47.191  34.679  27.550  1.00  0.00    -0.200 F 
ATOM     85  C   UNL A   1      48.316  32.613  27.405  1.00  0.00     0.200 A 
ATOM     86  F   UNL A   1      49.371  30.514  27.207  1.00  0.00    -0.200 F 
ATOM     87  F   UNL A   1      49.483  33.239  27.206  1.00  0.00    -0.200 F 
ENDBRANCH  53  77
BRANCH  65  88
ATOM     88  C   UNL A   1      39.962  28.449  28.469  1.00  0.00     0.064 A 
ATOM     89  C   UNL A   1      39.075  29.292  27.790  1.00  0.00     0.173 A 
ATOM     90  C   UNL A   1      39.814  28.314  29.858  1.00  0.00     0.173 A 
ATOM     91  F   UNL A   1      39.170  29.446  26.459  1.00  0.00    -0.203 F 
ATOM     92  C   UNL A   1      38.060  29.956  28.472  1.00  0.00     0.198 A 
ATOM     93  C   UNL A   1      38.779  28.955  30.531  1.00  0.00     0.198 A 
ATOM     94  F   UNL A   1      40.649  27.538  30.567  1.00  0.00    -0.203 F 
ATOM     95  F   UNL A   1      37.215  30.752  27.802  1.00  0.00    -0.200 F 
ATOM     96  C   UNL A   1      37.903  29.774  29.837  1.00  0.00     0.200 A 
ATOM     97  F   UNL A   1      38.616  28.761  31.848  1.00  0.00    -0.200 F 
ATOM     98  F   UNL A   1      36.896  30.378  30.484  1.00  0.00    -0.200 F 
ENDBRANCH  65  88
ENDBRANCH  39  40
ENDBRANCH  31  34
ENDBRANCH  29  30
ENDBRANCH  28  29
ENDBRANCH   1  28
TORSDOF 14
ENDMDL
