MODEL 1
REMARK VINA RESULT:     -13.1      0.000      0.000
REMARK SMILES O=C(CC(=O)c1ccccc1)Nc1cccc(C(=O)NCCCCNC(=O)c2ccc(-c3c4nc(c(-c5c(F)c(F)c(F)c(F)c5F)c5ccc([nH]5)c(-c5c(F)c(F)c(F)c(F)c5F)c5nc(c(-c6c(F)c(F)c(F)c(F)c6F)c6ccc3[nH]6)C=C5)C=C4)cc2)c1
REMARK SMILES IDX 21 1 20 2 18 3 19 4 17 6 13 7 14 8 91 9 15 10 16 11 12 12
REMARK SMILES IDX 1 13 2 14 3 16 4 17 5 18 6 19 7 20 11 21 8 22 10 23 9 24
REMARK SMILES IDX 22 25 23 26 24 27 25 28 26 29 27 31 28 32 29 33 90 34 30 35
REMARK SMILES IDX 89 36 31 37 32 38 33 39 83 40 34 41 88 42 82 43 84 44 35 45
REMARK SMILES IDX 87 46 81 47 80 48 36 50 68 51 48 52 67 53 49 54 52 55 66 56
REMARK SMILES IDX 85 57 50 58 51 59 65 61 86 62 53 63 37 64 38 65 46 66 39 67
REMARK SMILES IDX 40 68 44 69 47 70 41 71 42 72 45 73 43 74 69 75 70 76 78 77
REMARK SMILES IDX 71 78 72 79 76 80 79 81 73 82 74 83 77 84 75 85 54 86 55 87
REMARK SMILES IDX 63 88 56 89 57 90 61 91 64 92 58 93 59 94 62 95 60 96
REMARK H PARENT 20 5 12 15 25 30 84 49 52 60
REMARK Flexibility Score: inf
ROOT
ATOM      1  C   UNL A   1      33.252  30.002  26.650  1.00  0.00     0.116 C 
ENDROOT
BRANCH   1   2
ATOM      2  N   UNL A   1      33.658  29.652  25.293  1.00  0.00    -0.352 N 
ATOM      3  C   UNL A   1      33.473  28.475  24.589  1.00  0.00     0.251 C 
ATOM      4  O   UNL A   1      33.895  28.383  23.439  1.00  0.00    -0.269 OA
ATOM      5  H   UNL A   1      34.137  30.361  24.804  1.00  0.00     0.163 HD
BRANCH   3   6
ATOM      6  C   UNL A   1      32.840  27.296  25.236  1.00  0.00     0.041 A 
ATOM      7  C   UNL A   1      32.975  24.943  25.758  1.00  0.00     0.041 A 
ATOM      8  C   UNL A   1      31.588  24.912  25.931  1.00  0.00     0.026 A 
ATOM      9  C   UNL A   1      33.595  26.172  25.564  1.00  0.00     0.040 A 
ATOM     10  C   UNL A   1      30.835  26.086  25.806  1.00  0.00     0.003 A 
ATOM     11  C   UNL A   1      31.456  27.273  25.415  1.00  0.00     0.014 A 
BRANCH   7  12
ATOM     12  N   UNL A   1      33.675  23.718  25.683  1.00  0.00    -0.326 N 
ATOM     13  O   UNL A   1      33.898  23.475  23.373  1.00  0.00    -0.274 OA
ATOM     14  C   UNL A   1      34.092  23.081  24.522  1.00  0.00     0.232 C 
ATOM     15  H   UNL A   1      33.889  23.274  26.535  1.00  0.00     0.169 HD
BRANCH  14  16
ATOM     16  C   UNL A   1      34.784  21.766  24.728  1.00  0.00     0.181 C 
BRANCH  16  17
ATOM     17  C   UNL A   1      33.980  20.649  25.322  1.00  0.00     0.172 C 
ATOM     18  O   UNL A   1      33.517  20.747  26.459  1.00  0.00    -0.294 OA
BRANCH  17  19
ATOM     19  C   UNL A   1      33.690  19.417  24.539  1.00  0.00     0.018 A 
ATOM     20  C   UNL A   1      34.614  18.370  24.629  1.00  0.00     0.012 A 
ATOM     21  C   UNL A   1      32.603  19.302  23.666  1.00  0.00     0.012 A 
ATOM     22  C   UNL A   1      34.458  17.226  23.844  1.00  0.00     0.001 A 
ATOM     23  C   UNL A   1      32.464  18.167  22.865  1.00  0.00     0.001 A 
ATOM     24  C   UNL A   1      33.392  17.131  22.954  1.00  0.00     0.000 A 
ENDBRANCH  17  19
ENDBRANCH  16  17
ENDBRANCH  14  16
ENDBRANCH   7  12
ENDBRANCH   3   6
ENDBRANCH   1   2
BRANCH   1  25
ATOM     25  C   UNL A   1      31.816  30.484  26.796  1.00  0.00     0.023 C 
BRANCH  25  26
ATOM     26  C   UNL A   1      31.606  31.991  26.810  1.00  0.00     0.023 C 
BRANCH  26  27
ATOM     27  C   UNL A   1      32.767  32.823  27.338  1.00  0.00     0.116 C 
BRANCH  27  28
ATOM     28  N   UNL A   1      32.409  34.189  27.693  1.00  0.00    -0.352 N 
ATOM     29  C   UNL A   1      32.974  35.039  28.618  1.00  0.00     0.251 C 
ATOM     30  H   UNL A   1      31.646  34.562  27.194  1.00  0.00     0.163 HD
ATOM     31  O   UNL A   1      32.480  36.139  28.832  1.00  0.00    -0.269 OA
BRANCH  29  32
ATOM     32  C   UNL A   1      34.159  34.606  29.394  1.00  0.00     0.039 A 
ATOM     33  C   UNL A   1      33.971  34.102  30.684  1.00  0.00     0.014 A 
ATOM     34  C   UNL A   1      35.441  34.666  28.847  1.00  0.00     0.014 A 
ATOM     35  C   UNL A   1      35.056  33.564  31.383  1.00  0.00     0.010 A 
ATOM     36  C   UNL A   1      36.503  34.054  29.507  1.00  0.00     0.010 A 
ATOM     37  C   UNL A   1      36.320  33.487  30.778  1.00  0.00    -0.014 A 
BRANCH  37  38
ATOM     38  C   UNL A   1      37.461  32.810  31.447  1.00  0.00     0.031 A 
ATOM     39  C   UNL A   1      38.147  31.651  30.779  1.00  0.00     0.074 A 
ATOM     40  C   UNL A   1      37.830  33.187  32.689  1.00  0.00     0.049 A 
ATOM     41  N   UNL A   1      39.089  30.867  31.240  1.00  0.00    -0.248 NA
ATOM     42  C   UNL A   1      37.693  31.309  29.422  1.00  0.00     0.031 C 
ATOM     43  C   UNL A   1      37.217  34.266  33.464  1.00  0.00     0.029 A 
ATOM     44  N   UNL A   1      38.805  32.694  33.520  1.00  0.00    -0.354 N 
ATOM     45  C   UNL A   1      39.328  29.936  30.239  1.00  0.00     0.074 A 
ATOM     46  C   UNL A   1      38.396  30.215  29.169  1.00  0.00     0.031 C 
ATOM     47  C   UNL A   1      37.844  34.370  34.647  1.00  0.00     0.029 A 
ATOM     48  C   UNL A   1      38.876  33.342  34.731  1.00  0.00     0.049 A 
ATOM     49  H   UNL A   1      39.397  31.948  33.275  1.00  0.00     0.167 HD
ATOM     50  C   UNL A   1      40.259  28.953  30.202  1.00  0.00     0.037 A 
ATOM     51  C   UNL A   1      39.680  33.125  35.789  1.00  0.00     0.037 A 
ATOM     52  C   UNL A   1      41.205  28.691  31.255  1.00  0.00     0.049 A 
ATOM     53  C   UNL A   1      40.698  32.020  35.726  1.00  0.00     0.074 A 
ATOM     54  C   UNL A   1      42.214  27.744  31.294  1.00  0.00     0.029 A 
ATOM     55  N   UNL A   1      41.260  29.385  32.454  1.00  0.00    -0.354 N 
ATOM     56  N   UNL A   1      40.950  31.180  34.751  1.00  0.00    -0.248 NA
ATOM     57  C   UNL A   1      41.548  31.834  36.911  1.00  0.00     0.031 C 
ATOM     58  C   UNL A   1      42.859  27.842  32.531  1.00  0.00     0.029 A 
ATOM     59  C   UNL A   1      42.279  28.878  33.246  1.00  0.00     0.049 A 
ATOM     60  H   UNL A   1      40.664  30.125  32.707  1.00  0.00     0.167 HD
ATOM     61  C   UNL A   1      42.005  30.392  35.190  1.00  0.00     0.074 A 
ATOM     62  C   UNL A   1      42.355  30.860  36.515  1.00  0.00     0.031 C 
ATOM     63  C   UNL A   1      42.627  29.371  34.553  1.00  0.00     0.037 A 
BRANCH  50  64
ATOM     64  C   UNL A   1      40.311  28.095  28.972  1.00  0.00     0.064 A 
ATOM     65  C   UNL A   1      41.088  28.457  27.861  1.00  0.00     0.173 A 
ATOM     66  C   UNL A   1      39.608  26.883  28.915  1.00  0.00     0.173 A 
ATOM     67  F   UNL A   1      41.768  29.614  27.861  1.00  0.00    -0.203 F 
ATOM     68  C   UNL A   1      41.137  27.650  26.728  1.00  0.00     0.198 A 
ATOM     69  C   UNL A   1      39.684  26.064  27.790  1.00  0.00     0.198 A 
ATOM     70  F   UNL A   1      38.855  26.486  29.952  1.00  0.00    -0.203 F 
ATOM     71  F   UNL A   1      41.849  28.041  25.661  1.00  0.00    -0.200 F 
ATOM     72  C   UNL A   1      40.442  26.452  26.695  1.00  0.00     0.200 A 
ATOM     73  F   UNL A   1      39.021  24.899  27.766  1.00  0.00    -0.200 F 
ATOM     74  F   UNL A   1      40.497  25.673  25.607  1.00  0.00    -0.200 F 
ENDBRANCH  50  64
BRANCH  51  75
ATOM     75  C   UNL A   1      39.579  33.989  36.995  1.00  0.00     0.064 A 
ATOM     76  C   UNL A   1      38.810  33.591  38.098  1.00  0.00     0.173 A 
ATOM     77  C   UNL A   1      40.223  35.233  37.064  1.00  0.00     0.173 A 
ATOM     78  F   UNL A   1      38.157  32.420  38.070  1.00  0.00    -0.203 F 
ATOM     79  C   UNL A   1      38.667  34.415  39.212  1.00  0.00     0.198 A 
ATOM     80  C   UNL A   1      40.102  36.044  38.190  1.00  0.00     0.198 A 
ATOM     81  F   UNL A   1      40.972  35.659  36.036  1.00  0.00    -0.203 F 
ATOM     82  F   UNL A   1      37.884  34.032  40.230  1.00  0.00    -0.200 F 
ATOM     83  C   UNL A   1      39.316  35.639  39.260  1.00  0.00     0.200 A 
ATOM     84  F   UNL A   1      40.739  37.222  38.237  1.00  0.00    -0.200 F 
ATOM     85  F   UNL A   1      39.177  36.433  40.330  1.00  0.00    -0.200 F 
ENDBRANCH  51  75
BRANCH  63  86
ATOM     86  C   UNL A   1      43.780  28.720  35.260  1.00  0.00     0.064 A 
ATOM     87  C   UNL A   1      45.099  29.160  35.078  1.00  0.00     0.173 A 
ATOM     88  C   UNL A   1      43.555  27.668  36.160  1.00  0.00     0.173 A 
ATOM     89  F   UNL A   1      45.367  30.152  34.216  1.00  0.00    -0.203 F 
ATOM     90  C   UNL A   1      46.154  28.553  35.755  1.00  0.00     0.198 A 
ATOM     91  C   UNL A   1      44.608  27.083  36.856  1.00  0.00     0.198 A 
ATOM     92  F   UNL A   1      42.310  27.215  36.373  1.00  0.00    -0.203 F 
ATOM     93  F   UNL A   1      47.411  28.960  35.533  1.00  0.00    -0.200 F 
ATOM     94  C   UNL A   1      45.907  27.521  36.648  1.00  0.00     0.200 A 
ATOM     95  F   UNL A   1      44.367  26.093  37.728  1.00  0.00    -0.200 F 
ATOM     96  F   UNL A   1      46.924  26.944  37.303  1.00  0.00    -0.200 F 
ENDBRANCH  63  86
ENDBRANCH  37  38
ENDBRANCH  29  32
ENDBRANCH  27  28
ENDBRANCH  26  27
ENDBRANCH  25  26
ENDBRANCH   1  25
TORSDOF 15
ENDMDL
MODEL 2
REMARK VINA RESULT:     -13.1      1.095      2.169
REMARK SMILES O=C(CC(=O)c1ccccc1)Nc1cccc(C(=O)NCCCCNC(=O)c2ccc(-c3c4nc(c(-c5c(F)c(F)c(F)c(F)c5F)c5ccc([nH]5)c(-c5c(F)c(F)c(F)c(F)c5F)c5nc(c(-c6c(F)c(F)c(F)c(F)c6F)c6ccc3[nH]6)C=C5)C=C4)cc2)c1
REMARK SMILES IDX 21 1 20 2 18 3 19 4 17 6 13 7 14 8 91 9 15 10 16 11 12 12
REMARK SMILES IDX 1 13 2 14 3 16 4 17 5 18 6 19 7 20 11 21 8 22 10 23 9 24
REMARK SMILES IDX 22 25 23 26 24 27 25 28 26 29 27 31 28 32 29 33 90 34 30 35
REMARK SMILES IDX 89 36 31 37 32 38 33 39 83 40 34 41 88 42 82 43 84 44 35 45
REMARK SMILES IDX 87 46 81 47 80 48 36 50 68 51 48 52 67 53 49 54 52 55 66 56
REMARK SMILES IDX 85 57 50 58 51 59 65 61 86 62 53 63 37 64 38 65 46 66 39 67
REMARK SMILES IDX 40 68 44 69 47 70 41 71 42 72 45 73 43 74 69 75 70 76 78 77
REMARK SMILES IDX 71 78 72 79 76 80 79 81 73 82 74 83 77 84 75 85 54 86 55 87
REMARK SMILES IDX 63 88 56 89 57 90 61 91 64 92 58 93 59 94 62 95 60 96
REMARK H PARENT 20 5 12 15 25 30 84 49 52 60
REMARK Flexibility Score: inf
ROOT
ATOM      1  C   UNL A   1      33.178  29.794  26.396  1.00  0.00     0.116 C 
ENDROOT
BRANCH   1   2
ATOM      2  N   UNL A   1      33.489  29.711  24.973  1.00  0.00    -0.352 N 
ATOM      3  C   UNL A   1      32.943  28.901  23.993  1.00  0.00     0.251 C 
ATOM      4  O   UNL A   1      33.348  28.990  22.837  1.00  0.00    -0.269 OA
ATOM      5  H   UNL A   1      34.195  30.325  24.663  1.00  0.00     0.163 HD
BRANCH   3   6
ATOM      6  C   UNL A   1      31.929  27.871  24.339  1.00  0.00     0.041 A 
ATOM      7  C   UNL A   1      31.470  25.558  24.853  1.00  0.00     0.041 A 
ATOM      8  C   UNL A   1      30.135  25.750  24.482  1.00  0.00     0.026 A 
ATOM      9  C   UNL A   1      32.309  26.664  24.922  1.00  0.00     0.040 A 
ATOM     10  C   UNL A   1      29.688  27.017  24.088  1.00  0.00     0.003 A 
ATOM     11  C   UNL A   1      30.597  28.070  23.975  1.00  0.00     0.014 A 
BRANCH   7  12
ATOM     12  N   UNL A   1      31.935  24.237  25.042  1.00  0.00    -0.326 N 
ATOM     13  O   UNL A   1      31.371  23.884  27.279  1.00  0.00    -0.274 OA
ATOM     14  C   UNL A   1      31.849  23.497  26.214  1.00  0.00     0.232 C 
ATOM     15  H   UNL A   1      32.360  23.799  24.270  1.00  0.00     0.169 HD
BRANCH  14  16
ATOM     16  C   UNL A   1      32.460  22.128  26.151  1.00  0.00     0.181 C 
BRANCH  16  17
ATOM     17  C   UNL A   1      32.990  21.669  24.825  1.00  0.00     0.172 C 
ATOM     18  O   UNL A   1      32.223  21.263  23.952  1.00  0.00    -0.294 OA
BRANCH  17  19
ATOM     19  C   UNL A   1      34.445  21.735  24.522  1.00  0.00     0.018 A 
ATOM     20  C   UNL A   1      35.267  20.771  25.117  1.00  0.00     0.012 A 
ATOM     21  C   UNL A   1      35.023  22.752  23.755  1.00  0.00     0.012 A 
ATOM     22  C   UNL A   1      36.652  20.832  24.957  1.00  0.00     0.001 A 
ATOM     23  C   UNL A   1      36.411  22.824  23.618  1.00  0.00     0.001 A 
ATOM     24  C   UNL A   1      37.223  21.865  24.219  1.00  0.00     0.000 A 
ENDBRANCH  17  19
ENDBRANCH  16  17
ENDBRANCH  14  16
ENDBRANCH   7  12
ENDBRANCH   3   6
ENDBRANCH   1   2
BRANCH   1  25
ATOM     25  C   UNL A   1      31.810  30.366  26.732  1.00  0.00     0.023 C 
BRANCH  25  26
ATOM     26  C   UNL A   1      31.674  31.880  26.663  1.00  0.00     0.023 C 
BRANCH  26  27
ATOM     27  C   UNL A   1      32.789  32.682  27.322  1.00  0.00     0.116 C 
BRANCH  27  28
ATOM     28  N   UNL A   1      32.423  34.052  27.653  1.00  0.00    -0.352 N 
ATOM     29  C   UNL A   1      32.980  34.919  28.566  1.00  0.00     0.251 C 
ATOM     30  H   UNL A   1      31.660  34.414  27.145  1.00  0.00     0.163 HD
ATOM     31  O   UNL A   1      32.480  36.021  28.760  1.00  0.00    -0.269 OA
BRANCH  29  32
ATOM     32  C   UNL A   1      34.164  34.506  29.353  1.00  0.00     0.039 A 
ATOM     33  C   UNL A   1      33.968  33.928  30.611  1.00  0.00     0.014 A 
ATOM     34  C   UNL A   1      35.456  34.654  28.847  1.00  0.00     0.014 A 
ATOM     35  C   UNL A   1      35.059  33.408  31.313  1.00  0.00     0.010 A 
ATOM     36  C   UNL A   1      36.529  34.061  29.505  1.00  0.00     0.010 A 
ATOM     37  C   UNL A   1      36.341  33.423  30.741  1.00  0.00    -0.014 A 
BRANCH  37  38
ATOM     38  C   UNL A   1      37.496  32.768  31.409  1.00  0.00     0.031 A 
ATOM     39  C   UNL A   1      38.208  31.628  30.736  1.00  0.00     0.074 A 
ATOM     40  C   UNL A   1      37.854  33.147  32.653  1.00  0.00     0.049 A 
ATOM     41  N   UNL A   1      39.168  30.863  31.194  1.00  0.00    -0.248 NA
ATOM     42  C   UNL A   1      37.764  31.283  29.376  1.00  0.00     0.031 C 
ATOM     43  C   UNL A   1      37.216  34.208  33.433  1.00  0.00     0.029 A 
ATOM     44  N   UNL A   1      38.839  32.672  33.483  1.00  0.00    -0.354 N 
ATOM     45  C   UNL A   1      39.429  29.943  30.188  1.00  0.00     0.074 A 
ATOM     46  C   UNL A   1      38.493  30.207  29.118  1.00  0.00     0.031 C 
ATOM     47  C   UNL A   1      37.840  34.320  34.617  1.00  0.00     0.029 A 
ATOM     48  C   UNL A   1      38.895  33.315  34.697  1.00  0.00     0.049 A 
ATOM     49  H   UNL A   1      39.448  31.940  33.235  1.00  0.00     0.167 HD
ATOM     50  C   UNL A   1      40.382  28.981  30.148  1.00  0.00     0.037 A 
ATOM     51  C   UNL A   1      39.701  33.111  35.756  1.00  0.00     0.037 A 
ATOM     52  C   UNL A   1      41.332  28.735  31.201  1.00  0.00     0.049 A 
ATOM     53  C   UNL A   1      40.744  32.028  35.688  1.00  0.00     0.074 A 
ATOM     54  C   UNL A   1      42.362  27.811  31.236  1.00  0.00     0.029 A 
ATOM     55  N   UNL A   1      41.370  29.424  32.404  1.00  0.00    -0.354 N 
ATOM     56  N   UNL A   1      41.017  31.200  34.710  1.00  0.00    -0.248 NA
ATOM     57  C   UNL A   1      41.597  31.856  36.874  1.00  0.00     0.031 C 
ATOM     58  C   UNL A   1      43.003  27.918  32.475  1.00  0.00     0.029 A 
ATOM     59  C   UNL A   1      42.399  28.937  33.194  1.00  0.00     0.049 A 
ATOM     60  H   UNL A   1      40.757  30.150  32.660  1.00  0.00     0.167 HD
ATOM     61  C   UNL A   1      42.089  30.433  35.145  1.00  0.00     0.074 A 
ATOM     62  C   UNL A   1      42.425  30.903  36.474  1.00  0.00     0.031 C 
ATOM     63  C   UNL A   1      42.734  29.430  34.505  1.00  0.00     0.037 A 
BRANCH  50  64
ATOM     64  C   UNL A   1      40.455  28.131  28.913  1.00  0.00     0.064 A 
ATOM     65  C   UNL A   1      39.741  26.927  28.812  1.00  0.00     0.173 A 
ATOM     66  C   UNL A   1      41.215  28.539  27.808  1.00  0.00     0.173 A 
ATOM     67  F   UNL A   1      39.010  26.487  29.848  1.00  0.00    -0.203 F 
ATOM     68  C   UNL A   1      39.807  26.150  27.659  1.00  0.00     0.198 A 
ATOM     69  C   UNL A   1      41.255  27.773  26.645  1.00  0.00     0.198 A 
ATOM     70  F   UNL A   1      41.912  29.685  27.850  1.00  0.00    -0.203 F 
ATOM     71  F   UNL A   1      39.154  24.981  27.604  1.00  0.00    -0.200 F 
ATOM     72  C   UNL A   1      40.558  26.576  26.575  1.00  0.00     0.200 A 
ATOM     73  F   UNL A   1      41.971  28.193  25.592  1.00  0.00    -0.200 F 
ATOM     74  F   UNL A   1      40.614  25.830  25.463  1.00  0.00    -0.200 F 
ENDBRANCH  50  64
BRANCH  51  75
ATOM     75  C   UNL A   1      39.579  33.966  36.966  1.00  0.00     0.064 A 
ATOM     76  C   UNL A   1      38.808  33.550  38.061  1.00  0.00     0.173 A 
ATOM     77  C   UNL A   1      40.205  35.218  37.046  1.00  0.00     0.173 A 
ATOM     78  F   UNL A   1      38.172  32.370  38.021  1.00  0.00    -0.203 F 
ATOM     79  C   UNL A   1      38.645  34.365  39.179  1.00  0.00     0.198 A 
ATOM     80  C   UNL A   1      40.064  36.020  38.177  1.00  0.00     0.198 A 
ATOM     81  F   UNL A   1      40.956  35.660  36.027  1.00  0.00    -0.203 F 
ATOM     82  F   UNL A   1      37.860  33.965  40.188  1.00  0.00    -0.200 F 
ATOM     83  C   UNL A   1      39.277  35.598  39.238  1.00  0.00     0.200 A 
ATOM     84  F   UNL A   1      40.684  37.207  38.236  1.00  0.00    -0.200 F 
ATOM     85  F   UNL A   1      39.118  36.384  40.312  1.00  0.00    -0.200 F 
ENDBRANCH  51  75
BRANCH  63  86
ATOM     86  C   UNL A   1      43.901  28.802  35.209  1.00  0.00     0.064 A 
ATOM     87  C   UNL A   1      43.741  27.696  36.056  1.00  0.00     0.173 A 
ATOM     88  C   UNL A   1      45.199  29.292  35.002  1.00  0.00     0.173 A 
ATOM     89  F   UNL A   1      42.518  27.201  36.298  1.00  0.00    -0.203 F 
ATOM     90  C   UNL A   1      44.838  27.117  36.689  1.00  0.00     0.198 A 
ATOM     91  C   UNL A   1      46.296  28.693  35.615  1.00  0.00     0.198 A 
ATOM     92  F   UNL A   1      45.404  30.345  34.197  1.00  0.00    -0.203 F 
ATOM     93  F   UNL A   1      44.658  26.088  37.529  1.00  0.00    -0.200 F 
ATOM     94  C   UNL A   1      46.114  27.611  36.462  1.00  0.00     0.200 A 
ATOM     95  F   UNL A   1      47.530  29.165  35.386  1.00  0.00    -0.200 F 
ATOM     96  F   UNL A   1      47.169  27.048  37.068  1.00  0.00    -0.200 F 
ENDBRANCH  63  86
ENDBRANCH  37  38
ENDBRANCH  29  32
ENDBRANCH  27  28
ENDBRANCH  26  27
ENDBRANCH  25  26
ENDBRANCH   1  25
TORSDOF 15
ENDMDL
MODEL 3
REMARK VINA RESULT:     -13.0      1.256      7.407
REMARK SMILES O=C(CC(=O)c1ccccc1)Nc1cccc(C(=O)NCCCCNC(=O)c2ccc(-c3c4nc(c(-c5c(F)c(F)c(F)c(F)c5F)c5ccc([nH]5)c(-c5c(F)c(F)c(F)c(F)c5F)c5nc(c(-c6c(F)c(F)c(F)c(F)c6F)c6ccc3[nH]6)C=C5)C=C4)cc2)c1
REMARK SMILES IDX 21 1 20 2 18 3 19 4 17 6 13 7 14 8 91 9 15 10 16 11 12 12
REMARK SMILES IDX 1 13 2 14 3 16 4 17 5 18 6 19 7 20 11 21 8 22 10 23 9 24
REMARK SMILES IDX 22 25 23 26 24 27 25 28 26 29 27 31 28 32 29 33 90 34 30 35
REMARK SMILES IDX 89 36 31 37 32 38 33 39 83 40 34 41 88 42 82 43 84 44 35 45
REMARK SMILES IDX 87 46 81 47 80 48 36 50 68 51 48 52 67 53 49 54 52 55 66 56
REMARK SMILES IDX 85 57 50 58 51 59 65 61 86 62 53 63 37 64 38 65 46 66 39 67
REMARK SMILES IDX 40 68 44 69 47 70 41 71 42 72 45 73 43 74 69 75 70 76 78 77
REMARK SMILES IDX 71 78 72 79 76 80 79 81 73 82 74 83 77 84 75 85 54 86 55 87
REMARK SMILES IDX 63 88 56 89 57 90 61 91 64 92 58 93 59 94 62 95 60 96
REMARK H PARENT 20 5 12 15 25 30 84 49 52 60
REMARK Flexibility Score: inf
ROOT
ATOM      1  C   UNL A   1      32.756  29.959  26.426  1.00  0.00     0.116 C 
ENDROOT
BRANCH   1   2
ATOM      2  N   UNL A   1      33.241  29.833  25.056  1.00  0.00    -0.352 N 
ATOM      3  C   UNL A   1      32.840  28.971  24.051  1.00  0.00     0.251 C 
ATOM      4  O   UNL A   1      33.381  29.029  22.950  1.00  0.00    -0.269 OA
ATOM      5  H   UNL A   1      33.963  30.456  24.810  1.00  0.00     0.163 HD
BRANCH   3   6
ATOM      6  C   UNL A   1      31.817  27.924  24.311  1.00  0.00     0.041 A 
ATOM      7  C   UNL A   1      31.353  25.599  24.765  1.00  0.00     0.041 A 
ATOM      8  C   UNL A   1      30.046  25.780  24.303  1.00  0.00     0.026 A 
ATOM      9  C   UNL A   1      32.171  26.714  24.905  1.00  0.00     0.040 A 
ATOM     10  C   UNL A   1      29.611  27.046  23.894  1.00  0.00     0.003 A 
ATOM     11  C   UNL A   1      30.511  28.113  23.858  1.00  0.00     0.014 A 
BRANCH   7  12
ATOM     12  N   UNL A   1      31.821  24.282  24.970  1.00  0.00    -0.326 N 
ATOM     13  O   UNL A   1      31.413  24.016  27.252  1.00  0.00    -0.274 OA
ATOM     14  C   UNL A   1      31.812  23.586  26.172  1.00  0.00     0.232 C 
ATOM     15  H   UNL A   1      32.188  23.811  24.186  1.00  0.00     0.169 HD
BRANCH  14  16
ATOM     16  C   UNL A   1      32.407  22.210  26.117  1.00  0.00     0.181 C 
BRANCH  16  17
ATOM     17  C   UNL A   1      32.940  21.740  24.796  1.00  0.00     0.172 C 
ATOM     18  O   UNL A   1      32.175  21.330  23.924  1.00  0.00    -0.294 OA
BRANCH  17  19
ATOM     19  C   UNL A   1      34.396  21.799  24.496  1.00  0.00     0.018 A 
ATOM     20  C   UNL A   1      35.215  20.843  25.109  1.00  0.00     0.012 A 
ATOM     21  C   UNL A   1      34.979  22.804  23.717  1.00  0.00     0.012 A 
ATOM     22  C   UNL A   1      36.600  20.899  24.954  1.00  0.00     0.001 A 
ATOM     23  C   UNL A   1      36.367  22.871  23.583  1.00  0.00     0.001 A 
ATOM     24  C   UNL A   1      37.176  21.921  24.202  1.00  0.00     0.000 A 
ENDBRANCH  17  19
ENDBRANCH  16  17
ENDBRANCH  14  16
ENDBRANCH   7  12
ENDBRANCH   3   6
ENDBRANCH   1   2
BRANCH   1  25
ATOM     25  C   UNL A   1      31.409  30.649  26.580  1.00  0.00     0.023 C 
BRANCH  25  26
ATOM     26  C   UNL A   1      31.421  32.170  26.553  1.00  0.00     0.023 C 
BRANCH  26  27
ATOM     27  C   UNL A   1      32.599  32.841  27.247  1.00  0.00     0.116 C 
BRANCH  27  28
ATOM     28  N   UNL A   1      32.348  34.218  27.650  1.00  0.00    -0.352 N 
ATOM     29  C   UNL A   1      32.993  34.996  28.586  1.00  0.00     0.251 C 
ATOM     30  H   UNL A   1      31.603  34.660  27.181  1.00  0.00     0.163 HD
ATOM     31  O   UNL A   1      32.584  36.122  28.844  1.00  0.00    -0.269 OA
BRANCH  29  32
ATOM     32  C   UNL A   1      34.160  34.456  29.321  1.00  0.00     0.039 A 
ATOM     33  C   UNL A   1      33.940  33.744  30.503  1.00  0.00     0.014 A 
ATOM     34  C   UNL A   1      35.458  34.620  28.835  1.00  0.00     0.014 A 
ATOM     35  C   UNL A   1      35.011  33.111  31.141  1.00  0.00     0.010 A 
ATOM     36  C   UNL A   1      36.509  33.921  29.421  1.00  0.00     0.010 A 
ATOM     37  C   UNL A   1      36.296  33.151  30.575  1.00  0.00    -0.014 A 
BRANCH  37  38
ATOM     38  C   UNL A   1      37.427  32.386  31.163  1.00  0.00     0.031 A 
ATOM     39  C   UNL A   1      37.956  32.749  32.522  1.00  0.00     0.074 A 
ATOM     40  C   UNL A   1      38.027  31.418  30.441  1.00  0.00     0.049 A 
ATOM     41  N   UNL A   1      38.995  32.272  33.162  1.00  0.00    -0.248 NA
ATOM     42  C   UNL A   1      37.239  33.809  33.248  1.00  0.00     0.031 C 
ATOM     43  C   UNL A   1      37.639  31.000  29.093  1.00  0.00     0.029 A 
ATOM     44  N   UNL A   1      39.101  30.616  30.740  1.00  0.00    -0.354 N 
ATOM     45  C   UNL A   1      39.062  32.983  34.353  1.00  0.00     0.074 A 
ATOM     46  C   UNL A   1      37.996  33.959  34.325  1.00  0.00     0.031 C 
ATOM     47  C   UNL A   1      38.446  30.004  28.691  1.00  0.00     0.029 A 
ATOM     48  C   UNL A   1      39.432  29.739  29.734  1.00  0.00     0.049 A 
ATOM     49  H   UNL A   1      39.589  30.663  31.593  1.00  0.00     0.167 HD
ATOM     50  C   UNL A   1      39.919  32.817  35.389  1.00  0.00     0.037 A 
ATOM     51  C   UNL A   1      40.423  28.831  29.660  1.00  0.00     0.037 A 
ATOM     52  C   UNL A   1      40.963  31.828  35.429  1.00  0.00     0.049 A 
ATOM     53  C   UNL A   1      41.366  28.676  30.822  1.00  0.00     0.074 A 
ATOM     54  C   UNL A   1      41.855  31.555  36.451  1.00  0.00     0.029 A 
ATOM     55  N   UNL A   1      41.250  30.944  34.400  1.00  0.00    -0.354 N 
ATOM     56  N   UNL A   1      41.386  29.316  31.965  1.00  0.00    -0.248 NA
ATOM     57  C   UNL A   1      42.426  27.665  30.683  1.00  0.00     0.031 C 
ATOM     58  C   UNL A   1      42.705  30.528  36.028  1.00  0.00     0.029 A 
ATOM     59  C   UNL A   1      42.314  30.132  34.759  1.00  0.00     0.049 A 
ATOM     60  H   UNL A   1      40.770  30.900  33.542  1.00  0.00     0.167 HD
ATOM     61  C   UNL A   1      42.433  28.767  32.693  1.00  0.00     0.074 A 
ATOM     62  C   UNL A   1      43.018  27.731  31.867  1.00  0.00     0.031 C 
ATOM     63  C   UNL A   1      42.870  29.092  33.933  1.00  0.00     0.037 A 
BRANCH  50  64
ATOM     64  C   UNL A   1      39.750  33.720  36.576  1.00  0.00     0.064 A 
ATOM     65  C   UNL A   1      40.405  34.959  36.651  1.00  0.00     0.173 A 
ATOM     66  C   UNL A   1      38.899  33.362  37.632  1.00  0.00     0.173 A 
ATOM     67  F   UNL A   1      41.240  35.340  35.673  1.00  0.00    -0.203 F 
ATOM     68  C   UNL A   1      40.235  35.793  37.752  1.00  0.00     0.198 A 
ATOM     69  C   UNL A   1      38.709  34.213  38.718  1.00  0.00     0.198 A 
ATOM     70  F   UNL A   1      38.244  32.192  37.607  1.00  0.00    -0.203 F 
ATOM     71  F   UNL A   1      40.908  36.950  37.822  1.00  0.00    -0.200 F 
ATOM     72  C   UNL A   1      39.383  35.424  38.780  1.00  0.00     0.200 A 
ATOM     73  F   UNL A   1      37.874  33.861  39.706  1.00  0.00    -0.200 F 
ATOM     74  F   UNL A   1      39.214  36.232  39.836  1.00  0.00    -0.200 F 
ENDBRANCH  50  64
BRANCH  51  75
ATOM     75  C   UNL A   1      40.562  27.971  28.455  1.00  0.00     0.064 A 
ATOM     76  C   UNL A   1      39.964  26.704  28.407  1.00  0.00     0.173 A 
ATOM     77  C   UNL A   1      41.309  28.383  27.343  1.00  0.00     0.173 A 
ATOM     78  F   UNL A   1      39.259  26.257  29.457  1.00  0.00    -0.203 F 
ATOM     79  C   UNL A   1      40.131  25.870  27.304  1.00  0.00     0.198 A 
ATOM     80  C   UNL A   1      41.452  27.559  26.227  1.00  0.00     0.198 A 
ATOM     81  F   UNL A   1      41.899  29.588  27.337  1.00  0.00    -0.203 F 
ATOM     82  F   UNL A   1      39.592  24.643  27.307  1.00  0.00    -0.200 F 
ATOM     83  C   UNL A   1      40.871  26.299  26.213  1.00  0.00     0.200 A 
ATOM     84  F   UNL A   1      42.159  27.982  25.170  1.00  0.00    -0.200 F 
ATOM     85  F   UNL A   1      41.034  25.496  25.153  1.00  0.00    -0.200 F 
ENDBRANCH  51  75
BRANCH  63  86
ATOM     86  C   UNL A   1      44.008  28.289  34.492  1.00  0.00     0.064 A 
ATOM     87  C   UNL A   1      43.791  27.105  35.211  1.00  0.00     0.173 A 
ATOM     88  C   UNL A   1      45.334  28.693  34.271  1.00  0.00     0.173 A 
ATOM     89  F   UNL A   1      42.542  26.687  35.462  1.00  0.00    -0.203 F 
ATOM     90  C   UNL A   1      44.861  26.367  35.710  1.00  0.00     0.198 A 
ATOM     91  C   UNL A   1      46.401  27.937  34.747  1.00  0.00     0.198 A 
ATOM     92  F   UNL A   1      45.594  29.815  33.584  1.00  0.00    -0.203 F 
ATOM     93  F   UNL A   1      44.630  25.262  36.432  1.00  0.00    -0.200 F 
ATOM     94  C   UNL A   1      46.164  26.778  35.470  1.00  0.00     0.200 A 
ATOM     95  F   UNL A   1      47.660  28.330  34.505  1.00  0.00    -0.200 F 
ATOM     96  F   UNL A   1      47.191  26.061  35.946  1.00  0.00    -0.200 F 
ENDBRANCH  63  86
ENDBRANCH  37  38
ENDBRANCH  29  32
ENDBRANCH  27  28
ENDBRANCH  26  27
ENDBRANCH  25  26
ENDBRANCH   1  25
TORSDOF 15
ENDMDL
