MODEL 1
REMARK VINA RESULT:     -13.3      0.000      0.000
REMARK SMILES COc1ccc(-c2ccc(CCC(=O)NCCCCNC(=O)c3ccc(-c4c5nc(c(-c6c(F)c(F)c(F)c(F)c6F)c6ccc([nH]6)c(-c6c(F)c(F)c(F)c(F)c6F)c6nc(c(-c7c(F)c(F)c(F)c(F)c7F)c7ccc4[nH]7)C=C6)C=C5)cc3)n2-c2ccc(C(C)=O)cc2)cc1
REMARK SMILES IDX 16 1 15 2 13 3 14 4 12 6 11 7 10 8 7 9 8 10 86 11 9 12 6 13
REMARK SMILES IDX 3 14 4 15 97 16 5 17 96 18 2 19 1 20 87 21 88 22 95 23 89 24
REMARK SMILES IDX 94 25 90 26 91 27 92 28 93 29 17 30 18 31 19 32 20 33 21 34
REMARK SMILES IDX 22 36 23 37 24 38 85 39 25 40 84 41 26 42 27 43 28 44 78 45
REMARK SMILES IDX 29 46 83 47 77 48 79 49 30 50 82 51 76 52 75 53 31 55 63 56
REMARK SMILES IDX 43 57 62 58 44 59 47 60 61 61 80 62 45 63 46 64 60 66 81 67
REMARK SMILES IDX 48 68 32 69 33 70 41 71 34 72 35 73 39 74 42 75 36 76 37 77
REMARK SMILES IDX 40 78 38 79 64 80 65 81 73 82 66 83 67 84 71 85 74 86 68 87
REMARK SMILES IDX 69 88 72 89 70 90 49 91 50 92 58 93 51 94 52 95 56 96 59 97
REMARK SMILES IDX 53 98 54 99 57 100 55 101
REMARK H PARENT 15 5 20 35 79 54 47 65
REMARK Flexibility Score: inf
ROOT
ATOM      1  C   UNL A   1      31.427  28.257  24.952  1.00  0.00     0.116 C 
ENDROOT
BRANCH   1   2
ATOM      2  N   UNL A   1      31.104  27.125  25.797  1.00  0.00    -0.356 N 
ATOM      3  C   UNL A   1      30.219  26.112  25.576  1.00  0.00     0.220 C 
ATOM      4  O   UNL A   1      29.928  25.377  26.522  1.00  0.00    -0.275 OA
ATOM      5  H   UNL A   1      31.591  27.082  26.652  1.00  0.00     0.163 HD
BRANCH   3   6
ATOM      6  C   UNL A   1      29.643  25.866  24.193  1.00  0.00     0.106 C 
BRANCH   6   7
ATOM      7  C   UNL A   1      30.237  24.641  23.495  1.00  0.00     0.064 C 
BRANCH   7   8
ATOM      8  C   UNL A   1      31.713  24.753  23.210  1.00  0.00     0.024 A 
ATOM      9  C   UNL A   1      33.919  24.525  23.611  1.00  0.00     0.053 A 
ATOM     10  C   UNL A   1      33.754  25.465  22.602  1.00  0.00     0.029 A 
ATOM     11  N   UNL A   1      32.681  23.893  23.731  1.00  0.00    -0.314 N 
ATOM     12  C   UNL A   1      32.372  25.598  22.341  1.00  0.00     0.024 A 
BRANCH   9  13
ATOM     13  C   UNL A   1      35.183  24.088  24.207  1.00  0.00    -0.001 A 
ATOM     14  C   UNL A   1      37.532  23.153  25.427  1.00  0.00     0.118 A 
ATOM     15  C   UNL A   1      36.671  24.003  26.118  1.00  0.00     0.047 A 
ATOM     16  C   UNL A   1      37.207  22.740  24.135  1.00  0.00     0.047 A 
ATOM     17  C   UNL A   1      35.506  24.475  25.510  1.00  0.00     0.014 A 
ATOM     18  C   UNL A   1      36.034  23.207  23.526  1.00  0.00     0.014 A 
BRANCH  14  19
ATOM     19  O   UNL A   1      38.627  22.722  26.123  1.00  0.00    -0.497 OA
ATOM     20  C   UNL A   1      39.059  21.409  25.780  1.00  0.00     0.278 C 
ENDBRANCH  14  19
ENDBRANCH   9  13
BRANCH  11  21
ATOM     21  C   UNL A   1      32.500  22.493  23.879  1.00  0.00     0.046 A 
ATOM     22  C   UNL A   1      32.413  21.745  22.697  1.00  0.00     0.027 A 
ATOM     23  C   UNL A   1      32.534  21.854  25.114  1.00  0.00     0.027 A 
ATOM     24  C   UNL A   1      32.354  20.356  22.740  1.00  0.00     0.014 A 
ATOM     25  C   UNL A   1      32.446  20.456  25.153  1.00  0.00     0.014 A 
ATOM     26  C   UNL A   1      32.363  19.696  23.969  1.00  0.00     0.017 A 
BRANCH  26  27
ATOM     27  C   UNL A   1      32.300  18.207  24.076  1.00  0.00     0.159 C 
ATOM     28  C   UNL A   1      32.880  17.323  22.996  1.00  0.00     0.093 C 
ATOM     29  O   UNL A   1      31.774  17.701  25.068  1.00  0.00    -0.295 OA
ENDBRANCH  26  27
ENDBRANCH  11  21
ENDBRANCH   7   8
ENDBRANCH   6   7
ENDBRANCH   3   6
ENDBRANCH   1   2
BRANCH   1  30
ATOM     30  C   UNL A   1      32.042  29.379  25.781  1.00  0.00     0.023 C 
BRANCH  30  31
ATOM     31  C   UNL A   1      32.888  28.970  26.981  1.00  0.00     0.023 C 
BRANCH  31  32
ATOM     32  C   UNL A   1      34.364  29.297  26.812  1.00  0.00     0.116 C 
BRANCH  32  33
ATOM     33  N   UNL A   1      34.689  30.642  27.270  1.00  0.00    -0.352 N 
ATOM     34  C   UNL A   1      35.749  31.042  28.053  1.00  0.00     0.251 C 
ATOM     35  H   UNL A   1      34.073  31.355  26.983  1.00  0.00     0.163 HD
ATOM     36  O   UNL A   1      35.759  32.125  28.605  1.00  0.00    -0.269 OA
BRANCH  34  37
ATOM     37  C   UNL A   1      36.872  30.108  28.243  1.00  0.00     0.039 A 
ATOM     38  C   UNL A   1      37.890  30.086  27.286  1.00  0.00     0.014 A 
ATOM     39  C   UNL A   1      36.921  29.290  29.377  1.00  0.00     0.014 A 
ATOM     40  C   UNL A   1      39.018  29.312  27.523  1.00  0.00     0.010 A 
ATOM     41  C   UNL A   1      38.062  28.551  29.637  1.00  0.00     0.010 A 
ATOM     42  C   UNL A   1      39.120  28.589  28.721  1.00  0.00    -0.014 A 
BRANCH  42  43
ATOM     43  C   UNL A   1      40.439  28.035  29.096  1.00  0.00     0.031 A 
ATOM     44  C   UNL A   1      40.722  26.708  28.335  1.00  0.00     0.074 A 
ATOM     45  C   UNL A   1      41.139  28.755  30.023  1.00  0.00     0.049 A 
ATOM     46  N   UNL A   1      41.394  25.646  28.674  1.00  0.00    -0.248 NA
ATOM     47  C   UNL A   1      40.070  26.518  27.005  1.00  0.00     0.031 C 
ATOM     48  C   UNL A   1      40.716  30.056  30.592  1.00  0.00     0.029 A 
ATOM     49  N   UNL A   1      42.327  28.555  30.685  1.00  0.00    -0.354 N 
ATOM     50  C   UNL A   1      41.384  24.758  27.565  1.00  0.00     0.074 A 
ATOM     51  C   UNL A   1      40.456  25.300  26.621  1.00  0.00     0.031 C 
ATOM     52  C   UNL A   1      41.567  30.468  31.557  1.00  0.00     0.029 A 
ATOM     53  C   UNL A   1      42.611  29.482  31.727  1.00  0.00     0.049 A 
ATOM     54  H   UNL A   1      42.940  27.819  30.454  1.00  0.00     0.167 HD
ATOM     55  C   UNL A   1      42.258  23.714  27.419  1.00  0.00     0.037 A 
ATOM     56  C   UNL A   1      43.558  29.395  32.717  1.00  0.00     0.037 A 
ATOM     57  C   UNL A   1      43.138  23.646  28.534  1.00  0.00     0.049 A 
ATOM     58  C   UNL A   1      44.234  28.121  32.440  1.00  0.00     0.074 A 
ATOM     59  C   UNL A   1      43.196  22.985  29.732  1.00  0.00     0.029 A 
ATOM     60  N   UNL A   1      44.209  24.493  28.462  1.00  0.00    -0.354 N 
ATOM     61  N   UNL A   1      45.062  27.914  31.466  1.00  0.00    -0.248 NA
ATOM     62  C   UNL A   1      43.709  26.945  33.126  1.00  0.00     0.031 C 
ATOM     63  C   UNL A   1      44.250  23.601  30.454  1.00  0.00     0.029 A 
ATOM     64  C   UNL A   1      44.634  24.732  29.738  1.00  0.00     0.049 A 
ATOM     65  H   UNL A   1      44.603  24.864  27.640  1.00  0.00     0.167 HD
ATOM     66  C   UNL A   1      44.959  26.559  31.236  1.00  0.00     0.074 A 
ATOM     67  C   UNL A   1      44.203  25.995  32.343  1.00  0.00     0.031 C 
ATOM     68  C   UNL A   1      45.176  26.031  30.008  1.00  0.00     0.037 A 
BRANCH  55  69
ATOM     69  C   UNL A   1      42.688  22.887  26.214  1.00  0.00     0.064 A 
ATOM     70  C   UNL A   1      42.709  21.470  26.356  1.00  0.00     0.173 A 
ATOM     71  C   UNL A   1      43.444  23.392  25.147  1.00  0.00     0.173 A 
ATOM     72  F   UNL A   1      41.959  20.860  27.286  1.00  0.00    -0.203 F 
ATOM     73  C   UNL A   1      43.564  20.654  25.614  1.00  0.00     0.198 A 
ATOM     74  C   UNL A   1      44.252  22.558  24.360  1.00  0.00     0.198 A 
ATOM     75  F   UNL A   1      43.502  24.706  24.898  1.00  0.00    -0.203 F 
ATOM     76  F   UNL A   1      43.669  19.350  25.910  1.00  0.00    -0.200 F 
ATOM     77  C   UNL A   1      44.354  21.203  24.627  1.00  0.00     0.200 A 
ATOM     78  F   UNL A   1      45.001  23.091  23.383  1.00  0.00    -0.200 F 
ATOM     79  F   UNL A   1      45.227  20.440  23.958  1.00  0.00    -0.200 F 
ENDBRANCH  55  69
BRANCH  56  80
ATOM     80  C   UNL A   1      43.868  30.082  34.027  1.00  0.00     0.064 A 
ATOM     81  C   UNL A   1      45.022  30.823  34.312  1.00  0.00     0.173 A 
ATOM     82  C   UNL A   1      42.915  30.058  35.087  1.00  0.00     0.173 A 
ATOM     83  F   UNL A   1      46.067  30.814  33.476  1.00  0.00    -0.203 F 
ATOM     84  C   UNL A   1      45.147  31.584  35.490  1.00  0.00     0.198 A 
ATOM     85  C   UNL A   1      43.022  30.840  36.238  1.00  0.00     0.198 A 
ATOM     86  F   UNL A   1      41.829  29.274  35.035  1.00  0.00    -0.203 F 
ATOM     87  F   UNL A   1      46.263  32.297  35.706  1.00  0.00    -0.200 F 
ATOM     88  C   UNL A   1      44.132  31.625  36.431  1.00  0.00     0.200 A 
ATOM     89  F   UNL A   1      42.028  30.837  37.139  1.00  0.00    -0.200 F 
ATOM     90  F   UNL A   1      44.229  32.399  37.520  1.00  0.00    -0.200 F 
ENDBRANCH  56  80
BRANCH  68  91
ATOM     91  C   UNL A   1      45.563  27.059  28.958  1.00  0.00     0.064 A 
ATOM     92  C   UNL A   1      44.613  27.595  28.087  1.00  0.00     0.173 A 
ATOM     93  C   UNL A   1      46.904  27.429  28.716  1.00  0.00     0.173 A 
ATOM     94  F   UNL A   1      43.317  27.292  28.246  1.00  0.00    -0.203 F 
ATOM     95  C   UNL A   1      44.983  28.450  27.041  1.00  0.00     0.198 A 
ATOM     96  C   UNL A   1      47.277  28.285  27.682  1.00  0.00     0.198 A 
ATOM     97  F   UNL A   1      47.881  26.980  29.502  1.00  0.00    -0.203 F 
ATOM     98  F   UNL A   1      44.045  28.949  26.226  1.00  0.00    -0.200 F 
ATOM     99  C   UNL A   1      46.312  28.794  26.839  1.00  0.00     0.200 A 
ATOM    100  F   UNL A   1      48.566  28.620  27.518  1.00  0.00    -0.200 F 
ATOM    101  F   UNL A   1      46.660  29.623  25.845  1.00  0.00    -0.200 F 
ENDBRANCH  68  91
ENDBRANCH  42  43
ENDBRANCH  34  37
ENDBRANCH  32  33
ENDBRANCH  31  32
ENDBRANCH  30  31
ENDBRANCH   1  30
TORSDOF 17
ENDMDL
MODEL 2
REMARK VINA RESULT:     -12.8      2.090      7.738
REMARK SMILES COc1ccc(-c2ccc(CCC(=O)NCCCCNC(=O)c3ccc(-c4c5nc(c(-c6c(F)c(F)c(F)c(F)c6F)c6ccc([nH]6)c(-c6c(F)c(F)c(F)c(F)c6F)c6nc(c(-c7c(F)c(F)c(F)c(F)c7F)c7ccc4[nH]7)C=C6)C=C5)cc3)n2-c2ccc(C(C)=O)cc2)cc1
REMARK SMILES IDX 16 1 15 2 13 3 14 4 12 6 11 7 10 8 7 9 8 10 86 11 9 12 6 13
REMARK SMILES IDX 3 14 4 15 97 16 5 17 96 18 2 19 1 20 87 21 88 22 95 23 89 24
REMARK SMILES IDX 94 25 90 26 91 27 92 28 93 29 17 30 18 31 19 32 20 33 21 34
REMARK SMILES IDX 22 36 23 37 24 38 85 39 25 40 84 41 26 42 27 43 28 44 78 45
REMARK SMILES IDX 29 46 83 47 77 48 79 49 30 50 82 51 76 52 75 53 31 55 63 56
REMARK SMILES IDX 43 57 62 58 44 59 47 60 61 61 80 62 45 63 46 64 60 66 81 67
REMARK SMILES IDX 48 68 32 69 33 70 41 71 34 72 35 73 39 74 42 75 36 76 37 77
REMARK SMILES IDX 40 78 38 79 64 80 65 81 73 82 66 83 67 84 71 85 74 86 68 87
REMARK SMILES IDX 69 88 72 89 70 90 49 91 50 92 58 93 51 94 52 95 56 96 59 97
REMARK SMILES IDX 53 98 54 99 57 100 55 101
REMARK H PARENT 15 5 20 35 79 54 47 65
REMARK Flexibility Score: inf
ROOT
ATOM      1  C   UNL A   1      31.961  26.978  26.336  1.00  0.00     0.116 C 
ENDROOT
BRANCH   1   2
ATOM      2  N   UNL A   1      31.591  25.660  26.811  1.00  0.00    -0.356 N 
ATOM      3  C   UNL A   1      30.670  24.790  26.304  1.00  0.00     0.220 C 
ATOM      4  O   UNL A   1      30.346  23.821  26.992  1.00  0.00    -0.275 OA
ATOM      5  H   UNL A   1      32.070  25.349  27.613  1.00  0.00     0.163 HD
BRANCH   3   6
ATOM      6  C   UNL A   1      30.095  24.985  24.913  1.00  0.00     0.106 C 
BRANCH   6   7
ATOM      7  C   UNL A   1      30.598  23.957  23.898  1.00  0.00     0.064 C 
BRANCH   7   8
ATOM      8  C   UNL A   1      32.075  24.052  23.608  1.00  0.00     0.024 A 
ATOM      9  C   UNL A   1      34.280  23.821  24.014  1.00  0.00     0.053 A 
ATOM     10  C   UNL A   1      34.120  24.734  22.979  1.00  0.00     0.029 A 
ATOM     11  N   UNL A   1      33.038  23.200  24.153  1.00  0.00    -0.314 N 
ATOM     12  C   UNL A   1      32.739  24.868  22.715  1.00  0.00     0.024 A 
BRANCH   9  13
ATOM     13  C   UNL A   1      35.541  23.393  24.621  1.00  0.00    -0.001 A 
ATOM     14  C   UNL A   1      38.029  22.622  25.669  1.00  0.00     0.118 A 
ATOM     15  C   UNL A   1      37.416  21.859  24.678  1.00  0.00     0.047 A 
ATOM     16  C   UNL A   1      37.418  23.793  26.117  1.00  0.00     0.047 A 
ATOM     17  C   UNL A   1      36.176  22.236  24.161  1.00  0.00     0.014 A 
ATOM     18  C   UNL A   1      36.175  24.178  25.594  1.00  0.00     0.014 A 
BRANCH  14  19
ATOM     19  O   UNL A   1      39.257  22.184  26.082  1.00  0.00    -0.497 OA
ATOM     20  C   UNL A   1      39.488  20.796  25.862  1.00  0.00     0.278 C 
ENDBRANCH  14  19
ENDBRANCH   9  13
BRANCH  11  21
ATOM     21  C   UNL A   1      32.848  21.807  24.340  1.00  0.00     0.046 A 
ATOM     22  C   UNL A   1      32.549  21.057  23.194  1.00  0.00     0.027 A 
ATOM     23  C   UNL A   1      33.069  21.172  25.558  1.00  0.00     0.027 A 
ATOM     24  C   UNL A   1      32.462  19.670  23.258  1.00  0.00     0.014 A 
ATOM     25  C   UNL A   1      32.954  19.777  25.622  1.00  0.00     0.014 A 
ATOM     26  C   UNL A   1      32.658  19.014  24.474  1.00  0.00     0.017 A 
BRANCH  26  27
ATOM     27  C   UNL A   1      32.575  17.528  24.603  1.00  0.00     0.159 C 
ATOM     28  C   UNL A   1      33.511  16.627  23.832  1.00  0.00     0.093 C 
ATOM     29  O   UNL A   1      31.735  17.039  25.359  1.00  0.00    -0.295 OA
ENDBRANCH  26  27
ENDBRANCH  11  21
ENDBRANCH   7   8
ENDBRANCH   6   7
ENDBRANCH   3   6
ENDBRANCH   1   2
BRANCH   1  30
ATOM     30  C   UNL A   1      31.686  28.025  27.409  1.00  0.00     0.023 C 
BRANCH  30  31
ATOM     31  C   UNL A   1      31.968  29.479  27.048  1.00  0.00     0.023 C 
BRANCH  31  32
ATOM     32  C   UNL A   1      33.419  29.879  27.266  1.00  0.00     0.116 C 
BRANCH  32  33
ATOM     33  N   UNL A   1      33.545  31.198  27.874  1.00  0.00    -0.352 N 
ATOM     34  C   UNL A   1      34.526  31.651  28.729  1.00  0.00     0.251 C 
ATOM     35  H   UNL A   1      32.840  31.846  27.646  1.00  0.00     0.163 HD
ATOM     36  O   UNL A   1      34.375  32.657  29.393  1.00  0.00    -0.269 OA
BRANCH  34  37
ATOM     37  C   UNL A   1      35.765  30.865  28.854  1.00  0.00     0.039 A 
ATOM     38  C   UNL A   1      36.688  30.904  27.806  1.00  0.00     0.014 A 
ATOM     39  C   UNL A   1      36.013  30.126  30.016  1.00  0.00     0.014 A 
ATOM     40  C   UNL A   1      37.917  30.280  27.970  1.00  0.00     0.010 A 
ATOM     41  C   UNL A   1      37.253  29.539  30.200  1.00  0.00     0.010 A 
ATOM     42  C   UNL A   1      38.212  29.645  29.186  1.00  0.00    -0.014 A 
BRANCH  42  43
ATOM     43  C   UNL A   1      39.617  29.269  29.457  1.00  0.00     0.031 A 
ATOM     44  C   UNL A   1      40.406  30.464  30.066  1.00  0.00     0.074 A 
ATOM     45  C   UNL A   1      39.960  27.990  29.120  1.00  0.00     0.049 A 
ATOM     46  N   UNL A   1      41.657  30.810  29.971  1.00  0.00    -0.248 NA
ATOM     47  C   UNL A   1      39.635  31.479  30.844  1.00  0.00     0.031 C 
ATOM     48  C   UNL A   1      39.028  26.963  28.600  1.00  0.00     0.029 A 
ATOM     49  N   UNL A   1      41.142  27.288  29.128  1.00  0.00    -0.354 N 
ATOM     50  C   UNL A   1      41.851  31.955  30.788  1.00  0.00     0.074 A 
ATOM     51  C   UNL A   1      40.549  32.385  31.198  1.00  0.00     0.031 C 
ATOM     52  C   UNL A   1      39.683  25.831  28.265  1.00  0.00     0.029 A 
ATOM     53  C   UNL A   1      41.098  26.006  28.511  1.00  0.00     0.049 A 
ATOM     54  H   UNL A   1      41.965  27.648  29.533  1.00  0.00     0.167 HD
ATOM     55  C   UNL A   1      43.079  32.389  31.210  1.00  0.00     0.037 A 
ATOM     56  C   UNL A   1      42.142  25.199  28.134  1.00  0.00     0.037 A 
ATOM     57  C   UNL A   1      44.104  31.549  30.695  1.00  0.00     0.049 A 
ATOM     58  C   UNL A   1      43.332  25.961  28.536  1.00  0.00     0.074 A 
ATOM     59  C   UNL A   1      44.943  31.532  29.612  1.00  0.00     0.029 A 
ATOM     60  N   UNL A   1      44.312  30.404  31.414  1.00  0.00    -0.354 N 
ATOM     61  N   UNL A   1      43.738  26.118  29.756  1.00  0.00    -0.248 NA
ATOM     62  C   UNL A   1      43.915  26.836  27.525  1.00  0.00     0.031 C 
ATOM     63  C   UNL A   1      45.537  30.244  29.614  1.00  0.00     0.029 A 
ATOM     64  C   UNL A   1      44.873  29.485  30.574  1.00  0.00     0.049 A 
ATOM     65  H   UNL A   1      44.096  30.267  32.365  1.00  0.00     0.167 HD
ATOM     66  C   UNL A   1      44.440  27.303  29.713  1.00  0.00     0.074 A 
ATOM     67  C   UNL A   1      44.609  27.648  28.311  1.00  0.00     0.031 C 
ATOM     68  C   UNL A   1      44.531  28.111  30.797  1.00  0.00     0.037 A 
BRANCH  55  69
ATOM     69  C   UNL A   1      43.517  33.312  32.340  1.00  0.00     0.064 A 
ATOM     70  C   UNL A   1      43.199  32.926  33.673  1.00  0.00     0.173 A 
ATOM     71  C   UNL A   1      43.824  34.669  32.168  1.00  0.00     0.173 A 
ATOM     72  F   UNL A   1      42.971  31.640  33.982  1.00  0.00    -0.203 F 
ATOM     73  C   UNL A   1      43.018  33.853  34.700  1.00  0.00     0.198 A 
ATOM     74  C   UNL A   1      43.704  35.589  33.221  1.00  0.00     0.198 A 
ATOM     75  F   UNL A   1      44.148  35.160  30.965  1.00  0.00    -0.203 F 
ATOM     76  F   UNL A   1      42.549  33.451  35.891  1.00  0.00    -0.200 F 
ATOM     77  C   UNL A   1      43.250  35.191  34.467  1.00  0.00     0.200 A 
ATOM     78  F   UNL A   1      43.956  36.887  32.998  1.00  0.00    -0.200 F 
ATOM     79  F   UNL A   1      43.012  36.096  35.426  1.00  0.00    -0.200 F 
ENDBRANCH  55  69
BRANCH  56  80
ATOM     80  C   UNL A   1      42.352  23.978  27.269  1.00  0.00     0.064 A 
ATOM     81  C   UNL A   1      42.697  23.983  25.912  1.00  0.00     0.173 A 
ATOM     82  C   UNL A   1      42.263  22.676  27.843  1.00  0.00     0.173 A 
ATOM     83  F   UNL A   1      42.673  25.117  25.202  1.00  0.00    -0.203 F 
ATOM     84  C   UNL A   1      43.056  22.804  25.230  1.00  0.00     0.198 A 
ATOM     85  C   UNL A   1      42.652  21.512  27.178  1.00  0.00     0.198 A 
ATOM     86  F   UNL A   1      41.798  22.488  29.086  1.00  0.00    -0.203 F 
ATOM     87  F   UNL A   1      43.403  22.865  23.936  1.00  0.00    -0.200 F 
ATOM     88  C   UNL A   1      43.074  21.578  25.873  1.00  0.00     0.200 A 
ATOM     89  F   UNL A   1      42.636  20.338  27.827  1.00  0.00    -0.200 F 
ATOM     90  F   UNL A   1      43.477  20.469  25.238  1.00  0.00    -0.200 F 
ENDBRANCH  56  80
BRANCH  68  91
ATOM     91  C   UNL A   1      43.826  27.567  32.028  1.00  0.00     0.064 A 
ATOM     92  C   UNL A   1      42.553  28.012  32.387  1.00  0.00     0.173 A 
ATOM     93  C   UNL A   1      44.458  26.694  32.941  1.00  0.00     0.173 A 
ATOM     94  F   UNL A   1      41.885  28.845  31.577  1.00  0.00    -0.203 F 
ATOM     95  C   UNL A   1      41.949  27.606  33.584  1.00  0.00     0.198 A 
ATOM     96  C   UNL A   1      43.859  26.280  34.129  1.00  0.00     0.198 A 
ATOM     97  F   UNL A   1      45.668  26.205  32.680  1.00  0.00    -0.203 F 
ATOM     98  F   UNL A   1      40.724  28.049  33.895  1.00  0.00    -0.200 F 
ATOM     99  C   UNL A   1      42.601  26.742  34.453  1.00  0.00     0.200 A 
ATOM    100  F   UNL A   1      44.500  25.429  34.944  1.00  0.00    -0.200 F 
ATOM    101  F   UNL A   1      42.013  26.345  35.591  1.00  0.00    -0.200 F 
ENDBRANCH  68  91
ENDBRANCH  42  43
ENDBRANCH  34  37
ENDBRANCH  32  33
ENDBRANCH  31  32
ENDBRANCH  30  31
ENDBRANCH   1  30
TORSDOF 17
ENDMDL
MODEL 3
REMARK VINA RESULT:     -12.7      2.409      8.327
REMARK SMILES COc1ccc(-c2ccc(CCC(=O)NCCCCNC(=O)c3ccc(-c4c5nc(c(-c6c(F)c(F)c(F)c(F)c6F)c6ccc([nH]6)c(-c6c(F)c(F)c(F)c(F)c6F)c6nc(c(-c7c(F)c(F)c(F)c(F)c7F)c7ccc4[nH]7)C=C6)C=C5)cc3)n2-c2ccc(C(C)=O)cc2)cc1
REMARK SMILES IDX 16 1 15 2 13 3 14 4 12 6 11 7 10 8 7 9 8 10 86 11 9 12 6 13
REMARK SMILES IDX 3 14 4 15 97 16 5 17 96 18 2 19 1 20 87 21 88 22 95 23 89 24
REMARK SMILES IDX 94 25 90 26 91 27 92 28 93 29 17 30 18 31 19 32 20 33 21 34
REMARK SMILES IDX 22 36 23 37 24 38 85 39 25 40 84 41 26 42 27 43 28 44 78 45
REMARK SMILES IDX 29 46 83 47 77 48 79 49 30 50 82 51 76 52 75 53 31 55 63 56
REMARK SMILES IDX 43 57 62 58 44 59 47 60 61 61 80 62 45 63 46 64 60 66 81 67
REMARK SMILES IDX 48 68 32 69 33 70 41 71 34 72 35 73 39 74 42 75 36 76 37 77
REMARK SMILES IDX 40 78 38 79 64 80 65 81 73 82 66 83 67 84 71 85 74 86 68 87
REMARK SMILES IDX 69 88 72 89 70 90 49 91 50 92 58 93 51 94 52 95 56 96 59 97
REMARK SMILES IDX 53 98 54 99 57 100 55 101
REMARK H PARENT 15 5 20 35 79 54 47 65
REMARK Flexibility Score: inf
ROOT
ATOM      1  C   UNL A   1      32.183  29.231  24.192  1.00  0.00     0.116 C 
ENDROOT
BRANCH   1   2
ATOM      2  N   UNL A   1      31.306  28.469  23.324  1.00  0.00    -0.356 N 
ATOM      3  C   UNL A   1      31.621  27.493  22.426  1.00  0.00     0.220 C 
ATOM      4  O   UNL A   1      30.753  27.137  21.626  1.00  0.00    -0.275 OA
ATOM      5  H   UNL A   1      30.349  28.689  23.393  1.00  0.00     0.163 HD
BRANCH   3   6
ATOM      6  C   UNL A   1      32.986  26.829  22.440  1.00  0.00     0.106 C 
BRANCH   6   7
ATOM      7  C   UNL A   1      33.363  26.241  23.801  1.00  0.00     0.064 C 
BRANCH   7   8
ATOM      8  C   UNL A   1      32.615  24.980  24.153  1.00  0.00     0.024 A 
ATOM      9  C   UNL A   1      32.092  22.790  24.050  1.00  0.00     0.053 A 
ATOM     10  C   UNL A   1      31.031  23.465  24.641  1.00  0.00     0.029 A 
ATOM     11  N   UNL A   1      33.154  23.695  24.057  1.00  0.00    -0.314 N 
ATOM     12  C   UNL A   1      31.365  24.835  24.718  1.00  0.00     0.024 A 
BRANCH   9  13
ATOM     13  C   UNL A   1      32.170  21.358  23.759  1.00  0.00    -0.001 A 
ATOM     14  C   UNL A   1      32.450  18.632  23.147  1.00  0.00     0.118 A 
ATOM     15  C   UNL A   1      32.153  19.551  22.144  1.00  0.00     0.047 A 
ATOM     16  C   UNL A   1      32.642  19.075  24.456  1.00  0.00     0.047 A 
ATOM     17  C   UNL A   1      32.006  20.906  22.447  1.00  0.00     0.014 A 
ATOM     18  C   UNL A   1      32.502  20.436  24.762  1.00  0.00     0.014 A 
BRANCH  14  19
ATOM     19  O   UNL A   1      32.607  17.337  22.739  1.00  0.00    -0.497 OA
ATOM     20  C   UNL A   1      33.553  16.593  23.501  1.00  0.00     0.278 C 
ENDBRANCH  14  19
ENDBRANCH   9  13
BRANCH  11  21
ATOM     21  C   UNL A   1      34.491  23.370  24.402  1.00  0.00     0.046 A 
ATOM     22  C   UNL A   1      34.801  23.364  25.769  1.00  0.00     0.027 A 
ATOM     23  C   UNL A   1      35.430  22.947  23.467  1.00  0.00     0.027 A 
ATOM     24  C   UNL A   1      36.051  22.943  26.210  1.00  0.00     0.014 A 
ATOM     25  C   UNL A   1      36.697  22.549  23.915  1.00  0.00     0.014 A 
ATOM     26  C   UNL A   1      37.016  22.537  25.288  1.00  0.00     0.017 A 
BRANCH  26  27
ATOM     27  C   UNL A   1      38.375  22.077  25.703  1.00  0.00     0.159 C 
ATOM     28  C   UNL A   1      39.292  22.976  26.499  1.00  0.00     0.093 C 
ATOM     29  O   UNL A   1      38.742  20.941  25.398  1.00  0.00    -0.295 OA
ENDBRANCH  26  27
ENDBRANCH  11  21
ENDBRANCH   7   8
ENDBRANCH   6   7
ENDBRANCH   3   6
ENDBRANCH   1   2
BRANCH   1  30
ATOM     30  C   UNL A   1      31.468  29.585  25.490  1.00  0.00     0.023 C 
BRANCH  30  31
ATOM     31  C   UNL A   1      31.866  28.803  26.737  1.00  0.00     0.023 C 
BRANCH  31  32
ATOM     32  C   UNL A   1      33.236  29.190  27.274  1.00  0.00     0.116 C 
BRANCH  32  33
ATOM     33  N   UNL A   1      33.346  30.621  27.528  1.00  0.00    -0.352 N 
ATOM     34  C   UNL A   1      34.352  31.293  28.187  1.00  0.00     0.251 C 
ATOM     35  H   UNL A   1      32.609  31.177  27.185  1.00  0.00     0.163 HD
ATOM     36  O   UNL A   1      34.200  32.430  28.588  1.00  0.00    -0.269 OA
BRANCH  34  37
ATOM     37  C   UNL A   1      35.621  30.589  28.434  1.00  0.00     0.039 A 
ATOM     38  C   UNL A   1      36.571  30.548  27.410  1.00  0.00     0.014 A 
ATOM     39  C   UNL A   1      35.870  30.006  29.681  1.00  0.00     0.014 A 
ATOM     40  C   UNL A   1      37.822  30.009  27.675  1.00  0.00     0.010 A 
ATOM     41  C   UNL A   1      37.130  29.506  29.961  1.00  0.00     0.010 A 
ATOM     42  C   UNL A   1      38.112  29.538  28.965  1.00  0.00    -0.014 A 
BRANCH  42  43
ATOM     43  C   UNL A   1      39.524  29.266  29.311  1.00  0.00     0.031 A 
ATOM     44  C   UNL A   1      40.229  30.553  29.826  1.00  0.00     0.074 A 
ATOM     45  C   UNL A   1      39.944  27.982  29.106  1.00  0.00     0.049 A 
ATOM     46  N   UNL A   1      41.464  30.956  29.734  1.00  0.00    -0.248 NA
ATOM     47  C   UNL A   1      39.381  31.593  30.482  1.00  0.00     0.031 C 
ATOM     48  C   UNL A   1      39.084  26.861  28.660  1.00  0.00     0.029 A 
ATOM     49  N   UNL A   1      41.160  27.348  29.215  1.00  0.00    -0.354 N 
ATOM     50  C   UNL A   1      41.570  32.182  30.444  1.00  0.00     0.074 A 
ATOM     51  C   UNL A   1      40.235  32.576  30.774  1.00  0.00     0.031 C 
ATOM     52  C   UNL A   1      39.808  25.740  28.452  1.00  0.00     0.029 A 
ATOM     53  C   UNL A   1      41.202  26.014  28.721  1.00  0.00     0.049 A 
ATOM     54  H   UNL A   1      41.948  27.789  29.608  1.00  0.00     0.167 HD
ATOM     55  C   UNL A   1      42.759  32.719  30.859  1.00  0.00     0.037 A 
ATOM     56  C   UNL A   1      42.298  25.233  28.453  1.00  0.00     0.037 A 
ATOM     57  C   UNL A   1      43.844  31.892  30.456  1.00  0.00     0.049 A 
ATOM     58  C   UNL A   1      43.433  26.093  28.815  1.00  0.00     0.074 A 
ATOM     59  C   UNL A   1      44.718  31.819  29.404  1.00  0.00     0.029 A 
ATOM     60  N   UNL A   1      44.086  30.832  31.286  1.00  0.00    -0.354 N 
ATOM     61  N   UNL A   1      43.789  26.384  30.025  1.00  0.00    -0.248 NA
ATOM     62  C   UNL A   1      44.004  26.900  27.742  1.00  0.00     0.031 C 
ATOM     63  C   UNL A   1      45.378  30.572  29.545  1.00  0.00     0.029 A 
ATOM     64  C   UNL A   1      44.721  29.870  30.554  1.00  0.00     0.049 A 
ATOM     65  H   UNL A   1      43.845  30.773  32.238  1.00  0.00     0.167 HD
ATOM     66  C   UNL A   1      44.430  27.597  29.891  1.00  0.00     0.074 A 
ATOM     67  C   UNL A   1      44.629  27.818  28.468  1.00  0.00     0.031 C 
ATOM     68  C   UNL A   1      44.443  28.506  30.896  1.00  0.00     0.037 A 
BRANCH  55  69
ATOM     69  C   UNL A   1      43.111  33.766  31.909  1.00  0.00     0.064 A 
ATOM     70  C   UNL A   1      42.619  33.572  33.230  1.00  0.00     0.173 A 
ATOM     71  C   UNL A   1      43.509  35.076  31.605  1.00  0.00     0.173 A 
ATOM     72  F   UNL A   1      42.287  32.347  33.668  1.00  0.00    -0.203 F 
ATOM     73  C   UNL A   1      42.368  34.632  34.102  1.00  0.00     0.198 A 
ATOM     74  C   UNL A   1      43.316  36.130  32.511  1.00  0.00     0.198 A 
ATOM     75  F   UNL A   1      43.998  35.391  30.400  1.00  0.00    -0.203 F 
ATOM     76  F   UNL A   1      41.742  34.409  35.267  1.00  0.00    -0.200 F 
ATOM     77  C   UNL A   1      42.699  35.918  33.732  1.00  0.00     0.200 A 
ATOM     78  F   UNL A   1      43.662  37.377  32.158  1.00  0.00    -0.200 F 
ATOM     79  F   UNL A   1      42.398  36.950  34.532  1.00  0.00    -0.200 F 
ENDBRANCH  55  69
BRANCH  56  80
ATOM     80  C   UNL A   1      42.600  23.950  27.715  1.00  0.00     0.064 A 
ATOM     81  C   UNL A   1      42.535  22.659  28.252  1.00  0.00     0.173 A 
ATOM     82  C   UNL A   1      42.930  23.988  26.328  1.00  0.00     0.173 A 
ATOM     83  F   UNL A   1      42.384  22.470  29.568  1.00  0.00    -0.203 F 
ATOM     84  C   UNL A   1      42.651  21.509  27.447  1.00  0.00     0.198 A 
ATOM     85  C   UNL A   1      43.009  22.850  25.523  1.00  0.00     0.198 A 
ATOM     86  F   UNL A   1      43.179  25.144  25.698  1.00  0.00    -0.203 F 
ATOM     87  F   UNL A   1      42.557  20.294  28.007  1.00  0.00    -0.200 F 
ATOM     88  C   UNL A   1      42.845  21.605  26.080  1.00  0.00     0.200 A 
ATOM     89  F   UNL A   1      43.220  22.981  24.205  1.00  0.00    -0.200 F 
ATOM     90  F   UNL A   1      42.891  20.511  25.309  1.00  0.00    -0.200 F 
ENDBRANCH  56  80
BRANCH  68  91
ATOM     91  C   UNL A   1      43.726  28.042  32.152  1.00  0.00     0.064 A 
ATOM     92  C   UNL A   1      44.344  27.179  33.060  1.00  0.00     0.173 A 
ATOM     93  C   UNL A   1      42.370  28.341  32.406  1.00  0.00     0.173 A 
ATOM     94  F   UNL A   1      45.629  26.841  32.889  1.00  0.00    -0.203 F 
ATOM     95  C   UNL A   1      43.647  26.652  34.154  1.00  0.00     0.198 A 
ATOM     96  C   UNL A   1      41.674  27.826  33.498  1.00  0.00     0.198 A 
ATOM     97  F   UNL A   1      41.699  29.166  31.605  1.00  0.00    -0.203 F 
ATOM     98  F   UNL A   1      44.271  25.831  35.008  1.00  0.00    -0.200 F 
ATOM     99  C   UNL A   1      42.314  26.975  34.373  1.00  0.00     0.200 A 
ATOM    100  F   UNL A   1      40.392  28.168  33.701  1.00  0.00    -0.200 F 
ATOM    101  F   UNL A   1      41.656  26.479  35.430  1.00  0.00    -0.200 F 
ENDBRANCH  68  91
ENDBRANCH  42  43
ENDBRANCH  34  37
ENDBRANCH  32  33
ENDBRANCH  31  32
ENDBRANCH  30  31
ENDBRANCH   1  30
TORSDOF 17
ENDMDL
