MODEL 1
REMARK VINA RESULT:     -11.8      0.000      0.000
REMARK SMILES Cc1cc(C)c2c(OCCCC(=O)NCCCCNC(=O)c3ccc(-c4c5nc(c(-c6c(F)c(F)c(F)c(F)c6F)c6ccc([nH]6)c(-c6c(F)c(F)c(F)c(F)c6F)c6nc(c(-c7c(F)c(F)c(F)c(F)c7F)c7ccc4[nH]7)C=C6)C=C5)cc3)nsc2n1
REMARK SMILES IDX 15 1 14 2 12 3 13 4 11 6 10 7 9 8 8 9 7 10 1 11 2 12 3 13
REMARK SMILES IDX 88 14 4 15 87 16 5 17 6 18 86 19 85 20 16 21 17 22 18 23
REMARK SMILES IDX 19 24 20 25 21 27 22 28 23 29 84 30 24 31 83 32 25 33 26 34
REMARK SMILES IDX 27 35 77 36 28 37 82 38 76 39 78 40 29 41 81 42 75 43 74 44
REMARK SMILES IDX 30 46 62 47 42 48 61 49 43 50 46 51 60 52 79 53 44 54 45 55
REMARK SMILES IDX 59 57 80 58 47 59 31 60 32 61 40 62 33 63 34 64 38 65 41 66
REMARK SMILES IDX 35 67 36 68 39 69 37 70 63 71 64 72 72 73 65 74 66 75 70 76
REMARK SMILES IDX 73 77 67 78 68 79 71 80 69 81 48 82 49 83 57 84 50 85 51 86
REMARK SMILES IDX 55 87 58 88 52 89 53 90 56 91 54 92
REMARK H PARENT 14 5 19 26 78 45 46 56
REMARK Flexibility Score: inf
ROOT
ATOM      1  C   UNL A   1      39.275  22.184  26.471  1.00  0.00     0.116 C 
ENDROOT
BRANCH   1   2
ATOM      2  N   UNL A   1      38.254  22.114  25.361  1.00  0.00    -0.356 N 
ATOM      3  C   UNL A   1      37.172  21.565  24.753  1.00  0.00     0.220 C 
ATOM      4  O   UNL A   1      36.947  22.201  23.698  1.00  0.00    -0.275 OA
ATOM      5  H   UNL A   1      38.505  22.858  24.766  1.00  0.00     0.163 HD
BRANCH   3   6
ATOM      6  C   UNL A   1      36.066  20.474  25.118  1.00  0.00     0.103 C 
BRANCH   6   7
ATOM      7  C   UNL A   1      34.499  20.404  24.904  1.00  0.00     0.051 C 
BRANCH   7   8
ATOM      8  C   UNL A   1      33.563  21.107  23.852  1.00  0.00     0.232 C 
BRANCH   8   9
ATOM      9  O   UNL A   1      33.078  22.451  23.979  1.00  0.00    -0.477 OA
BRANCH   9  10
ATOM     10  C   UNL A   1      32.558  22.944  25.133  1.00  0.00     0.235 A 
ATOM     11  C   UNL A   1      31.704  28.183  26.217  1.00  0.00     0.067 C 
ATOM     12  C   UNL A   1      32.168  26.759  26.353  1.00  0.00     0.039 A 
ATOM     13  C   UNL A   1      33.472  26.430  25.986  1.00  0.00     0.027 A 
ATOM     14  N   UNL A   1      31.256  25.838  26.732  1.00  0.00    -0.240 NA
ATOM     15  C   UNL A   1      33.836  25.084  25.819  1.00  0.00    -0.034 A 
ATOM     16  C   UNL A   1      31.606  24.580  26.397  1.00  0.00     0.147 A 
ATOM     17  C   UNL A   1      35.215  24.559  25.684  1.00  0.00     0.045 C 
ATOM     18  C   UNL A   1      32.780  24.187  25.776  1.00  0.00     0.078 A 
ATOM     19  S   UNL A   1      30.691  23.174  26.686  1.00  0.00    -0.012 S 
ATOM     20  N   UNL A   1      31.567  22.206  25.636  1.00  0.00    -0.153 NA
ENDBRANCH   9  10
ENDBRANCH   8   9
ENDBRANCH   7   8
ENDBRANCH   6   7
ENDBRANCH   3   6
ENDBRANCH   1   2
BRANCH   1  21
ATOM     21  C   UNL A   1      40.724  21.825  26.021  1.00  0.00     0.023 C 
BRANCH  21  22
ATOM     22  C   UNL A   1      41.133  20.334  26.102  1.00  0.00     0.023 C 
BRANCH  22  23
ATOM     23  C   UNL A   1      42.577  20.047  26.520  1.00  0.00     0.116 C 
BRANCH  23  24
ATOM     24  N   UNL A   1      43.463  19.631  25.424  1.00  0.00    -0.352 N 
ATOM     25  C   UNL A   1      44.164  20.478  24.577  1.00  0.00     0.251 C 
ATOM     26  H   UNL A   1      43.570  18.663  25.278  1.00  0.00     0.163 HD
ATOM     27  O   UNL A   1      44.658  20.097  23.520  1.00  0.00    -0.269 OA
BRANCH  25  28
ATOM     28  C   UNL A   1      44.312  21.876  25.009  1.00  0.00     0.039 A 
ATOM     29  C   UNL A   1      43.620  22.917  24.387  1.00  0.00     0.014 A 
ATOM     30  C   UNL A   1      45.026  22.075  26.188  1.00  0.00     0.014 A 
ATOM     31  C   UNL A   1      43.557  24.152  25.030  1.00  0.00     0.010 A 
ATOM     32  C   UNL A   1      44.859  23.252  26.875  1.00  0.00     0.010 A 
ATOM     33  C   UNL A   1      44.146  24.306  26.297  1.00  0.00    -0.014 A 
BRANCH  33  34
ATOM     34  C   UNL A   1      43.935  25.529  27.072  1.00  0.00     0.031 A 
ATOM     35  C   UNL A   1      44.881  26.662  26.817  1.00  0.00     0.074 A 
ATOM     36  C   UNL A   1      42.822  25.730  27.810  1.00  0.00     0.049 A 
ATOM     37  N   UNL A   1      45.647  27.273  27.665  1.00  0.00    -0.248 NA
ATOM     38  C   UNL A   1      45.030  27.151  25.435  1.00  0.00     0.031 C 
ATOM     39  C   UNL A   1      41.636  24.874  27.939  1.00  0.00     0.029 A 
ATOM     40  N   UNL A   1      42.476  26.829  28.531  1.00  0.00    -0.354 N 
ATOM     41  C   UNL A   1      46.285  28.300  26.966  1.00  0.00     0.074 A 
ATOM     42  C   UNL A   1      45.939  28.119  25.579  1.00  0.00     0.031 C 
ATOM     43  C   UNL A   1      40.626  25.580  28.491  1.00  0.00     0.029 A 
ATOM     44  C   UNL A   1      41.146  26.862  28.921  1.00  0.00     0.049 A 
ATOM     45  H   UNL A   1      43.117  27.542  28.757  1.00  0.00     0.167 HD
ATOM     46  C   UNL A   1      46.936  29.317  27.600  1.00  0.00     0.037 A 
ATOM     47  C   UNL A   1      40.511  27.885  29.538  1.00  0.00     0.037 A 
ATOM     48  C   UNL A   1      47.182  29.012  28.981  1.00  0.00     0.049 A 
ATOM     49  C   UNL A   1      41.553  28.731  30.167  1.00  0.00     0.074 A 
ATOM     50  C   UNL A   1      47.940  28.067  29.643  1.00  0.00     0.029 A 
ATOM     51  N   UNL A   1      46.317  29.513  29.921  1.00  0.00    -0.354 N 
ATOM     52  N   UNL A   1      42.303  28.343  31.161  1.00  0.00    -0.248 NA
ATOM     53  C   UNL A   1      42.061  29.859  29.403  1.00  0.00     0.031 C 
ATOM     54  C   UNL A   1      47.157  27.697  30.775  1.00  0.00     0.029 A 
ATOM     55  C   UNL A   1      46.000  28.478  30.763  1.00  0.00     0.049 A 
ATOM     56  H   UNL A   1      45.988  30.439  29.980  1.00  0.00     0.167 HD
ATOM     57  C   UNL A   1      43.550  28.887  30.896  1.00  0.00     0.074 A 
ATOM     58  C   UNL A   1      43.316  29.886  29.858  1.00  0.00     0.031 C 
ATOM     59  C   UNL A   1      44.691  28.284  31.342  1.00  0.00     0.037 A 
BRANCH  46  60
ATOM     60  C   UNL A   1      47.124  30.707  27.053  1.00  0.00     0.064 A 
ATOM     61  C   UNL A   1      48.403  31.303  27.054  1.00  0.00     0.173 A 
ATOM     62  C   UNL A   1      46.046  31.576  26.790  1.00  0.00     0.173 A 
ATOM     63  F   UNL A   1      49.497  30.574  27.324  1.00  0.00    -0.203 F 
ATOM     64  C   UNL A   1      48.579  32.676  26.852  1.00  0.00     0.198 A 
ATOM     65  C   UNL A   1      46.229  32.935  26.541  1.00  0.00     0.198 A 
ATOM     66  F   UNL A   1      44.776  31.159  26.870  1.00  0.00    -0.203 F 
ATOM     67  F   UNL A   1      49.800  33.216  26.963  1.00  0.00    -0.200 F 
ATOM     68  C   UNL A   1      47.492  33.490  26.597  1.00  0.00     0.200 A 
ATOM     69  F   UNL A   1      45.161  33.715  26.317  1.00  0.00    -0.200 F 
ATOM     70  F   UNL A   1      47.650  34.813  26.451  1.00  0.00    -0.200 F 
ENDBRANCH  46  60
BRANCH  47  71
ATOM     71  C   UNL A   1      39.113  28.331  29.356  1.00  0.00     0.064 A 
ATOM     72  C   UNL A   1      38.258  28.484  30.457  1.00  0.00     0.173 A 
ATOM     73  C   UNL A   1      38.679  28.890  28.137  1.00  0.00     0.173 A 
ATOM     74  F   UNL A   1      38.618  28.015  31.661  1.00  0.00    -0.203 F 
ATOM     75  C   UNL A   1      37.056  29.191  30.356  1.00  0.00     0.198 A 
ATOM     76  C   UNL A   1      37.475  29.588  28.036  1.00  0.00     0.198 A 
ATOM     77  F   UNL A   1      39.461  28.861  27.049  1.00  0.00    -0.203 F 
ATOM     78  F   UNL A   1      36.300  29.382  31.446  1.00  0.00    -0.200 F 
ATOM     79  C   UNL A   1      36.672  29.753  29.150  1.00  0.00     0.200 A 
ATOM     80  F   UNL A   1      37.136  30.162  26.873  1.00  0.00    -0.200 F 
ATOM     81  F   UNL A   1      35.557  30.493  29.069  1.00  0.00    -0.200 F 
ENDBRANCH  47  71
BRANCH  59  82
ATOM     82  C   UNL A   1      44.553  27.154  32.325  1.00  0.00     0.064 A 
ATOM     83  C   UNL A   1      44.438  25.803  31.953  1.00  0.00     0.173 A 
ATOM     84  C   UNL A   1      44.711  27.431  33.689  1.00  0.00     0.173 A 
ATOM     85  F   UNL A   1      44.386  25.445  30.666  1.00  0.00    -0.203 F 
ATOM     86  C   UNL A   1      44.445  24.784  32.904  1.00  0.00     0.198 A 
ATOM     87  C   UNL A   1      44.755  26.410  34.635  1.00  0.00     0.198 A 
ATOM     88  F   UNL A   1      44.884  28.697  34.100  1.00  0.00    -0.203 F 
ATOM     89  F   UNL A   1      44.332  23.503  32.519  1.00  0.00    -0.200 F 
ATOM     90  C   UNL A   1      44.614  25.087  34.243  1.00  0.00     0.200 A 
ATOM     91  F   UNL A   1      44.969  26.706  35.924  1.00  0.00    -0.200 F 
ATOM     92  F   UNL A   1      44.671  24.106  35.154  1.00  0.00    -0.200 F 
ENDBRANCH  59  82
ENDBRANCH  33  34
ENDBRANCH  25  28
ENDBRANCH  23  24
ENDBRANCH  22  23
ENDBRANCH  21  22
ENDBRANCH   1  21
TORSDOF 15
ENDMDL
MODEL 2
REMARK VINA RESULT:     -11.5      3.206      8.518
REMARK SMILES Cc1cc(C)c2c(OCCCC(=O)NCCCCNC(=O)c3ccc(-c4c5nc(c(-c6c(F)c(F)c(F)c(F)c6F)c6ccc([nH]6)c(-c6c(F)c(F)c(F)c(F)c6F)c6nc(c(-c7c(F)c(F)c(F)c(F)c7F)c7ccc4[nH]7)C=C6)C=C5)cc3)nsc2n1
REMARK SMILES IDX 15 1 14 2 12 3 13 4 11 6 10 7 9 8 8 9 7 10 1 11 2 12 3 13
REMARK SMILES IDX 88 14 4 15 87 16 5 17 6 18 86 19 85 20 16 21 17 22 18 23
REMARK SMILES IDX 19 24 20 25 21 27 22 28 23 29 84 30 24 31 83 32 25 33 26 34
REMARK SMILES IDX 27 35 77 36 28 37 82 38 76 39 78 40 29 41 81 42 75 43 74 44
REMARK SMILES IDX 30 46 62 47 42 48 61 49 43 50 46 51 60 52 79 53 44 54 45 55
REMARK SMILES IDX 59 57 80 58 47 59 31 60 32 61 40 62 33 63 34 64 38 65 41 66
REMARK SMILES IDX 35 67 36 68 39 69 37 70 63 71 64 72 72 73 65 74 66 75 70 76
REMARK SMILES IDX 73 77 67 78 68 79 71 80 69 81 48 82 49 83 57 84 50 85 51 86
REMARK SMILES IDX 55 87 58 88 52 89 53 90 56 91 54 92
REMARK H PARENT 14 5 19 26 78 45 46 56
REMARK Flexibility Score: inf
ROOT
ATOM      1  C   UNL A   1      31.663  27.684  26.507  1.00  0.00     0.116 C 
ENDROOT
BRANCH   1   2
ATOM      2  N   UNL A   1      31.550  26.193  26.724  1.00  0.00    -0.356 N 
ATOM      3  C   UNL A   1      31.873  24.907  26.439  1.00  0.00     0.220 C 
ATOM      4  O   UNL A   1      31.217  24.157  27.197  1.00  0.00    -0.275 OA
ATOM      5  H   UNL A   1      30.900  26.113  27.460  1.00  0.00     0.163 HD
BRANCH   3   6
ATOM      6  C   UNL A   1      32.958  24.156  25.540  1.00  0.00     0.103 C 
BRANCH   6   7
ATOM      7  C   UNL A   1      33.469  24.364  24.056  1.00  0.00     0.051 C 
BRANCH   7   8
ATOM      8  C   UNL A   1      33.088  25.437  22.969  1.00  0.00     0.232 C 
BRANCH   8   9
ATOM      9  O   UNL A   1      31.763  25.622  22.453  1.00  0.00    -0.477 OA
BRANCH   9  10
ATOM     10  C   UNL A   1      30.801  26.315  23.113  1.00  0.00     0.235 A 
ATOM     11  C   UNL A   1      28.084  30.577  21.161  1.00  0.00     0.067 C 
ATOM     12  C   UNL A   1      28.906  29.710  22.075  1.00  0.00     0.039 A 
ATOM     13  C   UNL A   1      30.294  29.830  22.062  1.00  0.00     0.027 A 
ATOM     14  N   UNL A   1      28.254  28.775  22.800  1.00  0.00    -0.240 NA
ATOM     15  C   UNL A   1      31.090  28.846  22.670  1.00  0.00    -0.034 A 
ATOM     16  C   UNL A   1      29.060  27.778  23.219  1.00  0.00     0.147 A 
ATOM     17  C   UNL A   1      32.539  28.948  22.963  1.00  0.00     0.045 C 
ATOM     18  C   UNL A   1      30.426  27.678  23.014  1.00  0.00     0.078 A 
ATOM     19  S   UNL A   1      28.584  26.419  24.126  1.00  0.00    -0.012 S 
ATOM     20  N   UNL A   1      29.985  25.547  23.837  1.00  0.00    -0.153 NA
ENDBRANCH   9  10
ENDBRANCH   8   9
ENDBRANCH   7   8
ENDBRANCH   6   7
ENDBRANCH   3   6
ENDBRANCH   1   2
BRANCH   1  21
ATOM     21  C   UNL A   1      32.878  28.337  27.232  1.00  0.00     0.023 C 
BRANCH  21  22
ATOM     22  C   UNL A   1      33.998  28.918  26.335  1.00  0.00     0.023 C 
BRANCH  22  23
ATOM     23  C   UNL A   1      35.159  29.606  27.058  1.00  0.00     0.116 C 
BRANCH  23  24
ATOM     24  N   UNL A   1      34.866  30.962  27.540  1.00  0.00    -0.352 N 
ATOM     25  C   UNL A   1      35.363  31.541  28.700  1.00  0.00     0.251 C 
ATOM     26  H   UNL A   1      34.262  31.512  26.990  1.00  0.00     0.163 HD
ATOM     27  O   UNL A   1      34.877  32.553  29.196  1.00  0.00    -0.269 OA
BRANCH  25  28
ATOM     28  C   UNL A   1      36.531  30.893  29.317  1.00  0.00     0.039 A 
ATOM     29  C   UNL A   1      36.441  29.642  29.931  1.00  0.00     0.014 A 
ATOM     30  C   UNL A   1      37.759  31.507  29.084  1.00  0.00     0.014 A 
ATOM     31  C   UNL A   1      37.620  28.952  30.209  1.00  0.00     0.010 A 
ATOM     32  C   UNL A   1      38.909  30.774  29.247  1.00  0.00     0.010 A 
ATOM     33  C   UNL A   1      38.854  29.505  29.830  1.00  0.00    -0.014 A 
BRANCH  33  34
ATOM     34  C   UNL A   1      40.086  28.722  29.942  1.00  0.00     0.031 A 
ATOM     35  C   UNL A   1      40.632  28.516  31.322  1.00  0.00     0.074 A 
ATOM     36  C   UNL A   1      40.591  28.024  28.903  1.00  0.00     0.049 A 
ATOM     37  N   UNL A   1      41.802  28.835  31.777  1.00  0.00    -0.248 NA
ATOM     38  C   UNL A   1      39.751  27.919  32.340  1.00  0.00     0.031 C 
ATOM     39  C   UNL A   1      40.034  27.845  27.556  1.00  0.00     0.029 A 
ATOM     40  N   UNL A   1      41.688  27.221  28.881  1.00  0.00    -0.354 N 
ATOM     41  C   UNL A   1      41.862  28.377  33.094  1.00  0.00     0.074 A 
ATOM     42  C   UNL A   1      40.540  27.905  33.418  1.00  0.00     0.031 C 
ATOM     43  C   UNL A   1      40.661  26.820  26.940  1.00  0.00     0.029 A 
ATOM     44  C   UNL A   1      41.775  26.401  27.767  1.00  0.00     0.049 A 
ATOM     45  H   UNL A   1      42.364  27.223  29.596  1.00  0.00     0.167 HD
ATOM     46  C   UNL A   1      43.038  28.283  33.780  1.00  0.00     0.037 A 
ATOM     47  C   UNL A   1      42.689  25.428  27.549  1.00  0.00     0.037 A 
ATOM     48  C   UNL A   1      44.089  29.020  33.137  1.00  0.00     0.049 A 
ATOM     49  C   UNL A   1      43.849  25.715  28.427  1.00  0.00     0.074 A 
ATOM     50  C   UNL A   1      44.310  30.357  32.871  1.00  0.00     0.029 A 
ATOM     51  N   UNL A   1      44.965  28.335  32.333  1.00  0.00    -0.354 N 
ATOM     52  N   UNL A   1      44.631  26.749  28.284  1.00  0.00    -0.248 NA
ATOM     53  C   UNL A   1      43.881  25.082  29.735  1.00  0.00     0.031 C 
ATOM     54  C   UNL A   1      44.920  30.377  31.583  1.00  0.00     0.029 A 
ATOM     55  C   UNL A   1      45.083  29.053  31.171  1.00  0.00     0.049 A 
ATOM     56  H   UNL A   1      45.421  27.490  32.549  1.00  0.00     0.167 HD
ATOM     57  C   UNL A   1      44.928  27.149  29.578  1.00  0.00     0.074 A 
ATOM     58  C   UNL A   1      44.520  26.032  30.424  1.00  0.00     0.031 C 
ATOM     59  C   UNL A   1      45.216  28.452  29.864  1.00  0.00     0.037 A 
BRANCH  46  60
ATOM     60  C   UNL A   1      43.323  27.310  34.893  1.00  0.00     0.064 A 
ATOM     61  C   UNL A   1      43.623  27.782  36.188  1.00  0.00     0.173 A 
ATOM     62  C   UNL A   1      43.587  25.945  34.665  1.00  0.00     0.173 A 
ATOM     63  F   UNL A   1      43.440  29.073  36.505  1.00  0.00    -0.203 F 
ATOM     64  C   UNL A   1      44.189  26.955  37.164  1.00  0.00     0.198 A 
ATOM     65  C   UNL A   1      44.106  25.111  35.654  1.00  0.00     0.198 A 
ATOM     66  F   UNL A   1      43.451  25.400  33.449  1.00  0.00    -0.203 F 
ATOM     67  F   UNL A   1      44.554  27.469  38.347  1.00  0.00    -0.200 F 
ATOM     68  C   UNL A   1      44.431  25.620  36.895  1.00  0.00     0.200 A 
ATOM     69  F   UNL A   1      44.355  23.824  35.369  1.00  0.00    -0.200 F 
ATOM     70  F   UNL A   1      45.019  24.837  37.810  1.00  0.00    -0.200 F 
ENDBRANCH  46  60
BRANCH  47  71
ATOM     71  C   UNL A   1      42.492  24.128  26.874  1.00  0.00     0.064 A 
ATOM     72  C   UNL A   1      43.310  23.743  25.801  1.00  0.00     0.173 A 
ATOM     73  C   UNL A   1      41.692  23.120  27.450  1.00  0.00     0.173 A 
ATOM     74  F   UNL A   1      44.130  24.635  25.225  1.00  0.00    -0.203 F 
ATOM     75  C   UNL A   1      43.357  22.419  25.356  1.00  0.00     0.198 A 
ATOM     76  C   UNL A   1      41.734  21.800  26.999  1.00  0.00     0.198 A 
ATOM     77  F   UNL A   1      40.936  23.373  28.528  1.00  0.00    -0.203 F 
ATOM     78  F   UNL A   1      44.206  22.073  24.378  1.00  0.00    -0.200 F 
ATOM     79  C   UNL A   1      42.579  21.447  25.963  1.00  0.00     0.200 A 
ATOM     80  F   UNL A   1      41.008  20.862  27.623  1.00  0.00    -0.200 F 
ATOM     81  F   UNL A   1      42.678  20.164  25.586  1.00  0.00    -0.200 F 
ENDBRANCH  47  71
BRANCH  59  82
ATOM     82  C   UNL A   1      45.439  29.394  28.712  1.00  0.00     0.064 A 
ATOM     83  C   UNL A   1      44.415  30.138  28.100  1.00  0.00     0.173 A 
ATOM     84  C   UNL A   1      46.755  29.678  28.326  1.00  0.00     0.173 A 
ATOM     85  F   UNL A   1      43.141  30.002  28.483  1.00  0.00    -0.203 F 
ATOM     86  C   UNL A   1      44.694  31.094  27.125  1.00  0.00     0.198 A 
ATOM     87  C   UNL A   1      47.036  30.659  27.378  1.00  0.00     0.198 A 
ATOM     88  F   UNL A   1      47.779  29.041  28.916  1.00  0.00    -0.203 F 
ATOM     89  F   UNL A   1      43.696  31.788  26.557  1.00  0.00    -0.200 F 
ATOM     90  C   UNL A   1      46.005  31.361  26.771  1.00  0.00     0.200 A 
ATOM     91  F   UNL A   1      48.308  30.948  27.077  1.00  0.00    -0.200 F 
ATOM     92  F   UNL A   1      46.279  32.314  25.870  1.00  0.00    -0.200 F 
ENDBRANCH  59  82
ENDBRANCH  33  34
ENDBRANCH  25  28
ENDBRANCH  23  24
ENDBRANCH  22  23
ENDBRANCH  21  22
ENDBRANCH   1  21
TORSDOF 15
ENDMDL
MODEL 3
REMARK VINA RESULT:     -11.4      1.016      2.255
REMARK SMILES Cc1cc(C)c2c(OCCCC(=O)NCCCCNC(=O)c3ccc(-c4c5nc(c(-c6c(F)c(F)c(F)c(F)c6F)c6ccc([nH]6)c(-c6c(F)c(F)c(F)c(F)c6F)c6nc(c(-c7c(F)c(F)c(F)c(F)c7F)c7ccc4[nH]7)C=C6)C=C5)cc3)nsc2n1
REMARK SMILES IDX 15 1 14 2 12 3 13 4 11 6 10 7 9 8 8 9 7 10 1 11 2 12 3 13
REMARK SMILES IDX 88 14 4 15 87 16 5 17 6 18 86 19 85 20 16 21 17 22 18 23
REMARK SMILES IDX 19 24 20 25 21 27 22 28 23 29 84 30 24 31 83 32 25 33 26 34
REMARK SMILES IDX 27 35 77 36 28 37 82 38 76 39 78 40 29 41 81 42 75 43 74 44
REMARK SMILES IDX 30 46 62 47 42 48 61 49 43 50 46 51 60 52 79 53 44 54 45 55
REMARK SMILES IDX 59 57 80 58 47 59 31 60 32 61 40 62 33 63 34 64 38 65 41 66
REMARK SMILES IDX 35 67 36 68 39 69 37 70 63 71 64 72 72 73 65 74 66 75 70 76
REMARK SMILES IDX 73 77 67 78 68 79 71 80 69 81 48 82 49 83 57 84 50 85 51 86
REMARK SMILES IDX 55 87 58 88 52 89 53 90 56 91 54 92
REMARK H PARENT 14 5 19 26 78 45 46 56
REMARK Flexibility Score: inf
ROOT
ATOM      1  C   UNL A   1      39.724  21.249  26.601  1.00  0.00     0.116 C 
ENDROOT
BRANCH   1   2
ATOM      2  N   UNL A   1      39.040  22.594  26.538  1.00  0.00    -0.356 N 
ATOM      3  C   UNL A   1      38.022  23.411  26.168  1.00  0.00     0.220 C 
ATOM      4  O   UNL A   1      38.281  24.569  26.564  1.00  0.00    -0.275 OA
ATOM      5  H   UNL A   1      39.656  23.192  27.021  1.00  0.00     0.163 HD
BRANCH   3   6
ATOM      6  C   UNL A   1      36.567  23.237  25.533  1.00  0.00     0.103 C 
BRANCH   6   7
ATOM      7  C   UNL A   1      35.504  24.260  24.960  1.00  0.00     0.051 C 
BRANCH   7   8
ATOM      8  C   UNL A   1      34.401  25.121  25.681  1.00  0.00     0.232 C 
BRANCH   8   9
ATOM      9  O   UNL A   1      33.063  25.286  25.191  1.00  0.00    -0.477 OA
BRANCH   9  10
ATOM     10  C   UNL A   1      32.123  24.309  25.261  1.00  0.00     0.235 A 
ATOM     11  C   UNL A   1      33.069  18.990  24.849  1.00  0.00     0.067 C 
ATOM     12  C   UNL A   1      32.474  20.353  24.618  1.00  0.00     0.039 A 
ATOM     13  C   UNL A   1      32.934  21.125  23.554  1.00  0.00     0.027 A 
ATOM     14  N   UNL A   1      31.583  20.806  25.526  1.00  0.00    -0.240 NA
ATOM     15  C   UNL A   1      32.621  22.493  23.491  1.00  0.00    -0.034 A 
ATOM     16  C   UNL A   1      31.452  22.148  25.510  1.00  0.00     0.147 A 
ATOM     17  C   UNL A   1      32.811  23.383  22.322  1.00  0.00     0.045 C 
ATOM     18  C   UNL A   1      32.088  23.031  24.653  1.00  0.00     0.078 A 
ATOM     19  S   UNL A   1      30.447  23.070  26.530  1.00  0.00    -0.012 S 
ATOM     20  N   UNL A   1      31.178  24.535  26.176  1.00  0.00    -0.153 NA
ENDBRANCH   9  10
ENDBRANCH   8   9
ENDBRANCH   7   8
ENDBRANCH   6   7
ENDBRANCH   3   6
ENDBRANCH   1   2
BRANCH   1  21
ATOM     21  C   UNL A   1      40.951  21.209  27.561  1.00  0.00     0.023 C 
BRANCH  21  22
ATOM     22  C   UNL A   1      42.223  20.495  27.043  1.00  0.00     0.023 C 
BRANCH  22  23
ATOM     23  C   UNL A   1      42.264  20.182  25.545  1.00  0.00     0.116 C 
BRANCH  23  24
ATOM     24  N   UNL A   1      43.533  19.613  25.071  1.00  0.00    -0.352 N 
ATOM     25  C   UNL A   1      44.642  20.334  24.649  1.00  0.00     0.251 C 
ATOM     26  H   UNL A   1      43.604  18.631  25.051  1.00  0.00     0.163 HD
ATOM     27  O   UNL A   1      45.558  19.826  24.009  1.00  0.00    -0.269 OA
BRANCH  25  28
ATOM     28  C   UNL A   1      44.689  21.756  25.020  1.00  0.00     0.039 A 
ATOM     29  C   UNL A   1      43.789  22.685  24.496  1.00  0.00     0.014 A 
ATOM     30  C   UNL A   1      45.553  22.083  26.063  1.00  0.00     0.014 A 
ATOM     31  C   UNL A   1      43.682  23.930  25.114  1.00  0.00     0.010 A 
ATOM     32  C   UNL A   1      45.359  23.262  26.741  1.00  0.00     0.010 A 
ATOM     33  C   UNL A   1      44.443  24.202  26.263  1.00  0.00    -0.014 A 
BRANCH  33  34
ATOM     34  C   UNL A   1      44.213  25.424  27.035  1.00  0.00     0.031 A 
ATOM     35  C   UNL A   1      45.148  26.568  26.782  1.00  0.00     0.074 A 
ATOM     36  C   UNL A   1      43.095  25.614  27.767  1.00  0.00     0.049 A 
ATOM     37  N   UNL A   1      45.902  27.189  27.633  1.00  0.00    -0.248 NA
ATOM     38  C   UNL A   1      45.297  27.056  25.401  1.00  0.00     0.031 C 
ATOM     39  C   UNL A   1      41.919  24.744  27.893  1.00  0.00     0.029 A 
ATOM     40  N   UNL A   1      42.732  26.710  28.485  1.00  0.00    -0.354 N 
ATOM     41  C   UNL A   1      46.531  28.222  26.935  1.00  0.00     0.074 A 
ATOM     42  C   UNL A   1      46.194  28.035  25.547  1.00  0.00     0.031 C 
ATOM     43  C   UNL A   1      40.898  25.439  28.439  1.00  0.00     0.029 A 
ATOM     44  C   UNL A   1      41.401  26.728  28.869  1.00  0.00     0.049 A 
ATOM     45  H   UNL A   1      43.364  27.431  28.712  1.00  0.00     0.167 HD
ATOM     46  C   UNL A   1      47.168  29.248  27.570  1.00  0.00     0.037 A 
ATOM     47  C   UNL A   1      40.751  27.745  29.481  1.00  0.00     0.037 A 
ATOM     48  C   UNL A   1      47.411  28.949  28.953  1.00  0.00     0.049 A 
ATOM     49  C   UNL A   1      41.780  28.604  30.113  1.00  0.00     0.074 A 
ATOM     50  C   UNL A   1      48.177  28.014  29.620  1.00  0.00     0.029 A 
ATOM     51  N   UNL A   1      46.536  29.442  29.888  1.00  0.00    -0.354 N 
ATOM     52  N   UNL A   1      42.529  28.226  31.111  1.00  0.00    -0.248 NA
ATOM     53  C   UNL A   1      42.278  29.737  29.350  1.00  0.00     0.031 C 
ATOM     54  C   UNL A   1      47.393  27.637  30.749  1.00  0.00     0.029 A 
ATOM     55  C   UNL A   1      46.227  28.405  30.730  1.00  0.00     0.049 A 
ATOM     56  H   UNL A   1      46.195  30.364  29.943  1.00  0.00     0.167 HD
ATOM     57  C   UNL A   1      43.772  28.785  30.851  1.00  0.00     0.074 A 
ATOM     58  C   UNL A   1      43.531  29.780  29.810  1.00  0.00     0.031 C 
ATOM     59  C   UNL A   1      44.918  28.197  31.303  1.00  0.00     0.037 A 
BRANCH  46  60
ATOM     60  C   UNL A   1      47.342  30.640  27.021  1.00  0.00     0.064 A 
ATOM     61  C   UNL A   1      48.614  31.250  27.027  1.00  0.00     0.173 A 
ATOM     62  C   UNL A   1      46.255  31.494  26.751  1.00  0.00     0.173 A 
ATOM     63  F   UNL A   1      49.714  30.536  27.305  1.00  0.00    -0.203 F 
ATOM     64  C   UNL A   1      48.774  32.625  26.823  1.00  0.00     0.198 A 
ATOM     65  C   UNL A   1      46.423  32.856  26.499  1.00  0.00     0.198 A 
ATOM     66  F   UNL A   1      44.990  31.063  26.825  1.00  0.00    -0.203 F 
ATOM     67  F   UNL A   1      49.989  33.181  26.940  1.00  0.00    -0.200 F 
ATOM     68  C   UNL A   1      47.679  33.426  26.561  1.00  0.00     0.200 A 
ATOM     69  F   UNL A   1      45.347  33.622  26.269  1.00  0.00    -0.200 F 
ATOM     70  F   UNL A   1      47.822  34.750  26.414  1.00  0.00    -0.200 F 
ENDBRANCH  46  60
BRANCH  47  71
ATOM     71  C   UNL A   1      39.349  28.174  29.292  1.00  0.00     0.064 A 
ATOM     72  C   UNL A   1      38.481  28.298  30.386  1.00  0.00     0.173 A 
ATOM     73  C   UNL A   1      38.919  28.745  28.077  1.00  0.00     0.173 A 
ATOM     74  F   UNL A   1      38.835  27.816  31.586  1.00  0.00    -0.203 F 
ATOM     75  C   UNL A   1      37.270  28.990  30.284  1.00  0.00     0.198 A 
ATOM     76  C   UNL A   1      37.706  29.428  27.974  1.00  0.00     0.198 A 
ATOM     77  F   UNL A   1      39.712  28.744  26.996  1.00  0.00    -0.203 F 
ATOM     78  F   UNL A   1      36.501  29.153  31.369  1.00  0.00    -0.200 F 
ATOM     79  C   UNL A   1      36.890  29.565  29.082  1.00  0.00     0.200 A 
ATOM     80  F   UNL A   1      37.371  30.015  26.817  1.00  0.00    -0.200 F 
ATOM     81  F   UNL A   1      35.766  30.290  29.002  1.00  0.00    -0.200 F 
ENDBRANCH  47  71
BRANCH  59  82
ATOM     82  C   UNL A   1      44.788  27.067  32.288  1.00  0.00     0.064 A 
ATOM     83  C   UNL A   1      44.601  27.250  33.670  1.00  0.00     0.173 A 
ATOM     84  C   UNL A   1      44.681  25.760  31.796  1.00  0.00     0.173 A 
ATOM     85  F   UNL A   1      44.586  28.475  34.206  1.00  0.00    -0.203 F 
ATOM     86  C   UNL A   1      44.355  26.173  34.520  1.00  0.00     0.198 A 
ATOM     87  C   UNL A   1      44.398  24.689  32.640  1.00  0.00     0.198 A 
ATOM     88  F   UNL A   1      44.791  25.529  30.478  1.00  0.00    -0.203 F 
ATOM     89  F   UNL A   1      44.182  26.379  35.834  1.00  0.00    -0.200 F 
ATOM     90  C   UNL A   1      44.244  24.895  34.003  1.00  0.00     0.200 A 
ATOM     91  F   UNL A   1      44.241  23.461  32.128  1.00  0.00    -0.200 F 
ATOM     92  F   UNL A   1      43.958  23.864  34.811  1.00  0.00    -0.200 F 
ENDBRANCH  59  82
ENDBRANCH  33  34
ENDBRANCH  25  28
ENDBRANCH  23  24
ENDBRANCH  22  23
ENDBRANCH  21  22
ENDBRANCH   1  21
TORSDOF 15
ENDMDL
