MODEL 1
REMARK VINA RESULT:     -12.4      0.000      0.000
REMARK SMILES C[N@@H+]1CC[N@H+](Cc2ccc(C#CC(C)(C)O)s2)C[C@H]1C(=O)NCCCCNC(=O)c1ccc(-c2c3nc(c(-c4c(F)c(F)c(F)c(F)c4F)c4ccc([nH]4)c(-c4c(F)c(F)c(F)c(F)c4F)c4nc(c(-c5c(F)c(F)c(F)c(F)c5F)c5ccc2[nH]5)C=C4)C=C3)cc1
REMARK SMILES IDX 23 1 22 2 20 3 21 4 19 6 1 7 2 8 3 9 4 11 18 12 5 13 6 15
REMARK SMILES IDX 7 16 8 17 17 18 9 19 10 20 11 21 12 22 13 23 14 24 15 25
REMARK SMILES IDX 16 26 24 28 25 29 26 30 27 31 28 32 29 34 30 35 31 36 92 37
REMARK SMILES IDX 32 38 91 39 33 40 34 41 35 42 85 43 36 44 90 45 84 46 86 47
REMARK SMILES IDX 37 48 89 49 83 50 82 51 38 53 70 54 50 55 69 56 51 57 54 58
REMARK SMILES IDX 68 59 87 60 52 61 53 62 67 64 88 65 55 66 39 67 40 68 48 69
REMARK SMILES IDX 41 70 42 71 46 72 49 73 43 74 44 75 47 76 45 77 71 78 72 79
REMARK SMILES IDX 80 80 73 81 74 82 78 83 81 84 75 85 76 86 79 87 77 88 56 89
REMARK SMILES IDX 57 90 65 91 58 92 59 93 63 94 66 95 60 96 61 97 64 98 62 99
REMARK H PARENT 22 5 2 10 5 14 16 27 27 33 86 52 54 63
REMARK Flexibility Score: inf
ROOT
ATOM      1  C   UNL A   1      37.979  23.254  26.115  1.00  0.00     0.116 C 
ENDROOT
BRANCH   1   2
ATOM      2  N   UNL A   1      37.761  23.244  24.680  1.00  0.00    -0.351 N 
ATOM      3  C   UNL A   1      36.609  22.977  23.992  1.00  0.00     0.284 C 
ATOM      4  O   UNL A   1      36.660  22.991  22.759  1.00  0.00    -0.268 OA
ATOM      5  H   UNL A   1      38.548  23.458  24.127  1.00  0.00     0.163 HD
BRANCH   3   6
ATOM      6  C   UNL A   1      35.285  22.709  24.738  1.00  0.00     0.329 C 
ATOM      7  C   UNL A   1      35.583  20.307  24.976  1.00  0.00     0.333 C 
ATOM      8  N   UNL A   1      35.445  21.579  25.695  1.00  0.00    -0.318 N 
ATOM      9  C   UNL A   1      34.332  21.507  26.649  1.00  0.00     0.325 C 
ATOM     10  H   UNL A   1      36.297  21.753  26.228  1.00  0.00     0.348 HD
ATOM     11  C   UNL A   1      33.887  22.860  27.254  1.00  0.00     0.324 C 
ATOM     12  C   UNL A   1      34.789  24.057  25.345  1.00  0.00     0.339 C 
ATOM     13  N   UNL A   1      33.698  23.983  26.332  1.00  0.00    -0.320 N 
ATOM     14  H   UNL A   1      33.770  24.823  26.905  1.00  0.00     0.348 HD
BRANCH  13  15
ATOM     15  C   UNL A   1      32.344  24.147  25.783  1.00  0.00     0.310 C 
BRANCH  15  16
ATOM     16  C   UNL A   1      32.024  25.530  25.322  1.00  0.00     0.060 A 
ATOM     17  C   UNL A   1      32.298  26.739  25.932  1.00  0.00     0.022 A 
ATOM     18  S   UNL A   1      31.193  25.773  23.841  1.00  0.00    -0.126 S 
ATOM     19  C   UNL A   1      31.513  27.791  25.379  1.00  0.00     0.029 A 
ATOM     20  C   UNL A   1      30.785  27.363  24.293  1.00  0.00     0.077 A 
BRANCH  20  21
ATOM     21  C   UNL A   1      29.891  28.159  23.539  1.00  0.00    -0.053 C 
ATOM     22  C   UNL A   1      28.953  28.973  23.141  1.00  0.00    -0.063 C 
BRANCH  22  23
ATOM     23  C   UNL A   1      27.860  29.921  22.676  1.00  0.00     0.120 C 
ATOM     24  C   UNL A   1      27.767  31.109  23.630  1.00  0.00     0.056 C 
ATOM     25  C   UNL A   1      28.145  30.377  21.248  1.00  0.00     0.056 C 
BRANCH  23  26
ATOM     26  O   UNL A   1      26.624  29.212  22.692  1.00  0.00    -0.378 OA
ATOM     27  H   UNL A   1      26.016  29.607  22.048  1.00  0.00     0.212 HD
ENDBRANCH  23  26
ENDBRANCH  22  23
ENDBRANCH  20  21
ENDBRANCH  15  16
ENDBRANCH  13  15
ENDBRANCH   3   6
ENDBRANCH   1   2
BRANCH   1  28
ATOM     28  C   UNL A   1      39.376  22.768  26.507  1.00  0.00     0.023 C 
BRANCH  28  29
ATOM     29  C   UNL A   1      39.721  21.336  26.087  1.00  0.00     0.023 C 
BRANCH  29  30
ATOM     30  C   UNL A   1      40.722  20.645  26.998  1.00  0.00     0.116 C 
BRANCH  30  31
ATOM     31  N   UNL A   1      41.913  20.180  26.288  1.00  0.00    -0.352 N 
ATOM     32  C   UNL A   1      42.894  20.948  25.686  1.00  0.00     0.251 C 
ATOM     33  H   UNL A   1      42.032  19.204  26.233  1.00  0.00     0.163 HD
ATOM     34  O   UNL A   1      43.626  20.493  24.828  1.00  0.00    -0.269 OA
BRANCH  32  35
ATOM     35  C   UNL A   1      43.043  22.346  26.132  1.00  0.00     0.039 A 
ATOM     36  C   UNL A   1      42.639  23.419  25.333  1.00  0.00     0.014 A 
ATOM     37  C   UNL A   1      43.570  22.554  27.402  1.00  0.00     0.014 A 
ATOM     38  C   UNL A   1      42.701  24.706  25.861  1.00  0.00     0.010 A 
ATOM     39  C   UNL A   1      43.479  23.792  27.977  1.00  0.00     0.010 A 
ATOM     40  C   UNL A   1      43.110  24.880  27.192  1.00  0.00    -0.014 A 
BRANCH  40  41
ATOM     41  C   UNL A   1      43.040  26.179  27.850  1.00  0.00     0.031 A 
ATOM     42  C   UNL A   1      44.050  27.162  27.362  1.00  0.00     0.074 A 
ATOM     43  C   UNL A   1      41.976  26.521  28.613  1.00  0.00     0.049 A 
ATOM     44  N   UNL A   1      44.984  27.745  28.040  1.00  0.00    -0.248 NA
ATOM     45  C   UNL A   1      44.123  27.425  25.913  1.00  0.00     0.031 C 
ATOM     46  C   UNL A   1      40.772  25.725  28.888  1.00  0.00     0.029 A 
ATOM     47  N   UNL A   1      41.678  27.709  29.207  1.00  0.00    -0.354 N 
ATOM     48  C   UNL A   1      45.625  28.606  27.151  1.00  0.00     0.074 A 
ATOM     49  C   UNL A   1      45.195  28.217  25.837  1.00  0.00     0.031 C 
ATOM     50  C   UNL A   1      39.793  26.523  29.366  1.00  0.00     0.029 A 
ATOM     51  C   UNL A   1      40.345  27.844  29.593  1.00  0.00     0.049 A 
ATOM     52  H   UNL A   1      42.348  28.416  29.352  1.00  0.00     0.167 HD
ATOM     53  C   UNL A   1      46.228  29.743  27.605  1.00  0.00     0.037 A 
ATOM     54  C   UNL A   1      39.738  28.976  30.028  1.00  0.00     0.037 A 
ATOM     55  C   UNL A   1      46.462  29.652  29.027  1.00  0.00     0.049 A 
ATOM     56  C   UNL A   1      40.811  29.911  30.446  1.00  0.00     0.074 A 
ATOM     57  C   UNL A   1      47.181  28.807  29.849  1.00  0.00     0.029 A 
ATOM     58  N   UNL A   1      45.588  30.316  29.853  1.00  0.00    -0.354 N 
ATOM     59  N   UNL A   1      41.592  29.703  31.470  1.00  0.00    -0.248 NA
ATOM     60  C   UNL A   1      41.325  30.827  29.440  1.00  0.00     0.031 C 
ATOM     61  C   UNL A   1      46.378  28.659  31.020  1.00  0.00     0.029 A 
ATOM     62  C   UNL A   1      45.259  29.479  30.883  1.00  0.00     0.049 A 
ATOM     63  H   UNL A   1      45.257  31.235  29.725  1.00  0.00     0.167 HD
ATOM     64  C   UNL A   1      42.850  30.091  31.031  1.00  0.00     0.074 A 
ATOM     65  C   UNL A   1      42.609  30.848  29.804  1.00  0.00     0.031 C 
ATOM     66  C   UNL A   1      43.974  29.505  31.540  1.00  0.00     0.037 A 
BRANCH  53  67
ATOM     67  C   UNL A   1      46.181  31.089  26.895  1.00  0.00     0.064 A 
ATOM     68  C   UNL A   1      47.372  31.845  26.826  1.00  0.00     0.173 A 
ATOM     69  C   UNL A   1      45.002  31.806  26.599  1.00  0.00     0.173 A 
ATOM     70  F   UNL A   1      48.563  31.271  27.055  1.00  0.00    -0.203 F 
ATOM     71  C   UNL A   1      47.363  33.230  26.640  1.00  0.00     0.198 A 
ATOM     72  C   UNL A   1      45.002  33.181  26.366  1.00  0.00     0.198 A 
ATOM     73  F   UNL A   1      43.789  31.247  26.616  1.00  0.00    -0.203 F 
ATOM     74  F   UNL A   1      48.506  33.922  26.749  1.00  0.00    -0.200 F 
ATOM     75  C   UNL A   1      46.175  33.901  26.432  1.00  0.00     0.200 A 
ATOM     76  F   UNL A   1      43.836  33.813  26.166  1.00  0.00    -0.200 F 
ATOM     77  F   UNL A   1      46.151  35.236  26.338  1.00  0.00    -0.200 F 
ENDBRANCH  53  67
BRANCH  54  78
ATOM     78  C   UNL A   1      38.341  29.427  29.804  1.00  0.00     0.064 A 
ATOM     79  C   UNL A   1      37.547  29.888  30.869  1.00  0.00     0.173 A 
ATOM     80  C   UNL A   1      37.857  29.689  28.507  1.00  0.00     0.173 A 
ATOM     81  F   UNL A   1      37.957  29.722  32.135  1.00  0.00    -0.203 F 
ATOM     82  C   UNL A   1      36.356  30.591  30.649  1.00  0.00     0.198 A 
ATOM     83  C   UNL A   1      36.666  30.386  28.289  1.00  0.00     0.198 A 
ATOM     84  F   UNL A   1      38.578  29.361  27.426  1.00  0.00    -0.203 F 
ATOM     85  F   UNL A   1      35.659  31.068  31.690  1.00  0.00    -0.200 F 
ATOM     86  C   UNL A   1      35.922  30.849  29.360  1.00  0.00     0.200 A 
ATOM     87  F   UNL A   1      36.278  30.663  27.036  1.00  0.00    -0.200 F 
ATOM     88  F   UNL A   1      34.818  31.577  29.147  1.00  0.00    -0.200 F 
ENDBRANCH  54  78
BRANCH  66  89
ATOM     89  C   UNL A   1      43.826  28.647  32.765  1.00  0.00     0.064 A 
ATOM     90  C   UNL A   1      43.623  27.255  32.740  1.00  0.00     0.173 A 
ATOM     91  C   UNL A   1      44.047  29.241  34.013  1.00  0.00     0.173 A 
ATOM     92  F   UNL A   1      43.501  26.595  31.582  1.00  0.00    -0.203 F 
ATOM     93  C   UNL A   1      43.603  26.506  33.915  1.00  0.00     0.198 A 
ATOM     94  C   UNL A   1      44.063  28.487  35.181  1.00  0.00     0.198 A 
ATOM     95  F   UNL A   1      44.299  30.557  34.093  1.00  0.00    -0.203 F 
ATOM     96  F   UNL A   1      43.398  25.181  33.866  1.00  0.00    -0.200 F 
ATOM     97  C   UNL A   1      43.831  27.122  35.133  1.00  0.00     0.200 A 
ATOM     98  F   UNL A   1      44.334  29.080  36.352  1.00  0.00    -0.200 F 
ATOM     99  F   UNL A   1      43.855  26.397  36.261  1.00  0.00    -0.200 F 
ENDBRANCH  66  89
ENDBRANCH  40  41
ENDBRANCH  32  35
ENDBRANCH  30  31
ENDBRANCH  29  30
ENDBRANCH  28  29
ENDBRANCH   1  28
TORSDOF 16
ENDMDL
MODEL 2
REMARK VINA RESULT:     -12.4      3.047      9.023
REMARK SMILES C[N@@H+]1CC[N@H+](Cc2ccc(C#CC(C)(C)O)s2)C[C@H]1C(=O)NCCCCNC(=O)c1ccc(-c2c3nc(c(-c4c(F)c(F)c(F)c(F)c4F)c4ccc([nH]4)c(-c4c(F)c(F)c(F)c(F)c4F)c4nc(c(-c5c(F)c(F)c(F)c(F)c5F)c5ccc2[nH]5)C=C4)C=C3)cc1
REMARK SMILES IDX 23 1 22 2 20 3 21 4 19 6 1 7 2 8 3 9 4 11 18 12 5 13 6 15
REMARK SMILES IDX 7 16 8 17 17 18 9 19 10 20 11 21 12 22 13 23 14 24 15 25
REMARK SMILES IDX 16 26 24 28 25 29 26 30 27 31 28 32 29 34 30 35 31 36 92 37
REMARK SMILES IDX 32 38 91 39 33 40 34 41 35 42 85 43 36 44 90 45 84 46 86 47
REMARK SMILES IDX 37 48 89 49 83 50 82 51 38 53 70 54 50 55 69 56 51 57 54 58
REMARK SMILES IDX 68 59 87 60 52 61 53 62 67 64 88 65 55 66 39 67 40 68 48 69
REMARK SMILES IDX 41 70 42 71 46 72 49 73 43 74 44 75 47 76 45 77 71 78 72 79
REMARK SMILES IDX 80 80 73 81 74 82 78 83 81 84 75 85 76 86 79 87 77 88 56 89
REMARK SMILES IDX 57 90 65 91 58 92 59 93 63 94 66 95 60 96 61 97 64 98 62 99
REMARK H PARENT 22 5 2 10 5 14 16 27 27 33 86 52 54 63
REMARK Flexibility Score: inf
ROOT
ATOM      1  C   UNL A   1      31.707  29.525  26.409  1.00  0.00     0.116 C 
ENDROOT
BRANCH   1   2
ATOM      2  N   UNL A   1      31.549  29.774  24.988  1.00  0.00    -0.351 N 
ATOM      3  C   UNL A   1      31.689  28.898  23.946  1.00  0.00     0.284 C 
ATOM      4  O   UNL A   1      31.541  29.339  22.803  1.00  0.00    -0.268 OA
ATOM      5  H   UNL A   1      31.310  30.697  24.741  1.00  0.00     0.163 HD
BRANCH   3   6
ATOM      6  C   UNL A   1      31.980  27.405  24.200  1.00  0.00     0.329 C 
ATOM      7  C   UNL A   1      29.705  26.616  23.861  1.00  0.00     0.333 C 
ATOM      8  N   UNL A   1      31.087  26.549  23.371  1.00  0.00    -0.318 N 
ATOM      9  C   UNL A   1      31.545  25.156  23.328  1.00  0.00     0.325 C 
ATOM     10  H   UNL A   1      31.119  26.914  22.418  1.00  0.00     0.348 HD
ATOM     11  C   UNL A   1      33.066  24.964  23.117  1.00  0.00     0.324 C 
ATOM     12  C   UNL A   1      33.511  27.173  24.020  1.00  0.00     0.339 C 
ATOM     13  N   UNL A   1      33.970  25.775  23.938  1.00  0.00    -0.320 N 
ATOM     14  H   UNL A   1      34.857  25.791  23.435  1.00  0.00     0.348 HD
BRANCH  13  15
ATOM     15  C   UNL A   1      34.394  25.179  25.214  1.00  0.00     0.310 C 
BRANCH  15  16
ATOM     16  C   UNL A   1      34.826  23.752  25.119  1.00  0.00     0.060 A 
ATOM     17  C   UNL A   1      35.992  23.227  24.596  1.00  0.00     0.022 A 
ATOM     18  S   UNL A   1      33.806  22.504  25.705  1.00  0.00    -0.126 S 
ATOM     19  C   UNL A   1      35.867  21.829  24.347  1.00  0.00     0.029 A 
ATOM     20  C   UNL A   1      34.670  21.337  24.815  1.00  0.00     0.077 A 
BRANCH  20  21
ATOM     21  C   UNL A   1      34.235  19.995  24.702  1.00  0.00    -0.053 C 
ATOM     22  C   UNL A   1      34.141  18.695  24.692  1.00  0.00    -0.063 C 
BRANCH  22  23
ATOM     23  C   UNL A   1      34.032  17.179  24.680  1.00  0.00     0.120 C 
ATOM     24  C   UNL A   1      32.753  16.748  25.392  1.00  0.00     0.056 C 
ATOM     25  C   UNL A   1      34.063  16.672  23.240  1.00  0.00     0.056 C 
BRANCH  23  26
ATOM     26  O   UNL A   1      35.156  16.649  25.377  1.00  0.00    -0.378 OA
ATOM     27  H   UNL A   1      35.817  17.347  25.503  1.00  0.00     0.212 HD
ENDBRANCH  23  26
ENDBRANCH  22  23
ENDBRANCH  20  21
ENDBRANCH  15  16
ENDBRANCH  13  15
ENDBRANCH   3   6
ENDBRANCH   1   2
BRANCH   1  28
ATOM     28  C   UNL A   1      32.613  30.550  27.095  1.00  0.00     0.023 C 
BRANCH  28  29
ATOM     29  C   UNL A   1      34.077  30.133  27.261  1.00  0.00     0.023 C 
BRANCH  29  30
ATOM     30  C   UNL A   1      35.030  31.290  27.507  1.00  0.00     0.116 C 
BRANCH  30  31
ATOM     31  N   UNL A   1      34.644  32.114  28.652  1.00  0.00    -0.352 N 
ATOM     32  C   UNL A   1      35.079  32.003  29.961  1.00  0.00     0.251 C 
ATOM     33  H   UNL A   1      33.997  32.834  28.469  1.00  0.00     0.163 HD
ATOM     34  O   UNL A   1      34.446  32.473  30.888  1.00  0.00    -0.269 OA
BRANCH  32  35
ATOM     35  C   UNL A   1      36.355  31.307  30.205  1.00  0.00     0.039 A 
ATOM     36  C   UNL A   1      36.411  29.928  30.422  1.00  0.00     0.014 A 
ATOM     37  C   UNL A   1      37.514  32.076  30.172  1.00  0.00     0.014 A 
ATOM     38  C   UNL A   1      37.657  29.317  30.531  1.00  0.00     0.010 A 
ATOM     39  C   UNL A   1      38.733  31.459  30.115  1.00  0.00     0.010 A 
ATOM     40  C   UNL A   1      38.814  30.092  30.360  1.00  0.00    -0.014 A 
BRANCH  40  41
ATOM     41  C   UNL A   1      40.139  29.485  30.300  1.00  0.00     0.031 A 
ATOM     42  C   UNL A   1      40.789  29.312  31.630  1.00  0.00     0.074 A 
ATOM     43  C   UNL A   1      40.585  28.888  29.170  1.00  0.00     0.049 A 
ATOM     44  N   UNL A   1      41.902  29.824  32.044  1.00  0.00    -0.248 NA
ATOM     45  C   UNL A   1      40.043  28.597  32.683  1.00  0.00     0.031 C 
ATOM     46  C   UNL A   1      39.872  28.728  27.895  1.00  0.00     0.029 A 
ATOM     47  N   UNL A   1      41.726  28.178  28.954  1.00  0.00    -0.354 N 
ATOM     48  C   UNL A   1      42.101  29.325  33.331  1.00  0.00     0.074 A 
ATOM     49  C   UNL A   1      40.847  28.756  33.737  1.00  0.00     0.031 C 
ATOM     50  C   UNL A   1      40.474  27.778  27.149  1.00  0.00     0.029 A 
ATOM     51  C   UNL A   1      41.704  27.384  27.808  1.00  0.00     0.049 A 
ATOM     52  H   UNL A   1      42.502  28.220  29.558  1.00  0.00     0.167 HD
ATOM     53  C   UNL A   1      43.364  29.175  33.825  1.00  0.00     0.037 A 
ATOM     54  C   UNL A   1      42.616  26.443  27.456  1.00  0.00     0.037 A 
ATOM     55  C   UNL A   1      44.298  29.968  33.061  1.00  0.00     0.049 A 
ATOM     56  C   UNL A   1      43.844  26.713  28.243  1.00  0.00     0.074 A 
ATOM     57  C   UNL A   1      44.443  31.315  32.785  1.00  0.00     0.029 A 
ATOM     58  N   UNL A   1      45.064  29.315  32.127  1.00  0.00    -0.354 N 
ATOM     59  N   UNL A   1      44.586  27.774  28.083  1.00  0.00    -0.248 NA
ATOM     60  C   UNL A   1      43.970  26.048  29.531  1.00  0.00     0.031 C 
ATOM     61  C   UNL A   1      44.885  31.367  31.429  1.00  0.00     0.029 A 
ATOM     62  C   UNL A   1      45.060  30.059  30.979  1.00  0.00     0.049 A 
ATOM     63  H   UNL A   1      45.533  28.460  32.261  1.00  0.00     0.167 HD
ATOM     64  C   UNL A   1      44.919  28.163  29.372  1.00  0.00     0.074 A 
ATOM     65  C   UNL A   1      44.579  27.019  30.215  1.00  0.00     0.031 C 
ATOM     66  C   UNL A   1      45.154  29.478  29.662  1.00  0.00     0.037 A 
BRANCH  53  67
ATOM     67  C   UNL A   1      43.830  27.992  34.662  1.00  0.00     0.064 A 
ATOM     68  C   UNL A   1      43.617  26.692  34.153  1.00  0.00     0.173 A 
ATOM     69  C   UNL A   1      44.144  28.049  36.037  1.00  0.00     0.173 A 
ATOM     70  F   UNL A   1      43.342  26.502  32.853  1.00  0.00    -0.203 F 
ATOM     71  C   UNL A   1      43.560  25.569  34.982  1.00  0.00     0.198 A 
ATOM     72  C   UNL A   1      44.133  26.919  36.854  1.00  0.00     0.198 A 
ATOM     73  F   UNL A   1      44.376  29.196  36.682  1.00  0.00    -0.203 F 
ATOM     74  F   UNL A   1      43.190  24.386  34.473  1.00  0.00    -0.200 F 
ATOM     75  C   UNL A   1      43.797  25.687  36.337  1.00  0.00     0.200 A 
ATOM     76  F   UNL A   1      44.366  27.055  38.167  1.00  0.00    -0.200 F 
ATOM     77  F   UNL A   1      43.661  24.631  37.149  1.00  0.00    -0.200 F 
ENDBRANCH  53  67
BRANCH  54  78
ATOM     78  C   UNL A   1      42.399  25.155  26.751  1.00  0.00     0.064 A 
ATOM     79  C   UNL A   1      43.143  24.819  25.607  1.00  0.00     0.173 A 
ATOM     80  C   UNL A   1      41.668  24.109  27.348  1.00  0.00     0.173 A 
ATOM     81  F   UNL A   1      43.904  25.743  25.003  1.00  0.00    -0.203 F 
ATOM     82  C   UNL A   1      43.176  23.511  25.108  1.00  0.00     0.198 A 
ATOM     83  C   UNL A   1      41.698  22.805  26.847  1.00  0.00     0.198 A 
ATOM     84  F   UNL A   1      40.990  24.308  28.487  1.00  0.00    -0.203 F 
ATOM     85  F   UNL A   1      43.948  23.217  24.052  1.00  0.00    -0.200 F 
ATOM     86  C   UNL A   1      42.462  22.503  25.734  1.00  0.00     0.200 A 
ATOM     87  F   UNL A   1      41.034  21.832  27.486  1.00  0.00    -0.200 F 
ATOM     88  F   UNL A   1      42.545  21.239  25.297  1.00  0.00    -0.200 F 
ENDBRANCH  54  78
BRANCH  66  89
ATOM     89  C   UNL A   1      45.313  30.433  28.513  1.00  0.00     0.064 A 
ATOM     90  C   UNL A   1      44.254  31.135  27.911  1.00  0.00     0.173 A 
ATOM     91  C   UNL A   1      46.613  30.759  28.107  1.00  0.00     0.173 A 
ATOM     92  F   UNL A   1      42.989  30.954  28.310  1.00  0.00    -0.203 F 
ATOM     93  C   UNL A   1      44.488  32.088  26.921  1.00  0.00     0.198 A 
ATOM     94  C   UNL A   1      46.847  31.735  27.145  1.00  0.00     0.198 A 
ATOM     95  F   UNL A   1      47.665  30.159  28.684  1.00  0.00    -0.203 F 
ATOM     96  F   UNL A   1      43.460  32.737  26.354  1.00  0.00    -0.200 F 
ATOM     97  C   UNL A   1      45.785  32.392  26.545  1.00  0.00     0.200 A 
ATOM     98  F   UNL A   1      48.105  32.061  26.821  1.00  0.00    -0.200 F 
ATOM     99  F   UNL A   1      46.015  33.338  25.623  1.00  0.00    -0.200 F 
ENDBRANCH  66  89
ENDBRANCH  40  41
ENDBRANCH  32  35
ENDBRANCH  30  31
ENDBRANCH  29  30
ENDBRANCH  28  29
ENDBRANCH   1  28
TORSDOF 16
ENDMDL
MODEL 3
REMARK VINA RESULT:     -12.3      2.005      2.514
REMARK SMILES C[N@@H+]1CC[N@H+](Cc2ccc(C#CC(C)(C)O)s2)C[C@H]1C(=O)NCCCCNC(=O)c1ccc(-c2c3nc(c(-c4c(F)c(F)c(F)c(F)c4F)c4ccc([nH]4)c(-c4c(F)c(F)c(F)c(F)c4F)c4nc(c(-c5c(F)c(F)c(F)c(F)c5F)c5ccc2[nH]5)C=C4)C=C3)cc1
REMARK SMILES IDX 23 1 22 2 20 3 21 4 19 6 1 7 2 8 3 9 4 11 18 12 5 13 6 15
REMARK SMILES IDX 7 16 8 17 17 18 9 19 10 20 11 21 12 22 13 23 14 24 15 25
REMARK SMILES IDX 16 26 24 28 25 29 26 30 27 31 28 32 29 34 30 35 31 36 92 37
REMARK SMILES IDX 32 38 91 39 33 40 34 41 35 42 85 43 36 44 90 45 84 46 86 47
REMARK SMILES IDX 37 48 89 49 83 50 82 51 38 53 70 54 50 55 69 56 51 57 54 58
REMARK SMILES IDX 68 59 87 60 52 61 53 62 67 64 88 65 55 66 39 67 40 68 48 69
REMARK SMILES IDX 41 70 42 71 46 72 49 73 43 74 44 75 47 76 45 77 71 78 72 79
REMARK SMILES IDX 80 80 73 81 74 82 78 83 81 84 75 85 76 86 79 87 77 88 56 89
REMARK SMILES IDX 57 90 65 91 58 92 59 93 63 94 66 95 60 96 61 97 64 98 62 99
REMARK H PARENT 22 5 2 10 5 14 16 27 27 33 86 52 54 63
REMARK Flexibility Score: inf
ROOT
ATOM      1  C   UNL A   1      36.565  21.412  24.645  1.00  0.00     0.116 C 
ENDROOT
BRANCH   1   2
ATOM      2  N   UNL A   1      35.588  20.670  25.420  1.00  0.00    -0.351 N 
ATOM      3  C   UNL A   1      34.312  21.032  25.759  1.00  0.00     0.284 C 
ATOM      4  O   UNL A   1      33.662  20.254  26.462  1.00  0.00    -0.268 OA
ATOM      5  H   UNL A   1      35.882  19.788  25.746  1.00  0.00     0.163 HD
BRANCH   3   6
ATOM      6  C   UNL A   1      33.700  22.351  25.244  1.00  0.00     0.329 C 
ATOM      7  C   UNL A   1      32.324  21.356  23.503  1.00  0.00     0.333 C 
ATOM      8  N   UNL A   1      32.312  22.126  24.753  1.00  0.00    -0.318 N 
ATOM      9  C   UNL A   1      31.584  23.387  24.568  1.00  0.00     0.325 C 
ATOM     10  H   UNL A   1      31.822  21.589  25.469  1.00  0.00     0.348 HD
ATOM     11  C   UNL A   1      31.749  24.422  25.707  1.00  0.00     0.324 C 
ATOM     12  C   UNL A   1      33.866  23.430  26.357  1.00  0.00     0.339 C 
ATOM     13  N   UNL A   1      33.107  24.682  26.193  1.00  0.00    -0.320 N 
ATOM     14  H   UNL A   1      32.993  25.075  27.126  1.00  0.00     0.348 HD
BRANCH  13  15
ATOM     15  C   UNL A   1      33.833  25.773  25.527  1.00  0.00     0.310 C 
BRANCH  15  16
ATOM     16  C   UNL A   1      33.007  26.985  25.242  1.00  0.00     0.060 A 
ATOM     17  C   UNL A   1      32.688  28.039  26.076  1.00  0.00     0.022 A 
ATOM     18  S   UNL A   1      32.299  27.198  23.694  1.00  0.00    -0.126 S 
ATOM     19  C   UNL A   1      31.590  28.791  25.565  1.00  0.00     0.029 A 
ATOM     20  C   UNL A   1      31.218  28.359  24.313  1.00  0.00     0.077 A 
BRANCH  20  21
ATOM     21  C   UNL A   1      30.150  28.884  23.548  1.00  0.00    -0.053 C 
ATOM     22  C   UNL A   1      29.111  29.542  23.115  1.00  0.00    -0.063 C 
BRANCH  22  23
ATOM     23  C   UNL A   1      27.900  30.309  22.610  1.00  0.00     0.120 C 
ATOM     24  C   UNL A   1      27.552  31.427  23.589  1.00  0.00     0.056 C 
ATOM     25  C   UNL A   1      28.184  30.861  21.216  1.00  0.00     0.056 C 
BRANCH  23  26
ATOM     26  O   UNL A   1      26.805  29.402  22.530  1.00  0.00    -0.378 OA
ATOM     27  H   UNL A   1      26.840  28.926  21.685  1.00  0.00     0.212 HD
ENDBRANCH  23  26
ENDBRANCH  22  23
ENDBRANCH  20  21
ENDBRANCH  15  16
ENDBRANCH  13  15
ENDBRANCH   3   6
ENDBRANCH   1   2
BRANCH   1  28
ATOM     28  C   UNL A   1      37.936  21.476  25.322  1.00  0.00     0.023 C 
BRANCH  28  29
ATOM     29  C   UNL A   1      38.359  22.858  25.830  1.00  0.00     0.023 C 
BRANCH  29  30
ATOM     30  C   UNL A   1      39.489  22.829  26.846  1.00  0.00     0.116 C 
BRANCH  30  31
ATOM     31  N   UNL A   1      40.769  22.429  26.265  1.00  0.00    -0.352 N 
ATOM     32  C   UNL A   1      41.805  23.248  25.852  1.00  0.00     0.251 C 
ATOM     33  H   UNL A   1      40.911  21.461  26.154  1.00  0.00     0.163 HD
ATOM     34  O   UNL A   1      42.650  22.865  25.064  1.00  0.00    -0.269 OA
BRANCH  32  35
ATOM     35  C   UNL A   1      41.871  24.609  26.414  1.00  0.00     0.039 A 
ATOM     36  C   UNL A   1      41.162  25.673  25.849  1.00  0.00     0.014 A 
ATOM     37  C   UNL A   1      42.642  24.787  27.558  1.00  0.00     0.014 A 
ATOM     38  C   UNL A   1      41.176  26.906  26.497  1.00  0.00     0.010 A 
ATOM     39  C   UNL A   1      42.525  25.944  28.278  1.00  0.00     0.010 A 
ATOM     40  C   UNL A   1      41.851  27.026  27.721  1.00  0.00    -0.014 A 
BRANCH  40  41
ATOM     41  C   UNL A   1      41.766  28.240  28.525  1.00  0.00     0.031 A 
ATOM     42  C   UNL A   1      42.846  29.229  28.246  1.00  0.00     0.074 A 
ATOM     43  C   UNL A   1      40.651  28.534  29.233  1.00  0.00     0.049 A 
ATOM     44  N   UNL A   1      43.736  29.687  29.064  1.00  0.00    -0.248 NA
ATOM     45  C   UNL A   1      43.055  29.659  26.850  1.00  0.00     0.031 C 
ATOM     46  C   UNL A   1      39.402  27.763  29.308  1.00  0.00     0.029 A 
ATOM     47  N   UNL A   1      40.341  29.655  29.941  1.00  0.00    -0.354 N 
ATOM     48  C   UNL A   1      44.480  30.620  28.343  1.00  0.00     0.074 A 
ATOM     49  C   UNL A   1      44.154  30.408  26.961  1.00  0.00     0.031 C 
ATOM     50  C   UNL A   1      38.412  28.540  29.797  1.00  0.00     0.029 A 
ATOM     51  C   UNL A   1      38.985  29.800  30.228  1.00  0.00     0.049 A 
ATOM     52  H   UNL A   1      41.019  30.310  30.225  1.00  0.00     0.167 HD
ATOM     53  C   UNL A   1      45.078  31.667  28.981  1.00  0.00     0.037 A 
ATOM     54  C   UNL A   1      38.379  30.898  30.746  1.00  0.00     0.037 A 
ATOM     55  C   UNL A   1      45.183  31.399  30.396  1.00  0.00     0.049 A 
ATOM     56  C   UNL A   1      39.441  31.730  31.363  1.00  0.00     0.074 A 
ATOM     57  C   UNL A   1      45.800  30.432  31.166  1.00  0.00     0.029 A 
ATOM     58  N   UNL A   1      44.263  31.997  31.221  1.00  0.00    -0.354 N 
ATOM     59  N   UNL A   1      40.123  31.368  32.415  1.00  0.00    -0.248 NA
ATOM     60  C   UNL A   1      40.071  32.736  30.522  1.00  0.00     0.031 C 
ATOM     61  C   UNL A   1      44.893  30.180  32.239  1.00  0.00     0.029 A 
ATOM     62  C   UNL A   1      43.818  31.058  32.111  1.00  0.00     0.049 A 
ATOM     63  H   UNL A   1      43.975  32.937  31.180  1.00  0.00     0.167 HD
ATOM     64  C   UNL A   1      41.426  31.751  32.132  1.00  0.00     0.074 A 
ATOM     65  C   UNL A   1      41.318  32.658  30.991  1.00  0.00     0.031 C 
ATOM     66  C   UNL A   1      42.482  31.061  32.658  1.00  0.00     0.037 A 
BRANCH  53  67
ATOM     67  C   UNL A   1      45.137  33.089  28.439  1.00  0.00     0.064 A 
ATOM     68  C   UNL A   1      46.407  33.688  28.284  1.00  0.00     0.173 A 
ATOM     69  C   UNL A   1      44.047  33.984  28.398  1.00  0.00     0.173 A 
ATOM     70  F   UNL A   1      47.521  32.940  28.274  1.00  0.00    -0.203 F 
ATOM     71  C   UNL A   1      46.576  35.075  28.256  1.00  0.00     0.198 A 
ATOM     72  C   UNL A   1      44.218  35.366  28.322  1.00  0.00     0.198 A 
ATOM     73  F   UNL A   1      42.778  33.589  28.528  1.00  0.00    -0.203 F 
ATOM     74  F   UNL A   1      47.811  35.593  28.275  1.00  0.00    -0.200 F 
ATOM     75  C   UNL A   1      45.481  35.914  28.297  1.00  0.00     0.200 A 
ATOM     76  F   UNL A   1      43.140  36.164  28.363  1.00  0.00    -0.200 F 
ATOM     77  F   UNL A   1      45.640  37.243  28.356  1.00  0.00    -0.200 F 
ENDBRANCH  53  67
BRANCH  54  78
ATOM     78  C   UNL A   1      37.023  31.432  30.464  1.00  0.00     0.064 A 
ATOM     79  C   UNL A   1      36.115  31.694  31.504  1.00  0.00     0.173 A 
ATOM     80  C   UNL A   1      36.696  31.967  29.202  1.00  0.00     0.173 A 
ATOM     81  F   UNL A   1      36.371  31.261  32.747  1.00  0.00    -0.203 F 
ATOM     82  C   UNL A   1      34.964  32.467  31.300  1.00  0.00     0.198 A 
ATOM     83  C   UNL A   1      35.546  32.734  28.999  1.00  0.00     0.198 A 
ATOM     84  F   UNL A   1      37.536  31.840  28.165  1.00  0.00    -0.203 F 
ATOM     85  F   UNL A   1      34.156  32.747  32.332  1.00  0.00    -0.200 F 
ATOM     86  C   UNL A   1      34.687  32.995  30.051  1.00  0.00     0.200 A 
ATOM     87  F   UNL A   1      35.310  33.272  27.794  1.00  0.00    -0.200 F 
ATOM     88  F   UNL A   1      33.622  33.788  29.869  1.00  0.00    -0.200 F 
ENDBRANCH  54  78
BRANCH  66  89
ATOM     89  C   UNL A   1      42.199  30.070  33.752  1.00  0.00     0.064 A 
ATOM     90  C   UNL A   1      41.807  28.737  33.535  1.00  0.00     0.173 A 
ATOM     91  C   UNL A   1      42.482  30.451  35.069  1.00  0.00     0.173 A 
ATOM     92  F   UNL A   1      41.611  28.268  32.297  1.00  0.00    -0.203 F 
ATOM     93  C   UNL A   1      41.667  27.843  34.595  1.00  0.00     0.198 A 
ATOM     94  C   UNL A   1      42.378  29.547  36.121  1.00  0.00     0.198 A 
ATOM     95  F   UNL A   1      42.912  31.695  35.330  1.00  0.00    -0.203 F 
ATOM     96  F   UNL A   1      41.281  26.579  34.363  1.00  0.00    -0.200 F 
ATOM     97  C   UNL A   1      41.960  28.247  35.886  1.00  0.00     0.200 A 
ATOM     98  F   UNL A   1      42.711  29.930  37.361  1.00  0.00    -0.200 F 
ATOM     99  F   UNL A   1      41.868  27.377  36.902  1.00  0.00    -0.200 F 
ENDBRANCH  66  89
ENDBRANCH  40  41
ENDBRANCH  32  35
ENDBRANCH  30  31
ENDBRANCH  29  30
ENDBRANCH  28  29
ENDBRANCH   1  28
TORSDOF 16
ENDMDL
