MODEL 1
REMARK VINA RESULT:     -13.0      0.000      0.000
REMARK SMILES C[C@@H](Oc1ccc(-c2ccccc2)cc1)C(=O)N1CCC[C@H](C(=O)NCCCCNC(=O)c2ccc(-c3c4nc(c(-c5c(F)c(F)c(F)c(F)c5F)c5ccc([nH]5)c(-c5c(F)c(F)c(F)c(F)c5F)c5nc(c(-c6c(F)c(F)c(F)c(F)c6F)c6ccc3[nH]6)C=C5)C=C4)cc2)C1
REMARK SMILES IDX 26 1 25 2 23 3 24 4 22 6 18 7 19 8 96 9 20 10 21 11 16 12
REMARK SMILES IDX 17 13 2 14 1 15 3 16 4 17 5 18 15 19 6 20 14 21 7 22 8 23
REMARK SMILES IDX 9 24 13 25 10 26 12 27 11 28 27 29 28 30 29 31 30 32 31 33
REMARK SMILES IDX 32 35 33 36 34 37 95 38 35 39 94 40 36 41 37 42 38 43 88 44
REMARK SMILES IDX 39 45 93 46 87 47 89 48 40 49 92 50 86 51 85 52 41 54 73 55
REMARK SMILES IDX 53 56 72 57 54 58 57 59 71 60 90 61 55 62 56 63 70 65 91 66
REMARK SMILES IDX 58 67 42 68 43 69 51 70 44 71 45 72 49 73 52 74 46 75 47 76
REMARK SMILES IDX 50 77 48 78 74 79 75 80 83 81 76 82 77 83 81 84 84 85 78 86
REMARK SMILES IDX 79 87 82 88 80 89 59 90 60 91 68 92 61 93 62 94 66 95 69 96
REMARK SMILES IDX 63 97 64 98 67 99 65 100
REMARK H PARENT 25 5 30 34 89 53 57 64
REMARK Flexibility Score: inf
ROOT
ATOM      1  C   UNL A   1      35.062  24.077  23.860  1.00  0.00     0.116 C 
ENDROOT
BRANCH   1   2
ATOM      2  N   UNL A   1      34.415  24.824  22.805  1.00  0.00    -0.356 N 
ATOM      3  C   UNL A   1      34.027  26.121  22.726  1.00  0.00     0.224 C 
ATOM      4  O   UNL A   1      33.662  26.506  21.607  1.00  0.00    -0.275 OA
ATOM      5  H   UNL A   1      34.222  24.294  21.998  1.00  0.00     0.163 HD
BRANCH   3   6
ATOM      6  C   UNL A   1      34.014  27.113  23.897  1.00  0.00     0.098 C 
ATOM      7  N   UNL A   1      32.110  26.709  25.445  1.00  0.00    -0.339 N 
ATOM      8  C   UNL A   1      31.623  28.081  25.324  1.00  0.00     0.119 C 
ATOM      9  C   UNL A   1      33.537  26.528  25.228  1.00  0.00     0.133 C 
ATOM     10  C   UNL A   1      32.018  28.759  24.016  1.00  0.00     0.022 C 
ATOM     11  C   UNL A   1      33.458  28.503  23.582  1.00  0.00     0.017 C 
BRANCH   7  12
ATOM     12  C   UNL A   1      31.215  25.708  25.815  1.00  0.00     0.263 C 
ATOM     13  O   UNL A   1      31.020  25.452  27.010  1.00  0.00    -0.271 OA
BRANCH  12  14
ATOM     14  C   UNL A   1      30.514  24.855  24.737  1.00  0.00     0.259 C 
ATOM     15  C   UNL A   1      29.488  25.584  23.876  1.00  0.00     0.064 C 
BRANCH  14  16
ATOM     16  O   UNL A   1      31.570  24.309  23.935  1.00  0.00    -0.481 OA
BRANCH  16  17
ATOM     17  C   UNL A   1      31.696  22.956  24.058  1.00  0.00     0.120 A 
ATOM     18  C   UNL A   1      31.833  22.344  25.302  1.00  0.00     0.047 A 
ATOM     19  C   UNL A   1      31.846  22.224  22.889  1.00  0.00     0.047 A 
ATOM     20  C   UNL A   1      32.149  20.980  25.369  1.00  0.00     0.012 A 
ATOM     21  C   UNL A   1      32.151  20.868  22.959  1.00  0.00     0.012 A 
ATOM     22  C   UNL A   1      32.343  20.228  24.197  1.00  0.00    -0.018 A 
BRANCH  22  23
ATOM     23  C   UNL A   1      32.816  18.834  24.229  1.00  0.00    -0.018 A 
ATOM     24  C   UNL A   1      33.374  18.206  23.107  1.00  0.00     0.009 A 
ATOM     25  C   UNL A   1      32.725  18.093  25.423  1.00  0.00     0.009 A 
ATOM     26  C   UNL A   1      33.846  16.891  23.185  1.00  0.00     0.001 A 
ATOM     27  C   UNL A   1      33.197  16.782  25.503  1.00  0.00     0.001 A 
ATOM     28  C   UNL A   1      33.762  16.183  24.384  1.00  0.00     0.000 A 
ENDBRANCH  22  23
ENDBRANCH  16  17
ENDBRANCH  14  16
ENDBRANCH  12  14
ENDBRANCH   7  12
ENDBRANCH   3   6
ENDBRANCH   1   2
BRANCH   1  29
ATOM     29  C   UNL A   1      35.557  22.703  23.417  1.00  0.00     0.023 C 
BRANCH  29  30
ATOM     30  C   UNL A   1      35.778  21.712  24.554  1.00  0.00     0.023 C 
BRANCH  30  31
ATOM     31  C   UNL A   1      36.919  22.057  25.506  1.00  0.00     0.116 C 
BRANCH  31  32
ATOM     32  N   UNL A   1      37.947  21.032  25.625  1.00  0.00    -0.352 N 
ATOM     33  C   UNL A   1      39.219  21.173  26.143  1.00  0.00     0.251 C 
ATOM     34  H   UNL A   1      37.708  20.135  25.298  1.00  0.00     0.163 HD
ATOM     35  O   UNL A   1      40.026  20.256  26.126  1.00  0.00    -0.269 OA
BRANCH  33  36
ATOM     36  C   UNL A   1      39.603  22.493  26.683  1.00  0.00     0.039 A 
ATOM     37  C   UNL A   1      40.654  22.572  27.599  1.00  0.00     0.014 A 
ATOM     38  C   UNL A   1      38.998  23.649  26.185  1.00  0.00     0.014 A 
ATOM     39  C   UNL A   1      41.167  23.825  27.943  1.00  0.00     0.010 A 
ATOM     40  C   UNL A   1      39.563  24.886  26.465  1.00  0.00     0.010 A 
ATOM     41  C   UNL A   1      40.660  24.986  27.337  1.00  0.00    -0.014 A 
BRANCH  41  42
ATOM     42  C   UNL A   1      41.253  26.322  27.590  1.00  0.00     0.031 A 
ATOM     43  C   UNL A   1      42.661  26.603  27.151  1.00  0.00     0.074 A 
ATOM     44  C   UNL A   1      40.570  27.239  28.302  1.00  0.00     0.049 A 
ATOM     45  N   UNL A   1      43.420  27.640  27.404  1.00  0.00    -0.248 NA
ATOM     46  C   UNL A   1      43.320  25.558  26.351  1.00  0.00     0.031 C 
ATOM     47  C   UNL A   1      39.216  27.068  28.831  1.00  0.00     0.029 A 
ATOM     48  N   UNL A   1      40.932  28.495  28.722  1.00  0.00    -0.354 N 
ATOM     49  C   UNL A   1      44.649  27.354  26.827  1.00  0.00     0.074 A 
ATOM     50  C   UNL A   1      44.552  26.031  26.250  1.00  0.00     0.031 C 
ATOM     51  C   UNL A   1      38.854  28.183  29.486  1.00  0.00     0.029 A 
ATOM     52  C   UNL A   1      39.963  29.133  29.457  1.00  0.00     0.049 A 
ATOM     53  H   UNL A   1      41.805  28.902  28.514  1.00  0.00     0.167 HD
ATOM     54  C   UNL A   1      45.753  28.135  26.763  1.00  0.00     0.037 A 
ATOM     55  C   UNL A   1      39.974  30.343  30.048  1.00  0.00     0.037 A 
ATOM     56  C   UNL A   1      45.830  29.469  27.294  1.00  0.00     0.049 A 
ATOM     57  C   UNL A   1      41.201  31.206  29.934  1.00  0.00     0.074 A 
ATOM     58  C   UNL A   1      46.881  30.367  27.226  1.00  0.00     0.029 A 
ATOM     59  N   UNL A   1      44.807  30.101  27.985  1.00  0.00    -0.354 N 
ATOM     60  N   UNL A   1      42.341  30.948  29.341  1.00  0.00    -0.248 NA
ATOM     61  C   UNL A   1      41.141  32.531  30.567  1.00  0.00     0.031 C 
ATOM     62  C   UNL A   1      46.503  31.534  27.899  1.00  0.00     0.029 A 
ATOM     63  C   UNL A   1      45.203  31.376  28.353  1.00  0.00     0.049 A 
ATOM     64  H   UNL A   1      43.928  29.702  28.183  1.00  0.00     0.167 HD
ATOM     65  C   UNL A   1      43.120  32.086  29.500  1.00  0.00     0.074 A 
ATOM     66  C   UNL A   1      42.322  33.039  30.241  1.00  0.00     0.031 C 
ATOM     67  C   UNL A   1      44.384  32.319  29.070  1.00  0.00     0.037 A 
BRANCH  54  68
ATOM     68  C   UNL A   1      46.962  27.563  26.085  1.00  0.00     0.064 A 
ATOM     69  C   UNL A   1      47.133  27.647  24.695  1.00  0.00     0.173 A 
ATOM     70  C   UNL A   1      47.969  26.938  26.836  1.00  0.00     0.173 A 
ATOM     71  F   UNL A   1      46.191  28.222  23.933  1.00  0.00    -0.203 F 
ATOM     72  C   UNL A   1      48.252  27.095  24.077  1.00  0.00     0.198 A 
ATOM     73  C   UNL A   1      49.101  26.413  26.216  1.00  0.00     0.198 A 
ATOM     74  F   UNL A   1      47.856  26.835  28.168  1.00  0.00    -0.203 F 
ATOM     75  F   UNL A   1      48.366  27.137  22.742  1.00  0.00    -0.200 F 
ATOM     76  C   UNL A   1      49.237  26.484  24.838  1.00  0.00     0.200 A 
ATOM     77  F   UNL A   1      50.057  25.831  26.953  1.00  0.00    -0.200 F 
ATOM     78  F   UNL A   1      50.314  25.954  24.242  1.00  0.00    -0.200 F 
ENDBRANCH  54  68
BRANCH  55  79
ATOM     79  C   UNL A   1      38.770  30.827  30.772  1.00  0.00     0.064 A 
ATOM     80  C   UNL A   1      38.652  30.652  32.158  1.00  0.00     0.173 A 
ATOM     81  C   UNL A   1      37.716  31.464  30.101  1.00  0.00     0.173 A 
ATOM     82  F   UNL A   1      39.624  30.028  32.838  1.00  0.00    -0.203 F 
ATOM     83  C   UNL A   1      37.517  31.080  32.843  1.00  0.00     0.198 A 
ATOM     84  C   UNL A   1      36.592  31.913  30.792  1.00  0.00     0.198 A 
ATOM     85  F   UNL A   1      37.784  31.659  28.776  1.00  0.00    -0.203 F 
ATOM     86  F   UNL A   1      37.411  30.863  34.162  1.00  0.00    -0.200 F 
ATOM     87  C   UNL A   1      36.490  31.715  32.161  1.00  0.00     0.200 A 
ATOM     88  F   UNL A   1      35.607  32.537  30.131  1.00  0.00    -0.200 F 
ATOM     89  F   UNL A   1      35.400  32.129  32.820  1.00  0.00    -0.200 F 
ENDBRANCH  55  79
BRANCH  67  90
ATOM     90  C   UNL A   1      44.966  33.672  29.344  1.00  0.00     0.064 A 
ATOM     91  C   UNL A   1      45.716  33.930  30.500  1.00  0.00     0.173 A 
ATOM     92  C   UNL A   1      44.817  34.707  28.408  1.00  0.00     0.173 A 
ATOM     93  F   UNL A   1      45.874  32.976  31.429  1.00  0.00    -0.203 F 
ATOM     94  C   UNL A   1      46.284  35.183  30.717  1.00  0.00     0.198 A 
ATOM     95  C   UNL A   1      45.406  35.951  28.618  1.00  0.00     0.198 A 
ATOM     96  F   UNL A   1      44.111  34.506  27.285  1.00  0.00    -0.203 F 
ATOM     97  F   UNL A   1      46.968  35.420  31.845  1.00  0.00    -0.200 F 
ATOM     98  C   UNL A   1      46.135  36.189  29.773  1.00  0.00     0.200 A 
ATOM     99  F   UNL A   1      45.270  36.918  27.700  1.00  0.00    -0.200 F 
ATOM    100  F   UNL A   1      46.691  37.390  29.980  1.00  0.00    -0.200 F 
ENDBRANCH  67  90
ENDBRANCH  41  42
ENDBRANCH  33  36
ENDBRANCH  31  32
ENDBRANCH  30  31
ENDBRANCH  29  30
ENDBRANCH   1  29
TORSDOF 16
ENDMDL
MODEL 2
REMARK VINA RESULT:     -13.0      0.496      7.070
REMARK SMILES C[C@@H](Oc1ccc(-c2ccccc2)cc1)C(=O)N1CCC[C@H](C(=O)NCCCCNC(=O)c2ccc(-c3c4nc(c(-c5c(F)c(F)c(F)c(F)c5F)c5ccc([nH]5)c(-c5c(F)c(F)c(F)c(F)c5F)c5nc(c(-c6c(F)c(F)c(F)c(F)c6F)c6ccc3[nH]6)C=C5)C=C4)cc2)C1
REMARK SMILES IDX 26 1 25 2 23 3 24 4 22 6 18 7 19 8 96 9 20 10 21 11 16 12
REMARK SMILES IDX 17 13 2 14 1 15 3 16 4 17 5 18 15 19 6 20 14 21 7 22 8 23
REMARK SMILES IDX 9 24 13 25 10 26 12 27 11 28 27 29 28 30 29 31 30 32 31 33
REMARK SMILES IDX 32 35 33 36 34 37 95 38 35 39 94 40 36 41 37 42 38 43 88 44
REMARK SMILES IDX 39 45 93 46 87 47 89 48 40 49 92 50 86 51 85 52 41 54 73 55
REMARK SMILES IDX 53 56 72 57 54 58 57 59 71 60 90 61 55 62 56 63 70 65 91 66
REMARK SMILES IDX 58 67 42 68 43 69 51 70 44 71 45 72 49 73 52 74 46 75 47 76
REMARK SMILES IDX 50 77 48 78 74 79 75 80 83 81 76 82 77 83 81 84 84 85 78 86
REMARK SMILES IDX 79 87 82 88 80 89 59 90 60 91 68 92 61 93 62 94 66 95 69 96
REMARK SMILES IDX 63 97 64 98 67 99 65 100
REMARK H PARENT 25 5 30 34 89 53 57 64
REMARK Flexibility Score: inf
ROOT
ATOM      1  C   UNL A   1      34.733  24.613  23.852  1.00  0.00     0.116 C 
ENDROOT
BRANCH   1   2
ATOM      2  N   UNL A   1      34.077  25.199  22.706  1.00  0.00    -0.356 N 
ATOM      3  C   UNL A   1      33.692  26.473  22.440  1.00  0.00     0.224 C 
ATOM      4  O   UNL A   1      33.317  26.691  21.281  1.00  0.00    -0.275 OA
ATOM      5  H   UNL A   1      33.873  24.558  21.987  1.00  0.00     0.163 HD
BRANCH   3   6
ATOM      6  C   UNL A   1      33.695  27.626  23.453  1.00  0.00     0.098 C 
ATOM      7  N   UNL A   1      32.019  27.290  25.260  1.00  0.00    -0.339 N 
ATOM      8  C   UNL A   1      31.376  28.577  25.006  1.00  0.00     0.119 C 
ATOM      9  C   UNL A   1      33.427  27.210  24.901  1.00  0.00     0.133 C 
ATOM     10  C   UNL A   1      31.557  29.081  23.578  1.00  0.00     0.022 C 
ATOM     11  C   UNL A   1      32.962  28.895  23.015  1.00  0.00     0.017 C 
BRANCH   7  12
ATOM     12  C   UNL A   1      31.282  26.279  25.871  1.00  0.00     0.263 C 
ATOM     13  O   UNL A   1      31.366  26.092  27.092  1.00  0.00    -0.271 OA
BRANCH  12  14
ATOM     14  C   UNL A   1      30.409  25.330  25.022  1.00  0.00     0.259 C 
ATOM     15  C   UNL A   1      29.191  25.965  24.358  1.00  0.00     0.064 C 
BRANCH  14  16
ATOM     16  O   UNL A   1      31.296  24.766  24.047  1.00  0.00    -0.481 OA
BRANCH  16  17
ATOM     17  C   UNL A   1      31.419  23.411  24.152  1.00  0.00     0.120 A 
ATOM     18  C   UNL A   1      31.433  22.771  25.389  1.00  0.00     0.047 A 
ATOM     19  C   UNL A   1      31.694  22.708  22.988  1.00  0.00     0.047 A 
ATOM     20  C   UNL A   1      31.751  21.408  25.457  1.00  0.00     0.012 A 
ATOM     21  C   UNL A   1      32.001  21.352  23.059  1.00  0.00     0.012 A 
ATOM     22  C   UNL A   1      32.071  20.684  24.295  1.00  0.00    -0.018 A 
BRANCH  22  23
ATOM     23  C   UNL A   1      32.549  19.293  24.344  1.00  0.00    -0.018 A 
ATOM     24  C   UNL A   1      32.729  18.604  25.551  1.00  0.00     0.009 A 
ATOM     25  C   UNL A   1      32.828  18.607  23.146  1.00  0.00     0.009 A 
ATOM     26  C   UNL A   1      33.151  17.269  25.557  1.00  0.00     0.001 A 
ATOM     27  C   UNL A   1      33.247  17.276  23.150  1.00  0.00     0.001 A 
ATOM     28  C   UNL A   1      33.403  16.606  24.357  1.00  0.00     0.000 A 
ENDBRANCH  22  23
ENDBRANCH  16  17
ENDBRANCH  14  16
ENDBRANCH  12  14
ENDBRANCH   7  12
ENDBRANCH   3   6
ENDBRANCH   1   2
BRANCH   1  29
ATOM     29  C   UNL A   1      35.332  23.237  23.572  1.00  0.00     0.023 C 
BRANCH  29  30
ATOM     30  C   UNL A   1      35.336  22.292  24.767  1.00  0.00     0.023 C 
BRANCH  30  31
ATOM     31  C   UNL A   1      36.548  22.408  25.686  1.00  0.00     0.116 C 
BRANCH  31  32
ATOM     32  N   UNL A   1      37.510  21.320  25.569  1.00  0.00    -0.352 N 
ATOM     33  C   UNL A   1      38.839  21.329  25.944  1.00  0.00     0.251 C 
ATOM     34  H   UNL A   1      37.174  20.482  25.178  1.00  0.00     0.163 HD
ATOM     35  O   UNL A   1      39.573  20.376  25.731  1.00  0.00    -0.269 OA
BRANCH  33  36
ATOM     36  C   UNL A   1      39.371  22.554  26.575  1.00  0.00     0.039 A 
ATOM     37  C   UNL A   1      40.398  22.443  27.513  1.00  0.00     0.014 A 
ATOM     38  C   UNL A   1      38.930  23.805  26.139  1.00  0.00     0.014 A 
ATOM     39  C   UNL A   1      41.056  23.596  27.946  1.00  0.00     0.010 A 
ATOM     40  C   UNL A   1      39.639  24.942  26.509  1.00  0.00     0.010 A 
ATOM     41  C   UNL A   1      40.716  24.847  27.406  1.00  0.00    -0.014 A 
BRANCH  41  42
ATOM     42  C   UNL A   1      41.465  26.079  27.755  1.00  0.00     0.031 A 
ATOM     43  C   UNL A   1      40.774  27.180  28.506  1.00  0.00     0.074 A 
ATOM     44  C   UNL A   1      42.725  26.252  27.307  1.00  0.00     0.049 A 
ATOM     45  N   UNL A   1      41.191  28.391  28.777  1.00  0.00    -0.248 NA
ATOM     46  C   UNL A   1      39.411  26.892  28.983  1.00  0.00     0.031 C 
ATOM     47  C   UNL A   1      43.488  25.281  26.522  1.00  0.00     0.029 A 
ATOM     48  N   UNL A   1      43.579  27.319  27.434  1.00  0.00    -0.354 N 
ATOM     49  C   UNL A   1      40.132  29.015  29.422  1.00  0.00     0.074 A 
ATOM     50  C   UNL A   1      39.039  28.069  29.462  1.00  0.00     0.031 C 
ATOM     51  C   UNL A   1      44.703  25.787  26.256  1.00  0.00     0.029 A 
ATOM     52  C   UNL A   1      44.791  27.133  26.815  1.00  0.00     0.049 A 
ATOM     53  H   UNL A   1      43.345  28.141  27.923  1.00  0.00     0.167 HD
ATOM     54  C   UNL A   1      40.084  30.260  29.953  1.00  0.00     0.037 A 
ATOM     55  C   UNL A   1      45.850  27.959  26.707  1.00  0.00     0.037 A 
ATOM     56  C   UNL A   1      41.189  31.180  29.955  1.00  0.00     0.049 A 
ATOM     57  C   UNL A   1      45.783  29.324  27.336  1.00  0.00     0.074 A 
ATOM     58  C   UNL A   1      41.263  32.440  30.523  1.00  0.00     0.029 A 
ATOM     59  N   UNL A   1      42.420  30.933  29.366  1.00  0.00    -0.354 N 
ATOM     60  N   UNL A   1      44.796  29.887  27.989  1.00  0.00    -0.248 NA
ATOM     61  C   UNL A   1      46.981  30.168  27.216  1.00  0.00     0.031 C 
ATOM     62  C   UNL A   1      42.531  32.966  30.254  1.00  0.00     0.029 A 
ATOM     63  C   UNL A   1      43.259  32.018  29.552  1.00  0.00     0.049 A 
ATOM     64  H   UNL A   1      42.662  30.107  28.887  1.00  0.00     0.167 HD
ATOM     65  C   UNL A   1      45.262  31.133  28.386  1.00  0.00     0.074 A 
ATOM     66  C   UNL A   1      46.623  31.243  27.905  1.00  0.00     0.031 C 
ATOM     67  C   UNL A   1      44.620  32.098  29.087  1.00  0.00     0.037 A 
BRANCH  54  68
ATOM     68  C   UNL A   1      38.794  30.689  30.584  1.00  0.00     0.064 A 
ATOM     69  C   UNL A   1      37.744  31.223  29.821  1.00  0.00     0.173 A 
ATOM     70  C   UNL A   1      38.597  30.550  31.967  1.00  0.00     0.173 A 
ATOM     71  F   UNL A   1      37.890  31.389  28.498  1.00  0.00    -0.203 F 
ATOM     72  C   UNL A   1      36.558  31.634  30.423  1.00  0.00     0.198 A 
ATOM     73  C   UNL A   1      37.398  30.936  32.561  1.00  0.00     0.198 A 
ATOM     74  F   UNL A   1      39.567  30.042  32.741  1.00  0.00    -0.203 F 
ATOM     75  F   UNL A   1      35.592  32.193  29.681  1.00  0.00    -0.200 F 
ATOM     76  C   UNL A   1      36.384  31.485  31.791  1.00  0.00     0.200 A 
ATOM     77  F   UNL A   1      37.226  30.782  33.881  1.00  0.00    -0.200 F 
ATOM     78  F   UNL A   1      35.242  31.880  32.369  1.00  0.00    -0.200 F 
ENDBRANCH  54  68
BRANCH  55  79
ATOM     79  C   UNL A   1      47.077  27.506  26.003  1.00  0.00     0.064 A 
ATOM     80  C   UNL A   1      48.136  26.927  26.716  1.00  0.00     0.173 A 
ATOM     81  C   UNL A   1      47.221  27.644  24.615  1.00  0.00     0.173 A 
ATOM     82  F   UNL A   1      48.052  26.795  28.047  1.00  0.00    -0.203 F 
ATOM     83  C   UNL A   1      49.301  26.520  26.070  1.00  0.00     0.198 A 
ATOM     84  C   UNL A   1      48.377  27.214  23.967  1.00  0.00     0.198 A 
ATOM     85  F   UNL A   1      46.234  28.188  23.888  1.00  0.00    -0.203 F 
ATOM     86  F   UNL A   1      50.315  26.007  26.780  1.00  0.00    -0.200 F 
ATOM     87  C   UNL A   1      49.419  26.658  24.695  1.00  0.00     0.200 A 
ATOM     88  F   UNL A   1      48.483  27.340  22.637  1.00  0.00    -0.200 F 
ATOM     89  F   UNL A   1      50.539  26.265  24.073  1.00  0.00    -0.200 F 
ENDBRANCH  55  79
BRANCH  67  90
ATOM     90  C   UNL A   1      45.393  33.338  29.420  1.00  0.00     0.064 A 
ATOM     91  C   UNL A   1      45.382  34.460  28.580  1.00  0.00     0.173 A 
ATOM     92  C   UNL A   1      46.108  33.421  30.624  1.00  0.00     0.173 A 
ATOM     93  F   UNL A   1      44.724  34.423  27.412  1.00  0.00    -0.203 F 
ATOM     94  C   UNL A   1      46.074  35.617  28.928  1.00  0.00     0.198 A 
ATOM     95  C   UNL A   1      46.779  34.588  30.979  1.00  0.00     0.198 A 
ATOM     96  F   UNL A   1      46.144  32.373  31.462  1.00  0.00    -0.203 F 
ATOM     97  F   UNL A   1      46.080  36.668  28.095  1.00  0.00    -0.200 F 
ATOM     98  C   UNL A   1      46.764  35.683  30.129  1.00  0.00     0.200 A 
ATOM     99  F   UNL A   1      47.437  34.653  32.145  1.00  0.00    -0.200 F 
ATOM    100  F   UNL A   1      47.421  36.801  30.465  1.00  0.00    -0.200 F 
ENDBRANCH  67  90
ENDBRANCH  41  42
ENDBRANCH  33  36
ENDBRANCH  31  32
ENDBRANCH  30  31
ENDBRANCH  29  30
ENDBRANCH   1  29
TORSDOF 16
ENDMDL
MODEL 3
REMARK VINA RESULT:     -13.0      2.769      3.759
REMARK SMILES C[C@@H](Oc1ccc(-c2ccccc2)cc1)C(=O)N1CCC[C@H](C(=O)NCCCCNC(=O)c2ccc(-c3c4nc(c(-c5c(F)c(F)c(F)c(F)c5F)c5ccc([nH]5)c(-c5c(F)c(F)c(F)c(F)c5F)c5nc(c(-c6c(F)c(F)c(F)c(F)c6F)c6ccc3[nH]6)C=C5)C=C4)cc2)C1
REMARK SMILES IDX 26 1 25 2 23 3 24 4 22 6 18 7 19 8 96 9 20 10 21 11 16 12
REMARK SMILES IDX 17 13 2 14 1 15 3 16 4 17 5 18 15 19 6 20 14 21 7 22 8 23
REMARK SMILES IDX 9 24 13 25 10 26 12 27 11 28 27 29 28 30 29 31 30 32 31 33
REMARK SMILES IDX 32 35 33 36 34 37 95 38 35 39 94 40 36 41 37 42 38 43 88 44
REMARK SMILES IDX 39 45 93 46 87 47 89 48 40 49 92 50 86 51 85 52 41 54 73 55
REMARK SMILES IDX 53 56 72 57 54 58 57 59 71 60 90 61 55 62 56 63 70 65 91 66
REMARK SMILES IDX 58 67 42 68 43 69 51 70 44 71 45 72 49 73 52 74 46 75 47 76
REMARK SMILES IDX 50 77 48 78 74 79 75 80 83 81 76 82 77 83 81 84 84 85 78 86
REMARK SMILES IDX 79 87 82 88 80 89 59 90 60 91 68 92 61 93 62 94 66 95 69 96
REMARK SMILES IDX 63 97 64 98 67 99 65 100
REMARK H PARENT 25 5 30 34 89 53 57 64
REMARK Flexibility Score: inf
ROOT
ATOM      1  C   UNL A   1      34.567  24.964  25.286  1.00  0.00     0.116 C 
ENDROOT
BRANCH   1   2
ATOM      2  N   UNL A   1      34.310  25.185  23.882  1.00  0.00    -0.356 N 
ATOM      3  C   UNL A   1      34.035  26.313  23.181  1.00  0.00     0.224 C 
ATOM      4  O   UNL A   1      34.045  26.197  21.949  1.00  0.00    -0.275 OA
ATOM      5  H   UNL A   1      34.339  24.367  23.334  1.00  0.00     0.163 HD
BRANCH   3   6
ATOM      6  C   UNL A   1      33.725  27.683  23.799  1.00  0.00     0.098 C 
ATOM      7  N   UNL A   1      31.655  27.642  25.179  1.00  0.00    -0.339 N 
ATOM      8  C   UNL A   1      31.044  28.736  24.428  1.00  0.00     0.119 C 
ATOM      9  C   UNL A   1      33.110  27.632  25.200  1.00  0.00     0.133 C 
ATOM     10  C   UNL A   1      31.564  28.867  23.001  1.00  0.00     0.022 C 
ATOM     11  C   UNL A   1      33.074  28.702  22.861  1.00  0.00     0.017 C 
BRANCH   7  12
ATOM     12  C   UNL A   1      30.831  26.749  25.858  1.00  0.00     0.263 C 
ATOM     13  O   UNL A   1      30.745  26.791  27.092  1.00  0.00    -0.271 OA
BRANCH  12  14
ATOM     14  C   UNL A   1      30.076  25.647  25.086  1.00  0.00     0.259 C 
ATOM     15  C   UNL A   1      28.694  26.030  24.565  1.00  0.00     0.064 C 
BRANCH  14  16
ATOM     16  O   UNL A   1      30.947  25.265  24.013  1.00  0.00    -0.481 OA
BRANCH  16  17
ATOM     17  C   UNL A   1      31.233  23.931  24.001  1.00  0.00     0.120 A 
ATOM     18  C   UNL A   1      31.216  23.168  25.167  1.00  0.00     0.047 A 
ATOM     19  C   UNL A   1      31.701  23.394  22.811  1.00  0.00     0.047 A 
ATOM     20  C   UNL A   1      31.699  21.853  25.138  1.00  0.00     0.012 A 
ATOM     21  C   UNL A   1      32.172  22.085  22.784  1.00  0.00     0.012 A 
ATOM     22  C   UNL A   1      32.213  21.301  23.952  1.00  0.00    -0.018 A 
BRANCH  22  23
ATOM     23  C   UNL A   1      32.860  19.979  23.918  1.00  0.00    -0.018 A 
ATOM     24  C   UNL A   1      34.002  19.683  24.675  1.00  0.00     0.009 A 
ATOM     25  C   UNL A   1      32.320  18.957  23.112  1.00  0.00     0.009 A 
ATOM     26  C   UNL A   1      34.568  18.403  24.645  1.00  0.00     0.001 A 
ATOM     27  C   UNL A   1      32.882  17.681  23.082  1.00  0.00     0.001 A 
ATOM     28  C   UNL A   1      34.004  17.403  23.853  1.00  0.00     0.000 A 
ENDBRANCH  22  23
ENDBRANCH  16  17
ENDBRANCH  14  16
ENDBRANCH  12  14
ENDBRANCH   7  12
ENDBRANCH   3   6
ENDBRANCH   1   2
BRANCH   1  29
ATOM     29  C   UNL A   1      34.926  23.519  25.620  1.00  0.00     0.023 C 
BRANCH  29  30
ATOM     30  C   UNL A   1      36.074  22.945  24.798  1.00  0.00     0.023 C 
BRANCH  30  31
ATOM     31  C   UNL A   1      37.434  23.595  25.036  1.00  0.00     0.116 C 
BRANCH  31  32
ATOM     32  N   UNL A   1      38.476  22.683  25.489  1.00  0.00    -0.352 N 
ATOM     33  C   UNL A   1      39.526  22.962  26.341  1.00  0.00     0.251 C 
ATOM     34  H   UNL A   1      38.427  21.761  25.147  1.00  0.00     0.163 HD
ATOM     35  O   UNL A   1      40.386  22.133  26.595  1.00  0.00    -0.269 OA
BRANCH  33  36
ATOM     36  C   UNL A   1      39.612  24.324  26.908  1.00  0.00     0.039 A 
ATOM     37  C   UNL A   1      39.110  24.559  28.189  1.00  0.00     0.014 A 
ATOM     38  C   UNL A   1      40.298  25.322  26.213  1.00  0.00     0.014 A 
ATOM     39  C   UNL A   1      39.383  25.775  28.818  1.00  0.00     0.010 A 
ATOM     40  C   UNL A   1      40.637  26.498  26.871  1.00  0.00     0.010 A 
ATOM     41  C   UNL A   1      40.194  26.731  28.184  1.00  0.00    -0.014 A 
BRANCH  41  42
ATOM     42  C   UNL A   1      40.601  27.985  28.863  1.00  0.00     0.031 A 
ATOM     43  C   UNL A   1      41.994  28.115  29.408  1.00  0.00     0.074 A 
ATOM     44  C   UNL A   1      39.694  28.958  29.082  1.00  0.00     0.049 A 
ATOM     45  N   UNL A   1      42.506  29.054  30.163  1.00  0.00    -0.248 NA
ATOM     46  C   UNL A   1      42.925  27.020  29.094  1.00  0.00     0.031 C 
ATOM     47  C   UNL A   1      38.296  28.929  28.650  1.00  0.00     0.029 A 
ATOM     48  N   UNL A   1      39.810  30.156  29.743  1.00  0.00    -0.354 N 
ATOM     49  C   UNL A   1      43.803  28.644  30.441  1.00  0.00     0.074 A 
ATOM     50  C   UNL A   1      43.986  27.353  29.814  1.00  0.00     0.031 C 
ATOM     51  C   UNL A   1      37.691  30.063  29.038  1.00  0.00     0.029 A 
ATOM     52  C   UNL A   1      38.646  30.882  29.780  1.00  0.00     0.049 A 
ATOM     53  H   UNL A   1      40.651  30.465  30.151  1.00  0.00     0.167 HD
ATOM     54  C   UNL A   1      44.763  29.297  31.137  1.00  0.00     0.037 A 
ATOM     55  C   UNL A   1      38.378  32.070  30.355  1.00  0.00     0.037 A 
ATOM     56  C   UNL A   1      44.594  30.602  31.717  1.00  0.00     0.049 A 
ATOM     57  C   UNL A   1      39.473  32.791  31.095  1.00  0.00     0.074 A 
ATOM     58  C   UNL A   1      45.524  31.376  32.388  1.00  0.00     0.029 A 
ATOM     59  N   UNL A   1      43.414  31.330  31.686  1.00  0.00    -0.354 N 
ATOM     60  N   UNL A   1      40.711  32.419  31.308  1.00  0.00    -0.248 NA
ATOM     61  C   UNL A   1      39.132  34.100  31.671  1.00  0.00     0.031 C 
ATOM     62  C   UNL A   1      44.899  32.563  32.785  1.00  0.00     0.029 A 
ATOM     63  C   UNL A   1      43.590  32.543  32.329  1.00  0.00     0.049 A 
ATOM     64  H   UNL A   1      42.575  31.028  31.266  1.00  0.00     0.167 HD
ATOM     65  C   UNL A   1      41.306  33.458  32.011  1.00  0.00     0.074 A 
ATOM     66  C   UNL A   1      40.294  34.479  32.184  1.00  0.00     0.031 C 
ATOM     67  C   UNL A   1      42.577  33.557  32.470  1.00  0.00     0.037 A 
BRANCH  54  68
ATOM     68  C   UNL A   1      46.085  28.607  31.298  1.00  0.00     0.064 A 
ATOM     69  C   UNL A   1      47.134  28.807  30.388  1.00  0.00     0.173 A 
ATOM     70  C   UNL A   1      46.311  27.748  32.384  1.00  0.00     0.173 A 
ATOM     71  F   UNL A   1      46.961  29.608  29.326  1.00  0.00    -0.203 F 
ATOM     72  C   UNL A   1      48.350  28.146  30.540  1.00  0.00     0.198 A 
ATOM     73  C   UNL A   1      47.539  27.111  32.549  1.00  0.00     0.198 A 
ATOM     74  F   UNL A   1      45.343  27.525  33.285  1.00  0.00    -0.203 F 
ATOM     75  F   UNL A   1      49.317  28.310  29.627  1.00  0.00    -0.200 F 
ATOM     76  C   UNL A   1      48.553  27.304  31.622  1.00  0.00     0.200 A 
ATOM     77  F   UNL A   1      47.738  26.305  33.600  1.00  0.00    -0.200 F 
ATOM     78  F   UNL A   1      49.724  26.668  31.768  1.00  0.00    -0.200 F 
ENDBRANCH  54  68
BRANCH  55  79
ATOM     79  C   UNL A   1      37.026  32.671  30.226  1.00  0.00     0.064 A 
ATOM     80  C   UNL A   1      36.069  32.499  31.235  1.00  0.00     0.173 A 
ATOM     81  C   UNL A   1      36.659  33.418  29.097  1.00  0.00     0.173 A 
ATOM     82  F   UNL A   1      36.367  31.773  32.322  1.00  0.00    -0.203 F 
ATOM     83  C   UNL A   1      34.790  33.037  31.113  1.00  0.00     0.198 A 
ATOM     84  C   UNL A   1      35.387  33.976  28.987  1.00  0.00     0.198 A 
ATOM     85  F   UNL A   1      37.540  33.613  28.106  1.00  0.00    -0.203 F 
ATOM     86  F   UNL A   1      33.880  32.824  32.075  1.00  0.00    -0.200 F 
ATOM     87  C   UNL A   1      34.451  33.780  29.993  1.00  0.00     0.200 A 
ATOM     88  F   UNL A   1      35.067  34.702  27.908  1.00  0.00    -0.200 F 
ATOM     89  F   UNL A   1      33.221  34.299  29.876  1.00  0.00    -0.200 F 
ENDBRANCH  55  79
BRANCH  67  90
ATOM     90  C   UNL A   1      42.963  34.829  33.161  1.00  0.00     0.064 A 
ATOM     91  C   UNL A   1      43.432  35.941  32.448  1.00  0.00     0.173 A 
ATOM     92  C   UNL A   1      42.808  34.952  34.551  1.00  0.00     0.173 A 
ATOM     93  F   UNL A   1      43.610  35.866  31.121  1.00  0.00    -0.203 F 
ATOM     94  C   UNL A   1      43.746  37.128  33.105  1.00  0.00     0.198 A 
ATOM     95  C   UNL A   1      43.101  36.148  35.199  1.00  0.00     0.198 A 
ATOM     96  F   UNL A   1      42.358  33.916  35.275  1.00  0.00    -0.203 F 
ATOM     97  F   UNL A   1      44.226  38.169  32.410  1.00  0.00    -0.200 F 
ATOM     98  C   UNL A   1      43.574  37.233  34.477  1.00  0.00     0.200 A 
ATOM     99  F   UNL A   1      42.924  36.251  36.524  1.00  0.00    -0.200 F 
ATOM    100  F   UNL A   1      43.868  38.379  35.104  1.00  0.00    -0.200 F 
ENDBRANCH  67  90
ENDBRANCH  41  42
ENDBRANCH  33  36
ENDBRANCH  31  32
ENDBRANCH  30  31
ENDBRANCH  29  30
ENDBRANCH   1  29
TORSDOF 16
ENDMDL
