MODEL 1
REMARK VINA RESULT:     -13.2      0.000      0.000
REMARK SMILES COc1ccc(-c2nc3ccc(C)cc3[nH]2)c(C(=O)NCCCCNC(=O)c2ccc(-c3c4nc(c(-c5c(F)c(F)c(F)c(F)c5F)c5ccc([nH]5)c(-c5c(F)c(F)c(F)c(F)c5F)c5nc(c(-c6c(F)c(F)c(F)c(F)c6F)c6ccc3[nH]6)C=C5)C=C4)cc2)c1OC
REMARK SMILES IDX 23 1 22 2 21 3 20 4 18 5 19 6 17 8 3 9 4 10 91 11 5 12 6 13
REMARK SMILES IDX 2 14 1 15 92 16 93 17 7 18 8 19 16 20 9 21 15 22 10 24 14 25
REMARK SMILES IDX 11 26 12 27 13 28 24 29 25 30 26 31 27 33 28 34 29 35 90 36
REMARK SMILES IDX 30 37 89 38 31 39 32 40 33 41 83 42 34 43 88 44 82 45 84 46
REMARK SMILES IDX 35 47 87 48 81 49 80 50 36 52 68 53 48 54 67 55 49 56 52 57
REMARK SMILES IDX 66 58 85 59 50 60 51 61 65 63 86 64 53 65 37 66 38 67 46 68
REMARK SMILES IDX 39 69 40 70 44 71 47 72 41 73 42 74 45 75 43 76 69 77 70 78
REMARK SMILES IDX 78 79 71 80 72 81 76 82 79 83 73 84 74 85 77 86 75 87 54 88
REMARK SMILES IDX 55 89 63 90 56 91 57 92 61 93 64 94 58 95 59 96 62 97 60 98
REMARK H PARENT 20 7 16 23 25 32 84 51 52 62
REMARK Flexibility Score: inf
ROOT
ATOM      1  C   UNL A   1      31.765  29.225  27.256  1.00  0.00     0.023 C 
ENDROOT
BRANCH   1   2
ATOM      2  C   UNL A   1      31.466  27.820  26.742  1.00  0.00     0.023 C 
BRANCH   2   3
ATOM      3  C   UNL A   1      32.661  26.914  26.498  1.00  0.00     0.116 C 
BRANCH   3   4
ATOM      4  N   UNL A   1      33.506  27.190  25.358  1.00  0.00    -0.352 N 
ATOM      5  C   UNL A   1      33.336  26.680  24.076  1.00  0.00     0.255 C 
ATOM      6  O   UNL A   1      33.790  27.286  23.107  1.00  0.00    -0.269 OA
ATOM      7  H   UNL A   1      34.271  27.793  25.502  1.00  0.00     0.163 HD
BRANCH   5   8
ATOM      8  C   UNL A   1      32.652  25.370  23.876  1.00  0.00     0.096 A 
ATOM      9  C   UNL A   1      32.740  22.958  23.656  1.00  0.00     0.161 A 
ATOM     10  C   UNL A   1      31.410  22.964  23.216  1.00  0.00     0.051 A 
ATOM     11  C   UNL A   1      33.356  24.152  24.056  1.00  0.00     0.174 A 
ATOM     12  C   UNL A   1      30.682  24.155  23.160  1.00  0.00     0.017 A 
ATOM     13  C   UNL A   1      31.298  25.379  23.458  1.00  0.00     0.034 A 
BRANCH   9  14
ATOM     14  O   UNL A   1      33.422  21.787  23.457  1.00  0.00    -0.493 OA
ATOM     15  C   UNL A   1      32.990  20.707  24.276  1.00  0.00     0.278 C 
ENDBRANCH   9  14
BRANCH  11  16
ATOM     16  O   UNL A   1      34.568  24.246  24.694  1.00  0.00    -0.492 OA
ATOM     17  C   UNL A   1      34.693  23.769  26.028  1.00  0.00     0.278 C 
ENDBRANCH  11  16
BRANCH  13  18
ATOM     18  C   UNL A   1      30.537  26.625  23.288  1.00  0.00     0.139 A 
ATOM     19  N   UNL A   1      29.349  26.890  23.798  1.00  0.00    -0.228 NA
ATOM     20  N   UNL A   1      30.963  27.683  22.511  1.00  0.00    -0.338 N 
ATOM     21  C   UNL A   1      28.947  28.074  23.227  1.00  0.00     0.089 A 
ATOM     22  C   UNL A   1      29.949  28.605  22.426  1.00  0.00     0.066 A 
ATOM     23  H   UNL A   1      31.849  27.764  22.088  1.00  0.00     0.168 HD
ATOM     24  C   UNL A   1      27.724  28.749  23.331  1.00  0.00     0.031 A 
ATOM     25  C   UNL A   1      29.809  29.804  21.716  1.00  0.00     0.031 A 
ATOM     26  C   UNL A   1      27.545  29.938  22.609  1.00  0.00     0.006 A 
ATOM     27  C   UNL A   1      28.571  30.465  21.809  1.00  0.00    -0.049 A 
ATOM     28  C   UNL A   1      28.320  31.736  21.044  1.00  0.00     0.044 C 
ENDBRANCH  13  18
ENDBRANCH   5   8
ENDBRANCH   3   4
ENDBRANCH   2   3
ENDBRANCH   1   2
BRANCH   1  29
ATOM     29  C   UNL A   1      32.404  30.208  26.279  1.00  0.00     0.116 C 
BRANCH  29  30
ATOM     30  N   UNL A   1      32.341  31.604  26.691  1.00  0.00    -0.352 N 
ATOM     31  C   UNL A   1      33.248  32.375  27.391  1.00  0.00     0.251 C 
ATOM     32  H   UNL A   1      31.517  32.074  26.428  1.00  0.00     0.163 HD
ATOM     33  O   UNL A   1      32.985  33.532  27.668  1.00  0.00    -0.269 OA
BRANCH  31  34
ATOM     34  C   UNL A   1      34.524  31.780  27.860  1.00  0.00     0.039 A 
ATOM     35  C   UNL A   1      35.595  32.632  28.142  1.00  0.00     0.014 A 
ATOM     36  C   UNL A   1      34.660  30.406  28.055  1.00  0.00     0.014 A 
ATOM     37  C   UNL A   1      36.756  32.120  28.732  1.00  0.00     0.010 A 
ATOM     38  C   UNL A   1      35.775  29.910  28.727  1.00  0.00     0.010 A 
ATOM     39  C   UNL A   1      36.828  30.764  29.088  1.00  0.00    -0.014 A 
BRANCH  39  40
ATOM     40  C   UNL A   1      37.979  30.224  29.864  1.00  0.00     0.031 A 
ATOM     41  C   UNL A   1      38.211  30.665  31.283  1.00  0.00     0.074 A 
ATOM     42  C   UNL A   1      38.869  29.411  29.261  1.00  0.00     0.049 A 
ATOM     43  N   UNL A   1      39.208  30.386  32.085  1.00  0.00    -0.248 NA
ATOM     44  C   UNL A   1      37.205  31.564  31.868  1.00  0.00     0.031 C 
ATOM     45  C   UNL A   1      38.795  28.955  27.872  1.00  0.00     0.029 A 
ATOM     46  N   UNL A   1      40.020  28.831  29.736  1.00  0.00    -0.354 N 
ATOM     47  C   UNL A   1      38.963  31.093  33.254  1.00  0.00     0.074 A 
ATOM     48  C   UNL A   1      37.750  31.852  33.041  1.00  0.00     0.031 C 
ATOM     49  C   UNL A   1      39.838  28.151  27.614  1.00  0.00     0.029 A 
ATOM     50  C   UNL A   1      40.678  28.064  28.805  1.00  0.00     0.049 A 
ATOM     51  H   UNL A   1      40.345  28.955  30.658  1.00  0.00     0.167 HD
ATOM     52  C   UNL A   1      39.672  31.093  34.408  1.00  0.00     0.037 A 
ATOM     53  C   UNL A   1      41.831  27.373  28.897  1.00  0.00     0.037 A 
ATOM     54  C   UNL A   1      40.858  30.308  34.632  1.00  0.00     0.049 A 
ATOM     55  C   UNL A   1      42.591  27.378  30.195  1.00  0.00     0.074 A 
ATOM     56  C   UNL A   1      41.599  30.180  35.794  1.00  0.00     0.029 A 
ATOM     57  N   UNL A   1      41.475  29.518  33.674  1.00  0.00    -0.354 N 
ATOM     58  N   UNL A   1      42.308  27.990  31.318  1.00  0.00    -0.248 NA
ATOM     59  C   UNL A   1      43.831  26.590  30.240  1.00  0.00     0.031 C 
ATOM     60  C   UNL A   1      42.691  29.346  35.526  1.00  0.00     0.029 A 
ATOM     61  C   UNL A   1      42.602  28.916  34.212  1.00  0.00     0.049 A 
ATOM     62  H   UNL A   1      41.160  29.403  32.748  1.00  0.00     0.167 HD
ATOM     63  C   UNL A   1      43.313  27.641  32.209  1.00  0.00     0.074 A 
ATOM     64  C   UNL A   1      44.209  26.751  31.500  1.00  0.00     0.031 C 
ATOM     65  C   UNL A   1      43.479  28.024  33.498  1.00  0.00     0.037 A 
BRANCH  52  66
ATOM     66  C   UNL A   1      39.182  31.968  35.525  1.00  0.00     0.064 A 
ATOM     67  C   UNL A   1      38.336  31.475  36.529  1.00  0.00     0.173 A 
ATOM     68  C   UNL A   1      39.595  33.306  35.615  1.00  0.00     0.173 A 
ATOM     69  F   UNL A   1      37.903  30.206  36.483  1.00  0.00    -0.203 F 
ATOM     70  C   UNL A   1      37.897  32.296  37.564  1.00  0.00     0.198 A 
ATOM     71  C   UNL A   1      39.179  34.115  36.669  1.00  0.00     0.198 A 
ATOM     72  F   UNL A   1      40.411  33.827  34.686  1.00  0.00    -0.203 F 
ATOM     73  F   UNL A   1      37.049  31.815  38.484  1.00  0.00    -0.200 F 
ATOM     74  C   UNL A   1      38.324  33.613  37.638  1.00  0.00     0.200 A 
ATOM     75  F   UNL A   1      39.606  35.384  36.746  1.00  0.00    -0.200 F 
ATOM     76  F   UNL A   1      37.908  34.399  38.640  1.00  0.00    -0.200 F 
ENDBRANCH  52  66
BRANCH  53  77
ATOM     77  C   UNL A   1      42.323  26.592  27.733  1.00  0.00     0.064 A 
ATOM     78  C   UNL A   1      43.262  27.141  26.846  1.00  0.00     0.173 A 
ATOM     79  C   UNL A   1      41.869  25.291  27.476  1.00  0.00     0.173 A 
ATOM     80  F   UNL A   1      43.710  28.391  27.037  1.00  0.00    -0.203 F 
ATOM     81  C   UNL A   1      43.714  26.424  25.741  1.00  0.00     0.198 A 
ATOM     82  C   UNL A   1      42.341  24.565  26.385  1.00  0.00     0.198 A 
ATOM     83  F   UNL A   1      40.973  24.720  28.295  1.00  0.00    -0.203 F 
ATOM     84  F   UNL A   1      44.577  26.990  24.886  1.00  0.00    -0.200 F 
ATOM     85  C   UNL A   1      43.257  25.135  25.513  1.00  0.00     0.200 A 
ATOM     86  F   UNL A   1      41.907  23.315  26.175  1.00  0.00    -0.200 F 
ATOM     87  F   UNL A   1      43.693  24.445  24.451  1.00  0.00    -0.200 F 
ENDBRANCH  53  77
BRANCH  65  88
ATOM     88  C   UNL A   1      44.651  27.454  34.242  1.00  0.00     0.064 A 
ATOM     89  C   UNL A   1      44.570  26.227  34.916  1.00  0.00     0.173 A 
ATOM     90  C   UNL A   1      45.885  28.123  34.240  1.00  0.00     0.173 A 
ATOM     91  F   UNL A   1      43.410  25.556  34.959  1.00  0.00    -0.203 F 
ATOM     92  C   UNL A   1      45.675  25.702  35.581  1.00  0.00     0.198 A 
ATOM     93  C   UNL A   1      46.996  27.581  34.881  1.00  0.00     0.198 A 
ATOM     94  F   UNL A   1      46.017  29.297  33.605  1.00  0.00    -0.203 F 
ATOM     95  F   UNL A   1      45.564  24.549  36.256  1.00  0.00    -0.200 F 
ATOM     96  C   UNL A   1      46.888  26.375  35.555  1.00  0.00     0.200 A 
ATOM     97  F   UNL A   1      48.170  28.226  34.844  1.00  0.00    -0.200 F 
ATOM     98  F   UNL A   1      47.953  25.862  36.188  1.00  0.00    -0.200 F 
ENDBRANCH  65  88
ENDBRANCH  39  40
ENDBRANCH  31  34
ENDBRANCH  29  30
ENDBRANCH   1  29
TORSDOF 14
ENDMDL
MODEL 2
REMARK VINA RESULT:     -13.1      4.779      8.841
REMARK SMILES COc1ccc(-c2nc3ccc(C)cc3[nH]2)c(C(=O)NCCCCNC(=O)c2ccc(-c3c4nc(c(-c5c(F)c(F)c(F)c(F)c5F)c5ccc([nH]5)c(-c5c(F)c(F)c(F)c(F)c5F)c5nc(c(-c6c(F)c(F)c(F)c(F)c6F)c6ccc3[nH]6)C=C5)C=C4)cc2)c1OC
REMARK SMILES IDX 23 1 22 2 21 3 20 4 18 5 19 6 17 8 3 9 4 10 91 11 5 12 6 13
REMARK SMILES IDX 2 14 1 15 92 16 93 17 7 18 8 19 16 20 9 21 15 22 10 24 14 25
REMARK SMILES IDX 11 26 12 27 13 28 24 29 25 30 26 31 27 33 28 34 29 35 90 36
REMARK SMILES IDX 30 37 89 38 31 39 32 40 33 41 83 42 34 43 88 44 82 45 84 46
REMARK SMILES IDX 35 47 87 48 81 49 80 50 36 52 68 53 48 54 67 55 49 56 52 57
REMARK SMILES IDX 66 58 85 59 50 60 51 61 65 63 86 64 53 65 37 66 38 67 46 68
REMARK SMILES IDX 39 69 40 70 44 71 47 72 41 73 42 74 45 75 43 76 69 77 70 78
REMARK SMILES IDX 78 79 71 80 72 81 76 82 79 83 73 84 74 85 77 86 75 87 54 88
REMARK SMILES IDX 55 89 63 90 56 91 57 92 61 93 64 94 58 95 59 96 62 97 60 98
REMARK H PARENT 20 7 16 23 25 32 84 51 52 62
REMARK Flexibility Score: inf
ROOT
ATOM      1  C   UNL A   1      37.408  20.660  25.103  1.00  0.00     0.023 C 
ENDROOT
BRANCH   1   2
ATOM      2  C   UNL A   1      36.788  21.817  24.325  1.00  0.00     0.023 C 
BRANCH   2   3
ATOM      3  C   UNL A   1      36.286  22.995  25.142  1.00  0.00     0.116 C 
BRANCH   3   4
ATOM      4  N   UNL A   1      35.672  22.729  26.423  1.00  0.00    -0.352 N 
ATOM      5  C   UNL A   1      34.336  22.412  26.635  1.00  0.00     0.255 C 
ATOM      6  O   UNL A   1      34.004  21.779  27.636  1.00  0.00    -0.269 OA
ATOM      7  H   UNL A   1      36.253  22.775  27.217  1.00  0.00     0.163 HD
BRANCH   5   8
ATOM      8  C   UNL A   1      33.293  22.885  25.679  1.00  0.00     0.096 A 
ATOM      9  C   UNL A   1      31.815  24.624  24.862  1.00  0.00     0.161 A 
ATOM     10  C   UNL A   1      31.148  23.670  24.083  1.00  0.00     0.051 A 
ATOM     11  C   UNL A   1      32.938  24.257  25.617  1.00  0.00     0.174 A 
ATOM     12  C   UNL A   1      31.582  22.342  24.052  1.00  0.00     0.017 A 
ATOM     13  C   UNL A   1      32.639  21.921  24.871  1.00  0.00     0.034 A 
BRANCH   9  14
ATOM     14  O   UNL A   1      31.177  25.828  24.996  1.00  0.00    -0.493 OA
ATOM     15  C   UNL A   1      30.951  26.514  23.771  1.00  0.00     0.278 C 
ENDBRANCH   9  14
BRANCH  11  16
ATOM     16  O   UNL A   1      33.790  25.128  26.248  1.00  0.00    -0.492 OA
ATOM     17  C   UNL A   1      34.350  26.211  25.515  1.00  0.00     0.278 C 
ENDBRANCH  11  16
BRANCH  13  18
ATOM     18  C   UNL A   1      33.004  20.498  24.896  1.00  0.00     0.139 A 
ATOM     19  N   UNL A   1      33.892  19.906  24.120  1.00  0.00    -0.228 NA
ATOM     20  N   UNL A   1      32.410  19.570  25.726  1.00  0.00    -0.338 N 
ATOM     21  C   UNL A   1      33.764  18.558  24.358  1.00  0.00     0.089 A 
ATOM     22  C   UNL A   1      32.851  18.317  25.375  1.00  0.00     0.066 A 
ATOM     23  H   UNL A   1      31.774  19.771  26.450  1.00  0.00     0.168 HD
ATOM     24  C   UNL A   1      34.385  17.474  23.724  1.00  0.00     0.031 A 
ATOM     25  C   UNL A   1      32.520  17.031  25.821  1.00  0.00     0.031 A 
ATOM     26  C   UNL A   1      34.052  16.173  24.130  1.00  0.00     0.006 A 
ATOM     27  C   UNL A   1      33.132  15.947  25.165  1.00  0.00    -0.049 A 
ATOM     28  C   UNL A   1      32.801  14.531  25.552  1.00  0.00     0.044 C 
ENDBRANCH  13  18
ENDBRANCH   5   8
ENDBRANCH   3   4
ENDBRANCH   2   3
ENDBRANCH   1   2
BRANCH   1  29
ATOM     29  C   UNL A   1      38.778  20.894  25.735  1.00  0.00     0.116 C 
BRANCH  29  30
ATOM     30  N   UNL A   1      39.651  19.727  25.745  1.00  0.00    -0.352 N 
ATOM     31  C   UNL A   1      40.998  19.617  26.031  1.00  0.00     0.251 C 
ATOM     32  H   UNL A   1      39.210  18.881  25.509  1.00  0.00     0.163 HD
ATOM     33  O   UNL A   1      41.556  18.537  25.948  1.00  0.00    -0.269 OA
BRANCH  31  34
ATOM     34  C   UNL A   1      41.784  20.824  26.386  1.00  0.00     0.039 A 
ATOM     35  C   UNL A   1      42.195  21.680  25.359  1.00  0.00     0.014 A 
ATOM     36  C   UNL A   1      42.087  21.136  27.711  1.00  0.00     0.014 A 
ATOM     37  C   UNL A   1      42.799  22.902  25.671  1.00  0.00     0.010 A 
ATOM     38  C   UNL A   1      42.602  22.391  28.026  1.00  0.00     0.010 A 
ATOM     39  C   UNL A   1      42.949  23.295  27.011  1.00  0.00    -0.014 A 
BRANCH  39  40
ATOM     40  C   UNL A   1      43.435  24.655  27.372  1.00  0.00     0.031 A 
ATOM     41  C   UNL A   1      42.487  25.675  27.941  1.00  0.00     0.074 A 
ATOM     42  C   UNL A   1      44.709  25.003  27.101  1.00  0.00     0.049 A 
ATOM     43  N   UNL A   1      42.698  26.936  28.223  1.00  0.00    -0.248 NA
ATOM     44  C   UNL A   1      41.110  25.226  28.197  1.00  0.00     0.031 C 
ATOM     45  C   UNL A   1      45.716  24.130  26.494  1.00  0.00     0.029 A 
ATOM     46  N   UNL A   1      45.374  26.191  27.287  1.00  0.00    -0.354 N 
ATOM     47  C   UNL A   1      41.479  27.434  28.663  1.00  0.00     0.074 A 
ATOM     48  C   UNL A   1      40.522  26.354  28.565  1.00  0.00     0.031 C 
ATOM     49  C   UNL A   1      46.872  24.801  26.381  1.00  0.00     0.029 A 
ATOM     50  C   UNL A   1      46.682  26.164  26.868  1.00  0.00     0.049 A 
ATOM     51  H   UNL A   1      44.952  26.988  27.684  1.00  0.00     0.167 HD
ATOM     52  C   UNL A   1      41.188  28.673  29.126  1.00  0.00     0.037 A 
ATOM     53  C   UNL A   1      47.622  27.130  26.869  1.00  0.00     0.037 A 
ATOM     54  C   UNL A   1      42.150  29.736  29.260  1.00  0.00     0.049 A 
ATOM     55  C   UNL A   1      47.277  28.493  27.404  1.00  0.00     0.074 A 
ATOM     56  C   UNL A   1      41.969  31.000  29.795  1.00  0.00     0.029 A 
ATOM     57  N   UNL A   1      43.474  29.659  28.854  1.00  0.00    -0.354 N 
ATOM     58  N   UNL A   1      46.140  28.928  27.888  1.00  0.00    -0.248 NA
ATOM     59  C   UNL A   1      48.349  29.498  27.397  1.00  0.00     0.031 C 
ATOM     60  C   UNL A   1      43.172  31.703  29.672  1.00  0.00     0.029 A 
ATOM     61  C   UNL A   1      44.116  30.862  29.106  1.00  0.00     0.049 A 
ATOM     62  H   UNL A   1      43.894  28.868  28.446  1.00  0.00     0.167 HD
ATOM     63  C   UNL A   1      46.365  30.245  28.269  1.00  0.00     0.074 A 
ATOM     64  C   UNL A   1      47.753  30.533  27.972  1.00  0.00     0.031 C 
ATOM     65  C   UNL A   1      45.500  31.132  28.815  1.00  0.00     0.037 A 
BRANCH  52  66
ATOM     66  C   UNL A   1      39.770  28.948  29.532  1.00  0.00     0.064 A 
ATOM     67  C   UNL A   1      38.819  29.415  28.612  1.00  0.00     0.173 A 
ATOM     68  C   UNL A   1      39.345  28.705  30.847  1.00  0.00     0.173 A 
ATOM     69  F   UNL A   1      39.175  29.675  27.345  1.00  0.00    -0.203 F 
ATOM     70  C   UNL A   1      37.503  29.657  29.001  1.00  0.00     0.198 A 
ATOM     71  C   UNL A   1      38.022  28.917  31.224  1.00  0.00     0.198 A 
ATOM     72  F   UNL A   1      40.211  28.249  31.765  1.00  0.00    -0.203 F 
ATOM     73  F   UNL A   1      36.626  30.150  28.116  1.00  0.00    -0.200 F 
ATOM     74  C   UNL A   1      37.104  29.401  30.304  1.00  0.00     0.200 A 
ATOM     75  F   UNL A   1      37.634  28.656  32.480  1.00  0.00    -0.200 F 
ATOM     76  F   UNL A   1      35.836  29.626  30.673  1.00  0.00    -0.200 F 
ENDBRANCH  52  66
BRANCH  53  77
ATOM     77  C   UNL A   1      48.991  26.834  26.373  1.00  0.00     0.064 A 
ATOM     78  C   UNL A   1      49.964  26.302  27.232  1.00  0.00     0.173 A 
ATOM     79  C   UNL A   1      49.359  27.076  25.043  1.00  0.00     0.173 A 
ATOM     80  F   UNL A   1      49.667  26.074  28.520  1.00  0.00    -0.203 F 
ATOM     81  C   UNL A   1      51.257  26.040  26.783  1.00  0.00     0.198 A 
ATOM     82  C   UNL A   1      50.644  26.789  24.587  1.00  0.00     0.198 A 
ATOM     83  F   UNL A   1      48.464  27.581  24.180  1.00  0.00    -0.203 F 
ATOM     84  F   UNL A   1      52.179  25.574  27.637  1.00  0.00    -0.200 F 
ATOM     85  C   UNL A   1      51.594  26.279  25.459  1.00  0.00     0.200 A 
ATOM     86  F   UNL A   1      50.964  27.010  23.305  1.00  0.00    -0.200 F 
ATOM     87  F   UNL A   1      52.836  26.025  25.027  1.00  0.00    -0.200 F 
ENDBRANCH  53  77
BRANCH  65  88
ATOM     88  C   UNL A   1      46.035  32.491  29.165  1.00  0.00     0.064 A 
ATOM     89  C   UNL A   1      45.992  33.556  28.254  1.00  0.00     0.173 A 
ATOM     90  C   UNL A   1      46.554  32.740  30.445  1.00  0.00     0.173 A 
ATOM     91  F   UNL A   1      45.519  33.365  27.014  1.00  0.00    -0.203 F 
ATOM     92  C   UNL A   1      46.471  34.816  28.604  1.00  0.00     0.198 A 
ATOM     93  C   UNL A   1      47.005  34.008  30.802  1.00  0.00     0.198 A 
ATOM     94  F   UNL A   1      46.611  31.757  31.355  1.00  0.00    -0.203 F 
ATOM     95  F   UNL A   1      46.462  35.808  27.704  1.00  0.00    -0.200 F 
ATOM     96  C   UNL A   1      46.969  35.042  29.879  1.00  0.00     0.200 A 
ATOM     97  F   UNL A   1      47.473  34.228  32.038  1.00  0.00    -0.200 F 
ATOM     98  F   UNL A   1      47.421  36.258  30.217  1.00  0.00    -0.200 F 
ENDBRANCH  65  88
ENDBRANCH  39  40
ENDBRANCH  31  34
ENDBRANCH  29  30
ENDBRANCH   1  29
TORSDOF 14
ENDMDL
MODEL 3
REMARK VINA RESULT:     -13.0      4.737      8.658
REMARK SMILES COc1ccc(-c2nc3ccc(C)cc3[nH]2)c(C(=O)NCCCCNC(=O)c2ccc(-c3c4nc(c(-c5c(F)c(F)c(F)c(F)c5F)c5ccc([nH]5)c(-c5c(F)c(F)c(F)c(F)c5F)c5nc(c(-c6c(F)c(F)c(F)c(F)c6F)c6ccc3[nH]6)C=C5)C=C4)cc2)c1OC
REMARK SMILES IDX 23 1 22 2 21 3 20 4 18 5 19 6 17 8 3 9 4 10 91 11 5 12 6 13
REMARK SMILES IDX 2 14 1 15 92 16 93 17 7 18 8 19 16 20 9 21 15 22 10 24 14 25
REMARK SMILES IDX 11 26 12 27 13 28 24 29 25 30 26 31 27 33 28 34 29 35 90 36
REMARK SMILES IDX 30 37 89 38 31 39 32 40 33 41 83 42 34 43 88 44 82 45 84 46
REMARK SMILES IDX 35 47 87 48 81 49 80 50 36 52 68 53 48 54 67 55 49 56 52 57
REMARK SMILES IDX 66 58 85 59 50 60 51 61 65 63 86 64 53 65 37 66 38 67 46 68
REMARK SMILES IDX 39 69 40 70 44 71 47 72 41 73 42 74 45 75 43 76 69 77 70 78
REMARK SMILES IDX 78 79 71 80 72 81 76 82 79 83 73 84 74 85 77 86 75 87 54 88
REMARK SMILES IDX 55 89 63 90 56 91 57 92 61 93 64 94 58 95 59 96 62 97 60 98
REMARK H PARENT 20 7 16 23 25 32 84 51 52 62
REMARK Flexibility Score: inf
ROOT
ATOM      1  C   UNL A   1      37.526  20.858  24.996  1.00  0.00     0.023 C 
ENDROOT
BRANCH   1   2
ATOM      2  C   UNL A   1      37.208  22.060  24.111  1.00  0.00     0.023 C 
BRANCH   2   3
ATOM      3  C   UNL A   1      36.100  22.983  24.588  1.00  0.00     0.116 C 
BRANCH   3   4
ATOM      4  N   UNL A   1      35.757  22.973  25.993  1.00  0.00    -0.352 N 
ATOM      5  C   UNL A   1      34.484  22.791  26.518  1.00  0.00     0.255 C 
ATOM      6  O   UNL A   1      34.345  22.355  27.660  1.00  0.00    -0.269 OA
ATOM      7  H   UNL A   1      36.492  23.106  26.635  1.00  0.00     0.163 HD
BRANCH   5   8
ATOM      8  C   UNL A   1      33.283  23.177  25.722  1.00  0.00     0.096 A 
ATOM      9  C   UNL A   1      31.624  24.819  25.069  1.00  0.00     0.161 A 
ATOM     10  C   UNL A   1      30.879  23.802  24.459  1.00  0.00     0.051 A 
ATOM     11  C   UNL A   1      32.868  24.531  25.649  1.00  0.00     0.174 A 
ATOM     12  C   UNL A   1      31.355  22.489  24.426  1.00  0.00     0.017 A 
ATOM     13  C   UNL A   1      32.546  22.148  25.082  1.00  0.00     0.034 A 
BRANCH   9  14
ATOM     14  O   UNL A   1      30.968  26.009  25.243  1.00  0.00    -0.493 OA
ATOM     15  C   UNL A   1      29.622  26.011  24.783  1.00  0.00     0.278 C 
ENDBRANCH   9  14
BRANCH  11  16
ATOM     16  O   UNL A   1      33.775  25.462  26.087  1.00  0.00    -0.492 OA
ATOM     17  C   UNL A   1      34.373  26.349  25.148  1.00  0.00     0.278 C 
ENDBRANCH  11  16
BRANCH  13  18
ATOM     18  C   UNL A   1      32.967  20.741  25.120  1.00  0.00     0.139 A 
ATOM     19  N   UNL A   1      34.036  20.230  24.541  1.00  0.00    -0.228 NA
ATOM     20  N   UNL A   1      32.247  19.743  25.745  1.00  0.00    -0.338 N 
ATOM     21  C   UNL A   1      33.926  18.866  24.677  1.00  0.00     0.089 A 
ATOM     22  C   UNL A   1      32.819  18.531  25.445  1.00  0.00     0.066 A 
ATOM     23  H   UNL A   1      31.454  19.877  26.314  1.00  0.00     0.168 HD
ATOM     24  C   UNL A   1      34.727  17.845  24.150  1.00  0.00     0.031 A 
ATOM     25  C   UNL A   1      32.460  17.210  25.739  1.00  0.00     0.031 A 
ATOM     26  C   UNL A   1      34.377  16.511  24.405  1.00  0.00     0.006 A 
ATOM     27  C   UNL A   1      33.258  16.190  25.189  1.00  0.00    -0.049 A 
ATOM     28  C   UNL A   1      32.920  14.742  25.419  1.00  0.00     0.044 C 
ENDBRANCH  13  18
ENDBRANCH   5   8
ENDBRANCH   3   4
ENDBRANCH   2   3
ENDBRANCH   1   2
BRANCH   1  29
ATOM     29  C   UNL A   1      38.767  20.946  25.881  1.00  0.00     0.116 C 
BRANCH  29  30
ATOM     30  N   UNL A   1      39.687  19.825  25.752  1.00  0.00    -0.352 N 
ATOM     31  C   UNL A   1      41.041  19.741  26.013  1.00  0.00     0.251 C 
ATOM     32  H   UNL A   1      39.278  18.991  25.427  1.00  0.00     0.163 HD
ATOM     33  O   UNL A   1      41.642  18.701  25.804  1.00  0.00    -0.269 OA
BRANCH  31  34
ATOM     34  C   UNL A   1      41.781  20.933  26.494  1.00  0.00     0.039 A 
ATOM     35  C   UNL A   1      42.271  21.841  25.551  1.00  0.00     0.014 A 
ATOM     36  C   UNL A   1      41.964  21.179  27.855  1.00  0.00     0.014 A 
ATOM     37  C   UNL A   1      42.834  23.050  25.975  1.00  0.00     0.010 A 
ATOM     38  C   UNL A   1      42.438  22.420  28.275  1.00  0.00     0.010 A 
ATOM     39  C   UNL A   1      42.863  23.375  27.340  1.00  0.00    -0.014 A 
BRANCH  39  40
ATOM     40  C   UNL A   1      43.302  24.718  27.810  1.00  0.00     0.031 A 
ATOM     41  C   UNL A   1      42.286  25.773  28.153  1.00  0.00     0.074 A 
ATOM     42  C   UNL A   1      44.616  25.020  27.836  1.00  0.00     0.049 A 
ATOM     43  N   UNL A   1      42.472  27.027  28.482  1.00  0.00    -0.248 NA
ATOM     44  C   UNL A   1      40.872  25.374  28.087  1.00  0.00     0.031 C 
ATOM     45  C   UNL A   1      45.702  24.110  27.470  1.00  0.00     0.029 A 
ATOM     46  N   UNL A   1      45.263  26.184  28.175  1.00  0.00    -0.354 N 
ATOM     47  C   UNL A   1      41.203  27.569  28.635  1.00  0.00     0.074 A 
ATOM     48  C   UNL A   1      40.256  26.524  28.317  1.00  0.00     0.031 C 
ATOM     49  C   UNL A   1      46.877  24.738  27.626  1.00  0.00     0.029 A 
ATOM     50  C   UNL A   1      46.630  26.109  28.064  1.00  0.00     0.049 A 
ATOM     51  H   UNL A   1      44.790  26.997  28.469  1.00  0.00     0.167 HD
ATOM     52  C   UNL A   1      40.859  28.820  29.027  1.00  0.00     0.037 A 
ATOM     53  C   UNL A   1      47.579  27.040  28.284  1.00  0.00     0.037 A 
ATOM     54  C   UNL A   1      41.802  29.847  29.381  1.00  0.00     0.049 A 
ATOM     55  C   UNL A   1      47.169  28.416  28.733  1.00  0.00     0.074 A 
ATOM     56  C   UNL A   1      41.549  31.119  29.868  1.00  0.00     0.029 A 
ATOM     57  N   UNL A   1      43.180  29.723  29.287  1.00  0.00    -0.354 N 
ATOM     58  N   UNL A   1      45.969  28.894  28.948  1.00  0.00    -0.248 NA
ATOM     59  C   UNL A   1      48.250  29.383  28.976  1.00  0.00     0.031 C 
ATOM     60  C   UNL A   1      42.773  31.779  30.025  1.00  0.00     0.029 A 
ATOM     61  C   UNL A   1      43.791  30.902  29.684  1.00  0.00     0.049 A 
ATOM     62  H   UNL A   1      43.654  28.916  28.981  1.00  0.00     0.167 HD
ATOM     63  C   UNL A   1      46.148  30.202  29.377  1.00  0.00     0.074 A 
ATOM     64  C   UNL A   1      47.576  30.440  29.405  1.00  0.00     0.031 C 
ATOM     65  C   UNL A   1      45.213  31.122  29.717  1.00  0.00     0.037 A 
BRANCH  52  66
ATOM     66  C   UNL A   1      39.396  29.147  29.101  1.00  0.00     0.064 A 
ATOM     67  C   UNL A   1      38.702  29.147  30.320  1.00  0.00     0.173 A 
ATOM     68  C   UNL A   1      38.687  29.503  27.943  1.00  0.00     0.173 A 
ATOM     69  F   UNL A   1      39.330  28.803  31.454  1.00  0.00    -0.203 F 
ATOM     70  C   UNL A   1      37.346  29.462  30.374  1.00  0.00     0.198 A 
ATOM     71  C   UNL A   1      37.340  29.848  28.005  1.00  0.00     0.198 A 
ATOM     72  F   UNL A   1      39.304  29.527  26.752  1.00  0.00    -0.203 F 
ATOM     73  F   UNL A   1      36.694  29.407  31.543  1.00  0.00    -0.200 F 
ATOM     74  C   UNL A   1      36.669  29.819  29.218  1.00  0.00     0.200 A 
ATOM     75  F   UNL A   1      36.689  30.207  26.889  1.00  0.00    -0.200 F 
ATOM     76  F   UNL A   1      35.367  30.131  29.273  1.00  0.00    -0.200 F 
ENDBRANCH  52  66
BRANCH  53  77
ATOM     77  C   UNL A   1      49.013  26.694  28.111  1.00  0.00     0.064 A 
ATOM     78  C   UNL A   1      49.595  26.662  26.835  1.00  0.00     0.173 A 
ATOM     79  C   UNL A   1      49.831  26.384  29.207  1.00  0.00     0.173 A 
ATOM     80  F   UNL A   1      48.848  26.929  25.754  1.00  0.00    -0.203 F 
ATOM     81  C   UNL A   1      50.933  26.318  26.661  1.00  0.00     0.198 A 
ATOM     82  C   UNL A   1      51.177  26.066  29.035  1.00  0.00     0.198 A 
ATOM     83  F   UNL A   1      49.324  26.403  30.449  1.00  0.00    -0.203 F 
ATOM     84  F   UNL A   1      51.451  26.252  25.427  1.00  0.00    -0.200 F 
ATOM     85  C   UNL A   1      51.725  26.025  27.762  1.00  0.00     0.200 A 
ATOM     86  F   UNL A   1      51.941  25.796  30.102  1.00  0.00    -0.200 F 
ATOM     87  F   UNL A   1      53.012  25.697  27.594  1.00  0.00    -0.200 F 
ENDBRANCH  53  77
BRANCH  65  88
ATOM     88  C   UNL A   1      45.702  32.462  30.186  1.00  0.00     0.064 A 
ATOM     89  C   UNL A   1      46.008  32.704  31.533  1.00  0.00     0.173 A 
ATOM     90  C   UNL A   1      45.912  33.501  29.267  1.00  0.00     0.173 A 
ATOM     91  F   UNL A   1      45.811  31.747  32.452  1.00  0.00    -0.203 F 
ATOM     92  C   UNL A   1      46.483  33.946  31.946  1.00  0.00     0.198 A 
ATOM     93  C   UNL A   1      46.415  34.732  29.678  1.00  0.00     0.198 A 
ATOM     94  F   UNL A   1      45.642  33.319  27.966  1.00  0.00    -0.203 F 
ATOM     95  F   UNL A   1      46.727  34.170  33.245  1.00  0.00    -0.200 F 
ATOM     96  C   UNL A   1      46.694  34.955  31.018  1.00  0.00     0.200 A 
ATOM     97  F   UNL A   1      46.631  35.702  28.779  1.00  0.00    -0.200 F 
ATOM     98  F   UNL A   1      47.161  36.147  31.417  1.00  0.00    -0.200 F 
ENDBRANCH  65  88
ENDBRANCH  39  40
ENDBRANCH  31  34
ENDBRANCH  29  30
ENDBRANCH   1  29
TORSDOF 14
ENDMDL
