MODEL 1
REMARK VINA RESULT:     -12.7      0.000      0.000
REMARK SMILES COCC[C@H](NC(=O)c1ccc(C)cc1F)C(=O)NCCCCNC(=O)c1ccc(-c2c3nc(c(-c4c(F)c(F)c(F)c(F)c4F)c4ccc([nH]4)c(-c4c(F)c(F)c(F)c(F)c4F)c4nc(c(-c5c(F)c(F)c(F)c(F)c5F)c5ccc2[nH]5)C=C4)C=C3)cc1
REMARK SMILES IDX 21 1 20 2 19 3 17 4 18 5 5 7 4 8 3 9 2 10 1 11 6 12 7 13
REMARK SMILES IDX 8 15 9 16 10 17 15 18 11 19 14 20 16 21 12 22 13 23 22 24
REMARK SMILES IDX 23 25 24 26 25 27 26 29 27 30 28 31 89 32 29 33 88 34 30 35
REMARK SMILES IDX 31 36 32 37 82 38 33 39 87 40 81 41 83 42 34 43 86 44 80 45
REMARK SMILES IDX 79 46 35 48 67 49 47 50 66 51 48 52 51 53 65 54 84 55 49 56
REMARK SMILES IDX 50 57 64 59 85 60 52 61 36 62 37 63 45 64 38 65 39 66 43 67
REMARK SMILES IDX 46 68 40 69 41 70 44 71 42 72 68 73 69 74 77 75 70 76 71 77
REMARK SMILES IDX 75 78 78 79 72 80 73 81 76 82 74 83 53 84 54 85 62 86 55 87
REMARK SMILES IDX 56 88 60 89 63 90 57 91 58 92 61 93 59 94
REMARK H PARENT 19 6 6 14 24 28 83 47 51 58
REMARK Flexibility Score: inf
ROOT
ATOM      1  C   UNL A   1      32.779  28.088  27.552  1.00  0.00     0.023 C 
ENDROOT
BRANCH   1   2
ATOM      2  C   UNL A   1      31.265  27.818  27.474  1.00  0.00     0.116 C 
BRANCH   2   3
ATOM      3  N   UNL A   1      30.699  26.858  26.533  1.00  0.00    -0.354 N 
ATOM      4  C   UNL A   1      31.028  26.556  25.240  1.00  0.00     0.242 C 
ATOM      5  O   UNL A   1      30.746  25.432  24.810  1.00  0.00    -0.273 OA
ATOM      6  H   UNL A   1      29.946  26.335  26.893  1.00  0.00     0.163 HD
BRANCH   4   7
ATOM      7  C   UNL A   1      31.753  27.551  24.351  1.00  0.00     0.173 C 
BRANCH   7   8
ATOM      8  C   UNL A   1      30.694  28.661  24.102  1.00  0.00     0.063 C 
BRANCH   8   9
ATOM      9  C   UNL A   1      29.619  28.293  23.078  1.00  0.00     0.162 C 
BRANCH   9  10
ATOM     10  O   UNL A   1      29.921  28.870  21.808  1.00  0.00    -0.385 OA
ATOM     11  C   UNL A   1      29.310  30.140  21.627  1.00  0.00     0.194 C 
ENDBRANCH   9  10
ENDBRANCH   8   9
ENDBRANCH   7   8
BRANCH   7  12
ATOM     12  N   UNL A   1      32.302  26.978  23.100  1.00  0.00    -0.340 N 
ATOM     13  C   UNL A   1      33.338  26.129  22.733  1.00  0.00     0.254 C 
ATOM     14  H   UNL A   1      31.794  27.284  22.313  1.00  0.00     0.164 HD
ATOM     15  O   UNL A   1      33.707  26.291  21.565  1.00  0.00    -0.269 OA
BRANCH  13  16
ATOM     16  C   UNL A   1      33.902  24.951  23.500  1.00  0.00     0.075 A 
ATOM     17  C   UNL A   1      34.083  23.680  22.966  1.00  0.00     0.017 A 
ATOM     18  C   UNL A   1      34.515  25.158  24.749  1.00  0.00     0.136 A 
ATOM     19  C   UNL A   1      34.900  22.701  23.546  1.00  0.00     0.004 A 
ATOM     20  C   UNL A   1      35.309  24.170  25.371  1.00  0.00     0.043 A 
ATOM     21  F   UNL A   1      34.408  26.331  25.393  1.00  0.00    -0.206 F 
ATOM     22  C   UNL A   1      35.536  22.939  24.753  1.00  0.00    -0.048 A 
ATOM     23  C   UNL A   1      36.435  21.891  25.335  1.00  0.00     0.044 C 
ENDBRANCH  13  16
ENDBRANCH   7  12
ENDBRANCH   4   7
ENDBRANCH   2   3
ENDBRANCH   1   2
BRANCH   1  24
ATOM     24  C   UNL A   1      33.357  29.448  27.161  1.00  0.00     0.023 C 
BRANCH  24  25
ATOM     25  C   UNL A   1      34.832  29.438  26.893  1.00  0.00     0.116 C 
BRANCH  25  26
ATOM     26  N   UNL A   1      35.434  30.704  27.275  1.00  0.00    -0.352 N 
ATOM     27  C   UNL A   1      36.407  30.889  28.233  1.00  0.00     0.251 C 
ATOM     28  H   UNL A   1      35.116  31.508  26.805  1.00  0.00     0.163 HD
ATOM     29  O   UNL A   1      36.471  31.930  28.865  1.00  0.00    -0.269 OA
BRANCH  27  30
ATOM     30  C   UNL A   1      37.422  29.833  28.418  1.00  0.00     0.039 A 
ATOM     31  C   UNL A   1      37.358  28.957  29.511  1.00  0.00     0.014 A 
ATOM     32  C   UNL A   1      38.534  29.831  27.581  1.00  0.00     0.014 A 
ATOM     33  C   UNL A   1      38.461  28.164  29.804  1.00  0.00     0.010 A 
ATOM     34  C   UNL A   1      39.518  28.916  27.735  1.00  0.00     0.010 A 
ATOM     35  C   UNL A   1      39.541  28.207  28.925  1.00  0.00    -0.014 A 
BRANCH  35  36
ATOM     36  C   UNL A   1      40.841  27.630  29.147  1.00  0.00     0.031 A 
ATOM     37  C   UNL A   1      41.078  26.293  28.624  1.00  0.00     0.074 A 
ATOM     38  C   UNL A   1      41.776  28.520  29.553  1.00  0.00     0.049 A 
ATOM     39  N   UNL A   1      41.997  25.507  29.040  1.00  0.00    -0.248 NA
ATOM     40  C   UNL A   1      40.242  25.708  27.578  1.00  0.00     0.031 C 
ATOM     41  C   UNL A   1      43.226  28.463  29.517  1.00  0.00     0.029 A 
ATOM     42  N   UNL A   1      41.509  29.741  30.206  1.00  0.00    -0.354 N 
ATOM     43  C   UNL A   1      42.116  24.507  28.101  1.00  0.00     0.074 A 
ATOM     44  C   UNL A   1      40.906  24.577  27.320  1.00  0.00     0.031 C 
ATOM     45  C   UNL A   1      43.708  29.361  30.401  1.00  0.00     0.029 A 
ATOM     46  C   UNL A   1      42.567  29.929  31.107  1.00  0.00     0.049 A 
ATOM     47  H   UNL A   1      40.739  30.338  30.059  1.00  0.00     0.167 HD
ATOM     48  C   UNL A   1      43.329  23.894  27.981  1.00  0.00     0.037 A 
ATOM     49  C   UNL A   1      42.295  29.769  32.436  1.00  0.00     0.037 A 
ATOM     50  C   UNL A   1      44.261  24.490  28.948  1.00  0.00     0.049 A 
ATOM     51  C   UNL A   1      42.963  28.527  32.966  1.00  0.00     0.074 A 
ATOM     52  C   UNL A   1      45.208  25.494  28.811  1.00  0.00     0.029 A 
ATOM     53  N   UNL A   1      43.993  24.388  30.312  1.00  0.00    -0.354 N 
ATOM     54  N   UNL A   1      43.203  27.454  32.257  1.00  0.00    -0.248 NA
ATOM     55  C   UNL A   1      43.534  28.467  34.304  1.00  0.00     0.031 C 
ATOM     56  C   UNL A   1      45.448  26.046  30.099  1.00  0.00     0.029 A 
ATOM     57  C   UNL A   1      44.656  25.376  31.018  1.00  0.00     0.049 A 
ATOM     58  H   UNL A   1      43.412  23.705  30.717  1.00  0.00     0.167 HD
ATOM     59  C   UNL A   1      44.018  26.616  32.974  1.00  0.00     0.074 A 
ATOM     60  C   UNL A   1      44.186  27.295  34.249  1.00  0.00     0.031 C 
ATOM     61  C   UNL A   1      44.549  25.460  32.469  1.00  0.00     0.037 A 
BRANCH  48  62
ATOM     62  C   UNL A   1      43.775  23.034  26.816  1.00  0.00     0.064 A 
ATOM     63  C   UNL A   1      43.252  21.730  26.655  1.00  0.00     0.173 A 
ATOM     64  C   UNL A   1      44.718  23.406  25.838  1.00  0.00     0.173 A 
ATOM     65  F   UNL A   1      42.284  21.261  27.451  1.00  0.00    -0.203 F 
ATOM     66  C   UNL A   1      43.697  20.854  25.660  1.00  0.00     0.198 A 
ATOM     67  C   UNL A   1      45.191  22.517  24.865  1.00  0.00     0.198 A 
ATOM     68  F   UNL A   1      45.176  24.657  25.741  1.00  0.00    -0.203 F 
ATOM     69  F   UNL A   1      43.161  19.629  25.566  1.00  0.00    -0.200 F 
ATOM     70  C   UNL A   1      44.684  21.238  24.779  1.00  0.00     0.200 A 
ATOM     71  F   UNL A   1      46.138  22.918  24.004  1.00  0.00    -0.200 F 
ATOM     72  F   UNL A   1      45.124  20.394  23.836  1.00  0.00    -0.200 F 
ENDBRANCH  48  62
BRANCH  49  73
ATOM     73  C   UNL A   1      40.944  30.313  32.792  1.00  0.00     0.064 A 
ATOM     74  C   UNL A   1      40.700  31.657  32.432  1.00  0.00     0.173 A 
ATOM     75  C   UNL A   1      39.824  29.490  32.981  1.00  0.00     0.173 A 
ATOM     76  F   UNL A   1      41.732  32.501  32.263  1.00  0.00    -0.203 F 
ATOM     77  C   UNL A   1      39.424  32.099  32.087  1.00  0.00     0.198 A 
ATOM     78  C   UNL A   1      38.538  29.954  32.673  1.00  0.00     0.198 A 
ATOM     79  F   UNL A   1      39.975  28.208  33.339  1.00  0.00    -0.203 F 
ATOM     80  F   UNL A   1      39.258  33.332  31.582  1.00  0.00    -0.200 F 
ATOM     81  C   UNL A   1      38.348  31.235  32.172  1.00  0.00     0.200 A 
ATOM     82  F   UNL A   1      37.486  29.128  32.784  1.00  0.00    -0.200 F 
ATOM     83  F   UNL A   1      37.143  31.629  31.738  1.00  0.00    -0.200 F 
ENDBRANCH  49  73
BRANCH  61  84
ATOM     84  C   UNL A   1      45.157  24.344  33.291  1.00  0.00     0.064 A 
ATOM     85  C   UNL A   1      44.513  23.124  33.554  1.00  0.00     0.173 A 
ATOM     86  C   UNL A   1      46.504  24.415  33.735  1.00  0.00     0.173 A 
ATOM     87  F   UNL A   1      43.309  22.839  33.042  1.00  0.00    -0.203 F 
ATOM     88  C   UNL A   1      45.115  22.112  34.303  1.00  0.00     0.198 A 
ATOM     89  C   UNL A   1      47.132  23.368  34.401  1.00  0.00     0.198 A 
ATOM     90  F   UNL A   1      47.275  25.489  33.509  1.00  0.00    -0.203 F 
ATOM     91  F   UNL A   1      44.419  21.007  34.595  1.00  0.00    -0.200 F 
ATOM     92  C   UNL A   1      46.427  22.229  34.718  1.00  0.00     0.200 A 
ATOM     93  F   UNL A   1      48.431  23.467  34.717  1.00  0.00    -0.200 F 
ATOM     94  F   UNL A   1      47.017  21.236  35.393  1.00  0.00    -0.200 F 
ENDBRANCH  61  84
ENDBRANCH  35  36
ENDBRANCH  27  30
ENDBRANCH  25  26
ENDBRANCH  24  25
ENDBRANCH   1  24
TORSDOF 16
ENDMDL
MODEL 2
REMARK VINA RESULT:     -12.7      1.467      2.089
REMARK SMILES COCC[C@H](NC(=O)c1ccc(C)cc1F)C(=O)NCCCCNC(=O)c1ccc(-c2c3nc(c(-c4c(F)c(F)c(F)c(F)c4F)c4ccc([nH]4)c(-c4c(F)c(F)c(F)c(F)c4F)c4nc(c(-c5c(F)c(F)c(F)c(F)c5F)c5ccc2[nH]5)C=C4)C=C3)cc1
REMARK SMILES IDX 21 1 20 2 19 3 17 4 18 5 5 7 4 8 3 9 2 10 1 11 6 12 7 13
REMARK SMILES IDX 8 15 9 16 10 17 15 18 11 19 14 20 16 21 12 22 13 23 22 24
REMARK SMILES IDX 23 25 24 26 25 27 26 29 27 30 28 31 89 32 29 33 88 34 30 35
REMARK SMILES IDX 31 36 32 37 82 38 33 39 87 40 81 41 83 42 34 43 86 44 80 45
REMARK SMILES IDX 79 46 35 48 67 49 47 50 66 51 48 52 51 53 65 54 84 55 49 56
REMARK SMILES IDX 50 57 64 59 85 60 52 61 36 62 37 63 45 64 38 65 39 66 43 67
REMARK SMILES IDX 46 68 40 69 41 70 44 71 42 72 68 73 69 74 77 75 70 76 71 77
REMARK SMILES IDX 75 78 78 79 72 80 73 81 76 82 74 83 53 84 54 85 62 86 55 87
REMARK SMILES IDX 56 88 60 89 63 90 57 91 58 92 61 93 59 94
REMARK H PARENT 19 6 6 14 24 28 83 47 51 58
REMARK Flexibility Score: inf
ROOT
ATOM      1  C   UNL A   1      31.775  28.545  27.375  1.00  0.00     0.023 C 
ENDROOT
BRANCH   1   2
ATOM      2  C   UNL A   1      31.472  27.172  26.747  1.00  0.00     0.116 C 
BRANCH   2   3
ATOM      3  N   UNL A   1      31.026  27.037  25.365  1.00  0.00    -0.354 N 
ATOM      4  C   UNL A   1      31.258  26.066  24.429  1.00  0.00     0.242 C 
ATOM      5  O   UNL A   1      30.432  25.918  23.522  1.00  0.00    -0.273 OA
ATOM      6  H   UNL A   1      30.457  27.777  25.049  1.00  0.00     0.163 HD
BRANCH   4   7
ATOM      7  C   UNL A   1      32.474  25.161  24.508  1.00  0.00     0.173 C 
BRANCH   7   8
ATOM      8  C   UNL A   1      33.636  26.063  24.004  1.00  0.00     0.063 C 
BRANCH   8   9
ATOM      9  C   UNL A   1      33.390  26.713  22.642  1.00  0.00     0.162 C 
BRANCH   9  10
ATOM     10  O   UNL A   1      33.679  25.793  21.590  1.00  0.00    -0.385 OA
ATOM     11  C   UNL A   1      32.611  25.674  20.661  1.00  0.00     0.194 C 
ENDBRANCH   9  10
ENDBRANCH   8   9
ENDBRANCH   7   8
BRANCH   7  12
ATOM     12  N   UNL A   1      32.352  23.893  23.753  1.00  0.00    -0.340 N 
ATOM     13  C   UNL A   1      33.205  22.958  23.180  1.00  0.00     0.254 C 
ATOM     14  H   UNL A   1      31.408  23.644  23.620  1.00  0.00     0.164 HD
ATOM     15  O   UNL A   1      32.676  22.313  22.269  1.00  0.00    -0.269 OA
BRANCH  13  16
ATOM     16  C   UNL A   1      34.577  22.525  23.655  1.00  0.00     0.075 A 
ATOM     17  C   UNL A   1      35.766  23.151  23.296  1.00  0.00     0.017 A 
ATOM     18  C   UNL A   1      34.693  21.597  24.707  1.00  0.00     0.136 A 
ATOM     19  C   UNL A   1      36.974  22.978  23.983  1.00  0.00     0.004 A 
ATOM     20  C   UNL A   1      35.912  21.378  25.385  1.00  0.00     0.043 A 
ATOM     21  F   UNL A   1      33.632  20.904  25.146  1.00  0.00    -0.206 F 
ATOM     22  C   UNL A   1      37.060  22.097  25.047  1.00  0.00    -0.048 A 
ATOM     23  C   UNL A   1      38.354  21.957  25.790  1.00  0.00     0.044 C 
ENDBRANCH  13  16
ENDBRANCH   7  12
ENDBRANCH   4   7
ENDBRANCH   2   3
ENDBRANCH   1   2
BRANCH   1  24
ATOM     24  C   UNL A   1      32.580  29.598  26.614  1.00  0.00     0.023 C 
BRANCH  24  25
ATOM     25  C   UNL A   1      34.059  29.538  26.853  1.00  0.00     0.116 C 
BRANCH  25  26
ATOM     26  N   UNL A   1      34.582  30.853  27.183  1.00  0.00    -0.352 N 
ATOM     27  C   UNL A   1      35.554  31.133  28.120  1.00  0.00     0.251 C 
ATOM     28  H   UNL A   1      34.206  31.618  26.691  1.00  0.00     0.163 HD
ATOM     29  O   UNL A   1      35.558  32.197  28.715  1.00  0.00    -0.269 OA
BRANCH  27  30
ATOM     30  C   UNL A   1      36.637  30.152  28.325  1.00  0.00     0.039 A 
ATOM     31  C   UNL A   1      36.685  29.364  29.484  1.00  0.00     0.014 A 
ATOM     32  C   UNL A   1      37.700  30.142  27.425  1.00  0.00     0.014 A 
ATOM     33  C   UNL A   1      37.848  28.658  29.771  1.00  0.00     0.010 A 
ATOM     34  C   UNL A   1      38.742  29.297  27.590  1.00  0.00     0.010 A 
ATOM     35  C   UNL A   1      38.872  28.689  28.828  1.00  0.00    -0.014 A 
BRANCH  35  36
ATOM     36  C   UNL A   1      40.215  28.203  29.015  1.00  0.00     0.031 A 
ATOM     37  C   UNL A   1      40.499  26.840  28.589  1.00  0.00     0.074 A 
ATOM     38  C   UNL A   1      41.117  29.172  29.290  1.00  0.00     0.049 A 
ATOM     39  N   UNL A   1      41.484  26.142  29.010  1.00  0.00    -0.248 NA
ATOM     40  C   UNL A   1      39.640  26.126  27.647  1.00  0.00     0.031 C 
ATOM     41  C   UNL A   1      42.564  29.189  29.170  1.00  0.00     0.029 A 
ATOM     42  N   UNL A   1      40.817  30.428  29.857  1.00  0.00    -0.354 N 
ATOM     43  C   UNL A   1      41.607  25.075  28.149  1.00  0.00     0.074 A 
ATOM     44  C   UNL A   1      40.353  25.014  27.441  1.00  0.00     0.031 C 
ATOM     45  C   UNL A   1      43.043  30.184  29.947  1.00  0.00     0.029 A 
ATOM     46  C   UNL A   1      41.912  30.747  30.673  1.00  0.00     0.049 A 
ATOM     47  H   UNL A   1      40.007  30.968  29.710  1.00  0.00     0.167 HD
ATOM     48  C   UNL A   1      42.846  24.519  28.005  1.00  0.00     0.037 A 
ATOM     49  C   UNL A   1      41.726  30.686  32.025  1.00  0.00     0.037 A 
ATOM     50  C   UNL A   1      43.795  25.243  28.861  1.00  0.00     0.049 A 
ATOM     51  C   UNL A   1      42.494  29.529  32.612  1.00  0.00     0.074 A 
ATOM     52  C   UNL A   1      44.672  26.282  28.586  1.00  0.00     0.029 A 
ATOM     53  N   UNL A   1      43.611  25.243  30.243  1.00  0.00    -0.354 N 
ATOM     54  N   UNL A   1      42.755  28.415  31.978  1.00  0.00    -0.248 NA
ATOM     55  C   UNL A   1      43.143  29.613  33.913  1.00  0.00     0.031 C 
ATOM     56  C   UNL A   1      44.953  26.952  29.808  1.00  0.00     0.029 A 
ATOM     57  C   UNL A   1      44.254  26.320  30.825  1.00  0.00     0.049 A 
ATOM     58  H   UNL A   1      43.094  24.567  30.737  1.00  0.00     0.167 HD
ATOM     59  C   UNL A   1      43.657  27.686  32.709  1.00  0.00     0.074 A 
ATOM     60  C   UNL A   1      43.858  28.477  33.913  1.00  0.00     0.031 C 
ATOM     61  C   UNL A   1      44.225  26.520  32.268  1.00  0.00     0.037 A 
BRANCH  48  62
ATOM     62  C   UNL A   1      43.273  23.590  26.889  1.00  0.00     0.064 A 
ATOM     63  C   UNL A   1      42.931  22.218  26.935  1.00  0.00     0.173 A 
ATOM     64  C   UNL A   1      44.033  23.960  25.761  1.00  0.00     0.173 A 
ATOM     65  F   UNL A   1      42.140  21.727  27.896  1.00  0.00    -0.203 F 
ATOM     66  C   UNL A   1      43.380  21.293  25.988  1.00  0.00     0.198 A 
ATOM     67  C   UNL A   1      44.515  23.028  24.833  1.00  0.00     0.198 A 
ATOM     68  F   UNL A   1      44.290  25.239  25.474  1.00  0.00    -0.203 F 
ATOM     69  F   UNL A   1      43.021  20.006  26.094  1.00  0.00    -0.200 F 
ATOM     70  C   UNL A   1      44.192  21.693  24.949  1.00  0.00     0.200 A 
ATOM     71  F   UNL A   1      45.287  23.442  23.817  1.00  0.00    -0.200 F 
ATOM     72  F   UNL A   1      44.639  20.805  24.050  1.00  0.00    -0.200 F 
ENDBRANCH  48  62
BRANCH  49  73
ATOM     73  C   UNL A   1      40.369  31.185  32.418  1.00  0.00     0.064 A 
ATOM     74  C   UNL A   1      40.027  32.479  31.968  1.00  0.00     0.173 A 
ATOM     75  C   UNL A   1      39.310  30.322  32.739  1.00  0.00     0.173 A 
ATOM     76  F   UNL A   1      40.997  33.360  31.672  1.00  0.00    -0.203 F 
ATOM     77  C   UNL A   1      38.710  32.824  31.668  1.00  0.00     0.198 A 
ATOM     78  C   UNL A   1      37.984  30.690  32.474  1.00  0.00     0.198 A 
ATOM     79  F   UNL A   1      39.554  29.083  33.187  1.00  0.00    -0.203 F 
ATOM     80  F   UNL A   1      38.446  34.000  31.078  1.00  0.00    -0.200 F 
ATOM     81  C   UNL A   1      37.692  31.914  31.886  1.00  0.00     0.200 A 
ATOM     82  F   UNL A   1      36.989  29.822  32.713  1.00  0.00    -0.200 F 
ATOM     83  F   UNL A   1      36.444  32.207  31.496  1.00  0.00    -0.200 F 
ENDBRANCH  49  73
BRANCH  61  84
ATOM     84  C   UNL A   1      44.943  25.512  33.139  1.00  0.00     0.064 A 
ATOM     85  C   UNL A   1      46.334  25.329  33.141  1.00  0.00     0.173 A 
ATOM     86  C   UNL A   1      44.242  24.775  34.131  1.00  0.00     0.173 A 
ATOM     87  F   UNL A   1      47.146  26.086  32.391  1.00  0.00    -0.203 F 
ATOM     88  C   UNL A   1      46.961  24.399  33.973  1.00  0.00     0.198 A 
ATOM     89  C   UNL A   1      44.881  23.918  35.021  1.00  0.00     0.198 A 
ATOM     90  F   UNL A   1      42.917  24.883  34.299  1.00  0.00    -0.203 F 
ATOM     91  F   UNL A   1      48.281  24.208  33.869  1.00  0.00    -0.200 F 
ATOM     92  C   UNL A   1      46.237  23.702  34.919  1.00  0.00     0.200 A 
ATOM     93  F   UNL A   1      44.173  23.318  35.989  1.00  0.00    -0.200 F 
ATOM     94  F   UNL A   1      46.848  22.848  35.748  1.00  0.00    -0.200 F 
ENDBRANCH  61  84
ENDBRANCH  35  36
ENDBRANCH  27  30
ENDBRANCH  25  26
ENDBRANCH  24  25
ENDBRANCH   1  24
TORSDOF 16
ENDMDL
MODEL 3
REMARK VINA RESULT:     -12.7      3.716      9.749
REMARK SMILES COCC[C@H](NC(=O)c1ccc(C)cc1F)C(=O)NCCCCNC(=O)c1ccc(-c2c3nc(c(-c4c(F)c(F)c(F)c(F)c4F)c4ccc([nH]4)c(-c4c(F)c(F)c(F)c(F)c4F)c4nc(c(-c5c(F)c(F)c(F)c(F)c5F)c5ccc2[nH]5)C=C4)C=C3)cc1
REMARK SMILES IDX 21 1 20 2 19 3 17 4 18 5 5 7 4 8 3 9 2 10 1 11 6 12 7 13
REMARK SMILES IDX 8 15 9 16 10 17 15 18 11 19 14 20 16 21 12 22 13 23 22 24
REMARK SMILES IDX 23 25 24 26 25 27 26 29 27 30 28 31 89 32 29 33 88 34 30 35
REMARK SMILES IDX 31 36 32 37 82 38 33 39 87 40 81 41 83 42 34 43 86 44 80 45
REMARK SMILES IDX 79 46 35 48 67 49 47 50 66 51 48 52 51 53 65 54 84 55 49 56
REMARK SMILES IDX 50 57 64 59 85 60 52 61 36 62 37 63 45 64 38 65 39 66 43 67
REMARK SMILES IDX 46 68 40 69 41 70 44 71 42 72 68 73 69 74 77 75 70 76 71 77
REMARK SMILES IDX 75 78 78 79 72 80 73 81 76 82 74 83 53 84 54 85 62 86 55 87
REMARK SMILES IDX 56 88 60 89 63 90 57 91 58 92 61 93 59 94
REMARK H PARENT 19 6 6 14 24 28 83 47 51 58
REMARK Flexibility Score: inf
ROOT
ATOM      1  C   UNL A   1      36.398  22.979  23.499  1.00  0.00     0.023 C 
ENDROOT
BRANCH   1   2
ATOM      2  C   UNL A   1      34.906  23.194  23.812  1.00  0.00     0.116 C 
BRANCH   2   3
ATOM      3  N   UNL A   1      33.857  22.450  23.123  1.00  0.00    -0.354 N 
ATOM      4  C   UNL A   1      32.755  21.791  23.594  1.00  0.00     0.242 C 
ATOM      5  O   UNL A   1      31.790  21.646  22.836  1.00  0.00    -0.273 OA
ATOM      6  H   UNL A   1      33.962  22.417  22.144  1.00  0.00     0.163 HD
BRANCH   4   7
ATOM      7  C   UNL A   1      32.687  21.276  25.021  1.00  0.00     0.173 C 
BRANCH   7   8
ATOM      8  C   UNL A   1      32.344  19.769  24.851  1.00  0.00     0.063 C 
BRANCH   8   9
ATOM      9  C   UNL A   1      33.523  18.894  24.426  1.00  0.00     0.162 C 
BRANCH   9  10
ATOM     10  O   UNL A   1      33.067  17.775  23.667  1.00  0.00    -0.385 OA
ATOM     11  C   UNL A   1      32.324  18.163  22.519  1.00  0.00     0.194 C 
ENDBRANCH   9  10
ENDBRANCH   8   9
ENDBRANCH   7   8
BRANCH   7  12
ATOM     12  N   UNL A   1      31.731  21.996  25.894  1.00  0.00    -0.340 N 
ATOM     13  C   UNL A   1      31.595  23.271  26.428  1.00  0.00     0.254 C 
ATOM     14  H   UNL A   1      30.990  21.410  26.174  1.00  0.00     0.164 HD
ATOM     15  O   UNL A   1      30.909  23.296  27.455  1.00  0.00    -0.269 OA
BRANCH  13  16
ATOM     16  C   UNL A   1      32.005  24.593  25.813  1.00  0.00     0.075 A 
ATOM     17  C   UNL A   1      33.103  25.342  26.221  1.00  0.00     0.017 A 
ATOM     18  C   UNL A   1      31.420  25.015  24.605  1.00  0.00     0.136 A 
ATOM     19  C   UNL A   1      33.676  26.365  25.454  1.00  0.00     0.004 A 
ATOM     20  C   UNL A   1      31.957  26.071  23.837  1.00  0.00     0.043 A 
ATOM     21  F   UNL A   1      30.341  24.398  24.099  1.00  0.00    -0.206 F 
ATOM     22  C   UNL A   1      33.117  26.735  24.243  1.00  0.00    -0.048 A 
ATOM     23  C   UNL A   1      33.768  27.807  23.424  1.00  0.00     0.044 C 
ENDBRANCH  13  16
ENDBRANCH   7  12
ENDBRANCH   4   7
ENDBRANCH   2   3
ENDBRANCH   1   2
BRANCH   1  24
ATOM     24  C   UNL A   1      37.309  22.237  24.477  1.00  0.00     0.023 C 
BRANCH  24  25
ATOM     25  C   UNL A   1      37.609  22.993  25.737  1.00  0.00     0.116 C 
BRANCH  25  26
ATOM     26  N   UNL A   1      38.756  22.422  26.421  1.00  0.00    -0.352 N 
ATOM     27  C   UNL A   1      39.908  23.088  26.778  1.00  0.00     0.251 C 
ATOM     28  H   UNL A   1      38.706  21.466  26.652  1.00  0.00     0.163 HD
ATOM     29  O   UNL A   1      40.977  22.502  26.833  1.00  0.00    -0.269 OA
BRANCH  27  30
ATOM     30  C   UNL A   1      39.807  24.506  27.174  1.00  0.00     0.039 A 
ATOM     31  C   UNL A   1      40.319  25.521  26.353  1.00  0.00     0.014 A 
ATOM     32  C   UNL A   1      39.345  24.804  28.453  1.00  0.00     0.014 A 
ATOM     33  C   UNL A   1      40.452  26.804  26.872  1.00  0.00     0.010 A 
ATOM     34  C   UNL A   1      39.276  26.083  28.886  1.00  0.00     0.010 A 
ATOM     35  C   UNL A   1      39.969  27.035  28.157  1.00  0.00    -0.014 A 
BRANCH  35  36
ATOM     36  C   UNL A   1      40.187  28.219  28.947  1.00  0.00     0.031 A 
ATOM     37  C   UNL A   1      39.185  29.272  28.867  1.00  0.00     0.074 A 
ATOM     38  C   UNL A   1      41.144  28.080  29.893  1.00  0.00     0.049 A 
ATOM     39  N   UNL A   1      39.395  30.493  29.182  1.00  0.00    -0.248 NA
ATOM     40  C   UNL A   1      37.833  29.022  28.373  1.00  0.00     0.031 C 
ATOM     41  C   UNL A   1      41.407  28.838  31.103  1.00  0.00     0.029 A 
ATOM     42  N   UNL A   1      42.200  27.145  29.853  1.00  0.00    -0.354 N 
ATOM     43  C   UNL A   1      38.158  31.089  29.294  1.00  0.00     0.074 A 
ATOM     44  C   UNL A   1      37.247  30.198  28.620  1.00  0.00     0.031 C 
ATOM     45  C   UNL A   1      42.682  28.608  31.480  1.00  0.00     0.029 A 
ATOM     46  C   UNL A   1      43.297  27.786  30.446  1.00  0.00     0.049 A 
ATOM     47  H   UNL A   1      42.171  26.232  29.485  1.00  0.00     0.167 HD
ATOM     48  C   UNL A   1      38.046  32.157  30.136  1.00  0.00     0.037 A 
ATOM     49  C   UNL A   1      44.316  28.176  29.624  1.00  0.00     0.037 A 
ATOM     50  C   UNL A   1      39.356  32.423  30.746  1.00  0.00     0.049 A 
ATOM     51  C   UNL A   1      44.364  29.678  29.515  1.00  0.00     0.074 A 
ATOM     52  C   UNL A   1      39.897  32.035  31.963  1.00  0.00     0.029 A 
ATOM     53  N   UNL A   1      40.432  32.777  29.934  1.00  0.00    -0.354 N 
ATOM     54  N   UNL A   1      43.320  30.461  29.610  1.00  0.00    -0.248 NA
ATOM     55  C   UNL A   1      45.621  30.408  29.433  1.00  0.00     0.031 C 
ATOM     56  C   UNL A   1      41.312  32.087  31.848  1.00  0.00     0.029 A 
ATOM     57  C   UNL A   1      41.633  32.511  30.567  1.00  0.00     0.049 A 
ATOM     58  H   UNL A   1      40.348  33.163  29.034  1.00  0.00     0.167 HD
ATOM     59  C   UNL A   1      43.744  31.762  29.698  1.00  0.00     0.074 A 
ATOM     60  C   UNL A   1      45.190  31.671  29.573  1.00  0.00     0.031 C 
ATOM     61  C   UNL A   1      42.903  32.819  29.923  1.00  0.00     0.037 A 
BRANCH  48  62
ATOM     62  C   UNL A   1      36.749  32.734  30.664  1.00  0.00     0.064 A 
ATOM     63  C   UNL A   1      36.008  33.651  29.883  1.00  0.00     0.173 A 
ATOM     64  C   UNL A   1      36.183  32.457  31.925  1.00  0.00     0.173 A 
ATOM     65  F   UNL A   1      36.367  33.951  28.629  1.00  0.00    -0.203 F 
ATOM     66  C   UNL A   1      34.859  34.293  30.354  1.00  0.00     0.198 A 
ATOM     67  C   UNL A   1      35.054  33.127  32.412  1.00  0.00     0.198 A 
ATOM     68  F   UNL A   1      36.658  31.488  32.712  1.00  0.00    -0.203 F 
ATOM     69  F   UNL A   1      34.207  35.154  29.562  1.00  0.00    -0.200 F 
ATOM     70  C   UNL A   1      34.394  34.049  31.629  1.00  0.00     0.200 A 
ATOM     71  F   UNL A   1      34.606  32.860  33.648  1.00  0.00    -0.200 F 
ATOM     72  F   UNL A   1      33.303  34.676  32.089  1.00  0.00    -0.200 F 
ENDBRANCH  48  62
BRANCH  49  73
ATOM     73  C   UNL A   1      44.572  27.165  28.547  1.00  0.00     0.064 A 
ATOM     74  C   UNL A   1      44.229  27.556  27.233  1.00  0.00     0.173 A 
ATOM     75  C   UNL A   1      45.524  26.144  28.678  1.00  0.00     0.173 A 
ATOM     76  F   UNL A   1      43.303  28.511  27.042  1.00  0.00    -0.203 F 
ATOM     77  C   UNL A   1      44.938  27.095  26.125  1.00  0.00     0.198 A 
ATOM     78  C   UNL A   1      46.204  25.653  27.556  1.00  0.00     0.198 A 
ATOM     79  F   UNL A   1      45.890  25.708  29.891  1.00  0.00    -0.203 F 
ATOM     80  F   UNL A   1      44.699  27.621  24.914  1.00  0.00    -0.200 F 
ATOM     81  C   UNL A   1      45.952  26.171  26.292  1.00  0.00     0.200 A 
ATOM     82  F   UNL A   1      47.169  24.732  27.709  1.00  0.00    -0.200 F 
ATOM     83  F   UNL A   1      46.703  25.810  25.242  1.00  0.00    -0.200 F 
ENDBRANCH  49  73
BRANCH  61  84
ATOM     84  C   UNL A   1      43.248  34.276  29.693  1.00  0.00     0.064 A 
ATOM     85  C   UNL A   1      43.455  35.203  30.726  1.00  0.00     0.173 A 
ATOM     86  C   UNL A   1      43.526  34.762  28.389  1.00  0.00     0.173 A 
ATOM     87  F   UNL A   1      43.411  34.844  32.015  1.00  0.00    -0.203 F 
ATOM     88  C   UNL A   1      43.789  36.535  30.472  1.00  0.00     0.198 A 
ATOM     89  C   UNL A   1      43.948  36.065  28.146  1.00  0.00     0.198 A 
ATOM     90  F   UNL A   1      43.433  33.984  27.300  1.00  0.00    -0.203 F 
ATOM     91  F   UNL A   1      43.890  37.394  31.494  1.00  0.00    -0.200 F 
ATOM     92  C   UNL A   1      44.045  36.963  29.186  1.00  0.00     0.200 A 
ATOM     93  F   UNL A   1      44.276  36.437  26.901  1.00  0.00    -0.200 F 
ATOM     94  F   UNL A   1      44.413  38.229  28.951  1.00  0.00    -0.200 F 
ENDBRANCH  61  84
ENDBRANCH  35  36
ENDBRANCH  27  30
ENDBRANCH  25  26
ENDBRANCH  24  25
ENDBRANCH   1  24
TORSDOF 16
ENDMDL
