MODEL 1
REMARK VINA RESULT:     -12.6      0.000      0.000
REMARK SMILES O=C(CC[C@@]1(c2ccccc2)NC(=O)N(CC(=O)Nc2cccc(F)c2)C1=O)NCCCCNC(=O)c1ccc(-c2c3nc(c(-c4c(F)c(F)c(F)c(F)c4F)c4ccc([nH]4)c(-c4c(F)c(F)c(F)c(F)c4F)c4nc(c(-c5c(F)c(F)c(F)c(F)c5F)c5ccc2[nH]5)C=C4)C=C3)cc1
REMARK SMILES IDX 30 1 29 2 1 3 2 4 3 6 4 7 5 8 12 9 27 10 13 11 15 13 28 14
REMARK SMILES IDX 14 15 6 16 7 17 11 18 8 19 10 20 9 21 16 22 17 23 18 24
REMARK SMILES IDX 19 25 20 27 21 28 26 29 22 30 24 31 23 32 25 33 31 34 32 35
REMARK SMILES IDX 33 36 34 37 35 38 36 40 37 41 38 42 99 43 39 44 98 45 40 46
REMARK SMILES IDX 41 47 42 48 92 49 43 50 97 51 91 52 93 53 44 54 96 55 90 56
REMARK SMILES IDX 89 57 45 59 77 60 57 61 76 62 58 63 61 64 75 65 94 66 59 67
REMARK SMILES IDX 60 68 74 70 95 71 62 72 46 73 47 74 55 75 48 76 49 77 53 78
REMARK SMILES IDX 56 79 50 80 51 81 54 82 52 83 78 84 79 85 87 86 80 87 81 88
REMARK SMILES IDX 85 89 88 90 82 91 83 92 86 93 84 94 63 95 64 96 72 97 65 98
REMARK SMILES IDX 66 99 70 100 73 101 67 102 68 103 71 104 69 105
REMARK H PARENT 29 5 12 12 19 26 34 39 93 58 61 69
REMARK Flexibility Score: inf
ROOT
ATOM      1  C   UNL A   1      33.858  23.635  22.796  1.00  0.00     0.116 C 
ENDROOT
BRANCH   1   2
ATOM      2  N   UNL A   1      33.909  25.081  22.941  1.00  0.00    -0.356 N 
ATOM      3  O   UNL A   1      33.217  25.563  20.838  1.00  0.00    -0.275 OA
ATOM      4  C   UNL A   1      33.538  25.953  21.963  1.00  0.00     0.220 C 
ATOM      5  H   UNL A   1      34.229  25.451  23.795  1.00  0.00     0.163 HD
BRANCH   4   6
ATOM      6  C   UNL A   1      33.574  27.460  22.224  1.00  0.00     0.103 C 
BRANCH   6   7
ATOM      7  C   UNL A   1      33.756  28.199  23.562  1.00  0.00     0.053 C 
BRANCH   7   8
ATOM      8  C   UNL A   1      32.642  28.408  24.631  1.00  0.00     0.147 C 
ATOM      9  N   UNL A   1      31.343  28.567  23.983  1.00  0.00    -0.319 N 
ATOM     10  C   UNL A   1      32.372  26.988  25.214  1.00  0.00     0.261 C 
ATOM     11  C   UNL A   1      30.528  27.469  24.107  1.00  0.00     0.325 C 
ATOM     12  H   UNL A   1      31.077  29.384  23.505  1.00  0.00     0.166 HD
ATOM     13  N   UNL A   1      31.245  26.466  24.660  1.00  0.00    -0.252 N 
ATOM     14  O   UNL A   1      33.100  26.405  26.005  1.00  0.00    -0.271 OA
ATOM     15  O   UNL A   1      29.349  27.444  23.785  1.00  0.00    -0.248 OA
BRANCH   8  16
ATOM     16  C   UNL A   1      32.770  29.523  25.656  1.00  0.00    -0.013 A 
ATOM     17  C   UNL A   1      33.932  29.630  26.447  1.00  0.00     0.007 A 
ATOM     18  C   UNL A   1      31.736  30.433  25.920  1.00  0.00     0.007 A 
ATOM     19  C   UNL A   1      34.083  30.659  27.384  1.00  0.00     0.000 A 
ATOM     20  C   UNL A   1      31.899  31.487  26.822  1.00  0.00     0.000 A 
ATOM     21  C   UNL A   1      33.078  31.606  27.548  1.00  0.00     0.000 A 
ENDBRANCH   8  16
BRANCH  13  22
ATOM     22  C   UNL A   1      30.792  25.101  24.811  1.00  0.00     0.230 C 
BRANCH  22  23
ATOM     23  C   UNL A   1      30.218  24.727  26.195  1.00  0.00     0.244 C 
ATOM     24  O   UNL A   1      29.325  25.419  26.699  1.00  0.00    -0.273 OA
ATOM     25  N   UNL A   1      30.521  23.544  26.821  1.00  0.00    -0.324 N 
ATOM     26  H   UNL A   1      29.880  23.273  27.518  1.00  0.00     0.170 HD
BRANCH  25  27
ATOM     27  C   UNL A   1      31.587  22.659  26.634  1.00  0.00     0.044 A 
ATOM     28  C   UNL A   1      32.650  22.667  27.537  1.00  0.00     0.026 A 
ATOM     29  C   UNL A   1      31.671  21.845  25.513  1.00  0.00     0.065 A 
ATOM     30  C   UNL A   1      33.694  21.742  27.405  1.00  0.00     0.005 A 
ATOM     31  C   UNL A   1      32.697  20.916  25.391  1.00  0.00     0.125 A 
ATOM     32  C   UNL A   1      33.698  20.837  26.345  1.00  0.00     0.039 A 
ATOM     33  F   UNL A   1      32.709  20.090  24.336  1.00  0.00    -0.207 F 
ENDBRANCH  25  27
ENDBRANCH  22  23
ENDBRANCH  13  22
ENDBRANCH   7   8
ENDBRANCH   6   7
ENDBRANCH   4   6
ENDBRANCH   1   2
BRANCH   1  34
ATOM     34  C   UNL A   1      35.091  22.911  23.345  1.00  0.00     0.023 C 
BRANCH  34  35
ATOM     35  C   UNL A   1      35.578  23.348  24.727  1.00  0.00     0.023 C 
BRANCH  35  36
ATOM     36  C   UNL A   1      37.019  23.835  24.850  1.00  0.00     0.116 C 
BRANCH  36  37
ATOM     37  N   UNL A   1      37.916  22.825  25.376  1.00  0.00    -0.352 N 
ATOM     38  C   UNL A   1      39.006  22.924  26.205  1.00  0.00     0.251 C 
ATOM     39  H   UNL A   1      37.706  21.906  25.089  1.00  0.00     0.163 HD
ATOM     40  O   UNL A   1      39.674  21.915  26.425  1.00  0.00    -0.269 OA
BRANCH  38  41
ATOM     41  C   UNL A   1      39.431  24.210  26.821  1.00  0.00     0.039 A 
ATOM     42  C   UNL A   1      39.030  24.467  28.138  1.00  0.00     0.014 A 
ATOM     43  C   UNL A   1      40.139  25.194  26.126  1.00  0.00     0.014 A 
ATOM     44  C   UNL A   1      39.377  25.667  28.769  1.00  0.00     0.010 A 
ATOM     45  C   UNL A   1      40.545  26.367  26.778  1.00  0.00     0.010 A 
ATOM     46  C   UNL A   1      40.169  26.618  28.108  1.00  0.00    -0.014 A 
BRANCH  46  47
ATOM     47  C   UNL A   1      40.609  27.862  28.803  1.00  0.00     0.031 A 
ATOM     48  C   UNL A   1      42.022  28.015  29.299  1.00  0.00     0.074 A 
ATOM     49  C   UNL A   1      39.723  28.853  29.024  1.00  0.00     0.049 A 
ATOM     50  N   UNL A   1      42.567  29.004  29.966  1.00  0.00    -0.248 NA
ATOM     51  C   UNL A   1      42.942  26.902  29.023  1.00  0.00     0.031 C 
ATOM     52  C   UNL A   1      38.315  28.832  28.623  1.00  0.00     0.029 A 
ATOM     53  N   UNL A   1      39.870  30.070  29.647  1.00  0.00    -0.354 N 
ATOM     54  C   UNL A   1      43.886  28.630  30.196  1.00  0.00     0.074 A 
ATOM     55  C   UNL A   1      44.045  27.301  29.641  1.00  0.00     0.031 C 
ATOM     56  C   UNL A   1      37.734  29.982  28.995  1.00  0.00     0.029 A 
ATOM     57  C   UNL A   1      38.711  30.808  29.699  1.00  0.00     0.049 A 
ATOM     58  H   UNL A   1      40.724  30.384  30.023  1.00  0.00     0.167 HD
ATOM     59  C   UNL A   1      44.878  29.335  30.793  1.00  0.00     0.037 A 
ATOM     60  C   UNL A   1      38.456  32.007  30.259  1.00  0.00     0.037 A 
ATOM     61  C   UNL A   1      44.726  30.661  31.337  1.00  0.00     0.049 A 
ATOM     62  C   UNL A   1      39.567  32.756  30.947  1.00  0.00     0.074 A 
ATOM     63  C   UNL A   1      45.686  31.470  31.922  1.00  0.00     0.029 A 
ATOM     64  N   UNL A   1      43.535  31.374  31.369  1.00  0.00    -0.354 N 
ATOM     65  N   UNL A   1      40.822  32.414  31.106  1.00  0.00    -0.248 NA
ATOM     66  C   UNL A   1      39.225  34.061  31.529  1.00  0.00     0.031 C 
ATOM     67  C   UNL A   1      45.067  32.646  32.358  1.00  0.00     0.029 A 
ATOM     68  C   UNL A   1      43.732  32.599  31.988  1.00  0.00     0.049 A 
ATOM     69  H   UNL A   1      42.677  31.055  31.006  1.00  0.00     0.167 HD
ATOM     70  C   UNL A   1      41.424  33.470  31.777  1.00  0.00     0.074 A 
ATOM     71  C   UNL A   1      40.400  34.473  31.981  1.00  0.00     0.031 C 
ATOM     72  C   UNL A   1      42.711  33.596  32.185  1.00  0.00     0.037 A 
BRANCH  59  73
ATOM     73  C   UNL A   1      46.229  28.681  30.900  1.00  0.00     0.064 A 
ATOM     74  C   UNL A   1      46.577  27.889  32.004  1.00  0.00     0.173 A 
ATOM     75  C   UNL A   1      47.169  28.813  29.867  1.00  0.00     0.173 A 
ATOM     76  F   UNL A   1      45.718  27.733  33.023  1.00  0.00    -0.203 F 
ATOM     77  C   UNL A   1      47.828  27.280  32.085  1.00  0.00     0.198 A 
ATOM     78  C   UNL A   1      48.405  28.176  29.935  1.00  0.00     0.198 A 
ATOM     79  F   UNL A   1      46.885  29.549  28.782  1.00  0.00    -0.203 F 
ATOM     80  F   UNL A   1      48.158  26.571  33.174  1.00  0.00    -0.200 F 
ATOM     81  C   UNL A   1      48.738  27.418  31.048  1.00  0.00     0.200 A 
ATOM     82  F   UNL A   1      49.277  28.296  28.924  1.00  0.00    -0.200 F 
ATOM     83  F   UNL A   1      49.938  26.827  31.124  1.00  0.00    -0.200 F 
ENDBRANCH  59  73
BRANCH  60  84
ATOM     84  C   UNL A   1      37.085  32.581  30.189  1.00  0.00     0.064 A 
ATOM     85  C   UNL A   1      36.678  33.350  29.090  1.00  0.00     0.173 A 
ATOM     86  C   UNL A   1      36.160  32.381  31.225  1.00  0.00     0.173 A 
ATOM     87  F   UNL A   1      37.535  33.589  28.086  1.00  0.00    -0.203 F 
ATOM     88  C   UNL A   1      35.404  33.913  29.038  1.00  0.00     0.198 A 
ATOM     89  C   UNL A   1      34.875  32.919  31.156  1.00  0.00     0.198 A 
ATOM     90  F   UNL A   1      36.497  31.651  32.297  1.00  0.00    -0.203 F 
ATOM     91  F   UNL A   1      35.059  34.686  27.999  1.00  0.00    -0.200 F 
ATOM     92  C   UNL A   1      34.502  33.691  30.067  1.00  0.00     0.200 A 
ATOM     93  F   UNL A   1      34.002  32.688  32.145  1.00  0.00    -0.200 F 
ATOM     94  F   UNL A   1      33.276  34.230  30.015  1.00  0.00    -0.200 F 
ENDBRANCH  60  84
BRANCH  72  95
ATOM     95  C   UNL A   1      43.101  34.881  32.861  1.00  0.00     0.064 A 
ATOM     96  C   UNL A   1      43.525  36.003  32.132  1.00  0.00     0.173 A 
ATOM     97  C   UNL A   1      43.015  35.002  34.257  1.00  0.00     0.173 A 
ATOM     98  F   UNL A   1      43.639  35.937  30.797  1.00  0.00    -0.203 F 
ATOM     99  C   UNL A   1      43.873  37.187  32.778  1.00  0.00     0.198 A 
ATOM    100  C   UNL A   1      43.333  36.198  34.896  1.00  0.00     0.198 A 
ATOM    101  F   UNL A   1      42.611  33.963  35.002  1.00  0.00    -0.203 F 
ATOM    102  F   UNL A   1      44.324  38.229  32.064  1.00  0.00    -0.200 F 
ATOM    103  C   UNL A   1      43.770  37.286  34.158  1.00  0.00     0.200 A 
ATOM    104  F   UNL A   1      43.217  36.296  36.228  1.00  0.00    -0.200 F 
ATOM    105  F   UNL A   1      44.097  38.429  34.775  1.00  0.00    -0.200 F 
ENDBRANCH  72  95
ENDBRANCH  46  47
ENDBRANCH  38  41
ENDBRANCH  36  37
ENDBRANCH  35  36
ENDBRANCH  34  35
ENDBRANCH   1  34
TORSDOF 17
ENDMDL
MODEL 2
REMARK VINA RESULT:     -12.3      3.946      8.804
REMARK SMILES O=C(CC[C@@]1(c2ccccc2)NC(=O)N(CC(=O)Nc2cccc(F)c2)C1=O)NCCCCNC(=O)c1ccc(-c2c3nc(c(-c4c(F)c(F)c(F)c(F)c4F)c4ccc([nH]4)c(-c4c(F)c(F)c(F)c(F)c4F)c4nc(c(-c5c(F)c(F)c(F)c(F)c5F)c5ccc2[nH]5)C=C4)C=C3)cc1
REMARK SMILES IDX 30 1 29 2 1 3 2 4 3 6 4 7 5 8 12 9 27 10 13 11 15 13 28 14
REMARK SMILES IDX 14 15 6 16 7 17 11 18 8 19 10 20 9 21 16 22 17 23 18 24
REMARK SMILES IDX 19 25 20 27 21 28 26 29 22 30 24 31 23 32 25 33 31 34 32 35
REMARK SMILES IDX 33 36 34 37 35 38 36 40 37 41 38 42 99 43 39 44 98 45 40 46
REMARK SMILES IDX 41 47 42 48 92 49 43 50 97 51 91 52 93 53 44 54 96 55 90 56
REMARK SMILES IDX 89 57 45 59 77 60 57 61 76 62 58 63 61 64 75 65 94 66 59 67
REMARK SMILES IDX 60 68 74 70 95 71 62 72 46 73 47 74 55 75 48 76 49 77 53 78
REMARK SMILES IDX 56 79 50 80 51 81 54 82 52 83 78 84 79 85 87 86 80 87 81 88
REMARK SMILES IDX 85 89 88 90 82 91 83 92 86 93 84 94 63 95 64 96 72 97 65 98
REMARK SMILES IDX 66 99 70 100 73 101 67 102 68 103 71 104 69 105
REMARK H PARENT 29 5 12 12 19 26 34 39 93 58 61 69
REMARK Flexibility Score: inf
ROOT
ATOM      1  C   UNL A   1      34.525  32.603  28.538  1.00  0.00     0.116 C 
ENDROOT
BRANCH   1   2
ATOM      2  N   UNL A   1      33.419  32.242  27.664  1.00  0.00    -0.356 N 
ATOM      3  O   UNL A   1      33.944  30.044  27.500  1.00  0.00    -0.275 OA
ATOM      4  C   UNL A   1      33.174  30.972  27.240  1.00  0.00     0.220 C 
ATOM      5  H   UNL A   1      32.813  32.957  27.363  1.00  0.00     0.163 HD
BRANCH   4   6
ATOM      6  C   UNL A   1      31.955  30.677  26.363  1.00  0.00     0.103 C 
BRANCH   6   7
ATOM      7  C   UNL A   1      31.531  29.341  25.725  1.00  0.00     0.053 C 
BRANCH   7   8
ATOM      8  C   UNL A   1      31.237  29.124  24.211  1.00  0.00     0.147 C 
ATOM      9  N   UNL A   1      32.401  29.494  23.410  1.00  0.00    -0.319 N 
ATOM     10  C   UNL A   1      31.359  27.586  23.993  1.00  0.00     0.261 C 
ATOM     11  C   UNL A   1      33.081  28.417  22.897  1.00  0.00     0.325 C 
ATOM     12  H   UNL A   1      32.671  30.427  23.254  1.00  0.00     0.166 HD
ATOM     13  N   UNL A   1      32.564  27.290  23.435  1.00  0.00    -0.252 N 
ATOM     14  O   UNL A   1      30.521  26.762  24.331  1.00  0.00    -0.271 OA
ATOM     15  O   UNL A   1      33.981  28.498  22.074  1.00  0.00    -0.248 OA
BRANCH   8  16
ATOM     16  C   UNL A   1      30.026  29.782  23.569  1.00  0.00    -0.013 A 
ATOM     17  C   UNL A   1      29.468  29.246  22.390  1.00  0.00     0.007 A 
ATOM     18  C   UNL A   1      29.462  30.971  24.055  1.00  0.00     0.007 A 
ATOM     19  C   UNL A   1      28.342  29.821  21.790  1.00  0.00     0.000 A 
ATOM     20  C   UNL A   1      28.313  31.523  23.485  1.00  0.00     0.000 A 
ATOM     21  C   UNL A   1      27.746  30.942  22.358  1.00  0.00     0.000 A 
ENDBRANCH   8  16
BRANCH  13  22
ATOM     22  C   UNL A   1      33.106  25.961  23.268  1.00  0.00     0.230 C 
BRANCH  22  23
ATOM     23  C   UNL A   1      32.616  25.180  22.028  1.00  0.00     0.244 C 
ATOM     24  O   UNL A   1      32.096  25.786  21.084  1.00  0.00    -0.273 OA
ATOM     25  N   UNL A   1      32.899  23.851  21.838  1.00  0.00    -0.324 N 
ATOM     26  H   UNL A   1      32.820  23.544  20.906  1.00  0.00     0.170 HD
BRANCH  25  27
ATOM     27  C   UNL A   1      33.283  22.860  22.747  1.00  0.00     0.044 A 
ATOM     28  C   UNL A   1      34.579  22.872  23.265  1.00  0.00     0.026 A 
ATOM     29  C   UNL A   1      32.447  21.802  23.069  1.00  0.00     0.065 A 
ATOM     30  C   UNL A   1      34.960  21.929  24.228  1.00  0.00     0.005 A 
ATOM     31  C   UNL A   1      32.818  20.876  24.036  1.00  0.00     0.125 A 
ATOM     32  C   UNL A   1      34.062  20.947  24.642  1.00  0.00     0.039 A 
ATOM     33  F   UNL A   1      31.958  19.910  24.383  1.00  0.00    -0.207 F 
ENDBRANCH  25  27
ENDBRANCH  22  23
ENDBRANCH  13  22
ENDBRANCH   7   8
ENDBRANCH   6   7
ENDBRANCH   4   6
ENDBRANCH   1   2
BRANCH   1  34
ATOM     34  C   UNL A   1      34.533  34.077  28.954  1.00  0.00     0.023 C 
BRANCH  34  35
ATOM     35  C   UNL A   1      33.173  34.770  29.031  1.00  0.00     0.023 C 
BRANCH  35  36
ATOM     36  C   UNL A   1      33.136  36.206  29.547  1.00  0.00     0.116 C 
BRANCH  36  37
ATOM     37  N   UNL A   1      32.393  36.346  30.784  1.00  0.00    -0.352 N 
ATOM     38  C   UNL A   1      32.611  35.829  32.036  1.00  0.00     0.251 C 
ATOM     39  H   UNL A   1      31.590  36.912  30.713  1.00  0.00     0.163 HD
ATOM     40  O   UNL A   1      31.763  36.014  32.908  1.00  0.00    -0.269 OA
BRANCH  38  41
ATOM     41  C   UNL A   1      33.817  35.025  32.373  1.00  0.00     0.039 A 
ATOM     42  C   UNL A   1      35.065  35.655  32.290  1.00  0.00     0.014 A 
ATOM     43  C   UNL A   1      33.766  33.665  32.690  1.00  0.00     0.014 A 
ATOM     44  C   UNL A   1      36.241  34.950  32.572  1.00  0.00     0.010 A 
ATOM     45  C   UNL A   1      34.937  32.975  33.037  1.00  0.00     0.010 A 
ATOM     46  C   UNL A   1      36.189  33.610  32.983  1.00  0.00    -0.014 A 
BRANCH  46  47
ATOM     47  C   UNL A   1      37.432  32.877  33.362  1.00  0.00     0.031 A 
ATOM     48  C   UNL A   1      38.136  33.165  34.660  1.00  0.00     0.074 A 
ATOM     49  C   UNL A   1      37.954  31.966  32.516  1.00  0.00     0.049 A 
ATOM     50  N   UNL A   1      39.253  32.662  35.130  1.00  0.00    -0.248 NA
ATOM     51  C   UNL A   1      37.515  34.163  35.542  1.00  0.00     0.031 C 
ATOM     52  C   UNL A   1      37.394  31.604  31.214  1.00  0.00     0.029 A 
ATOM     53  N   UNL A   1      39.080  31.184  32.620  1.00  0.00    -0.354 N 
ATOM     54  C   UNL A   1      39.469  33.286  36.353  1.00  0.00     0.074 A 
ATOM     55  C   UNL A   1      38.396  34.242  36.529  1.00  0.00     0.031 C 
ATOM     56  C   UNL A   1      38.166  30.664  30.648  1.00  0.00     0.029 A 
ATOM     57  C   UNL A   1      39.300  30.384  31.524  1.00  0.00     0.049 A 
ATOM     58  H   UNL A   1      39.675  31.195  33.405  1.00  0.00     0.167 HD
ATOM     59  C   UNL A   1      40.457  33.068  37.256  1.00  0.00     0.037 A 
ATOM     60  C   UNL A   1      40.305  29.531  31.245  1.00  0.00     0.037 A 
ATOM     61  C   UNL A   1      41.521  32.110  37.090  1.00  0.00     0.049 A 
ATOM     62  C   UNL A   1      41.409  29.332  32.249  1.00  0.00     0.074 A 
ATOM     63  C   UNL A   1      42.541  31.790  37.970  1.00  0.00     0.029 A 
ATOM     64  N   UNL A   1      41.707  31.320  35.964  1.00  0.00    -0.354 N 
ATOM     65  N   UNL A   1      41.570  29.887  33.426  1.00  0.00    -0.248 NA
ATOM     66  C   UNL A   1      42.471  28.381  31.888  1.00  0.00     0.031 C 
ATOM     67  C   UNL A   1      43.375  30.850  37.357  1.00  0.00     0.029 A 
ATOM     68  C   UNL A   1      42.840  30.534  36.118  1.00  0.00     0.049 A 
ATOM     69  H   UNL A   1      41.122  31.317  35.172  1.00  0.00     0.167 HD
ATOM     70  C   UNL A   1      42.728  29.333  33.955  1.00  0.00     0.074 A 
ATOM     71  C   UNL A   1      43.223  28.386  32.979  1.00  0.00     0.031 C 
ATOM     72  C   UNL A   1      43.326  29.589  35.145  1.00  0.00     0.037 A 
BRANCH  59  73
ATOM     73  C   UNL A   1      40.442  33.891  38.515  1.00  0.00     0.064 A 
ATOM     74  C   UNL A   1      41.167  35.088  38.621  1.00  0.00     0.173 A 
ATOM     75  C   UNL A   1      39.659  33.501  39.612  1.00  0.00     0.173 A 
ATOM     76  F   UNL A   1      41.936  35.504  37.603  1.00  0.00    -0.203 F 
ATOM     77  C   UNL A   1      41.135  35.846  39.790  1.00  0.00     0.198 A 
ATOM     78  C   UNL A   1      39.604  34.278  40.767  1.00  0.00     0.198 A 
ATOM     79  F   UNL A   1      38.937  32.372  39.563  1.00  0.00    -0.203 F 
ATOM     80  F   UNL A   1      41.878  36.957  39.886  1.00  0.00    -0.200 F 
ATOM     81  C   UNL A   1      40.349  35.444  40.859  1.00  0.00     0.200 A 
ATOM     82  F   UNL A   1      38.829  33.898  41.793  1.00  0.00    -0.200 F 
ATOM     83  F   UNL A   1      40.314  36.178  41.980  1.00  0.00    -0.200 F 
ENDBRANCH  59  73
BRANCH  60  84
ATOM     84  C   UNL A   1      40.313  28.792  29.954  1.00  0.00     0.064 A 
ATOM     85  C   UNL A   1      40.976  29.305  28.830  1.00  0.00     0.173 A 
ATOM     86  C   UNL A   1      39.650  27.563  29.816  1.00  0.00     0.173 A 
ATOM     87  F   UNL A   1      41.604  30.488  28.905  1.00  0.00    -0.203 F 
ATOM     88  C   UNL A   1      40.959  28.627  27.613  1.00  0.00     0.198 A 
ATOM     89  C   UNL A   1      39.662  26.871  28.605  1.00  0.00     0.198 A 
ATOM     90  F   UNL A   1      39.004  27.026  30.861  1.00  0.00    -0.203 F 
ATOM     91  F   UNL A   1      41.557  29.166  26.541  1.00  0.00    -0.200 F 
ATOM     92  C   UNL A   1      40.308  27.408  27.503  1.00  0.00     0.200 A 
ATOM     93  F   UNL A   1      39.045  25.686  28.509  1.00  0.00    -0.200 F 
ATOM     94  F   UNL A   1      40.295  26.755  26.333  1.00  0.00    -0.200 F 
ENDBRANCH  60  84
BRANCH  72  95
ATOM     95  C   UNL A   1      44.564  28.805  35.481  1.00  0.00     0.064 A 
ATOM     96  C   UNL A   1      44.505  27.596  36.193  1.00  0.00     0.173 A 
ATOM     97  C   UNL A   1      45.824  29.251  35.053  1.00  0.00     0.173 A 
ATOM     98  F   UNL A   1      43.328  27.132  36.638  1.00  0.00    -0.203 F 
ATOM     99  C   UNL A   1      45.663  26.880  36.486  1.00  0.00     0.198 A 
ATOM    100  C   UNL A   1      46.976  28.516  35.320  1.00  0.00     0.198 A 
ATOM    101  F   UNL A   1      45.938  30.396  34.365  1.00  0.00    -0.203 F 
ATOM    102  F   UNL A   1      45.587  25.756  37.212  1.00  0.00    -0.200 F 
ATOM    103  C   UNL A   1      46.896  27.336  36.043  1.00  0.00     0.200 A 
ATOM    104  F   UNL A   1      48.164  28.950  34.878  1.00  0.00    -0.200 F 
ATOM    105  F   UNL A   1      48.008  26.641  36.319  1.00  0.00    -0.200 F 
ENDBRANCH  72  95
ENDBRANCH  46  47
ENDBRANCH  38  41
ENDBRANCH  36  37
ENDBRANCH  35  36
ENDBRANCH  34  35
ENDBRANCH   1  34
TORSDOF 17
ENDMDL
MODEL 3
REMARK VINA RESULT:     -12.3      3.879      6.859
REMARK SMILES O=C(CC[C@@]1(c2ccccc2)NC(=O)N(CC(=O)Nc2cccc(F)c2)C1=O)NCCCCNC(=O)c1ccc(-c2c3nc(c(-c4c(F)c(F)c(F)c(F)c4F)c4ccc([nH]4)c(-c4c(F)c(F)c(F)c(F)c4F)c4nc(c(-c5c(F)c(F)c(F)c(F)c5F)c5ccc2[nH]5)C=C4)C=C3)cc1
REMARK SMILES IDX 30 1 29 2 1 3 2 4 3 6 4 7 5 8 12 9 27 10 13 11 15 13 28 14
REMARK SMILES IDX 14 15 6 16 7 17 11 18 8 19 10 20 9 21 16 22 17 23 18 24
REMARK SMILES IDX 19 25 20 27 21 28 26 29 22 30 24 31 23 32 25 33 31 34 32 35
REMARK SMILES IDX 33 36 34 37 35 38 36 40 37 41 38 42 99 43 39 44 98 45 40 46
REMARK SMILES IDX 41 47 42 48 92 49 43 50 97 51 91 52 93 53 44 54 96 55 90 56
REMARK SMILES IDX 89 57 45 59 77 60 57 61 76 62 58 63 61 64 75 65 94 66 59 67
REMARK SMILES IDX 60 68 74 70 95 71 62 72 46 73 47 74 55 75 48 76 49 77 53 78
REMARK SMILES IDX 56 79 50 80 51 81 54 82 52 83 78 84 79 85 87 86 80 87 81 88
REMARK SMILES IDX 85 89 88 90 82 91 83 92 86 93 84 94 63 95 64 96 72 97 65 98
REMARK SMILES IDX 66 99 70 100 73 101 67 102 68 103 71 104 69 105
REMARK H PARENT 29 5 12 12 19 26 34 39 93 58 61 69
REMARK Flexibility Score: inf
ROOT
ATOM      1  C   UNL A   1      40.629  22.056  26.145  1.00  0.00     0.116 C 
ENDROOT
BRANCH   1   2
ATOM      2  N   UNL A   1      39.216  21.935  25.819  1.00  0.00    -0.356 N 
ATOM      3  O   UNL A   1      38.604  23.961  26.626  1.00  0.00    -0.275 OA
ATOM      4  C   UNL A   1      38.302  22.920  26.039  1.00  0.00     0.220 C 
ATOM      5  H   UNL A   1      38.904  21.094  25.415  1.00  0.00     0.163 HD
BRANCH   4   6
ATOM      6  C   UNL A   1      36.845  22.724  25.614  1.00  0.00     0.103 C 
BRANCH   6   7
ATOM      7  C   UNL A   1      36.174  21.464  25.038  1.00  0.00     0.053 C 
BRANCH   7   8
ATOM      8  C   UNL A   1      34.698  21.037  25.294  1.00  0.00     0.147 C 
ATOM      9  N   UNL A   1      34.410  21.040  26.726  1.00  0.00    -0.319 N 
ATOM     10  C   UNL A   1      33.848  22.295  24.943  1.00  0.00     0.261 C 
ATOM     11  C   UNL A   1      33.626  22.093  27.127  1.00  0.00     0.325 C 
ATOM     12  H   UNL A   1      34.746  20.352  27.343  1.00  0.00     0.166 HD
ATOM     13  N   UNL A   1      33.483  22.941  26.084  1.00  0.00    -0.252 N 
ATOM     14  O   UNL A   1      33.599  22.680  23.810  1.00  0.00    -0.271 OA
ATOM     15  O   UNL A   1      33.134  22.202  28.241  1.00  0.00    -0.248 OA
BRANCH   8  16
ATOM     16  C   UNL A   1      34.179  19.721  24.737  1.00  0.00    -0.013 A 
ATOM     17  C   UNL A   1      35.041  18.612  24.616  1.00  0.00     0.007 A 
ATOM     18  C   UNL A   1      32.872  19.565  24.253  1.00  0.00     0.007 A 
ATOM     19  C   UNL A   1      34.584  17.384  24.125  1.00  0.00     0.000 A 
ATOM     20  C   UNL A   1      32.400  18.330  23.803  1.00  0.00     0.000 A 
ATOM     21  C   UNL A   1      33.254  17.235  23.749  1.00  0.00     0.000 A 
ENDBRANCH   8  16
BRANCH  13  22
ATOM     22  C   UNL A   1      32.859  24.243  26.147  1.00  0.00     0.230 C 
BRANCH  22  23
ATOM     23  C   UNL A   1      31.314  24.256  26.129  1.00  0.00     0.244 C 
ATOM     24  O   UNL A   1      30.689  23.191  26.207  1.00  0.00    -0.273 OA
ATOM     25  N   UNL A   1      30.588  25.416  26.219  1.00  0.00    -0.324 N 
ATOM     26  H   UNL A   1      29.655  25.294  26.509  1.00  0.00     0.170 HD
BRANCH  25  27
ATOM     27  C   UNL A   1      30.952  26.742  25.967  1.00  0.00     0.044 A 
ATOM     28  C   UNL A   1      30.828  27.252  24.674  1.00  0.00     0.026 A 
ATOM     29  C   UNL A   1      31.534  27.537  26.944  1.00  0.00     0.065 A 
ATOM     30  C   UNL A   1      31.123  28.597  24.417  1.00  0.00     0.005 A 
ATOM     31  C   UNL A   1      31.810  28.876  26.693  1.00  0.00     0.125 A 
ATOM     32  C   UNL A   1      31.583  29.423  25.441  1.00  0.00     0.039 A 
ATOM     33  F   UNL A   1      32.300  29.638  27.680  1.00  0.00    -0.207 F 
ENDBRANCH  25  27
ENDBRANCH  22  23
ENDBRANCH  13  22
ENDBRANCH   7   8
ENDBRANCH   6   7
ENDBRANCH   4   6
ENDBRANCH   1   2
BRANCH   1  34
ATOM     34  C   UNL A   1      41.202  20.845  26.888  1.00  0.00     0.023 C 
BRANCH  34  35
ATOM     35  C   UNL A   1      41.448  19.589  26.052  1.00  0.00     0.023 C 
BRANCH  35  36
ATOM     36  C   UNL A   1      42.679  18.749  26.381  1.00  0.00     0.116 C 
BRANCH  36  37
ATOM     37  N   UNL A   1      43.567  18.574  25.248  1.00  0.00    -0.352 N 
ATOM     38  C   UNL A   1      44.343  19.472  24.558  1.00  0.00     0.251 C 
ATOM     39  H   UNL A   1      43.624  17.649  24.916  1.00  0.00     0.163 HD
ATOM     40  O   UNL A   1      44.937  19.088  23.551  1.00  0.00    -0.269 OA
BRANCH  38  41
ATOM     41  C   UNL A   1      44.467  20.899  24.959  1.00  0.00     0.039 A 
ATOM     42  C   UNL A   1      45.143  21.185  26.152  1.00  0.00     0.014 A 
ATOM     43  C   UNL A   1      43.879  21.948  24.246  1.00  0.00     0.014 A 
ATOM     44  C   UNL A   1      45.276  22.506  26.598  1.00  0.00     0.010 A 
ATOM     45  C   UNL A   1      44.069  23.275  24.657  1.00  0.00     0.010 A 
ATOM     46  C   UNL A   1      44.771  23.571  25.838  1.00  0.00    -0.014 A 
BRANCH  46  47
ATOM     47  C   UNL A   1      44.980  24.984  26.267  1.00  0.00     0.031 A 
ATOM     48  C   UNL A   1      46.336  25.629  26.177  1.00  0.00     0.074 A 
ATOM     49  C   UNL A   1      43.948  25.686  26.778  1.00  0.00     0.049 A 
ATOM     50  N   UNL A   1      46.713  26.829  26.549  1.00  0.00    -0.248 NA
ATOM     51  C   UNL A   1      47.418  24.815  25.606  1.00  0.00     0.031 C 
ATOM     52  C   UNL A   1      42.585  25.181  26.949  1.00  0.00     0.029 A 
ATOM     53  N   UNL A   1      43.885  26.974  27.255  1.00  0.00    -0.354 N 
ATOM     54  C   UNL A   1      48.071  26.909  26.267  1.00  0.00     0.074 A 
ATOM     55  C   UNL A   1      48.464  25.618  25.739  1.00  0.00     0.031 C 
ATOM     56  C   UNL A   1      41.820  26.148  27.477  1.00  0.00     0.029 A 
ATOM     57  C   UNL A   1      42.642  27.330  27.723  1.00  0.00     0.049 A 
ATOM     58  H   UNL A   1      44.657  27.585  27.262  1.00  0.00     0.167 HD
ATOM     59  C   UNL A   1      48.909  27.964  26.413  1.00  0.00     0.037 A 
ATOM     60  C   UNL A   1      42.212  28.470  28.297  1.00  0.00     0.037 A 
ATOM     61  C   UNL A   1      48.520  29.253  26.927  1.00  0.00     0.049 A 
ATOM     62  C   UNL A   1      43.171  29.617  28.479  1.00  0.00     0.074 A 
ATOM     63  C   UNL A   1      49.292  30.395  27.071  1.00  0.00     0.029 A 
ATOM     64  N   UNL A   1      47.252  29.572  27.391  1.00  0.00    -0.354 N 
ATOM     65  N   UNL A   1      44.438  29.697  28.155  1.00  0.00    -0.248 NA
ATOM     66  C   UNL A   1      42.636  30.836  29.103  1.00  0.00     0.031 C 
ATOM     67  C   UNL A   1      48.507  31.385  27.671  1.00  0.00     0.029 A 
ATOM     68  C   UNL A   1      47.227  30.883  27.844  1.00  0.00     0.049 A 
ATOM     69  H   UNL A   1      46.482  28.958  27.397  1.00  0.00     0.167 HD
ATOM     70  C   UNL A   1      44.843  30.977  28.506  1.00  0.00     0.074 A 
ATOM     71  C   UNL A   1      43.683  31.647  29.055  1.00  0.00     0.031 C 
ATOM     72  C   UNL A   1      46.068  31.546  28.384  1.00  0.00     0.037 A 
BRANCH  59  73
ATOM     73  C   UNL A   1      50.347  27.771  26.014  1.00  0.00     0.064 A 
ATOM     74  C   UNL A   1      51.344  27.501  26.964  1.00  0.00     0.173 A 
ATOM     75  C   UNL A   1      50.725  27.812  24.664  1.00  0.00     0.173 A 
ATOM     76  F   UNL A   1      51.039  27.455  28.270  1.00  0.00    -0.203 F 
ATOM     77  C   UNL A   1      52.670  27.313  26.580  1.00  0.00     0.198 A 
ATOM     78  C   UNL A   1      52.046  27.591  24.281  1.00  0.00     0.198 A 
ATOM     79  F   UNL A   1      49.812  28.055  23.712  1.00  0.00    -0.203 F 
ATOM     80  F   UNL A   1      53.613  27.109  27.511  1.00  0.00    -0.200 F 
ATOM     81  C   UNL A   1      53.019  27.351  25.239  1.00  0.00     0.200 A 
ATOM     82  F   UNL A   1      52.378  27.610  22.982  1.00  0.00    -0.200 F 
ATOM     83  F   UNL A   1      54.294  27.163  24.870  1.00  0.00    -0.200 F 
ENDBRANCH  59  73
BRANCH  60  84
ATOM     84  C   UNL A   1      40.797  28.589  28.739  1.00  0.00     0.064 A 
ATOM     85  C   UNL A   1      40.418  28.266  30.050  1.00  0.00     0.173 A 
ATOM     86  C   UNL A   1      39.793  29.018  27.858  1.00  0.00     0.173 A 
ATOM     87  F   UNL A   1      41.337  27.828  30.923  1.00  0.00    -0.203 F 
ATOM     88  C   UNL A   1      39.088  28.349  30.457  1.00  0.00     0.198 A 
ATOM     89  C   UNL A   1      38.468  29.131  28.276  1.00  0.00     0.198 A 
ATOM     90  F   UNL A   1      40.101  29.343  26.594  1.00  0.00    -0.203 F 
ATOM     91  F   UNL A   1      38.747  27.985  31.700  1.00  0.00    -0.200 F 
ATOM     92  C   UNL A   1      38.115  28.788  29.571  1.00  0.00     0.200 A 
ATOM     93  F   UNL A   1      37.534  29.571  27.422  1.00  0.00    -0.200 F 
ATOM     94  F   UNL A   1      36.837  28.871  29.964  1.00  0.00    -0.200 F 
ENDBRANCH  60  84
BRANCH  72  95
ATOM     95  C   UNL A   1      46.213  32.979  28.815  1.00  0.00     0.064 A 
ATOM     96  C   UNL A   1      45.978  34.045  27.932  1.00  0.00     0.173 A 
ATOM     97  C   UNL A   1      46.557  33.291  30.140  1.00  0.00     0.173 A 
ATOM     98  F   UNL A   1      45.660  33.804  26.652  1.00  0.00    -0.203 F 
ATOM     99  C   UNL A   1      46.108  35.366  28.354  1.00  0.00     0.198 A 
ATOM    100  C   UNL A   1      46.656  34.613  30.565  1.00  0.00     0.198 A 
ATOM    101  F   UNL A   1      46.788  32.311  31.026  1.00  0.00    -0.203 F 
ATOM    102  F   UNL A   1      45.929  36.367  27.480  1.00  0.00    -0.200 F 
ATOM    103  C   UNL A   1      46.439  35.649  29.671  1.00  0.00     0.200 A 
ATOM    104  F   UNL A   1      46.960  34.883  31.842  1.00  0.00    -0.200 F 
ATOM    105  F   UNL A   1      46.556  36.921  30.076  1.00  0.00    -0.200 F 
ENDBRANCH  72  95
ENDBRANCH  46  47
ENDBRANCH  38  41
ENDBRANCH  36  37
ENDBRANCH  35  36
ENDBRANCH  34  35
ENDBRANCH   1  34
TORSDOF 17
ENDMDL
