MODEL 1
REMARK VINA RESULT:     -12.5      0.000      0.000
REMARK SMILES Cc1ccccc1O[C@@H](C)C(=O)Oc1ccccc1C(=O)NCCCCNC(=O)c1ccc(-c2c3nc(c(-c4c(F)c(F)c(F)c(F)c4F)c4ccc([nH]4)c(-c4c(F)c(F)c(F)c(F)c4F)c4nc(c(-c5c(F)c(F)c(F)c(F)c5F)c5ccc2[nH]5)C=C4)C=C3)cc1
REMARK SMILES IDX 23 1 22 2 20 3 21 4 19 6 14 7 15 8 16 9 18 10 17 11 13 12
REMARK SMILES IDX 11 13 12 14 9 15 10 16 8 17 7 18 1 19 2 20 3 21 4 22 6 23
REMARK SMILES IDX 5 24 24 25 25 26 26 27 27 28 28 29 29 31 30 32 31 33 92 34
REMARK SMILES IDX 32 35 91 36 33 37 34 38 35 39 85 40 36 41 90 42 84 43 86 44
REMARK SMILES IDX 37 45 89 46 83 47 82 48 38 50 70 51 50 52 69 53 51 54 54 55
REMARK SMILES IDX 68 56 87 57 52 58 53 59 67 61 88 62 55 63 39 64 40 65 48 66
REMARK SMILES IDX 41 67 42 68 46 69 49 70 43 71 44 72 47 73 45 74 71 75 72 76
REMARK SMILES IDX 80 77 73 78 74 79 78 80 81 81 75 82 76 83 79 84 77 85 56 86
REMARK SMILES IDX 57 87 65 88 58 89 59 90 63 91 66 92 60 93 61 94 64 95 62 96
REMARK H PARENT 22 5 27 30 86 49 54 60
REMARK Flexibility Score: inf
ROOT
ATOM      1  C   UNL A   1      36.334  23.322  24.427  1.00  0.00     0.116 C 
ENDROOT
BRANCH   1   2
ATOM      2  N   UNL A   1      35.416  23.739  25.481  1.00  0.00    -0.352 N 
ATOM      3  C   UNL A   1      34.135  24.256  25.450  1.00  0.00     0.255 C 
ATOM      4  O   UNL A   1      33.517  24.377  26.508  1.00  0.00    -0.269 OA
ATOM      5  H   UNL A   1      35.778  23.630  26.390  1.00  0.00     0.163 HD
BRANCH   3   6
ATOM      6  C   UNL A   1      33.475  24.647  24.180  1.00  0.00     0.082 A 
ATOM      7  C   UNL A   1      33.652  25.902  23.578  1.00  0.00     0.143 A 
ATOM      8  C   UNL A   1      32.985  26.235  22.390  1.00  0.00     0.048 A 
ATOM      9  C   UNL A   1      32.109  25.329  21.803  1.00  0.00     0.004 A 
ATOM     10  C   UNL A   1      32.511  23.792  23.624  1.00  0.00     0.018 A 
ATOM     11  C   UNL A   1      31.853  24.115  22.433  1.00  0.00     0.001 A 
BRANCH   7  12
ATOM     12  O   UNL A   1      34.253  27.034  24.189  1.00  0.00    -0.423 OA
BRANCH  12  13
ATOM     13  C   UNL A   1      34.054  28.372  23.894  1.00  0.00     0.352 C 
ATOM     14  O   UNL A   1      34.359  28.907  22.833  1.00  0.00    -0.247 OA
BRANCH  13  15
ATOM     15  C   UNL A   1      33.357  29.092  25.083  1.00  0.00     0.280 C 
ATOM     16  C   UNL A   1      34.172  29.037  26.378  1.00  0.00     0.066 C 
BRANCH  15  17
ATOM     17  O   UNL A   1      31.978  29.065  25.410  1.00  0.00    -0.479 OA
BRANCH  17  18
ATOM     18  C   UNL A   1      31.045  28.188  24.954  1.00  0.00     0.123 A 
ATOM     19  C   UNL A   1      30.326  29.234  22.688  1.00  0.00     0.048 C 
ATOM     20  C   UNL A   1      30.275  28.206  23.783  1.00  0.00    -0.009 A 
ATOM     21  C   UNL A   1      29.426  27.104  23.518  1.00  0.00     0.007 A 
ATOM     22  C   UNL A   1      29.351  26.004  24.371  1.00  0.00     0.001 A 
ATOM     23  C   UNL A   1      30.970  27.057  25.793  1.00  0.00     0.047 A 
ATOM     24  C   UNL A   1      30.135  25.976  25.512  1.00  0.00     0.004 A 
ENDBRANCH  17  18
ENDBRANCH  15  17
ENDBRANCH  13  15
ENDBRANCH  12  13
ENDBRANCH   7  12
ENDBRANCH   3   6
ENDBRANCH   1   2
BRANCH   1  25
ATOM     25  C   UNL A   1      36.738  21.847  24.444  1.00  0.00     0.023 C 
BRANCH  25  26
ATOM     26  C   UNL A   1      38.102  21.514  25.043  1.00  0.00     0.023 C 
BRANCH  26  27
ATOM     27  C   UNL A   1      38.607  22.453  26.131  1.00  0.00     0.116 C 
BRANCH  27  28
ATOM     28  N   UNL A   1      40.054  22.536  26.284  1.00  0.00    -0.352 N 
ATOM     29  C   UNL A   1      40.861  23.652  26.483  1.00  0.00     0.251 C 
ATOM     30  H   UNL A   1      40.531  21.676  26.240  1.00  0.00     0.163 HD
ATOM     31  O   UNL A   1      42.073  23.525  26.515  1.00  0.00    -0.269 OA
BRANCH  29  32
ATOM     32  C   UNL A   1      40.250  24.974  26.799  1.00  0.00     0.039 A 
ATOM     33  C   UNL A   1      40.699  26.099  26.089  1.00  0.00     0.014 A 
ATOM     34  C   UNL A   1      39.406  25.149  27.889  1.00  0.00     0.014 A 
ATOM     35  C   UNL A   1      40.535  27.371  26.637  1.00  0.00     0.010 A 
ATOM     36  C   UNL A   1      39.340  26.388  28.493  1.00  0.00     0.010 A 
ATOM     37  C   UNL A   1      39.976  27.485  27.906  1.00  0.00    -0.014 A 
BRANCH  37  38
ATOM     38  C   UNL A   1      40.153  28.641  28.777  1.00  0.00     0.031 A 
ATOM     39  C   UNL A   1      39.126  29.698  28.871  1.00  0.00     0.074 A 
ATOM     40  C   UNL A   1      41.191  28.642  29.646  1.00  0.00     0.049 A 
ATOM     41  N   UNL A   1      39.337  30.832  29.449  1.00  0.00    -0.248 NA
ATOM     42  C   UNL A   1      37.798  29.608  28.270  1.00  0.00     0.031 C 
ATOM     43  C   UNL A   1      41.336  29.451  30.855  1.00  0.00     0.029 A 
ATOM     44  N   UNL A   1      42.444  28.018  29.502  1.00  0.00    -0.354 N 
ATOM     45  C   UNL A   1      38.129  31.464  29.585  1.00  0.00     0.074 A 
ATOM     46  C   UNL A   1      37.242  30.747  28.703  1.00  0.00     0.031 C 
ATOM     47  C   UNL A   1      42.636  29.528  31.175  1.00  0.00     0.029 A 
ATOM     48  C   UNL A   1      43.377  28.907  30.096  1.00  0.00     0.049 A 
ATOM     49  H   UNL A   1      42.632  27.149  29.078  1.00  0.00     0.167 HD
ATOM     50  C   UNL A   1      38.006  32.436  30.532  1.00  0.00     0.037 A 
ATOM     51  C   UNL A   1      44.343  29.522  29.350  1.00  0.00     0.037 A 
ATOM     52  C   UNL A   1      39.310  32.835  31.067  1.00  0.00     0.049 A 
ATOM     53  C   UNL A   1      44.289  31.036  29.350  1.00  0.00     0.074 A 
ATOM     54  C   UNL A   1      39.956  32.732  32.286  1.00  0.00     0.029 A 
ATOM     55  N   UNL A   1      40.253  33.313  30.175  1.00  0.00    -0.354 N 
ATOM     56  N   UNL A   1      43.375  31.739  29.957  1.00  0.00    -0.248 NA
ATOM     57  C   UNL A   1      45.200  31.875  28.567  1.00  0.00     0.031 C 
ATOM     58  C   UNL A   1      41.311  33.150  32.100  1.00  0.00     0.029 A 
ATOM     59  C   UNL A   1      41.471  33.528  30.780  1.00  0.00     0.049 A 
ATOM     60  H   UNL A   1      40.075  33.479  29.222  1.00  0.00     0.167 HD
ATOM     61  C   UNL A   1      43.490  33.053  29.587  1.00  0.00     0.074 A 
ATOM     62  C   UNL A   1      44.659  33.095  28.731  1.00  0.00     0.031 C 
ATOM     63  C   UNL A   1      42.576  33.995  29.958  1.00  0.00     0.037 A 
BRANCH  50  64
ATOM     64  C   UNL A   1      36.709  32.978  31.091  1.00  0.00     0.064 A 
ATOM     65  C   UNL A   1      35.912  33.843  30.306  1.00  0.00     0.173 A 
ATOM     66  C   UNL A   1      36.254  32.796  32.413  1.00  0.00     0.173 A 
ATOM     67  F   UNL A   1      36.218  34.101  29.026  1.00  0.00    -0.203 F 
ATOM     68  C   UNL A   1      34.779  34.488  30.812  1.00  0.00     0.198 A 
ATOM     69  C   UNL A   1      35.087  33.394  32.898  1.00  0.00     0.198 A 
ATOM     70  F   UNL A   1      36.941  32.088  33.314  1.00  0.00    -0.203 F 
ATOM     71  F   UNL A   1      34.105  35.351  30.039  1.00  0.00    -0.200 F 
ATOM     72  C   UNL A   1      34.360  34.256  32.104  1.00  0.00     0.200 A 
ATOM     73  F   UNL A   1      34.693  33.151  34.157  1.00  0.00    -0.200 F 
ATOM     74  F   UNL A   1      33.275  34.872  32.591  1.00  0.00    -0.200 F 
ENDBRANCH  50  64
BRANCH  51  75
ATOM     75  C   UNL A   1      44.786  28.688  28.203  1.00  0.00     0.064 A 
ATOM     76  C   UNL A   1      45.620  27.583  28.463  1.00  0.00     0.173 A 
ATOM     77  C   UNL A   1      44.103  28.715  26.982  1.00  0.00     0.173 A 
ATOM     78  F   UNL A   1      46.290  27.506  29.624  1.00  0.00    -0.203 F 
ATOM     79  C   UNL A   1      45.667  26.495  27.594  1.00  0.00     0.198 A 
ATOM     80  C   UNL A   1      44.167  27.630  26.107  1.00  0.00     0.198 A 
ATOM     81  F   UNL A   1      43.275  29.729  26.689  1.00  0.00    -0.203 F 
ATOM     82  F   UNL A   1      46.373  25.405  27.928  1.00  0.00    -0.200 F 
ATOM     83  C   UNL A   1      44.918  26.508  26.431  1.00  0.00     0.200 A 
ATOM     84  F   UNL A   1      43.418  27.629  24.995  1.00  0.00    -0.200 F 
ATOM     85  F   UNL A   1      44.881  25.425  25.643  1.00  0.00    -0.200 F 
ENDBRANCH  51  75
BRANCH  63  86
ATOM     86  C   UNL A   1      42.628  35.436  29.537  1.00  0.00     0.064 A 
ATOM     87  C   UNL A   1      42.047  35.896  28.346  1.00  0.00     0.173 A 
ATOM     88  C   UNL A   1      43.376  36.386  30.269  1.00  0.00     0.173 A 
ATOM     89  F   UNL A   1      41.353  35.064  27.556  1.00  0.00    -0.203 F 
ATOM     90  C   UNL A   1      42.187  37.224  27.928  1.00  0.00     0.198 A 
ATOM     91  C   UNL A   1      43.559  37.693  29.823  1.00  0.00     0.198 A 
ATOM     92  F   UNL A   1      43.927  36.081  31.453  1.00  0.00    -0.203 F 
ATOM     93  F   UNL A   1      41.578  37.635  26.807  1.00  0.00    -0.200 F 
ATOM     94  C   UNL A   1      42.956  38.115  28.657  1.00  0.00     0.200 A 
ATOM     95  F   UNL A   1      44.317  38.539  30.535  1.00  0.00    -0.200 F 
ATOM     96  F   UNL A   1      43.110  39.379  28.239  1.00  0.00    -0.200 F 
ENDBRANCH  63  86
ENDBRANCH  37  38
ENDBRANCH  29  32
ENDBRANCH  27  28
ENDBRANCH  26  27
ENDBRANCH  25  26
ENDBRANCH   1  25
TORSDOF 16
ENDMDL
MODEL 2
REMARK VINA RESULT:     -12.3      3.445      9.789
REMARK SMILES Cc1ccccc1O[C@@H](C)C(=O)Oc1ccccc1C(=O)NCCCCNC(=O)c1ccc(-c2c3nc(c(-c4c(F)c(F)c(F)c(F)c4F)c4ccc([nH]4)c(-c4c(F)c(F)c(F)c(F)c4F)c4nc(c(-c5c(F)c(F)c(F)c(F)c5F)c5ccc2[nH]5)C=C4)C=C3)cc1
REMARK SMILES IDX 23 1 22 2 20 3 21 4 19 6 14 7 15 8 16 9 18 10 17 11 13 12
REMARK SMILES IDX 11 13 12 14 9 15 10 16 8 17 7 18 1 19 2 20 3 21 4 22 6 23
REMARK SMILES IDX 5 24 24 25 25 26 26 27 27 28 28 29 29 31 30 32 31 33 92 34
REMARK SMILES IDX 32 35 91 36 33 37 34 38 35 39 85 40 36 41 90 42 84 43 86 44
REMARK SMILES IDX 37 45 89 46 83 47 82 48 38 50 70 51 50 52 69 53 51 54 54 55
REMARK SMILES IDX 68 56 87 57 52 58 53 59 67 61 88 62 55 63 39 64 40 65 48 66
REMARK SMILES IDX 41 67 42 68 46 69 49 70 43 71 44 72 47 73 45 74 71 75 72 76
REMARK SMILES IDX 80 77 73 78 74 79 78 80 81 81 75 82 76 83 79 84 77 85 56 86
REMARK SMILES IDX 57 87 65 88 58 89 59 90 63 91 66 92 60 93 61 94 64 95 62 96
REMARK H PARENT 22 5 27 30 86 49 54 60
REMARK Flexibility Score: inf
ROOT
ATOM      1  C   UNL A   1      33.211  27.283  25.644  1.00  0.00     0.116 C 
ENDROOT
BRANCH   1   2
ATOM      2  N   UNL A   1      33.414  26.953  24.237  1.00  0.00    -0.352 N 
ATOM      3  C   UNL A   1      32.574  26.989  23.140  1.00  0.00     0.255 C 
ATOM      4  O   UNL A   1      33.051  26.805  22.021  1.00  0.00    -0.269 OA
ATOM      5  H   UNL A   1      34.327  26.647  24.028  1.00  0.00     0.163 HD
BRANCH   3   6
ATOM      6  C   UNL A   1      31.122  27.265  23.271  1.00  0.00     0.082 A 
ATOM      7  C   UNL A   1      30.203  26.323  23.758  1.00  0.00     0.143 A 
ATOM      8  C   UNL A   1      28.836  26.622  23.838  1.00  0.00     0.048 A 
ATOM      9  C   UNL A   1      28.363  27.856  23.404  1.00  0.00     0.004 A 
ATOM     10  C   UNL A   1      30.608  28.460  22.747  1.00  0.00     0.018 A 
ATOM     11  C   UNL A   1      29.247  28.767  22.835  1.00  0.00     0.001 A 
BRANCH   7  12
ATOM     12  O   UNL A   1      30.460  24.941  23.952  1.00  0.00    -0.423 OA
BRANCH  12  13
ATOM     13  C   UNL A   1      31.036  24.322  25.048  1.00  0.00     0.352 C 
ATOM     14  O   UNL A   1      30.620  24.409  26.198  1.00  0.00    -0.247 OA
BRANCH  13  15
ATOM     15  C   UNL A   1      32.262  23.472  24.608  1.00  0.00     0.280 C 
ATOM     16  C   UNL A   1      32.080  22.824  23.233  1.00  0.00     0.066 C 
BRANCH  15  17
ATOM     17  O   UNL A   1      33.041  22.610  25.421  1.00  0.00    -0.479 OA
BRANCH  17  18
ATOM     18  C   UNL A   1      34.398  22.545  25.480  1.00  0.00     0.123 A 
ATOM     19  C   UNL A   1      34.884  20.062  24.894  1.00  0.00     0.048 C 
ATOM     20  C   UNL A   1      35.266  21.464  25.276  1.00  0.00    -0.009 A 
ATOM     21  C   UNL A   1      36.661  21.704  25.323  1.00  0.00     0.007 A 
ATOM     22  C   UNL A   1      37.188  22.975  25.544  1.00  0.00     0.001 A 
ATOM     23  C   UNL A   1      34.951  23.826  25.681  1.00  0.00     0.047 A 
ATOM     24  C   UNL A   1      36.327  24.045  25.715  1.00  0.00     0.004 A 
ENDBRANCH  17  18
ENDBRANCH  15  17
ENDBRANCH  13  15
ENDBRANCH  12  13
ENDBRANCH   7  12
ENDBRANCH   3   6
ENDBRANCH   1   2
BRANCH   1  25
ATOM     25  C   UNL A   1      34.201  28.284  26.240  1.00  0.00     0.023 C 
BRANCH  25  26
ATOM     26  C   UNL A   1      33.696  29.709  26.452  1.00  0.00     0.023 C 
BRANCH  26  27
ATOM     27  C   UNL A   1      33.518  30.151  27.900  1.00  0.00     0.116 C 
BRANCH  27  28
ATOM     28  N   UNL A   1      34.339  31.274  28.332  1.00  0.00    -0.352 N 
ATOM     29  C   UNL A   1      35.638  31.283  28.828  1.00  0.00     0.251 C 
ATOM     30  H   UNL A   1      33.910  32.158  28.263  1.00  0.00     0.163 HD
ATOM     31  O   UNL A   1      36.135  32.329  29.210  1.00  0.00    -0.269 OA
BRANCH  29  32
ATOM     32  C   UNL A   1      36.475  30.051  28.764  1.00  0.00     0.039 A 
ATOM     33  C   UNL A   1      36.724  29.355  29.957  1.00  0.00     0.014 A 
ATOM     34  C   UNL A   1      37.161  29.692  27.610  1.00  0.00     0.014 A 
ATOM     35  C   UNL A   1      37.836  28.519  30.049  1.00  0.00     0.010 A 
ATOM     36  C   UNL A   1      38.324  28.959  27.723  1.00  0.00     0.010 A 
ATOM     37  C   UNL A   1      38.704  28.440  28.964  1.00  0.00    -0.014 A 
BRANCH  37  38
ATOM     38  C   UNL A   1      40.091  28.001  29.057  1.00  0.00     0.031 A 
ATOM     39  C   UNL A   1      40.506  26.658  28.604  1.00  0.00     0.074 A 
ATOM     40  C   UNL A   1      41.036  28.912  29.391  1.00  0.00     0.049 A 
ATOM     41  N   UNL A   1      41.664  26.154  28.871  1.00  0.00    -0.248 NA
ATOM     42  C   UNL A   1      39.641  25.735  27.874  1.00  0.00     0.031 C 
ATOM     43  C   UNL A   1      42.476  28.826  29.153  1.00  0.00     0.029 A 
ATOM     44  N   UNL A   1      40.892  30.054  30.200  1.00  0.00    -0.354 N 
ATOM     45  C   UNL A   1      41.816  25.029  28.102  1.00  0.00     0.074 A 
ATOM     46  C   UNL A   1      40.488  24.726  27.631  1.00  0.00     0.031 C 
ATOM     47  C   UNL A   1      43.108  29.644  30.007  1.00  0.00     0.029 A 
ATOM     48  C   UNL A   1      42.109  30.158  30.921  1.00  0.00     0.049 A 
ATOM     49  H   UNL A   1      40.112  30.653  30.254  1.00  0.00     0.167 HD
ATOM     50  C   UNL A   1      43.078  24.575  27.859  1.00  0.00     0.037 A 
ATOM     51  C   UNL A   1      42.141  30.017  32.280  1.00  0.00     0.037 A 
ATOM     52  C   UNL A   1      44.064  25.235  28.718  1.00  0.00     0.049 A 
ATOM     53  C   UNL A   1      43.002  28.878  32.789  1.00  0.00     0.074 A 
ATOM     54  C   UNL A   1      45.116  26.113  28.528  1.00  0.00     0.029 A 
ATOM     55  N   UNL A   1      43.898  25.130  30.087  1.00  0.00    -0.354 N 
ATOM     56  N   UNL A   1      43.638  28.038  32.022  1.00  0.00    -0.248 NA
ATOM     57  C   UNL A   1      43.121  28.529  34.207  1.00  0.00     0.031 C 
ATOM     58  C   UNL A   1      45.569  26.539  29.816  1.00  0.00     0.029 A 
ATOM     59  C   UNL A   1      44.808  25.898  30.777  1.00  0.00     0.049 A 
ATOM     60  H   UNL A   1      43.210  24.573  30.517  1.00  0.00     0.167 HD
ATOM     61  C   UNL A   1      44.141  27.016  32.784  1.00  0.00     0.074 A 
ATOM     62  C   UNL A   1      43.810  27.376  34.149  1.00  0.00     0.031 C 
ATOM     63  C   UNL A   1      44.733  25.920  32.228  1.00  0.00     0.037 A 
BRANCH  50  64
ATOM     64  C   UNL A   1      43.483  23.612  26.766  1.00  0.00     0.064 A 
ATOM     65  C   UNL A   1      43.137  22.244  26.869  1.00  0.00     0.173 A 
ATOM     66  C   UNL A   1      44.307  23.928  25.666  1.00  0.00     0.173 A 
ATOM     67  F   UNL A   1      42.349  21.800  27.859  1.00  0.00    -0.203 F 
ATOM     68  C   UNL A   1      43.600  21.280  25.968  1.00  0.00     0.198 A 
ATOM     69  C   UNL A   1      44.720  22.972  24.732  1.00  0.00     0.198 A 
ATOM     70  F   UNL A   1      44.805  25.153  25.476  1.00  0.00    -0.203 F 
ATOM     71  F   UNL A   1      43.293  19.990  26.160  1.00  0.00    -0.200 F 
ATOM     72  C   UNL A   1      44.383  21.645  24.894  1.00  0.00     0.200 A 
ATOM     73  F   UNL A   1      45.476  23.349  23.691  1.00  0.00    -0.200 F 
ATOM     74  F   UNL A   1      44.827  20.724  24.029  1.00  0.00    -0.200 F 
ENDBRANCH  50  64
BRANCH  51  75
ATOM     75  C   UNL A   1      40.889  30.488  32.926  1.00  0.00     0.064 A 
ATOM     76  C   UNL A   1      40.657  31.876  33.000  1.00  0.00     0.173 A 
ATOM     77  C   UNL A   1      39.792  29.635  33.087  1.00  0.00     0.173 A 
ATOM     78  F   UNL A   1      41.676  32.737  32.843  1.00  0.00    -0.203 F 
ATOM     79  C   UNL A   1      39.365  32.386  33.102  1.00  0.00     0.198 A 
ATOM     80  C   UNL A   1      38.501  30.152  33.206  1.00  0.00     0.198 A 
ATOM     81  F   UNL A   1      39.947  28.306  33.002  1.00  0.00    -0.203 F 
ATOM     82  F   UNL A   1      39.164  33.711  33.044  1.00  0.00    -0.200 F 
ATOM     83  C   UNL A   1      38.286  31.523  33.175  1.00  0.00     0.200 A 
ATOM     84  F   UNL A   1      37.453  29.316  33.247  1.00  0.00    -0.200 F 
ATOM     85  F   UNL A   1      37.036  32.007  33.171  1.00  0.00    -0.200 F 
ENDBRANCH  51  75
BRANCH  63  86
ATOM     86  C   UNL A   1      45.254  24.751  33.015  1.00  0.00     0.064 A 
ATOM     87  C   UNL A   1      44.452  23.651  33.352  1.00  0.00     0.173 A 
ATOM     88  C   UNL A   1      46.557  24.759  33.562  1.00  0.00     0.173 A 
ATOM     89  F   UNL A   1      43.185  23.569  32.921  1.00  0.00    -0.203 F 
ATOM     90  C   UNL A   1      44.930  22.617  34.163  1.00  0.00     0.198 A 
ATOM     91  C   UNL A   1      47.013  23.754  34.413  1.00  0.00     0.198 A 
ATOM     92  F   UNL A   1      47.436  25.726  33.262  1.00  0.00    -0.203 F 
ATOM     93  F   UNL A   1      44.148  21.561  34.424  1.00  0.00    -0.200 F 
ATOM     94  C   UNL A   1      46.203  22.678  34.706  1.00  0.00     0.200 A 
ATOM     95  F   UNL A   1      48.243  23.837  34.940  1.00  0.00    -0.200 F 
ATOM     96  F   UNL A   1      46.648  21.699  35.505  1.00  0.00    -0.200 F 
ENDBRANCH  63  86
ENDBRANCH  37  38
ENDBRANCH  29  32
ENDBRANCH  27  28
ENDBRANCH  26  27
ENDBRANCH  25  26
ENDBRANCH   1  25
TORSDOF 16
ENDMDL
MODEL 3
REMARK VINA RESULT:     -12.3      3.239      9.326
REMARK SMILES Cc1ccccc1O[C@@H](C)C(=O)Oc1ccccc1C(=O)NCCCCNC(=O)c1ccc(-c2c3nc(c(-c4c(F)c(F)c(F)c(F)c4F)c4ccc([nH]4)c(-c4c(F)c(F)c(F)c(F)c4F)c4nc(c(-c5c(F)c(F)c(F)c(F)c5F)c5ccc2[nH]5)C=C4)C=C3)cc1
REMARK SMILES IDX 23 1 22 2 20 3 21 4 19 6 14 7 15 8 16 9 18 10 17 11 13 12
REMARK SMILES IDX 11 13 12 14 9 15 10 16 8 17 7 18 1 19 2 20 3 21 4 22 6 23
REMARK SMILES IDX 5 24 24 25 25 26 26 27 27 28 28 29 29 31 30 32 31 33 92 34
REMARK SMILES IDX 32 35 91 36 33 37 34 38 35 39 85 40 36 41 90 42 84 43 86 44
REMARK SMILES IDX 37 45 89 46 83 47 82 48 38 50 70 51 50 52 69 53 51 54 54 55
REMARK SMILES IDX 68 56 87 57 52 58 53 59 67 61 88 62 55 63 39 64 40 65 48 66
REMARK SMILES IDX 41 67 42 68 46 69 49 70 43 71 44 72 47 73 45 74 71 75 72 76
REMARK SMILES IDX 80 77 73 78 74 79 78 80 81 81 75 82 76 83 79 84 77 85 56 86
REMARK SMILES IDX 57 87 65 88 58 89 59 90 63 91 66 92 60 93 61 94 64 95 62 96
REMARK H PARENT 22 5 27 30 86 49 54 60
REMARK Flexibility Score: inf
ROOT
ATOM      1  C   UNL A   1      32.593  27.091  26.759  1.00  0.00     0.116 C 
ENDROOT
BRANCH   1   2
ATOM      2  N   UNL A   1      31.460  26.191  26.577  1.00  0.00    -0.352 N 
ATOM      3  C   UNL A   1      31.360  24.813  26.537  1.00  0.00     0.255 C 
ATOM      4  O   UNL A   1      30.242  24.299  26.527  1.00  0.00    -0.269 OA
ATOM      5  H   UNL A   1      30.598  26.655  26.461  1.00  0.00     0.163 HD
BRANCH   3   6
ATOM      6  C   UNL A   1      32.558  23.938  26.528  1.00  0.00     0.082 A 
ATOM      7  C   UNL A   1      33.531  23.980  25.519  1.00  0.00     0.143 A 
ATOM      8  C   UNL A   1      34.634  23.114  25.541  1.00  0.00     0.048 A 
ATOM      9  C   UNL A   1      34.763  22.173  26.557  1.00  0.00     0.004 A 
ATOM     10  C   UNL A   1      32.659  22.916  27.483  1.00  0.00     0.018 A 
ATOM     11  C   UNL A   1      33.763  22.057  27.516  1.00  0.00     0.001 A 
BRANCH   7  12
ATOM     12  O   UNL A   1      33.402  24.648  24.273  1.00  0.00    -0.423 OA
BRANCH  12  13
ATOM     13  C   UNL A   1      32.648  24.273  23.174  1.00  0.00     0.352 C 
ATOM     14  O   UNL A   1      32.673  23.161  22.657  1.00  0.00    -0.247 OA
BRANCH  13  15
ATOM     15  C   UNL A   1      31.740  25.448  22.713  1.00  0.00     0.280 C 
ATOM     16  C   UNL A   1      32.014  25.887  21.272  1.00  0.00     0.066 C 
BRANCH  15  17
ATOM     17  O   UNL A   1      31.357  26.583  23.471  1.00  0.00    -0.479 OA
BRANCH  17  18
ATOM     18  C   UNL A   1      30.165  27.235  23.423  1.00  0.00     0.123 A 
ATOM     19  C   UNL A   1      30.770  29.456  22.221  1.00  0.00     0.048 C 
ATOM     20  C   UNL A   1      29.839  28.497  22.906  1.00  0.00    -0.009 A 
ATOM     21  C   UNL A   1      28.481  28.898  22.917  1.00  0.00     0.007 A 
ATOM     22  C   UNL A   1      27.468  28.074  23.404  1.00  0.00     0.001 A 
ATOM     23  C   UNL A   1      29.123  26.409  23.892  1.00  0.00     0.047 A 
ATOM     24  C   UNL A   1      27.790  26.817  23.887  1.00  0.00     0.004 A 
ENDBRANCH  17  18
ENDBRANCH  15  17
ENDBRANCH  13  15
ENDBRANCH  12  13
ENDBRANCH   7  12
ENDBRANCH   3   6
ENDBRANCH   1   2
BRANCH   1  25
ATOM     25  C   UNL A   1      32.243  28.565  26.969  1.00  0.00     0.023 C 
BRANCH  25  26
ATOM     26  C   UNL A   1      33.308  29.440  27.625  1.00  0.00     0.023 C 
BRANCH  26  27
ATOM     27  C   UNL A   1      33.473  30.842  27.052  1.00  0.00     0.116 C 
BRANCH  27  28
ATOM     28  N   UNL A   1      34.106  31.821  27.926  1.00  0.00    -0.352 N 
ATOM     29  C   UNL A   1      35.219  31.685  28.750  1.00  0.00     0.251 C 
ATOM     30  H   UNL A   1      33.684  32.710  27.936  1.00  0.00     0.163 HD
ATOM     31  O   UNL A   1      35.557  32.608  29.471  1.00  0.00    -0.269 OA
BRANCH  29  32
ATOM     32  C   UNL A   1      36.082  30.473  28.653  1.00  0.00     0.039 A 
ATOM     33  C   UNL A   1      36.301  29.719  29.817  1.00  0.00     0.014 A 
ATOM     34  C   UNL A   1      36.815  30.186  27.507  1.00  0.00     0.014 A 
ATOM     35  C   UNL A   1      37.426  28.899  29.905  1.00  0.00     0.010 A 
ATOM     36  C   UNL A   1      37.988  29.470  27.625  1.00  0.00     0.010 A 
ATOM     37  C   UNL A   1      38.334  28.893  28.850  1.00  0.00    -0.014 A 
BRANCH  37  38
ATOM     38  C   UNL A   1      39.725  28.475  28.971  1.00  0.00     0.031 A 
ATOM     39  C   UNL A   1      40.150  27.103  28.626  1.00  0.00     0.074 A 
ATOM     40  C   UNL A   1      40.664  29.418  29.225  1.00  0.00     0.049 A 
ATOM     41  N   UNL A   1      41.312  26.631  28.926  1.00  0.00    -0.248 NA
ATOM     42  C   UNL A   1      39.289  26.117  27.976  1.00  0.00     0.031 C 
ATOM     43  C   UNL A   1      42.103  29.324  28.988  1.00  0.00     0.029 A 
ATOM     44  N   UNL A   1      40.513  30.619  29.940  1.00  0.00    -0.354 N 
ATOM     45  C   UNL A   1      41.472  25.450  28.250  1.00  0.00     0.074 A 
ATOM     46  C   UNL A   1      40.144  25.099  27.812  1.00  0.00     0.031 C 
ATOM     47  C   UNL A   1      42.732  30.213  29.770  1.00  0.00     0.029 A 
ATOM     48  C   UNL A   1      41.733  30.792  30.645  1.00  0.00     0.049 A 
ATOM     49  H   UNL A   1      39.728  31.214  29.950  1.00  0.00     0.167 HD
ATOM     50  C   UNL A   1      42.736  24.988  28.037  1.00  0.00     0.037 A 
ATOM     51  C   UNL A   1      41.772  30.761  32.011  1.00  0.00     0.037 A 
ATOM     52  C   UNL A   1      43.720  25.723  28.835  1.00  0.00     0.049 A 
ATOM     53  C   UNL A   1      42.645  29.674  32.605  1.00  0.00     0.074 A 
ATOM     54  C   UNL A   1      44.763  26.591  28.570  1.00  0.00     0.029 A 
ATOM     55  N   UNL A   1      43.561  25.728  30.209  1.00  0.00    -0.354 N 
ATOM     56  N   UNL A   1      43.284  28.780  31.905  1.00  0.00    -0.248 NA
ATOM     57  C   UNL A   1      42.773  29.441  34.045  1.00  0.00     0.031 C 
ATOM     58  C   UNL A   1      45.218  27.124  29.816  1.00  0.00     0.029 A 
ATOM     59  C   UNL A   1      44.468  26.556  30.830  1.00  0.00     0.049 A 
ATOM     60  H   UNL A   1      42.880  25.201  30.686  1.00  0.00     0.167 HD
ATOM     61  C   UNL A   1      43.800  27.827  32.744  1.00  0.00     0.074 A 
ATOM     62  C   UNL A   1      43.472  28.293  34.077  1.00  0.00     0.031 C 
ATOM     63  C   UNL A   1      44.399  26.695  32.275  1.00  0.00     0.037 A 
BRANCH  50  64
ATOM     64  C   UNL A   1      43.145  23.943  27.023  1.00  0.00     0.064 A 
ATOM     65  C   UNL A   1      42.806  22.586  27.236  1.00  0.00     0.173 A 
ATOM     66  C   UNL A   1      43.965  24.175  25.900  1.00  0.00     0.173 A 
ATOM     67  F   UNL A   1      42.022  22.217  28.260  1.00  0.00    -0.203 F 
ATOM     68  C   UNL A   1      43.273  21.556  26.413  1.00  0.00     0.198 A 
ATOM     69  C   UNL A   1      44.381  23.150  25.044  1.00  0.00     0.198 A 
ATOM     70  F   UNL A   1      44.455  25.384  25.612  1.00  0.00    -0.203 F 
ATOM     71  F   UNL A   1      42.974  20.283  26.708  1.00  0.00    -0.200 F 
ATOM     72  C   UNL A   1      44.052  21.839  25.312  1.00  0.00     0.200 A 
ATOM     73  F   UNL A   1      45.133  23.447  23.974  1.00  0.00    -0.200 F 
ATOM     74  F   UNL A   1      44.500  20.854  24.522  1.00  0.00    -0.200 F 
ENDBRANCH  50  64
BRANCH  51  75
ATOM     75  C   UNL A   1      40.519  31.272  32.623  1.00  0.00     0.064 A 
ATOM     76  C   UNL A   1      40.300  32.664  32.634  1.00  0.00     0.173 A 
ATOM     77  C   UNL A   1      39.411  30.438  32.809  1.00  0.00     0.173 A 
ATOM     78  F   UNL A   1      41.329  33.507  32.450  1.00  0.00    -0.203 F 
ATOM     79  C   UNL A   1      39.012  33.191  32.701  1.00  0.00     0.198 A 
ATOM     80  C   UNL A   1      38.125  30.972  32.893  1.00  0.00     0.198 A 
ATOM     81  F   UNL A   1      39.554  29.105  32.784  1.00  0.00    -0.203 F 
ATOM     82  F   UNL A   1      38.826  34.514  32.584  1.00  0.00    -0.200 F 
ATOM     83  C   UNL A   1      37.924  32.342  32.801  1.00  0.00     0.200 A 
ATOM     84  F   UNL A   1      37.068  30.149  32.960  1.00  0.00    -0.200 F 
ATOM     85  F   UNL A   1      36.680  32.838  32.764  1.00  0.00    -0.200 F 
ENDBRANCH  51  75
BRANCH  63  86
ATOM     86  C   UNL A   1      44.933  25.597  33.151  1.00  0.00     0.064 A 
ATOM     87  C   UNL A   1      46.292  25.252  33.184  1.00  0.00     0.173 A 
ATOM     88  C   UNL A   1      44.066  24.770  33.901  1.00  0.00     0.173 A 
ATOM     89  F   UNL A   1      47.192  25.946  32.472  1.00  0.00    -0.203 F 
ATOM     90  C   UNL A   1      46.755  24.167  33.935  1.00  0.00     0.198 A 
ATOM     91  C   UNL A   1      44.522  23.658  34.605  1.00  0.00     0.198 A 
ATOM     92  F   UNL A   1      42.755  25.035  33.995  1.00  0.00    -0.203 F 
ATOM     93  F   UNL A   1      48.068  23.899  33.976  1.00  0.00    -0.200 F 
ATOM     94  C   UNL A   1      45.869  23.362  34.630  1.00  0.00     0.200 A 
ATOM     95  F   UNL A   1      43.648  22.882  35.261  1.00  0.00    -0.200 F 
ATOM     96  F   UNL A   1      46.313  22.307  35.327  1.00  0.00    -0.200 F 
ENDBRANCH  63  86
ENDBRANCH  37  38
ENDBRANCH  29  32
ENDBRANCH  27  28
ENDBRANCH  26  27
ENDBRANCH  25  26
ENDBRANCH   1  25
TORSDOF 16
ENDMDL
