MODEL 1
REMARK VINA RESULT:     -14.1      0.000      0.000
REMARK SMILES Cc1cccc(O[C@H](C)C(=O)NNC(=O)[C@H]2[C@@H]3CC[C@@H](C3)[C@@H]2C(=O)NCCCCNC(=O)c2ccc(-c3c4nc(c(-c5c(F)c(F)c(F)c(F)c5F)c5ccc([nH]5)c(-c5c(F)c(F)c(F)c(F)c5F)c5nc(c(-c6c(F)c(F)c(F)c(F)c6F)c6ccc3[nH]6)C=C5)C=C4)cc2)c1
REMARK SMILES IDX 26 1 25 2 23 3 24 4 22 6 16 7 17 8 18 9 21 10 20 11 19 12
REMARK SMILES IDX 14 13 13 14 15 16 12 17 10 18 11 19 8 21 9 22 7 23 6 24 1 25
REMARK SMILES IDX 2 26 3 27 96 28 4 29 5 30 27 31 28 32 29 33 30 34 31 35
REMARK SMILES IDX 32 37 33 38 34 39 95 40 35 41 94 42 36 43 37 44 38 45 88 46
REMARK SMILES IDX 39 47 93 48 87 49 89 50 40 51 92 52 86 53 85 54 41 56 73 57
REMARK SMILES IDX 53 58 72 59 54 60 57 61 71 62 90 63 55 64 56 65 70 67 91 68
REMARK SMILES IDX 58 69 42 70 43 71 51 72 44 73 45 74 49 75 52 76 46 77 47 78
REMARK SMILES IDX 50 79 48 80 74 81 75 82 83 83 76 84 77 85 81 86 84 87 78 88
REMARK SMILES IDX 79 89 82 90 80 91 59 92 60 93 68 94 61 95 62 96 66 97 69 98
REMARK SMILES IDX 63 99 64 100 67 101 65 102
REMARK H PARENT 25 5 13 15 12 20 30 36 89 55 57 66
REMARK Flexibility Score: inf
ROOT
ATOM      1  C   UNL A   1      33.035  28.097  27.269  1.00  0.00     0.116 C 
ENDROOT
BRANCH   1   2
ATOM      2  N   UNL A   1      33.636  27.448  26.112  1.00  0.00    -0.356 N 
ATOM      3  C   UNL A   1      33.440  26.183  25.625  1.00  0.00     0.224 C 
ATOM      4  O   UNL A   1      34.087  25.819  24.647  1.00  0.00    -0.275 OA
ATOM      5  H   UNL A   1      34.277  27.999  25.607  1.00  0.00     0.163 HD
BRANCH   3   6
ATOM      6  C   UNL A   1      32.421  25.303  26.327  1.00  0.00     0.094 C 
ATOM      7  C   UNL A   1      32.651  23.792  26.187  1.00  0.00     0.096 C 
ATOM      8  C   UNL A   1      31.253  23.250  25.786  1.00  0.00     0.002 C 
ATOM      9  C   UNL A   1      31.048  23.564  24.291  1.00  0.00     0.005 C 
ATOM     10  C   UNL A   1      30.274  24.251  26.400  1.00  0.00     0.009 C 
ATOM     11  C   UNL A   1      30.976  25.464  25.785  1.00  0.00     0.002 C 
ATOM     12  C   UNL A   1      30.890  25.096  24.288  1.00  0.00     0.005 C 
BRANCH   7  13
ATOM     13  C   UNL A   1      33.293  23.046  27.354  1.00  0.00     0.242 C 
ATOM     14  N   UNL A   1      34.630  22.842  27.533  1.00  0.00    -0.267 N 
ATOM     15  H   UNL A   1      34.869  22.263  28.291  1.00  0.00     0.191 HD
ATOM     16  O   UNL A   1      32.553  22.609  28.248  1.00  0.00    -0.273 OA
BRANCH  14  17
ATOM     17  N   UNL A   1      35.688  23.328  26.809  1.00  0.00    -0.264 N 
ATOM     18  C   UNL A   1      36.209  22.848  25.648  1.00  0.00     0.279 C 
ATOM     19  O   UNL A   1      36.919  23.654  25.024  1.00  0.00    -0.269 OA
ATOM     20  H   UNL A   1      36.129  24.127  27.178  1.00  0.00     0.191 HD
BRANCH  18  21
ATOM     21  C   UNL A   1      36.098  21.383  25.140  1.00  0.00     0.260 C 
ATOM     22  C   UNL A   1      37.480  20.850  24.739  1.00  0.00     0.064 C 
BRANCH  21  23
ATOM     23  O   UNL A   1      35.169  20.410  25.564  1.00  0.00    -0.481 OA
BRANCH  23  24
ATOM     24  C   UNL A   1      34.222  19.823  24.795  1.00  0.00     0.120 A 
ATOM     25  C   UNL A   1      34.052  16.348  23.223  1.00  0.00     0.044 C 
ATOM     26  C   UNL A   1      33.704  17.757  23.599  1.00  0.00    -0.047 A 
ATOM     27  C   UNL A   1      32.574  18.370  23.056  1.00  0.00     0.003 A 
ATOM     28  C   UNL A   1      34.515  18.491  24.473  1.00  0.00     0.049 A 
ATOM     29  C   UNL A   1      32.249  19.679  23.405  1.00  0.00     0.004 A 
ATOM     30  C   UNL A   1      33.062  20.399  24.287  1.00  0.00     0.046 A 
ENDBRANCH  23  24
ENDBRANCH  21  23
ENDBRANCH  18  21
ENDBRANCH  14  17
ENDBRANCH   7  13
ENDBRANCH   3   6
ENDBRANCH   1   2
BRANCH   1  31
ATOM     31  C   UNL A   1      31.848  29.002  26.908  1.00  0.00     0.023 C 
BRANCH  31  32
ATOM     32  C   UNL A   1      32.098  30.510  27.034  1.00  0.00     0.023 C 
BRANCH  32  33
ATOM     33  C   UNL A   1      33.560  30.930  26.949  1.00  0.00     0.116 C 
BRANCH  33  34
ATOM     34  N   UNL A   1      34.037  31.790  28.021  1.00  0.00    -0.352 N 
ATOM     35  C   UNL A   1      35.003  31.547  28.990  1.00  0.00     0.251 C 
ATOM     36  H   UNL A   1      33.612  32.677  28.066  1.00  0.00     0.163 HD
ATOM     37  O   UNL A   1      35.168  32.346  29.894  1.00  0.00    -0.269 OA
BRANCH  35  38
ATOM     38  C   UNL A   1      35.931  30.388  28.849  1.00  0.00     0.039 A 
ATOM     39  C   UNL A   1      36.271  29.671  30.006  1.00  0.00     0.014 A 
ATOM     40  C   UNL A   1      36.607  30.131  27.662  1.00  0.00     0.014 A 
ATOM     41  C   UNL A   1      37.446  28.918  30.031  1.00  0.00     0.010 A 
ATOM     42  C   UNL A   1      37.827  29.490  27.714  1.00  0.00     0.010 A 
ATOM     43  C   UNL A   1      38.284  28.945  28.918  1.00  0.00    -0.014 A 
BRANCH  43  44
ATOM     44  C   UNL A   1      39.698  28.582  28.947  1.00  0.00     0.031 A 
ATOM     45  C   UNL A   1      40.159  27.237  28.540  1.00  0.00     0.074 A 
ATOM     46  C   UNL A   1      40.610  29.557  29.168  1.00  0.00     0.049 A 
ATOM     47  N   UNL A   1      41.337  26.775  28.793  1.00  0.00    -0.248 NA
ATOM     48  C   UNL A   1      39.313  26.289  27.822  1.00  0.00     0.031 C 
ATOM     49  C   UNL A   1      42.041  29.522  28.874  1.00  0.00     0.029 A 
ATOM     50  N   UNL A   1      40.438  30.750  29.891  1.00  0.00    -0.354 N 
ATOM     51  C   UNL A   1      41.496  25.610  28.085  1.00  0.00     0.074 A 
ATOM     52  C   UNL A   1      40.194  25.330  27.520  1.00  0.00     0.031 C 
ATOM     53  C   UNL A   1      42.663  30.434  29.636  1.00  0.00     0.029 A 
ATOM     54  C   UNL A   1      41.673  30.970  30.551  1.00  0.00     0.049 A 
ATOM     55  H   UNL A   1      39.632  31.313  29.931  1.00  0.00     0.167 HD
ATOM     56  C   UNL A   1      42.734  25.055  27.968  1.00  0.00     0.037 A 
ATOM     57  C   UNL A   1      41.756  30.928  31.914  1.00  0.00     0.037 A 
ATOM     58  C   UNL A   1      43.742  25.798  28.713  1.00  0.00     0.049 A 
ATOM     59  C   UNL A   1      42.679  29.860  32.463  1.00  0.00     0.074 A 
ATOM     60  C   UNL A   1      44.667  26.774  28.384  1.00  0.00     0.029 A 
ATOM     61  N   UNL A   1      43.679  25.779  30.093  1.00  0.00    -0.354 N 
ATOM     62  N   UNL A   1      43.279  28.960  31.736  1.00  0.00    -0.248 NA
ATOM     63  C   UNL A   1      42.903  29.655  33.897  1.00  0.00     0.031 C 
ATOM     64  C   UNL A   1      45.140  27.360  29.592  1.00  0.00     0.029 A 
ATOM     65  C   UNL A   1      44.505  26.734  30.648  1.00  0.00     0.049 A 
ATOM     66  H   UNL A   1      43.114  25.162  30.613  1.00  0.00     0.167 HD
ATOM     67  C   UNL A   1      43.878  28.044  32.557  1.00  0.00     0.074 A 
ATOM     68  C   UNL A   1      43.628  28.525  33.901  1.00  0.00     0.031 C 
ATOM     69  C   UNL A   1      44.490  26.923  32.085  1.00  0.00     0.037 A 
BRANCH  56  70
ATOM     70  C   UNL A   1      43.058  23.934  27.019  1.00  0.00     0.064 A 
ATOM     71  C   UNL A   1      42.741  22.599  27.344  1.00  0.00     0.173 A 
ATOM     72  C   UNL A   1      43.696  24.118  25.780  1.00  0.00     0.173 A 
ATOM     73  F   UNL A   1      42.075  22.292  28.465  1.00  0.00    -0.203 F 
ATOM     74  C   UNL A   1      43.115  21.526  26.533  1.00  0.00     0.198 A 
ATOM     75  C   UNL A   1      44.123  23.041  24.997  1.00  0.00     0.198 A 
ATOM     76  F   UNL A   1      43.893  25.345  25.279  1.00  0.00    -0.203 F 
ATOM     77  F   UNL A   1      42.785  20.277  26.889  1.00  0.00    -0.200 F 
ATOM     78  C   UNL A   1      43.837  21.745  25.378  1.00  0.00     0.200 A 
ATOM     79  F   UNL A   1      44.813  23.269  23.872  1.00  0.00    -0.200 F 
ATOM     80  F   UNL A   1      44.239  20.712  24.625  1.00  0.00    -0.200 F 
ENDBRANCH  56  70
BRANCH  57  81
ATOM     81  C   UNL A   1      40.500  31.377  32.573  1.00  0.00     0.064 A 
ATOM     82  C   UNL A   1      40.195  32.752  32.573  1.00  0.00     0.173 A 
ATOM     83  C   UNL A   1      39.457  30.480  32.834  1.00  0.00     0.173 A 
ATOM     84  F   UNL A   1      41.160  33.653  32.322  1.00  0.00    -0.203 F 
ATOM     85  C   UNL A   1      38.882  33.200  32.693  1.00  0.00     0.198 A 
ATOM     86  C   UNL A   1      38.147  30.935  32.978  1.00  0.00     0.198 A 
ATOM     87  F   UNL A   1      39.679  29.158  32.829  1.00  0.00    -0.203 F 
ATOM     88  F   UNL A   1      38.607  34.505  32.555  1.00  0.00    -0.200 F 
ATOM     89  C   UNL A   1      37.856  32.288  32.868  1.00  0.00     0.200 A 
ATOM     90  F   UNL A   1      37.150  30.051  33.119  1.00  0.00    -0.200 F 
ATOM     91  F   UNL A   1      36.582  32.704  32.883  1.00  0.00    -0.200 F 
ENDBRANCH  57  81
BRANCH  69  92
ATOM     92  C   UNL A   1      45.131  25.909  32.975  1.00  0.00     0.064 A 
ATOM     93  C   UNL A   1      46.516  25.695  32.972  1.00  0.00     0.173 A 
ATOM     94  C   UNL A   1      44.355  25.031  33.759  1.00  0.00     0.173 A 
ATOM     95  F   UNL A   1      47.324  26.470  32.232  1.00  0.00    -0.203 F 
ATOM     96  C   UNL A   1      47.094  24.671  33.723  1.00  0.00     0.198 A 
ATOM     97  C   UNL A   1      44.929  23.981  34.468  1.00  0.00     0.198 A 
ATOM     98  F   UNL A   1      43.027  25.188  33.866  1.00  0.00    -0.203 F 
ATOM     99  F   UNL A   1      48.426  24.519  33.727  1.00  0.00    -0.200 F 
ATOM    100  C   UNL A   1      46.300  23.804  34.455  1.00  0.00     0.200 A 
ATOM    101  F   UNL A   1      44.147  23.141  35.162  1.00  0.00    -0.200 F 
ATOM    102  F   UNL A   1      46.855  22.803  35.152  1.00  0.00    -0.200 F 
ENDBRANCH  69  92
ENDBRANCH  43  44
ENDBRANCH  35  38
ENDBRANCH  33  34
ENDBRANCH  32  33
ENDBRANCH  31  32
ENDBRANCH   1  31
TORSDOF 16
ENDMDL
MODEL 2
REMARK VINA RESULT:     -13.9      1.026      1.534
REMARK SMILES Cc1cccc(O[C@H](C)C(=O)NNC(=O)[C@H]2[C@@H]3CC[C@@H](C3)[C@@H]2C(=O)NCCCCNC(=O)c2ccc(-c3c4nc(c(-c5c(F)c(F)c(F)c(F)c5F)c5ccc([nH]5)c(-c5c(F)c(F)c(F)c(F)c5F)c5nc(c(-c6c(F)c(F)c(F)c(F)c6F)c6ccc3[nH]6)C=C5)C=C4)cc2)c1
REMARK SMILES IDX 26 1 25 2 23 3 24 4 22 6 16 7 17 8 18 9 21 10 20 11 19 12
REMARK SMILES IDX 14 13 13 14 15 16 12 17 10 18 11 19 8 21 9 22 7 23 6 24 1 25
REMARK SMILES IDX 2 26 3 27 96 28 4 29 5 30 27 31 28 32 29 33 30 34 31 35
REMARK SMILES IDX 32 37 33 38 34 39 95 40 35 41 94 42 36 43 37 44 38 45 88 46
REMARK SMILES IDX 39 47 93 48 87 49 89 50 40 51 92 52 86 53 85 54 41 56 73 57
REMARK SMILES IDX 53 58 72 59 54 60 57 61 71 62 90 63 55 64 56 65 70 67 91 68
REMARK SMILES IDX 58 69 42 70 43 71 51 72 44 73 45 74 49 75 52 76 46 77 47 78
REMARK SMILES IDX 50 79 48 80 74 81 75 82 83 83 76 84 77 85 81 86 84 87 78 88
REMARK SMILES IDX 79 89 82 90 80 91 59 92 60 93 68 94 61 95 62 96 66 97 69 98
REMARK SMILES IDX 63 99 64 100 67 101 65 102
REMARK H PARENT 25 5 13 15 12 20 30 36 89 55 57 66
REMARK Flexibility Score: inf
ROOT
ATOM      1  C   UNL A   1      33.512  28.486  27.099  1.00  0.00     0.116 C 
ENDROOT
BRANCH   1   2
ATOM      2  N   UNL A   1      33.931  27.842  25.861  1.00  0.00    -0.356 N 
ATOM      3  C   UNL A   1      33.460  26.699  25.274  1.00  0.00     0.224 C 
ATOM      4  O   UNL A   1      33.987  26.304  24.237  1.00  0.00    -0.275 OA
ATOM      5  H   UNL A   1      34.659  28.295  25.377  1.00  0.00     0.163 HD
BRANCH   3   6
ATOM      6  C   UNL A   1      32.298  25.984  25.942  1.00  0.00     0.094 C 
ATOM      7  C   UNL A   1      32.204  24.478  25.664  1.00  0.00     0.096 C 
ATOM      8  C   UNL A   1      30.715  24.274  25.280  1.00  0.00     0.002 C 
ATOM      9  C   UNL A   1      30.541  24.761  23.828  1.00  0.00     0.005 C 
ATOM     10  C   UNL A   1      29.981  25.393  26.020  1.00  0.00     0.009 C 
ATOM     11  C   UNL A   1      30.905  26.488  25.481  1.00  0.00     0.002 C 
ATOM     12  C   UNL A   1      30.706  26.286  23.963  1.00  0.00     0.005 C 
BRANCH   7  13
ATOM     13  C   UNL A   1      32.707  23.511  26.733  1.00  0.00     0.242 C 
ATOM     14  N   UNL A   1      34.010  23.179  26.960  1.00  0.00    -0.267 N 
ATOM     15  H   UNL A   1      34.154  22.472  27.628  1.00  0.00     0.191 HD
ATOM     16  O   UNL A   1      31.876  22.998  27.495  1.00  0.00    -0.273 OA
BRANCH  14  17
ATOM     17  N   UNL A   1      35.150  23.689  26.392  1.00  0.00    -0.264 N 
ATOM     18  C   UNL A   1      35.905  23.162  25.393  1.00  0.00     0.279 C 
ATOM     19  O   UNL A   1      36.664  23.970  24.831  1.00  0.00    -0.269 OA
ATOM     20  H   UNL A   1      35.461  24.549  26.756  1.00  0.00     0.191 HD
BRANCH  18  21
ATOM     21  C   UNL A   1      35.985  21.655  25.014  1.00  0.00     0.260 C 
ATOM     22  C   UNL A   1      37.435  21.259  24.705  1.00  0.00     0.064 C 
BRANCH  21  23
ATOM     23  O   UNL A   1      35.158  20.619  25.493  1.00  0.00    -0.481 OA
BRANCH  23  24
ATOM     24  C   UNL A   1      34.201  19.972  24.787  1.00  0.00     0.120 A 
ATOM     25  C   UNL A   1      34.040  16.401  23.447  1.00  0.00     0.044 C 
ATOM     26  C   UNL A   1      33.682  17.827  23.740  1.00  0.00    -0.047 A 
ATOM     27  C   UNL A   1      32.530  18.389  23.188  1.00  0.00     0.003 A 
ATOM     28  C   UNL A   1      34.504  18.625  24.545  1.00  0.00     0.049 A 
ATOM     29  C   UNL A   1      32.196  19.715  23.461  1.00  0.00     0.004 A 
ATOM     30  C   UNL A   1      33.020  20.500  24.274  1.00  0.00     0.046 A 
ENDBRANCH  23  24
ENDBRANCH  21  23
ENDBRANCH  18  21
ENDBRANCH  14  17
ENDBRANCH   7  13
ENDBRANCH   3   6
ENDBRANCH   1   2
BRANCH   1  31
ATOM     31  C   UNL A   1      32.519  29.636  26.877  1.00  0.00     0.023 C 
BRANCH  31  32
ATOM     32  C   UNL A   1      33.000  31.025  27.315  1.00  0.00     0.023 C 
BRANCH  32  33
ATOM     33  C   UNL A   1      34.508  31.163  27.479  1.00  0.00     0.116 C 
BRANCH  33  34
ATOM     34  N   UNL A   1      34.959  31.752  28.731  1.00  0.00    -0.352 N 
ATOM     35  C   UNL A   1      35.865  31.264  29.666  1.00  0.00     0.251 C 
ATOM     36  H   UNL A   1      34.564  32.627  28.948  1.00  0.00     0.163 HD
ATOM     37  O   UNL A   1      36.012  31.844  30.727  1.00  0.00    -0.269 OA
BRANCH  35  38
ATOM     38  C   UNL A   1      36.758  30.121  29.318  1.00  0.00     0.039 A 
ATOM     39  C   UNL A   1      36.948  29.116  30.279  1.00  0.00     0.014 A 
ATOM     40  C   UNL A   1      37.544  30.128  28.172  1.00  0.00     0.014 A 
ATOM     41  C   UNL A   1      38.084  28.308  30.218  1.00  0.00     0.010 A 
ATOM     42  C   UNL A   1      38.727  29.418  28.170  1.00  0.00     0.010 A 
ATOM     43  C   UNL A   1      39.034  28.560  29.230  1.00  0.00    -0.014 A 
BRANCH  43  44
ATOM     44  C   UNL A   1      40.423  28.113  29.295  1.00  0.00     0.031 A 
ATOM     45  C   UNL A   1      40.847  26.825  28.703  1.00  0.00     0.074 A 
ATOM     46  C   UNL A   1      41.361  28.983  29.736  1.00  0.00     0.049 A 
ATOM     47  N   UNL A   1      41.979  26.258  28.957  1.00  0.00    -0.248 NA
ATOM     48  C   UNL A   1      40.015  26.059  27.783  1.00  0.00     0.031 C 
ATOM     49  C   UNL A   1      42.807  28.909  29.539  1.00  0.00     0.029 A 
ATOM     50  N   UNL A   1      41.192  30.051  30.634  1.00  0.00    -0.354 N 
ATOM     51  C   UNL A   1      42.135  25.216  28.078  1.00  0.00     0.074 A 
ATOM     52  C   UNL A   1      40.869  25.110  27.387  1.00  0.00     0.031 C 
ATOM     53  C   UNL A   1      43.412  29.646  30.483  1.00  0.00     0.029 A 
ATOM     54  C   UNL A   1      42.382  30.086  31.404  1.00  0.00     0.049 A 
ATOM     55  H   UNL A   1      40.413  30.648  30.711  1.00  0.00     0.167 HD
ATOM     56  C   UNL A   1      43.351  24.613  27.955  1.00  0.00     0.037 A 
ATOM     57  C   UNL A   1      42.356  29.820  32.744  1.00  0.00     0.037 A 
ATOM     58  C   UNL A   1      44.332  25.164  28.880  1.00  0.00     0.049 A 
ATOM     59  C   UNL A   1      43.181  28.623  33.170  1.00  0.00     0.074 A 
ATOM     60  C   UNL A   1      45.327  26.122  28.781  1.00  0.00     0.029 A 
ATOM     61  N   UNL A   1      44.162  24.926  30.230  1.00  0.00    -0.354 N 
ATOM     62  N   UNL A   1      43.791  27.818  32.346  1.00  0.00    -0.248 NA
ATOM     63  C   UNL A   1      43.284  28.176  34.562  1.00  0.00     0.031 C 
ATOM     64  C   UNL A   1      45.733  26.476  30.099  1.00  0.00     0.029 A 
ATOM     65  C   UNL A   1      44.989  25.726  30.991  1.00  0.00     0.049 A 
ATOM     66  H   UNL A   1      43.530  24.269  30.601  1.00  0.00     0.167 HD
ATOM     67  C   UNL A   1      44.280  26.747  33.043  1.00  0.00     0.074 A 
ATOM     68  C   UNL A   1      43.951  27.018  34.427  1.00  0.00     0.031 C 
ATOM     69  C   UNL A   1      44.872  25.682  32.435  1.00  0.00     0.037 A 
BRANCH  56  70
ATOM     70  C   UNL A   1      43.692  23.643  26.858  1.00  0.00     0.064 A 
ATOM     71  C   UNL A   1      43.199  22.322  26.884  1.00  0.00     0.173 A 
ATOM     72  C   UNL A   1      44.515  23.958  25.763  1.00  0.00     0.173 A 
ATOM     73  F   UNL A   1      42.353  21.910  27.837  1.00  0.00    -0.203 F 
ATOM     74  C   UNL A   1      43.576  21.368  25.936  1.00  0.00     0.198 A 
ATOM     75  C   UNL A   1      44.939  22.989  24.849  1.00  0.00     0.198 A 
ATOM     76  F   UNL A   1      44.904  25.220  25.530  1.00  0.00    -0.203 F 
ATOM     77  F   UNL A   1      43.074  20.128  26.007  1.00  0.00    -0.200 F 
ATOM     78  C   UNL A   1      44.473  21.693  24.939  1.00  0.00     0.200 A 
ATOM     79  F   UNL A   1      45.802  23.322  23.879  1.00  0.00    -0.200 F 
ATOM     80  F   UNL A   1      44.872  20.764  24.059  1.00  0.00    -0.200 F 
ENDBRANCH  56  70
BRANCH  57  81
ATOM     81  C   UNL A   1      41.076  30.231  33.380  1.00  0.00     0.064 A 
ATOM     82  C   UNL A   1      40.865  31.599  33.641  1.00  0.00     0.173 A 
ATOM     83  C   UNL A   1      39.957  29.391  33.367  1.00  0.00     0.173 A 
ATOM     84  F   UNL A   1      41.906  32.447  33.659  1.00  0.00    -0.203 F 
ATOM     85  C   UNL A   1      39.579  32.123  33.748  1.00  0.00     0.198 A 
ATOM     86  C   UNL A   1      38.672  29.917  33.499  1.00  0.00     0.198 A 
ATOM     87  F   UNL A   1      40.089  28.083  33.105  1.00  0.00    -0.203 F 
ATOM     88  F   UNL A   1      39.405  33.447  33.863  1.00  0.00    -0.200 F 
ATOM     89  C   UNL A   1      38.483  31.284  33.650  1.00  0.00     0.200 A 
ATOM     90  F   UNL A   1      37.609  29.109  33.375  1.00  0.00    -0.200 F 
ATOM     91  F   UNL A   1      37.244  31.794  33.650  1.00  0.00    -0.200 F 
ENDBRANCH  57  81
BRANCH  69  92
ATOM     92  C   UNL A   1      45.392  24.500  33.186  1.00  0.00     0.064 A 
ATOM     93  C   UNL A   1      44.570  23.411  33.508  1.00  0.00     0.173 A 
ATOM     94  C   UNL A   1      46.697  24.488  33.717  1.00  0.00     0.173 A 
ATOM     95  F   UNL A   1      43.305  23.356  33.063  1.00  0.00    -0.203 F 
ATOM     96  C   UNL A   1      45.033  22.363  34.305  1.00  0.00     0.198 A 
ATOM     97  C   UNL A   1      47.140  23.467  34.551  1.00  0.00     0.198 A 
ATOM     98  F   UNL A   1      47.573  25.460  33.422  1.00  0.00    -0.203 F 
ATOM     99  F   UNL A   1      44.233  21.319  34.561  1.00  0.00    -0.200 F 
ATOM    100  C   UNL A   1      46.310  22.400  34.839  1.00  0.00     0.200 A 
ATOM    101  F   UNL A   1      48.374  23.522  35.073  1.00  0.00    -0.200 F 
ATOM    102  F   UNL A   1      46.742  21.407  35.629  1.00  0.00    -0.200 F 
ENDBRANCH  69  92
ENDBRANCH  43  44
ENDBRANCH  35  38
ENDBRANCH  33  34
ENDBRANCH  32  33
ENDBRANCH  31  32
ENDBRANCH   1  31
TORSDOF 16
ENDMDL
MODEL 3
REMARK VINA RESULT:     -13.9      3.666     10.086
REMARK SMILES Cc1cccc(O[C@H](C)C(=O)NNC(=O)[C@H]2[C@@H]3CC[C@@H](C3)[C@@H]2C(=O)NCCCCNC(=O)c2ccc(-c3c4nc(c(-c5c(F)c(F)c(F)c(F)c5F)c5ccc([nH]5)c(-c5c(F)c(F)c(F)c(F)c5F)c5nc(c(-c6c(F)c(F)c(F)c(F)c6F)c6ccc3[nH]6)C=C5)C=C4)cc2)c1
REMARK SMILES IDX 26 1 25 2 23 3 24 4 22 6 16 7 17 8 18 9 21 10 20 11 19 12
REMARK SMILES IDX 14 13 13 14 15 16 12 17 10 18 11 19 8 21 9 22 7 23 6 24 1 25
REMARK SMILES IDX 2 26 3 27 96 28 4 29 5 30 27 31 28 32 29 33 30 34 31 35
REMARK SMILES IDX 32 37 33 38 34 39 95 40 35 41 94 42 36 43 37 44 38 45 88 46
REMARK SMILES IDX 39 47 93 48 87 49 89 50 40 51 92 52 86 53 85 54 41 56 73 57
REMARK SMILES IDX 53 58 72 59 54 60 57 61 71 62 90 63 55 64 56 65 70 67 91 68
REMARK SMILES IDX 58 69 42 70 43 71 51 72 44 73 45 74 49 75 52 76 46 77 47 78
REMARK SMILES IDX 50 79 48 80 74 81 75 82 83 83 76 84 77 85 81 86 84 87 78 88
REMARK SMILES IDX 79 89 82 90 80 91 59 92 60 93 68 94 61 95 62 96 66 97 69 98
REMARK SMILES IDX 63 99 64 100 67 101 65 102
REMARK H PARENT 25 5 13 15 12 20 30 36 89 55 57 66
REMARK Flexibility Score: inf
ROOT
ATOM      1  C   UNL A   1      36.815  22.616  23.856  1.00  0.00     0.116 C 
ENDROOT
BRANCH   1   2
ATOM      2  N   UNL A   1      36.202  23.731  24.566  1.00  0.00    -0.356 N 
ATOM      3  C   UNL A   1      34.954  24.273  24.419  1.00  0.00     0.224 C 
ATOM      4  O   UNL A   1      34.648  25.248  25.100  1.00  0.00    -0.275 OA
ATOM      5  H   UNL A   1      36.768  24.155  25.251  1.00  0.00     0.163 HD
BRANCH   3   6
ATOM      6  C   UNL A   1      34.012  23.627  23.418  1.00  0.00     0.094 C 
ATOM      7  C   UNL A   1      32.862  24.517  22.928  1.00  0.00     0.096 C 
ATOM      8  C   UNL A   1      31.614  23.605  23.072  1.00  0.00     0.002 C 
ATOM      9  C   UNL A   1      31.230  23.580  24.565  1.00  0.00     0.005 C 
ATOM     10  C   UNL A   1      32.167  22.188  22.921  1.00  0.00     0.009 C 
ATOM     11  C   UNL A   1      33.254  22.394  23.978  1.00  0.00     0.002 C 
ATOM     12  C   UNL A   1      32.381  22.773  25.194  1.00  0.00     0.005 C 
BRANCH   7  13
ATOM     13  C   UNL A   1      32.991  25.178  21.558  1.00  0.00     0.242 C 
ATOM     14  N   UNL A   1      32.948  26.519  21.312  1.00  0.00    -0.267 N 
ATOM     15  H   UNL A   1      32.956  26.773  20.362  1.00  0.00     0.191 HD
ATOM     16  O   UNL A   1      33.188  24.452  20.574  1.00  0.00    -0.273 OA
BRANCH  14  17
ATOM     17  N   UNL A   1      32.896  27.565  22.198  1.00  0.00    -0.264 N 
ATOM     18  C   UNL A   1      31.850  27.971  22.965  1.00  0.00     0.279 C 
ATOM     19  O   UNL A   1      32.158  28.703  23.921  1.00  0.00    -0.269 OA
ATOM     20  H   UNL A   1      33.723  28.091  22.289  1.00  0.00     0.191 HD
BRANCH  18  21
ATOM     21  C   UNL A   1      30.347  27.711  22.662  1.00  0.00     0.260 C 
ATOM     22  C   UNL A   1      29.720  26.847  23.766  1.00  0.00     0.064 C 
BRANCH  21  23
ATOM     23  O   UNL A   1      29.460  28.574  21.986  1.00  0.00    -0.481 OA
BRANCH  23  24
ATOM     24  C   UNL A   1      29.123  29.828  22.367  1.00  0.00     0.120 A 
ATOM     25  C   UNL A   1      27.756  32.785  20.376  1.00  0.00     0.044 C 
ATOM     26  C   UNL A   1      28.282  31.955  21.508  1.00  0.00    -0.047 A 
ATOM     27  C   UNL A   1      28.501  32.532  22.760  1.00  0.00     0.003 A 
ATOM     28  C   UNL A   1      28.588  30.601  21.327  1.00  0.00     0.049 A 
ATOM     29  C   UNL A   1      28.989  31.761  23.813  1.00  0.00     0.004 A 
ATOM     30  C   UNL A   1      29.283  30.407  23.623  1.00  0.00     0.046 A 
ENDBRANCH  23  24
ENDBRANCH  21  23
ENDBRANCH  18  21
ENDBRANCH  14  17
ENDBRANCH   7  13
ENDBRANCH   3   6
ENDBRANCH   1   2
BRANCH   1  31
ATOM     31  C   UNL A   1      37.063  21.391  24.750  1.00  0.00     0.023 C 
BRANCH  31  32
ATOM     32  C   UNL A   1      38.454  21.304  25.388  1.00  0.00     0.023 C 
BRANCH  32  33
ATOM     33  C   UNL A   1      38.883  22.539  26.172  1.00  0.00     0.116 C 
BRANCH  33  34
ATOM     34  N   UNL A   1      40.315  22.700  26.371  1.00  0.00    -0.352 N 
ATOM     35  C   UNL A   1      41.062  23.858  26.549  1.00  0.00     0.251 C 
ATOM     36  H   UNL A   1      40.833  21.862  26.381  1.00  0.00     0.163 HD
ATOM     37  O   UNL A   1      42.278  23.799  26.563  1.00  0.00    -0.269 OA
BRANCH  35  38
ATOM     38  C   UNL A   1      40.381  25.147  26.863  1.00  0.00     0.039 A 
ATOM     39  C   UNL A   1      40.764  26.289  26.143  1.00  0.00     0.014 A 
ATOM     40  C   UNL A   1      39.540  25.282  27.962  1.00  0.00     0.014 A 
ATOM     41  C   UNL A   1      40.534  27.555  26.683  1.00  0.00     0.010 A 
ATOM     42  C   UNL A   1      39.415  26.520  28.559  1.00  0.00     0.010 A 
ATOM     43  C   UNL A   1      39.976  27.651  27.956  1.00  0.00    -0.014 A 
BRANCH  43  44
ATOM     44  C   UNL A   1      40.071  28.833  28.807  1.00  0.00     0.031 A 
ATOM     45  C   UNL A   1      39.015  29.871  28.808  1.00  0.00     0.074 A 
ATOM     46  C   UNL A   1      41.046  28.879  29.743  1.00  0.00     0.049 A 
ATOM     47  N   UNL A   1      39.164  31.045  29.322  1.00  0.00    -0.248 NA
ATOM     48  C   UNL A   1      37.701  29.669  28.207  1.00  0.00     0.031 C 
ATOM     49  C   UNL A   1      41.111  29.741  30.921  1.00  0.00     0.029 A 
ATOM     50  N   UNL A   1      42.302  28.249  29.710  1.00  0.00    -0.354 N 
ATOM     51  C   UNL A   1      37.934  31.653  29.349  1.00  0.00     0.074 A 
ATOM     52  C   UNL A   1      37.058  30.770  28.612  1.00  0.00     0.031 C 
ATOM     53  C   UNL A   1      42.389  29.834  31.321  1.00  0.00     0.029 A 
ATOM     54  C   UNL A   1      43.197  29.163  30.321  1.00  0.00     0.049 A 
ATOM     55  H   UNL A   1      42.515  27.361  29.341  1.00  0.00     0.167 HD
ATOM     56  C   UNL A   1      37.760  32.793  30.075  1.00  0.00     0.037 A 
ATOM     57  C   UNL A   1      44.203  29.744  29.602  1.00  0.00     0.037 A 
ATOM     58  C   UNL A   1      39.001  33.245  30.691  1.00  0.00     0.049 A 
ATOM     59  C   UNL A   1      44.134  31.255  29.517  1.00  0.00     0.074 A 
ATOM     60  C   UNL A   1      39.571  33.098  31.944  1.00  0.00     0.029 A 
ATOM     61  N   UNL A   1      40.003  33.721  29.868  1.00  0.00    -0.354 N 
ATOM     62  N   UNL A   1      43.152  31.975  29.981  1.00  0.00    -0.248 NA
ATOM     63  C   UNL A   1      45.121  32.062  28.794  1.00  0.00     0.031 C 
ATOM     64  C   UNL A   1      40.942  33.469  31.853  1.00  0.00     0.029 A 
ATOM     65  C   UNL A   1      41.197  33.846  30.548  1.00  0.00     0.049 A 
ATOM     66  H   UNL A   1      39.880  33.942  28.916  1.00  0.00     0.167 HD
ATOM     67  C   UNL A   1      43.313  33.271  29.575  1.00  0.00     0.074 A 
ATOM     68  C   UNL A   1      44.564  33.283  28.845  1.00  0.00     0.031 C 
ATOM     69  C   UNL A   1      42.384  34.237  29.814  1.00  0.00     0.037 A 
BRANCH  56  70
ATOM     70  C   UNL A   1      36.415  33.394  30.372  1.00  0.00     0.064 A 
ATOM     71  C   UNL A   1      35.633  33.959  29.344  1.00  0.00     0.173 A 
ATOM     72  C   UNL A   1      35.853  33.454  31.659  1.00  0.00     0.173 A 
ATOM     73  F   UNL A   1      36.023  33.911  28.063  1.00  0.00    -0.203 F 
ATOM     74  C   UNL A   1      34.426  34.612  29.599  1.00  0.00     0.198 A 
ATOM     75  C   UNL A   1      34.674  34.159  31.923  1.00  0.00     0.198 A 
ATOM     76  F   UNL A   1      36.411  32.803  32.689  1.00  0.00    -0.203 F 
ATOM     77  F   UNL A   1      33.722  35.129  28.583  1.00  0.00    -0.200 F 
ATOM     78  C   UNL A   1      33.964  34.743  30.893  1.00  0.00     0.200 A 
ATOM     79  F   UNL A   1      34.233  34.268  33.184  1.00  0.00    -0.200 F 
ATOM     80  F   UNL A   1      32.831  35.412  31.143  1.00  0.00    -0.200 F 
ENDBRANCH  56  70
BRANCH  57  81
ATOM     81  C   UNL A   1      44.709  28.861  28.517  1.00  0.00     0.064 A 
ATOM     82  C   UNL A   1      45.521  27.764  28.867  1.00  0.00     0.173 A 
ATOM     83  C   UNL A   1      44.108  28.847  27.254  1.00  0.00     0.173 A 
ATOM     84  F   UNL A   1      46.116  27.727  30.071  1.00  0.00    -0.203 F 
ATOM     85  C   UNL A   1      45.616  26.645  28.045  1.00  0.00     0.198 A 
ATOM     86  C   UNL A   1      44.225  27.733  26.422  1.00  0.00     0.198 A 
ATOM     87  F   UNL A   1      43.308  29.851  26.869  1.00  0.00    -0.203 F 
ATOM     88  F   UNL A   1      46.288  25.563  28.464  1.00  0.00    -0.200 F 
ATOM     89  C   UNL A   1      44.945  26.621  26.835  1.00  0.00     0.200 A 
ATOM     90  F   UNL A   1      43.552  27.697  25.264  1.00  0.00    -0.200 F 
ATOM     91  F   UNL A   1      44.949  25.509  26.086  1.00  0.00    -0.200 F 
ENDBRANCH  57  81
BRANCH  69  92
ATOM     92  C   UNL A   1      42.542  35.651  29.357  1.00  0.00     0.064 A 
ATOM     93  C   UNL A   1      42.081  36.077  28.104  1.00  0.00     0.173 A 
ATOM     94  C   UNL A   1      43.279  36.584  30.113  1.00  0.00     0.173 A 
ATOM     95  F   UNL A   1      41.393  35.242  27.311  1.00  0.00    -0.203 F 
ATOM     96  C   UNL A   1      42.332  37.369  27.640  1.00  0.00     0.198 A 
ATOM     97  C   UNL A   1      43.569  37.855  29.628  1.00  0.00     0.198 A 
ATOM     98  F   UNL A   1      43.716  36.286  31.346  1.00  0.00    -0.203 F 
ATOM     99  F   UNL A   1      41.843  37.755  26.453  1.00  0.00    -0.200 F 
ATOM    100  C   UNL A   1      43.089  38.250  28.393  1.00  0.00     0.200 A 
ATOM    101  F   UNL A   1      44.314  38.693  30.361  1.00  0.00    -0.200 F 
ATOM    102  F   UNL A   1      43.353  39.481  27.932  1.00  0.00    -0.200 F 
ENDBRANCH  69  92
ENDBRANCH  43  44
ENDBRANCH  35  38
ENDBRANCH  33  34
ENDBRANCH  32  33
ENDBRANCH  31  32
ENDBRANCH   1  31
TORSDOF 16
ENDMDL
