MODEL 1
REMARK VINA RESULT:     -12.7      0.000      0.000
REMARK SMILES N#Cc1ccccc1S(=O)(=O)N1CCC(C(=O)NCCCCNC(=O)c2ccc(-c3c4nc(c(-c5c(F)c(F)c(F)c(F)c5F)c5ccc([nH]5)c(-c5c(F)c(F)c(F)c(F)c5F)c5nc(c(-c6c(F)c(F)c(F)c(F)c6F)c6ccc3[nH]6)C=C5)C=C4)cc2)CC1
REMARK SMILES IDX 20 1 19 2 18 3 16 4 17 5 15 7 12 8 13 9 90 10 14 11 89 12
REMARK SMILES IDX 9 13 10 14 11 15 8 16 3 17 4 18 5 19 7 20 6 21 2 22 1 23
REMARK SMILES IDX 21 24 22 25 23 26 24 27 25 29 26 30 27 31 88 32 28 33 87 34
REMARK SMILES IDX 29 35 30 36 31 37 81 38 32 39 86 40 80 41 82 42 33 43 85 44
REMARK SMILES IDX 79 45 78 46 34 48 66 49 46 50 65 51 47 52 50 53 64 54 83 55
REMARK SMILES IDX 48 56 49 57 63 59 84 60 51 61 35 62 36 63 44 64 37 65 38 66
REMARK SMILES IDX 42 67 45 68 39 69 40 70 43 71 41 72 67 73 68 74 76 75 69 76
REMARK SMILES IDX 70 77 74 78 77 79 71 80 72 81 75 82 73 83 52 84 53 85 61 86
REMARK SMILES IDX 54 87 55 88 59 89 62 90 56 91 57 92 60 93 58 94
REMARK H PARENT 18 6 23 28 82 47 50 58
REMARK Flexibility Score: inf
ROOT
ATOM      1  C   UNL A   1      31.824  30.537  26.729  1.00  0.00     0.023 C 
ENDROOT
BRANCH   1   2
ATOM      2  C   UNL A   1      33.282  30.162  26.490  1.00  0.00     0.116 C 
BRANCH   2   3
ATOM      3  N   UNL A   1      33.490  29.645  25.147  1.00  0.00    -0.356 N 
ATOM      4  C   UNL A   1      33.651  28.366  24.708  1.00  0.00     0.223 C 
ATOM      5  O   UNL A   1      33.859  28.188  23.507  1.00  0.00    -0.275 OA
ATOM      6  H   UNL A   1      33.519  30.330  24.440  1.00  0.00     0.163 HD
BRANCH   4   7
ATOM      7  C   UNL A   1      33.552  27.192  25.672  1.00  0.00     0.081 C 
ATOM      8  N   UNL A   1      32.785  24.426  26.196  1.00  0.00    -0.198 NA
ATOM      9  C   UNL A   1      31.796  25.475  26.498  1.00  0.00     0.103 C 
ATOM     10  C   UNL A   1      34.191  24.731  25.894  1.00  0.00     0.103 C 
ATOM     11  C   UNL A   1      32.098  26.860  25.974  1.00  0.00     0.030 C 
ATOM     12  C   UNL A   1      34.409  26.038  25.172  1.00  0.00     0.030 C 
BRANCH   8  13
ATOM     13  S   UNL A   1      32.462  22.898  26.853  1.00  0.00     0.244 S 
ATOM     14  O   UNL A   1      31.080  22.911  27.285  1.00  0.00    -0.207 OA
ATOM     15  O   UNL A   1      33.526  22.593  27.786  1.00  0.00    -0.207 OA
BRANCH  13  16
ATOM     16  C   UNL A   1      32.550  21.627  25.601  1.00  0.00     0.100 A 
ATOM     17  C   UNL A   1      32.134  21.690  24.269  1.00  0.00     0.072 A 
ATOM     18  C   UNL A   1      32.254  20.545  23.455  1.00  0.00     0.021 A 
ATOM     19  C   UNL A   1      32.801  19.362  23.942  1.00  0.00     0.001 A 
ATOM     20  C   UNL A   1      33.111  20.423  26.079  1.00  0.00     0.023 A 
ATOM     21  C   UNL A   1      33.238  19.304  25.257  1.00  0.00     0.001 A 
BRANCH  17  22
ATOM     22  C   UNL A   1      31.595  22.822  23.585  1.00  0.00     0.101 C 
ATOM     23  N   UNL A   1      31.070  23.688  23.029  1.00  0.00    -0.192 NA
ENDBRANCH  17  22
ENDBRANCH  13  16
ENDBRANCH   8  13
ENDBRANCH   4   7
ENDBRANCH   2   3
ENDBRANCH   1   2
BRANCH   1  24
ATOM     24  C   UNL A   1      31.582  32.037  26.841  1.00  0.00     0.023 C 
BRANCH  24  25
ATOM     25  C   UNL A   1      32.751  32.817  27.422  1.00  0.00     0.116 C 
BRANCH  25  26
ATOM     26  N   UNL A   1      32.423  34.212  27.680  1.00  0.00    -0.352 N 
ATOM     27  C   UNL A   1      32.966  35.059  28.614  1.00  0.00     0.251 C 
ATOM     28  H   UNL A   1      31.719  34.598  27.111  1.00  0.00     0.163 HD
ATOM     29  O   UNL A   1      32.478  36.163  28.821  1.00  0.00    -0.269 OA
BRANCH  27  30
ATOM     30  C   UNL A   1      34.131  34.598  29.392  1.00  0.00     0.039 A 
ATOM     31  C   UNL A   1      33.925  34.073  30.667  1.00  0.00     0.014 A 
ATOM     32  C   UNL A   1      35.408  34.624  28.825  1.00  0.00     0.014 A 
ATOM     33  C   UNL A   1      35.000  33.508  31.353  1.00  0.00     0.010 A 
ATOM     34  C   UNL A   1      36.454  33.977  29.469  1.00  0.00     0.010 A 
ATOM     35  C   UNL A   1      36.262  33.418  30.742  1.00  0.00    -0.014 A 
BRANCH  35  36
ATOM     36  C   UNL A   1      37.398  32.749  31.422  1.00  0.00     0.031 A 
ATOM     37  C   UNL A   1      38.083  31.584  30.765  1.00  0.00     0.074 A 
ATOM     38  C   UNL A   1      37.771  33.152  32.652  1.00  0.00     0.049 A 
ATOM     39  N   UNL A   1      39.051  30.829  31.220  1.00  0.00    -0.248 NA
ATOM     40  C   UNL A   1      37.599  31.197  29.431  1.00  0.00     0.031 C 
ATOM     41  C   UNL A   1      37.148  34.237  33.413  1.00  0.00     0.029 A 
ATOM     42  N   UNL A   1      38.760  32.690  33.484  1.00  0.00    -0.354 N 
ATOM     43  C   UNL A   1      39.281  29.879  30.234  1.00  0.00     0.074 A 
ATOM     44  C   UNL A   1      38.310  30.107  29.187  1.00  0.00     0.031 C 
ATOM     45  C   UNL A   1      37.785  34.374  34.586  1.00  0.00     0.029 A 
ATOM     46  C   UNL A   1      38.831  33.361  34.681  1.00  0.00     0.049 A 
ATOM     47  H   UNL A   1      39.362  31.949  33.245  1.00  0.00     0.167 HD
ATOM     48  C   UNL A   1      40.238  28.921  30.192  1.00  0.00     0.037 A 
ATOM     49  C   UNL A   1      39.641  33.168  35.740  1.00  0.00     0.037 A 
ATOM     50  C   UNL A   1      41.211  28.708  31.231  1.00  0.00     0.049 A 
ATOM     51  C   UNL A   1      40.680  32.081  35.677  1.00  0.00     0.074 A 
ATOM     52  C   UNL A   1      42.250  27.796  31.264  1.00  0.00     0.029 A 
ATOM     53  N   UNL A   1      41.258  29.415  32.424  1.00  0.00    -0.354 N 
ATOM     54  N   UNL A   1      40.937  31.235  34.708  1.00  0.00    -0.248 NA
ATOM     55  C   UNL A   1      41.547  31.926  36.852  1.00  0.00     0.031 C 
ATOM     56  C   UNL A   1      42.892  27.911  32.500  1.00  0.00     0.029 A 
ATOM     57  C   UNL A   1      42.295  28.940  33.212  1.00  0.00     0.049 A 
ATOM     58  H   UNL A   1      40.647  30.145  32.674  1.00  0.00     0.167 HD
ATOM     59  C   UNL A   1      42.013  30.472  35.142  1.00  0.00     0.074 A 
ATOM     60  C   UNL A   1      42.372  30.968  36.455  1.00  0.00     0.031 C 
ATOM     61  C   UNL A   1      42.646  29.452  34.512  1.00  0.00     0.037 A 
BRANCH  48  62
ATOM     62  C   UNL A   1      40.280  28.033  28.981  1.00  0.00     0.064 A 
ATOM     63  C   UNL A   1      41.020  28.379  27.840  1.00  0.00     0.173 A 
ATOM     64  C   UNL A   1      39.607  26.803  28.975  1.00  0.00     0.173 A 
ATOM     65  F   UNL A   1      41.673  29.551  27.787  1.00  0.00    -0.203 F 
ATOM     66  C   UNL A   1      41.059  27.542  26.728  1.00  0.00     0.198 A 
ATOM     67  C   UNL A   1      39.677  25.952  27.876  1.00  0.00     0.198 A 
ATOM     68  F   UNL A   1      38.888  26.419  30.041  1.00  0.00    -0.203 F 
ATOM     69  F   UNL A   1      41.729  27.919  25.630  1.00  0.00    -0.200 F 
ATOM     70  C   UNL A   1      40.395  26.325  26.750  1.00  0.00     0.200 A 
ATOM     71  F   UNL A   1      39.047  24.769  27.904  1.00  0.00    -0.200 F 
ATOM     72  F   UNL A   1      40.443  25.514  25.684  1.00  0.00    -0.200 F 
ENDBRANCH  48  62
BRANCH  49  73
ATOM     73  C   UNL A   1      39.512  34.031  36.945  1.00  0.00     0.064 A 
ATOM     74  C   UNL A   1      40.161  35.273  37.019  1.00  0.00     0.173 A 
ATOM     75  C   UNL A   1      38.756  33.626  38.055  1.00  0.00     0.173 A 
ATOM     76  F   UNL A   1      40.912  35.697  35.992  1.00  0.00    -0.203 F 
ATOM     77  C   UNL A   1      40.084  36.060  38.166  1.00  0.00     0.198 A 
ATOM     78  C   UNL A   1      38.651  34.430  39.188  1.00  0.00     0.198 A 
ATOM     79  F   UNL A   1      38.109  32.452  38.034  1.00  0.00    -0.203 F 
ATOM     80  F   UNL A   1      40.763  37.213  38.231  1.00  0.00    -0.200 F 
ATOM     81  C   UNL A   1      39.325  35.641  39.248  1.00  0.00     0.200 A 
ATOM     82  F   UNL A   1      37.902  34.029  40.224  1.00  0.00    -0.200 F 
ATOM     83  F   UNL A   1      39.250  36.398  40.351  1.00  0.00    -0.200 F 
ENDBRANCH  49  73
BRANCH  61  84
ATOM     84  C   UNL A   1      43.821  28.831  35.213  1.00  0.00     0.064 A 
ATOM     85  C   UNL A   1      45.114  29.365  35.105  1.00  0.00     0.173 A 
ATOM     86  C   UNL A   1      43.641  27.709  36.038  1.00  0.00     0.173 A 
ATOM     87  F   UNL A   1      45.343  30.428  34.320  1.00  0.00    -0.203 F 
ATOM     88  C   UNL A   1      46.188  28.780  35.773  1.00  0.00     0.198 A 
ATOM     89  C   UNL A   1      44.709  27.150  36.732  1.00  0.00     0.198 A 
ATOM     90  F   UNL A   1      42.424  27.165  36.183  1.00  0.00    -0.203 F 
ATOM     91  F   UNL A   1      47.423  29.273  35.611  1.00  0.00    -0.200 F 
ATOM     92  C   UNL A   1      45.983  27.680  36.592  1.00  0.00     0.200 A 
ATOM     93  F   UNL A   1      44.506  26.098  37.538  1.00  0.00    -0.200 F 
ATOM     94  F   UNL A   1      47.015  27.124  37.241  1.00  0.00    -0.200 F 
ENDBRANCH  61  84
ENDBRANCH  35  36
ENDBRANCH  27  30
ENDBRANCH  25  26
ENDBRANCH  24  25
ENDBRANCH   1  24
TORSDOF 14
ENDMDL
MODEL 2
REMARK VINA RESULT:     -12.7      1.207      2.413
REMARK SMILES N#Cc1ccccc1S(=O)(=O)N1CCC(C(=O)NCCCCNC(=O)c2ccc(-c3c4nc(c(-c5c(F)c(F)c(F)c(F)c5F)c5ccc([nH]5)c(-c5c(F)c(F)c(F)c(F)c5F)c5nc(c(-c6c(F)c(F)c(F)c(F)c6F)c6ccc3[nH]6)C=C5)C=C4)cc2)CC1
REMARK SMILES IDX 20 1 19 2 18 3 16 4 17 5 15 7 12 8 13 9 90 10 14 11 89 12
REMARK SMILES IDX 9 13 10 14 11 15 8 16 3 17 4 18 5 19 7 20 6 21 2 22 1 23
REMARK SMILES IDX 21 24 22 25 23 26 24 27 25 29 26 30 27 31 88 32 28 33 87 34
REMARK SMILES IDX 29 35 30 36 31 37 81 38 32 39 86 40 80 41 82 42 33 43 85 44
REMARK SMILES IDX 79 45 78 46 34 48 66 49 46 50 65 51 47 52 50 53 64 54 83 55
REMARK SMILES IDX 48 56 49 57 63 59 84 60 51 61 35 62 36 63 44 64 37 65 38 66
REMARK SMILES IDX 42 67 45 68 39 69 40 70 43 71 41 72 67 73 68 74 76 75 69 76
REMARK SMILES IDX 70 77 74 78 77 79 71 80 72 81 75 82 73 83 52 84 53 85 61 86
REMARK SMILES IDX 54 87 55 88 59 89 62 90 56 91 57 92 60 93 58 94
REMARK H PARENT 18 6 23 28 82 47 50 58
REMARK Flexibility Score: inf
ROOT
ATOM      1  C   UNL A   1      31.883  30.497  26.752  1.00  0.00     0.023 C 
ENDROOT
BRANCH   1   2
ATOM      2  C   UNL A   1      31.613  29.898  25.377  1.00  0.00     0.116 C 
BRANCH   2   3
ATOM      3  N   UNL A   1      32.844  29.690  24.631  1.00  0.00    -0.356 N 
ATOM      4  C   UNL A   1      33.385  28.549  24.121  1.00  0.00     0.223 C 
ATOM      5  O   UNL A   1      34.478  28.629  23.558  1.00  0.00    -0.275 OA
ATOM      6  H   UNL A   1      33.372  30.505  24.470  1.00  0.00     0.163 HD
BRANCH   4   7
ATOM      7  C   UNL A   1      32.647  27.222  24.223  1.00  0.00     0.081 C 
ATOM      8  N   UNL A   1      32.715  24.306  24.292  1.00  0.00    -0.198 NA
ATOM      9  C   UNL A   1      32.517  24.950  22.982  1.00  0.00     0.103 C 
ATOM     10  C   UNL A   1      32.623  25.047  25.558  1.00  0.00     0.103 C 
ATOM     11  C   UNL A   1      32.755  26.442  22.920  1.00  0.00     0.030 C 
ATOM     12  C   UNL A   1      33.082  26.483  25.480  1.00  0.00     0.030 C 
BRANCH   8  13
ATOM     13  S   UNL A   1      32.376  22.647  24.356  1.00  0.00     0.244 S 
ATOM     14  O   UNL A   1      31.851  22.277  23.057  1.00  0.00    -0.207 OA
ATOM     15  O   UNL A   1      31.608  22.407  25.559  1.00  0.00    -0.207 OA
BRANCH  13  16
ATOM     16  C   UNL A   1      33.871  21.690  24.548  1.00  0.00     0.100 A 
ATOM     17  C   UNL A   1      34.001  20.323  24.804  1.00  0.00     0.072 A 
ATOM     18  C   UNL A   1      35.289  19.773  24.966  1.00  0.00     0.021 A 
ATOM     19  C   UNL A   1      36.434  20.555  24.851  1.00  0.00     0.001 A 
ATOM     20  C   UNL A   1      35.042  22.471  24.425  1.00  0.00     0.023 A 
ATOM     21  C   UNL A   1      36.310  21.908  24.571  1.00  0.00     0.001 A 
BRANCH  17  22
ATOM     22  C   UNL A   1      32.952  19.361  24.909  1.00  0.00     0.101 C 
ATOM     23  N   UNL A   1      32.174  18.510  24.984  1.00  0.00    -0.192 NA
ENDBRANCH  17  22
ENDBRANCH  13  16
ENDBRANCH   8  13
ENDBRANCH   4   7
ENDBRANCH   2   3
ENDBRANCH   1   2
BRANCH   1  24
ATOM     24  C   UNL A   1      31.642  31.999  26.831  1.00  0.00     0.023 C 
BRANCH  24  25
ATOM     25  C   UNL A   1      32.811  32.790  27.398  1.00  0.00     0.116 C 
BRANCH  25  26
ATOM     26  N   UNL A   1      32.472  34.180  27.667  1.00  0.00    -0.352 N 
ATOM     27  C   UNL A   1      33.003  35.022  28.611  1.00  0.00     0.251 C 
ATOM     28  H   UNL A   1      31.768  34.567  27.097  1.00  0.00     0.163 HD
ATOM     29  O   UNL A   1      32.506  36.121  28.826  1.00  0.00    -0.269 OA
BRANCH  27  30
ATOM     30  C   UNL A   1      34.167  34.563  29.392  1.00  0.00     0.039 A 
ATOM     31  C   UNL A   1      33.955  33.999  30.650  1.00  0.00     0.014 A 
ATOM     32  C   UNL A   1      35.450  34.629  28.843  1.00  0.00     0.014 A 
ATOM     33  C   UNL A   1      35.032  33.436  31.334  1.00  0.00     0.010 A 
ATOM     34  C   UNL A   1      36.500  33.985  29.484  1.00  0.00     0.010 A 
ATOM     35  C   UNL A   1      36.303  33.388  30.738  1.00  0.00    -0.014 A 
BRANCH  35  36
ATOM     36  C   UNL A   1      37.444  32.722  31.415  1.00  0.00     0.031 A 
ATOM     37  C   UNL A   1      38.137  31.566  30.751  1.00  0.00     0.074 A 
ATOM     38  C   UNL A   1      37.812  33.120  32.648  1.00  0.00     0.049 A 
ATOM     39  N   UNL A   1      39.109  30.814  31.202  1.00  0.00    -0.248 NA
ATOM     40  C   UNL A   1      37.655  31.183  29.414  1.00  0.00     0.031 C 
ATOM     41  C   UNL A   1      37.182  34.196  33.415  1.00  0.00     0.029 A 
ATOM     42  N   UNL A   1      38.805  32.660  33.477  1.00  0.00    -0.354 N 
ATOM     43  C   UNL A   1      39.346  29.872  30.211  1.00  0.00     0.074 A 
ATOM     44  C   UNL A   1      38.375  30.100  29.164  1.00  0.00     0.031 C 
ATOM     45  C   UNL A   1      37.818  34.331  34.588  1.00  0.00     0.029 A 
ATOM     46  C   UNL A   1      38.870  33.324  34.678  1.00  0.00     0.049 A 
ATOM     47  H   UNL A   1      39.411  31.924  33.234  1.00  0.00     0.167 HD
ATOM     48  C   UNL A   1      40.309  28.921  30.163  1.00  0.00     0.037 A 
ATOM     49  C   UNL A   1      39.681  33.131  35.736  1.00  0.00     0.037 A 
ATOM     50  C   UNL A   1      41.283  28.708  31.201  1.00  0.00     0.049 A 
ATOM     51  C   UNL A   1      40.727  32.051  35.667  1.00  0.00     0.074 A 
ATOM     52  C   UNL A   1      42.329  27.803  31.230  1.00  0.00     0.029 A 
ATOM     53  N   UNL A   1      41.325  29.408  32.399  1.00  0.00    -0.354 N 
ATOM     54  N   UNL A   1      40.991  31.212  34.694  1.00  0.00    -0.248 NA
ATOM     55  C   UNL A   1      41.595  31.894  36.843  1.00  0.00     0.031 C 
ATOM     56  C   UNL A   1      42.969  27.915  32.467  1.00  0.00     0.029 A 
ATOM     57  C   UNL A   1      42.365  28.936  33.185  1.00  0.00     0.049 A 
ATOM     58  H   UNL A   1      40.709  30.132  32.653  1.00  0.00     0.167 HD
ATOM     59  C   UNL A   1      42.072  30.454  35.124  1.00  0.00     0.074 A 
ATOM     60  C   UNL A   1      42.426  30.944  36.440  1.00  0.00     0.031 C 
ATOM     61  C   UNL A   1      42.712  29.442  34.488  1.00  0.00     0.037 A 
BRANCH  48  62
ATOM     62  C   UNL A   1      40.358  28.041  28.947  1.00  0.00     0.064 A 
ATOM     63  C   UNL A   1      39.659  26.825  28.889  1.00  0.00     0.173 A 
ATOM     64  C   UNL A   1      41.078  28.436  27.810  1.00  0.00     0.173 A 
ATOM     65  F   UNL A   1      38.964  26.394  29.954  1.00  0.00    -0.203 F 
ATOM     66  C   UNL A   1      39.704  26.024  27.752  1.00  0.00     0.198 A 
ATOM     67  C   UNL A   1      41.093  27.649  26.661  1.00  0.00     0.198 A 
ATOM     68  F   UNL A   1      41.761  29.591  27.808  1.00  0.00    -0.203 F 
ATOM     69  F   UNL A   1      39.073  24.842  27.740  1.00  0.00    -0.200 F 
ATOM     70  C   UNL A   1      40.414  26.440  26.635  1.00  0.00     0.200 A 
ATOM     71  F   UNL A   1      41.766  28.061  25.577  1.00  0.00    -0.200 F 
ATOM     72  F   UNL A   1      40.447  25.675  25.536  1.00  0.00    -0.200 F 
ENDBRANCH  48  62
BRANCH  49  73
ATOM     73  C   UNL A   1      39.546  33.986  36.946  1.00  0.00     0.064 A 
ATOM     74  C   UNL A   1      38.769  33.576  38.039  1.00  0.00     0.173 A 
ATOM     75  C   UNL A   1      40.174  35.238  37.029  1.00  0.00     0.173 A 
ATOM     76  F   UNL A   1      38.132  32.396  38.002  1.00  0.00    -0.203 F 
ATOM     77  C   UNL A   1      38.599  34.397  39.153  1.00  0.00     0.198 A 
ATOM     78  C   UNL A   1      40.032  36.042  38.157  1.00  0.00     0.198 A 
ATOM     79  F   UNL A   1      40.935  35.675  36.015  1.00  0.00    -0.203 F 
ATOM     80  F   UNL A   1      37.803  34.005  40.156  1.00  0.00    -0.200 F 
ATOM     81  C   UNL A   1      39.235  35.627  39.213  1.00  0.00     0.200 A 
ATOM     82  F   UNL A   1      40.664  37.223  38.219  1.00  0.00    -0.200 F 
ATOM     83  F   UNL A   1      39.073  36.416  40.284  1.00  0.00    -0.200 F 
ENDBRANCH  49  73
BRANCH  61  84
ATOM     84  C   UNL A   1      43.891  28.825  35.186  1.00  0.00     0.064 A 
ATOM     85  C   UNL A   1      43.759  27.695  36.006  1.00  0.00     0.173 A 
ATOM     86  C   UNL A   1      45.179  29.351  34.996  1.00  0.00     0.173 A 
ATOM     87  F   UNL A   1      42.548  27.161  36.231  1.00  0.00    -0.203 F 
ATOM     88  C   UNL A   1      44.867  27.132  36.634  1.00  0.00     0.198 A 
ATOM     89  C   UNL A   1      46.289  28.764  35.595  1.00  0.00     0.198 A 
ATOM     90  F   UNL A   1      45.363  30.425  34.214  1.00  0.00    -0.203 F 
ATOM     91  F   UNL A   1      44.709  26.086  37.457  1.00  0.00    -0.200 F 
ATOM     92  C   UNL A   1      46.131  27.662  36.421  1.00  0.00     0.200 A 
ATOM     93  F   UNL A   1      47.512  29.266  35.374  1.00  0.00    -0.200 F 
ATOM     94  F   UNL A   1      47.198  27.113  37.019  1.00  0.00    -0.200 F 
ENDBRANCH  61  84
ENDBRANCH  35  36
ENDBRANCH  27  30
ENDBRANCH  25  26
ENDBRANCH  24  25
ENDBRANCH   1  24
TORSDOF 14
ENDMDL
MODEL 3
REMARK VINA RESULT:     -12.7      1.434      2.166
REMARK SMILES N#Cc1ccccc1S(=O)(=O)N1CCC(C(=O)NCCCCNC(=O)c2ccc(-c3c4nc(c(-c5c(F)c(F)c(F)c(F)c5F)c5ccc([nH]5)c(-c5c(F)c(F)c(F)c(F)c5F)c5nc(c(-c6c(F)c(F)c(F)c(F)c6F)c6ccc3[nH]6)C=C5)C=C4)cc2)CC1
REMARK SMILES IDX 20 1 19 2 18 3 16 4 17 5 15 7 12 8 13 9 90 10 14 11 89 12
REMARK SMILES IDX 9 13 10 14 11 15 8 16 3 17 4 18 5 19 7 20 6 21 2 22 1 23
REMARK SMILES IDX 21 24 22 25 23 26 24 27 25 29 26 30 27 31 88 32 28 33 87 34
REMARK SMILES IDX 29 35 30 36 31 37 81 38 32 39 86 40 80 41 82 42 33 43 85 44
REMARK SMILES IDX 79 45 78 46 34 48 66 49 46 50 65 51 47 52 50 53 64 54 83 55
REMARK SMILES IDX 48 56 49 57 63 59 84 60 51 61 35 62 36 63 44 64 37 65 38 66
REMARK SMILES IDX 42 67 45 68 39 69 40 70 43 71 41 72 67 73 68 74 76 75 69 76
REMARK SMILES IDX 70 77 74 78 77 79 71 80 72 81 75 82 73 83 52 84 53 85 61 86
REMARK SMILES IDX 54 87 55 88 59 89 62 90 56 91 57 92 60 93 58 94
REMARK H PARENT 18 6 23 28 82 47 50 58
REMARK Flexibility Score: inf
ROOT
ATOM      1  C   UNL A   1      31.784  30.556  26.780  1.00  0.00     0.023 C 
ENDROOT
BRANCH   1   2
ATOM      2  C   UNL A   1      32.223  30.104  25.392  1.00  0.00     0.116 C 
BRANCH   2   3
ATOM      3  N   UNL A   1      31.084  29.865  24.520  1.00  0.00    -0.356 N 
ATOM      4  C   UNL A   1      30.664  28.722  23.912  1.00  0.00     0.223 C 
ATOM      5  O   UNL A   1      29.679  28.787  23.174  1.00  0.00    -0.275 OA
ATOM      6  H   UNL A   1      30.528  30.657  24.340  1.00  0.00     0.163 HD
BRANCH   4   7
ATOM      7  C   UNL A   1      31.377  27.400  24.156  1.00  0.00     0.081 C 
ATOM      8  N   UNL A   1      32.378  24.855  23.137  1.00  0.00    -0.198 NA
ATOM      9  C   UNL A   1      31.024  24.870  23.716  1.00  0.00     0.103 C 
ATOM     10  C   UNL A   1      33.312  25.982  23.284  1.00  0.00     0.103 C 
ATOM     11  C   UNL A   1      30.419  26.229  23.987  1.00  0.00     0.030 C 
ATOM     12  C   UNL A   1      32.655  27.340  23.332  1.00  0.00     0.030 C 
BRANCH   8  13
ATOM     13  S   UNL A   1      33.065  23.324  22.907  1.00  0.00     0.244 S 
ATOM     14  O   UNL A   1      33.616  23.309  21.567  1.00  0.00    -0.207 OA
ATOM     15  O   UNL A   1      32.082  22.342  23.313  1.00  0.00    -0.207 OA
BRANCH  13  16
ATOM     16  C   UNL A   1      34.461  23.075  23.991  1.00  0.00     0.100 A 
ATOM     17  C   UNL A   1      34.490  23.090  25.388  1.00  0.00     0.072 A 
ATOM     18  C   UNL A   1      35.721  22.913  26.053  1.00  0.00     0.021 A 
ATOM     19  C   UNL A   1      36.903  22.701  25.351  1.00  0.00     0.001 A 
ATOM     20  C   UNL A   1      35.667  22.849  23.291  1.00  0.00     0.023 A 
ATOM     21  C   UNL A   1      36.874  22.660  23.965  1.00  0.00     0.001 A 
BRANCH  17  22
ATOM     22  C   UNL A   1      33.381  23.248  26.273  1.00  0.00     0.101 C 
ATOM     23  N   UNL A   1      32.436  23.427  26.914  1.00  0.00    -0.192 NA
ENDBRANCH  17  22
ENDBRANCH  13  16
ENDBRANCH   8  13
ENDBRANCH   4   7
ENDBRANCH   2   3
ENDBRANCH   1   2
BRANCH   1  24
ATOM     24  C   UNL A   1      31.540  32.056  26.896  1.00  0.00     0.023 C 
BRANCH  24  25
ATOM     25  C   UNL A   1      32.728  32.842  27.427  1.00  0.00     0.116 C 
BRANCH  25  26
ATOM     26  N   UNL A   1      32.408  34.239  27.684  1.00  0.00    -0.352 N 
ATOM     27  C   UNL A   1      32.958  35.085  28.614  1.00  0.00     0.251 C 
ATOM     28  H   UNL A   1      31.704  34.628  27.116  1.00  0.00     0.163 HD
ATOM     29  O   UNL A   1      32.477  36.192  28.820  1.00  0.00    -0.269 OA
BRANCH  27  30
ATOM     30  C   UNL A   1      34.124  34.620  29.388  1.00  0.00     0.039 A 
ATOM     31  C   UNL A   1      33.923  34.119  30.674  1.00  0.00     0.014 A 
ATOM     32  C   UNL A   1      35.396  34.618  28.809  1.00  0.00     0.014 A 
ATOM     33  C   UNL A   1      34.997  33.550  31.359  1.00  0.00     0.010 A 
ATOM     34  C   UNL A   1      36.439  33.967  29.454  1.00  0.00     0.010 A 
ATOM     35  C   UNL A   1      36.252  33.432  30.737  1.00  0.00    -0.014 A 
BRANCH  35  36
ATOM     36  C   UNL A   1      37.385  32.757  31.418  1.00  0.00     0.031 A 
ATOM     37  C   UNL A   1      38.053  31.578  30.769  1.00  0.00     0.074 A 
ATOM     38  C   UNL A   1      37.768  33.169  32.642  1.00  0.00     0.049 A 
ATOM     39  N   UNL A   1      39.015  30.818  31.226  1.00  0.00    -0.248 NA
ATOM     40  C   UNL A   1      37.556  31.182  29.442  1.00  0.00     0.031 C 
ATOM     41  C   UNL A   1      37.162  34.268  33.395  1.00  0.00     0.029 A 
ATOM     42  N   UNL A   1      38.758  32.705  33.472  1.00  0.00    -0.354 N 
ATOM     43  C   UNL A   1      39.229  29.855  30.249  1.00  0.00     0.074 A 
ATOM     44  C   UNL A   1      38.255  30.083  29.205  1.00  0.00     0.031 C 
ATOM     45  C   UNL A   1      37.808  34.411  34.562  1.00  0.00     0.029 A 
ATOM     46  C   UNL A   1      38.843  33.387  34.662  1.00  0.00     0.049 A 
ATOM     47  H   UNL A   1      39.350  31.955  33.237  1.00  0.00     0.167 HD
ATOM     48  C   UNL A   1      40.175  28.886  30.211  1.00  0.00     0.037 A 
ATOM     49  C   UNL A   1      39.657  33.197  35.718  1.00  0.00     0.037 A 
ATOM     50  C   UNL A   1      41.152  28.674  31.246  1.00  0.00     0.049 A 
ATOM     51  C   UNL A   1      40.684  32.098  35.660  1.00  0.00     0.074 A 
ATOM     52  C   UNL A   1      42.182  27.751  31.283  1.00  0.00     0.029 A 
ATOM     53  N   UNL A   1      41.214  29.392  32.432  1.00  0.00    -0.354 N 
ATOM     54  N   UNL A   1      40.926  31.239  34.699  1.00  0.00    -0.248 NA
ATOM     55  C   UNL A   1      41.556  31.946  36.832  1.00  0.00     0.031 C 
ATOM     56  C   UNL A   1      42.832  27.872  32.514  1.00  0.00     0.029 A 
ATOM     57  C   UNL A   1      42.250  28.915  33.219  1.00  0.00     0.049 A 
ATOM     58  H   UNL A   1      40.612  30.131  32.678  1.00  0.00     0.167 HD
ATOM     59  C   UNL A   1      41.997  30.469  35.135  1.00  0.00     0.074 A 
ATOM     60  C   UNL A   1      42.369  30.974  36.440  1.00  0.00     0.031 C 
ATOM     61  C   UNL A   1      42.615  29.436  34.511  1.00  0.00     0.037 A 
BRANCH  48  62
ATOM     62  C   UNL A   1      40.201  27.986  29.009  1.00  0.00     0.064 A 
ATOM     63  C   UNL A   1      40.932  28.316  27.857  1.00  0.00     0.173 A 
ATOM     64  C   UNL A   1      39.520  26.760  29.023  1.00  0.00     0.173 A 
ATOM     65  F   UNL A   1      41.592  29.482  27.787  1.00  0.00    -0.203 F 
ATOM     66  C   UNL A   1      40.956  27.467  26.754  1.00  0.00     0.198 A 
ATOM     67  C   UNL A   1      39.575  25.897  27.931  1.00  0.00     0.198 A 
ATOM     68  F   UNL A   1      38.809  26.391  30.099  1.00  0.00    -0.203 F 
ATOM     69  F   UNL A   1      41.618  27.828  25.646  1.00  0.00    -0.200 F 
ATOM     70  C   UNL A   1      40.285  26.254  26.795  1.00  0.00     0.200 A 
ATOM     71  F   UNL A   1      38.938  24.718  27.978  1.00  0.00    -0.200 F 
ATOM     72  F   UNL A   1      40.318  25.432  25.737  1.00  0.00    -0.200 F 
ENDBRANCH  48  62
BRANCH  49  73
ATOM     73  C   UNL A   1      39.545  34.074  36.915  1.00  0.00     0.064 A 
ATOM     74  C   UNL A   1      40.206  35.309  36.972  1.00  0.00     0.173 A 
ATOM     75  C   UNL A   1      38.791  33.688  38.034  1.00  0.00     0.173 A 
ATOM     76  F   UNL A   1      40.956  35.715  35.936  1.00  0.00    -0.203 F 
ATOM     77  C   UNL A   1      40.144  36.109  38.111  1.00  0.00     0.198 A 
ATOM     78  C   UNL A   1      38.702  34.505  39.159  1.00  0.00     0.198 A 
ATOM     79  F   UNL A   1      38.132  32.520  38.029  1.00  0.00    -0.203 F 
ATOM     80  F   UNL A   1      40.835  37.256  38.160  1.00  0.00    -0.200 F 
ATOM     81  C   UNL A   1      39.388  35.709  39.202  1.00  0.00     0.200 A 
ATOM     82  F   UNL A   1      37.955  34.122  40.203  1.00  0.00    -0.200 F 
ATOM     83  F   UNL A   1      39.328  36.478  40.298  1.00  0.00    -0.200 F 
ENDBRANCH  49  73
BRANCH  61  84
ATOM     84  C   UNL A   1      43.787  28.810  35.212  1.00  0.00     0.064 A 
ATOM     85  C   UNL A   1      43.631  27.749  36.116  1.00  0.00     0.173 A 
ATOM     86  C   UNL A   1      45.092  29.253  34.940  1.00  0.00     0.173 A 
ATOM     87  F   UNL A   1      42.405  27.297  36.421  1.00  0.00    -0.203 F 
ATOM     88  C   UNL A   1      44.733  27.176  36.745  1.00  0.00     0.198 A 
ATOM     89  C   UNL A   1      46.194  28.653  35.542  1.00  0.00     0.198 A 
ATOM     90  F   UNL A   1      45.299  30.258  34.076  1.00  0.00    -0.203 F 
ATOM     91  F   UNL A   1      44.555  26.201  37.648  1.00  0.00    -0.200 F 
ATOM     92  C   UNL A   1      46.013  27.623  36.452  1.00  0.00     0.200 A 
ATOM     93  F   UNL A   1      47.430  29.074  35.243  1.00  0.00    -0.200 F 
ATOM     94  F   UNL A   1      47.073  27.063  37.050  1.00  0.00    -0.200 F 
ENDBRANCH  61  84
ENDBRANCH  35  36
ENDBRANCH  27  30
ENDBRANCH  25  26
ENDBRANCH  24  25
ENDBRANCH   1  24
TORSDOF 14
ENDMDL
