MODEL 1
REMARK VINA RESULT:     -11.3      0.000      0.000
REMARK SMILES CC(C)[C@H](NC(=O)[C@H](C)NC(=O)C[NH3+])C(=O)NCCCCNC(=O)c1ccc(-c2c3nc(c(-c4c(F)c(F)c(F)c(F)c4F)c4ccc([nH]4)c(-c4c(F)c(F)c(F)c(F)c4F)c4nc(c(-c5c(F)c(F)c(F)c(F)c5F)c5ccc2[nH]5)C=C4)C=C3)cc1
REMARK SMILES IDX 18 1 17 2 15 3 16 4 4 6 2 7 1 8 3 9 5 10 6 11 7 13 8 14 9 15
REMARK SMILES IDX 10 16 11 17 12 19 13 20 14 21 19 25 20 26 21 27 22 28 23 29
REMARK SMILES IDX 24 31 25 32 26 33 87 34 27 35 86 36 28 37 29 38 30 39 80 40
REMARK SMILES IDX 31 41 85 42 79 43 81 44 32 45 84 46 78 47 77 48 33 50 65 51
REMARK SMILES IDX 45 52 64 53 46 54 49 55 63 56 82 57 47 58 48 59 62 61 83 62
REMARK SMILES IDX 50 63 34 64 35 65 43 66 36 67 37 68 41 69 44 70 38 71 39 72
REMARK SMILES IDX 42 73 40 74 66 75 67 76 75 77 68 78 69 79 73 80 76 81 70 82
REMARK SMILES IDX 71 83 74 84 72 85 51 86 52 87 60 88 53 89 54 90 58 91 61 92
REMARK SMILES IDX 55 93 56 94 59 95 57 96
REMARK H PARENT 17 5 5 12 10 18 14 22 14 23 14 24 22 30 81 49 49 60
REMARK Flexibility Score: inf
ROOT
ATOM      1  C   UNL A   1      33.100  29.983  26.656  1.00  0.00     0.116 C 
ENDROOT
BRANCH   1   2
ATOM      2  N   UNL A   1      33.911  29.543  25.529  1.00  0.00    -0.354 N 
ATOM      3  C   UNL A   1      33.694  28.518  24.640  1.00  0.00     0.242 C 
ATOM      4  O   UNL A   1      34.322  28.534  23.580  1.00  0.00    -0.273 OA
ATOM      5  H   UNL A   1      34.737  30.057  25.381  1.00  0.00     0.163 HD
BRANCH   3   6
ATOM      6  C   UNL A   1      32.621  27.440  24.920  1.00  0.00     0.173 C 
BRANCH   6   7
ATOM      7  C   UNL A   1      33.071  26.363  25.962  1.00  0.00     0.015 C 
ATOM      8  C   UNL A   1      32.012  25.360  26.444  1.00  0.00     0.010 C 
ATOM      9  C   UNL A   1      34.187  25.493  25.367  1.00  0.00     0.010 C 
ENDBRANCH   6   7
BRANCH   6  10
ATOM     10  N   UNL A   1      32.210  26.942  23.593  1.00  0.00    -0.342 N 
ATOM     11  C   UNL A   1      31.090  27.083  22.840  1.00  0.00     0.242 C 
ATOM     12  H   UNL A   1      32.899  26.388  23.158  1.00  0.00     0.164 HD
ATOM     13  O   UNL A   1      31.167  26.732  21.658  1.00  0.00    -0.273 OA
BRANCH  11  14
ATOM     14  C   UNL A   1      29.836  27.757  23.397  1.00  0.00     0.168 C 
ATOM     15  C   UNL A   1      28.879  26.672  23.895  1.00  0.00     0.041 C 
BRANCH  14  16
ATOM     16  N   UNL A   1      29.218  28.497  22.298  1.00  0.00    -0.340 N 
ATOM     17  C   UNL A   1      28.762  29.777  22.232  1.00  0.00     0.275 C 
ATOM     18  H   UNL A   1      29.116  27.983  21.464  1.00  0.00     0.164 HD
ATOM     19  O   UNL A   1      28.192  30.137  21.199  1.00  0.00    -0.268 OA
BRANCH  17  20
ATOM     20  C   UNL A   1      29.034  30.782  23.351  1.00  0.00     0.360 C 
BRANCH  20  21
ATOM     21  N   UNL A   1      29.323  32.136  22.857  1.00  0.00    -0.350 N 
ATOM     22  H   UNL A   1      28.589  32.427  22.213  1.00  0.00     0.344 HD
ATOM     23  H   UNL A   1      30.221  32.137  22.374  1.00  0.00     0.344 HD
ATOM     24  H   UNL A   1      29.360  32.784  23.645  1.00  0.00     0.344 HD
ENDBRANCH  20  21
ENDBRANCH  17  20
ENDBRANCH  14  16
ENDBRANCH  11  14
ENDBRANCH   6  10
ENDBRANCH   3   6
ENDBRANCH   1   2
BRANCH   1  25
ATOM     25  C   UNL A   1      31.757  30.562  26.240  1.00  0.00     0.023 C 
BRANCH  25  26
ATOM     26  C   UNL A   1      31.484  31.968  26.777  1.00  0.00     0.023 C 
BRANCH  26  27
ATOM     27  C   UNL A   1      32.709  32.747  27.247  1.00  0.00     0.116 C 
BRANCH  27  28
ATOM     28  N   UNL A   1      32.416  34.130  27.604  1.00  0.00    -0.352 N 
ATOM     29  C   UNL A   1      33.010  34.921  28.556  1.00  0.00     0.251 C 
ATOM     30  H   UNL A   1      31.690  34.554  27.090  1.00  0.00     0.163 HD
ATOM     31  O   UNL A   1      32.572  36.041  28.802  1.00  0.00    -0.269 OA
BRANCH  29  32
ATOM     32  C   UNL A   1      34.160  34.392  29.312  1.00  0.00     0.039 A 
ATOM     33  C   UNL A   1      33.920  33.608  30.441  1.00  0.00     0.014 A 
ATOM     34  C   UNL A   1      35.464  34.618  28.864  1.00  0.00     0.014 A 
ATOM     35  C   UNL A   1      34.991  32.979  31.078  1.00  0.00     0.010 A 
ATOM     36  C   UNL A   1      36.519  33.930  29.454  1.00  0.00     0.010 A 
ATOM     37  C   UNL A   1      36.292  33.099  30.562  1.00  0.00    -0.014 A 
BRANCH  37  38
ATOM     38  C   UNL A   1      37.428  32.355  31.162  1.00  0.00     0.031 A 
ATOM     39  C   UNL A   1      37.940  32.733  32.523  1.00  0.00     0.074 A 
ATOM     40  C   UNL A   1      38.041  31.388  30.453  1.00  0.00     0.049 A 
ATOM     41  N   UNL A   1      38.964  32.257  33.184  1.00  0.00    -0.248 NA
ATOM     42  C   UNL A   1      37.223  33.812  33.221  1.00  0.00     0.031 C 
ATOM     43  C   UNL A   1      37.671  30.965  29.100  1.00  0.00     0.029 A 
ATOM     44  N   UNL A   1      39.115  30.591  30.765  1.00  0.00    -0.354 N 
ATOM     45  C   UNL A   1      39.021  32.984  34.365  1.00  0.00     0.074 A 
ATOM     46  C   UNL A   1      37.966  33.972  34.306  1.00  0.00     0.031 C 
ATOM     47  C   UNL A   1      38.487  29.974  28.710  1.00  0.00     0.029 A 
ATOM     48  C   UNL A   1      39.461  29.716  29.766  1.00  0.00     0.049 A 
ATOM     49  H   UNL A   1      39.591  30.644  31.625  1.00  0.00     0.167 HD
ATOM     50  C   UNL A   1      39.861  32.825  35.415  1.00  0.00     0.037 A 
ATOM     51  C   UNL A   1      40.458  28.812  29.707  1.00  0.00     0.037 A 
ATOM     52  C   UNL A   1      40.892  31.824  35.481  1.00  0.00     0.049 A 
ATOM     53  C   UNL A   1      41.380  28.658  30.886  1.00  0.00     0.074 A 
ATOM     54  C   UNL A   1      41.754  31.540  36.526  1.00  0.00     0.029 A 
ATOM     55  N   UNL A   1      41.201  30.940  34.457  1.00  0.00    -0.354 N 
ATOM     56  N   UNL A   1      41.379  29.302  32.027  1.00  0.00    -0.248 NA
ATOM     57  C   UNL A   1      42.440  27.646  30.771  1.00  0.00     0.031 C 
ATOM     58  C   UNL A   1      42.614  30.515  36.118  1.00  0.00     0.029 A 
ATOM     59  C   UNL A   1      42.255  30.125  34.838  1.00  0.00     0.049 A 
ATOM     60  H   UNL A   1      40.738  30.897  33.589  1.00  0.00     0.167 HD
ATOM     61  C   UNL A   1      42.414  28.757  32.775  1.00  0.00     0.074 A 
ATOM     62  C   UNL A   1      43.012  27.718  31.964  1.00  0.00     0.031 C 
ATOM     63  C   UNL A   1      42.832  29.089  34.022  1.00  0.00     0.037 A 
BRANCH  50  64
ATOM     64  C   UNL A   1      39.695  33.753  36.582  1.00  0.00     0.064 A 
ATOM     65  C   UNL A   1      38.876  33.422  37.673  1.00  0.00     0.173 A 
ATOM     66  C   UNL A   1      40.389  34.971  36.629  1.00  0.00     0.173 A 
ATOM     67  F   UNL A   1      38.181  32.275  37.671  1.00  0.00    -0.203 F 
ATOM     68  C   UNL A   1      38.737  34.289  38.753  1.00  0.00     0.198 A 
ATOM     69  C   UNL A   1      40.272  35.822  37.725  1.00  0.00     0.198 A 
ATOM     70  F   UNL A   1      41.189  35.334  35.615  1.00  0.00    -0.203 F 
ATOM     71  F   UNL A   1      37.910  33.975  39.760  1.00  0.00    -0.200 F 
ATOM     72  C   UNL A   1      39.440  35.484  38.783  1.00  0.00     0.200 A 
ATOM     73  F   UNL A   1      40.961  36.970  37.759  1.00  0.00    -0.200 F 
ATOM     74  F   UNL A   1      39.310  36.313  39.826  1.00  0.00    -0.200 F 
ENDBRANCH  50  64
BRANCH  51  75
ATOM     75  C   UNL A   1      40.623  27.962  28.498  1.00  0.00     0.064 A 
ATOM     76  C   UNL A   1      41.384  28.403  27.407  1.00  0.00     0.173 A 
ATOM     77  C   UNL A   1      40.015  26.702  28.402  1.00  0.00     0.173 A 
ATOM     78  F   UNL A   1      41.967  29.610  27.443  1.00  0.00    -0.203 F 
ATOM     79  C   UNL A   1      41.512  27.627  26.257  1.00  0.00     0.198 A 
ATOM     80  C   UNL A   1      40.167  25.914  27.263  1.00  0.00     0.198 A 
ATOM     81  F   UNL A   1      39.280  26.231  29.420  1.00  0.00    -0.203 F 
ATOM     82  F   UNL A   1      42.205  28.095  25.210  1.00  0.00    -0.200 F 
ATOM     83  C   UNL A   1      40.908  26.381  26.188  1.00  0.00     0.200 A 
ATOM     84  F   UNL A   1      39.594  24.704  27.205  1.00  0.00    -0.200 F 
ATOM     85  F   UNL A   1      41.032  25.635  25.081  1.00  0.00    -0.200 F 
ENDBRANCH  51  75
BRANCH  63  86
ATOM     86  C   UNL A   1      43.969  28.297  34.600  1.00  0.00     0.064 A 
ATOM     87  C   UNL A   1      43.757  27.072  35.251  1.00  0.00     0.173 A 
ATOM     88  C   UNL A   1      45.290  28.750  34.463  1.00  0.00     0.173 A 
ATOM     89  F   UNL A   1      42.511  26.605  35.421  1.00  0.00    -0.203 F 
ATOM     90  C   UNL A   1      44.825  26.342  35.765  1.00  0.00     0.198 A 
ATOM     91  C   UNL A   1      46.358  28.002  34.951  1.00  0.00     0.198 A 
ATOM     92  F   UNL A   1      45.546  29.911  33.842  1.00  0.00    -0.203 F 
ATOM     93  F   UNL A   1      44.597  25.199  36.424  1.00  0.00    -0.200 F 
ATOM     94  C   UNL A   1      46.125  26.803  35.607  1.00  0.00     0.200 A 
ATOM     95  F   UNL A   1      47.613  28.443  34.785  1.00  0.00    -0.200 F 
ATOM     96  F   UNL A   1      47.152  26.095  36.096  1.00  0.00    -0.200 F 
ENDBRANCH  63  86
ENDBRANCH  37  38
ENDBRANCH  29  32
ENDBRANCH  27  28
ENDBRANCH  26  27
ENDBRANCH  25  26
ENDBRANCH   1  25
TORSDOF 17
ENDMDL
MODEL 2
REMARK VINA RESULT:     -11.1      0.642      7.506
REMARK SMILES CC(C)[C@H](NC(=O)[C@H](C)NC(=O)C[NH3+])C(=O)NCCCCNC(=O)c1ccc(-c2c3nc(c(-c4c(F)c(F)c(F)c(F)c4F)c4ccc([nH]4)c(-c4c(F)c(F)c(F)c(F)c4F)c4nc(c(-c5c(F)c(F)c(F)c(F)c5F)c5ccc2[nH]5)C=C4)C=C3)cc1
REMARK SMILES IDX 18 1 17 2 15 3 16 4 4 6 2 7 1 8 3 9 5 10 6 11 7 13 8 14 9 15
REMARK SMILES IDX 10 16 11 17 12 19 13 20 14 21 19 25 20 26 21 27 22 28 23 29
REMARK SMILES IDX 24 31 25 32 26 33 87 34 27 35 86 36 28 37 29 38 30 39 80 40
REMARK SMILES IDX 31 41 85 42 79 43 81 44 32 45 84 46 78 47 77 48 33 50 65 51
REMARK SMILES IDX 45 52 64 53 46 54 49 55 63 56 82 57 47 58 48 59 62 61 83 62
REMARK SMILES IDX 50 63 34 64 35 65 43 66 36 67 37 68 41 69 44 70 38 71 39 72
REMARK SMILES IDX 42 73 40 74 66 75 67 76 75 77 68 78 69 79 73 80 76 81 70 82
REMARK SMILES IDX 71 83 74 84 72 85 51 86 52 87 60 88 53 89 54 90 58 91 61 92
REMARK SMILES IDX 55 93 56 94 59 95 57 96
REMARK H PARENT 17 5 5 12 10 18 14 22 14 23 14 24 22 30 81 49 49 60
REMARK Flexibility Score: inf
ROOT
ATOM      1  C   UNL A   1      33.333  30.085  26.692  1.00  0.00     0.116 C 
ENDROOT
BRANCH   1   2
ATOM      2  N   UNL A   1      34.094  29.467  25.614  1.00  0.00    -0.354 N 
ATOM      3  C   UNL A   1      33.708  28.518  24.699  1.00  0.00     0.242 C 
ATOM      4  O   UNL A   1      34.392  28.387  23.683  1.00  0.00    -0.273 OA
ATOM      5  H   UNL A   1      35.025  29.776  25.528  1.00  0.00     0.163 HD
BRANCH   3   6
ATOM      6  C   UNL A   1      32.399  27.717  24.893  1.00  0.00     0.173 C 
BRANCH   6   7
ATOM      7  C   UNL A   1      32.479  26.654  26.038  1.00  0.00     0.015 C 
ATOM      8  C   UNL A   1      31.212  26.420  26.875  1.00  0.00     0.010 C 
ATOM      9  C   UNL A   1      32.815  25.276  25.451  1.00  0.00     0.010 C 
ENDBRANCH   6   7
BRANCH   6  10
ATOM     10  N   UNL A   1      32.044  27.216  23.551  1.00  0.00    -0.342 N 
ATOM     11  C   UNL A   1      30.967  27.376  22.742  1.00  0.00     0.242 C 
ATOM     12  H   UNL A   1      32.740  26.641  23.157  1.00  0.00     0.164 HD
ATOM     13  O   UNL A   1      31.095  27.011  21.568  1.00  0.00    -0.273 OA
BRANCH  11  14
ATOM     14  C   UNL A   1      29.702  28.083  23.229  1.00  0.00     0.168 C 
ATOM     15  C   UNL A   1      28.696  27.026  23.686  1.00  0.00     0.041 C 
BRANCH  14  16
ATOM     16  N   UNL A   1      29.159  28.828  22.094  1.00  0.00    -0.340 N 
ATOM     17  C   UNL A   1      28.393  29.951  22.050  1.00  0.00     0.275 C 
ATOM     18  H   UNL A   1      29.387  28.454  21.212  1.00  0.00     0.164 HD
ATOM     19  O   UNL A   1      27.985  30.332  20.950  1.00  0.00    -0.268 OA
BRANCH  17  20
ATOM     20  C   UNL A   1      28.127  30.787  23.302  1.00  0.00     0.360 C 
BRANCH  20  21
ATOM     21  N   UNL A   1      29.328  31.458  23.818  1.00  0.00    -0.350 N 
ATOM     22  H   UNL A   1      29.308  32.442  23.552  1.00  0.00     0.344 HD
ATOM     23  H   UNL A   1      30.160  31.016  23.426  1.00  0.00     0.344 HD
ATOM     24  H   UNL A   1      29.349  31.382  24.835  1.00  0.00     0.344 HD
ENDBRANCH  20  21
ENDBRANCH  17  20
ENDBRANCH  14  16
ENDBRANCH  11  14
ENDBRANCH   6  10
ENDBRANCH   3   6
ENDBRANCH   1   2
BRANCH   1  25
ATOM     25  C   UNL A   1      31.976  30.607  26.246  1.00  0.00     0.023 C 
BRANCH  25  26
ATOM     26  C   UNL A   1      31.603  31.969  26.832  1.00  0.00     0.023 C 
BRANCH  26  27
ATOM     27  C   UNL A   1      32.761  32.788  27.396  1.00  0.00     0.116 C 
BRANCH  27  28
ATOM     28  N   UNL A   1      32.408  34.174  27.679  1.00  0.00    -0.352 N 
ATOM     29  C   UNL A   1      32.963  35.037  28.592  1.00  0.00     0.251 C 
ATOM     30  H   UNL A   1      31.669  34.540  27.142  1.00  0.00     0.163 HD
ATOM     31  O   UNL A   1      32.478  36.149  28.777  1.00  0.00    -0.269 OA
BRANCH  29  32
ATOM     32  C   UNL A   1      34.130  34.597  29.379  1.00  0.00     0.039 A 
ATOM     33  C   UNL A   1      33.918  34.038  30.640  1.00  0.00     0.014 A 
ATOM     34  C   UNL A   1      35.416  34.677  28.841  1.00  0.00     0.014 A 
ATOM     35  C   UNL A   1      34.995  33.481  31.332  1.00  0.00     0.010 A 
ATOM     36  C   UNL A   1      36.473  34.055  29.498  1.00  0.00     0.010 A 
ATOM     37  C   UNL A   1      36.271  33.446  30.746  1.00  0.00    -0.014 A 
BRANCH  37  38
ATOM     38  C   UNL A   1      37.406  32.766  31.419  1.00  0.00     0.031 A 
ATOM     39  C   UNL A   1      38.077  31.593  30.763  1.00  0.00     0.074 A 
ATOM     40  C   UNL A   1      37.786  33.162  32.649  1.00  0.00     0.049 A 
ATOM     41  N   UNL A   1      39.031  30.822  31.219  1.00  0.00    -0.248 NA
ATOM     42  C   UNL A   1      37.588  31.216  29.427  1.00  0.00     0.031 C 
ATOM     43  C   UNL A   1      37.179  34.254  33.413  1.00  0.00     0.029 A 
ATOM     44  N   UNL A   1      38.768  32.683  33.482  1.00  0.00    -0.354 N 
ATOM     45  C   UNL A   1      39.246  29.866  30.237  1.00  0.00     0.074 A 
ATOM     46  C   UNL A   1      38.286  30.117  29.184  1.00  0.00     0.031 C 
ATOM     47  C   UNL A   1      37.815  34.376  34.589  1.00  0.00     0.029 A 
ATOM     48  C   UNL A   1      38.848  33.348  34.680  1.00  0.00     0.049 A 
ATOM     49  H   UNL A   1      39.358  31.932  33.241  1.00  0.00     0.167 HD
ATOM     50  C   UNL A   1      40.178  28.885  30.202  1.00  0.00     0.037 A 
ATOM     51  C   UNL A   1      39.660  33.147  35.735  1.00  0.00     0.037 A 
ATOM     52  C   UNL A   1      41.150  28.656  31.239  1.00  0.00     0.049 A 
ATOM     53  C   UNL A   1      40.685  32.047  35.674  1.00  0.00     0.074 A 
ATOM     54  C   UNL A   1      42.176  27.728  31.271  1.00  0.00     0.029 A 
ATOM     55  N   UNL A   1      41.214  29.364  32.430  1.00  0.00    -0.354 N 
ATOM     56  N   UNL A   1      40.927  31.195  34.707  1.00  0.00    -0.248 NA
ATOM     57  C   UNL A   1      41.553  31.883  36.848  1.00  0.00     0.031 C 
ATOM     58  C   UNL A   1      42.833  27.844  32.500  1.00  0.00     0.029 A 
ATOM     59  C   UNL A   1      42.250  28.879  33.213  1.00  0.00     0.049 A 
ATOM     60  H   UNL A   1      40.614  30.103  32.682  1.00  0.00     0.167 HD
ATOM     61  C   UNL A   1      41.990  30.415  35.143  1.00  0.00     0.074 A 
ATOM     62  C   UNL A   1      42.357  30.905  36.455  1.00  0.00     0.031 C 
ATOM     63  C   UNL A   1      42.607  29.385  34.513  1.00  0.00     0.037 A 
BRANCH  50  64
ATOM     64  C   UNL A   1      40.196  27.987  29.000  1.00  0.00     0.064 A 
ATOM     65  C   UNL A   1      40.907  28.329  27.839  1.00  0.00     0.173 A 
ATOM     66  C   UNL A   1      39.525  26.755  29.020  1.00  0.00     0.173 A 
ATOM     67  F   UNL A   1      41.554  29.501  27.765  1.00  0.00    -0.203 F 
ATOM     68  C   UNL A   1      40.921  27.483  26.733  1.00  0.00     0.198 A 
ATOM     69  C   UNL A   1      39.567  25.898  27.924  1.00  0.00     0.198 A 
ATOM     70  F   UNL A   1      38.834  26.379  30.106  1.00  0.00    -0.203 F 
ATOM     71  F   UNL A   1      41.565  27.853  25.618  1.00  0.00    -0.200 F 
ATOM     72  C   UNL A   1      40.259  26.265  26.779  1.00  0.00     0.200 A 
ATOM     73  F   UNL A   1      38.937  24.716  27.973  1.00  0.00    -0.200 F 
ATOM     74  F   UNL A   1      40.280  25.450  25.716  1.00  0.00    -0.200 F 
ENDBRANCH  50  64
BRANCH  51  75
ATOM     75  C   UNL A   1      39.558  34.022  36.933  1.00  0.00     0.064 A 
ATOM     76  C   UNL A   1      38.800  33.632  38.046  1.00  0.00     0.173 A 
ATOM     77  C   UNL A   1      40.200  35.267  36.986  1.00  0.00     0.173 A 
ATOM     78  F   UNL A   1      38.149  32.459  38.033  1.00  0.00    -0.203 F 
ATOM     79  C   UNL A   1      38.669  34.463  39.156  1.00  0.00     0.198 A 
ATOM     80  C   UNL A   1      40.092  36.086  38.109  1.00  0.00     0.198 A 
ATOM     81  F   UNL A   1      40.941  35.686  35.950  1.00  0.00    -0.203 F 
ATOM     82  F   UNL A   1      37.898  34.086  40.185  1.00  0.00    -0.200 F 
ATOM     83  C   UNL A   1      39.320  35.687  39.189  1.00  0.00     0.200 A 
ATOM     84  F   UNL A   1      40.734  37.262  38.143  1.00  0.00    -0.200 F 
ATOM     85  F   UNL A   1      39.195  36.486  40.258  1.00  0.00    -0.200 F 
ENDBRANCH  51  75
BRANCH  63  86
ATOM     86  C   UNL A   1      43.765  28.740  35.219  1.00  0.00     0.064 A 
ATOM     87  C   UNL A   1      43.581  27.673  36.110  1.00  0.00     0.173 A 
ATOM     88  C   UNL A   1      45.076  29.170  34.967  1.00  0.00     0.173 A 
ATOM     89  F   UNL A   1      42.345  27.237  36.396  1.00  0.00    -0.203 F 
ATOM     90  C   UNL A   1      44.668  27.075  36.742  1.00  0.00     0.198 A 
ATOM     91  C   UNL A   1      46.163  28.549  35.578  1.00  0.00     0.198 A 
ATOM     92  F   UNL A   1      45.305  30.183  34.117  1.00  0.00    -0.203 F 
ATOM     93  F   UNL A   1      44.467  26.088  37.626  1.00  0.00    -0.200 F 
ATOM     94  C   UNL A   1      45.958  27.508  36.470  1.00  0.00     0.200 A 
ATOM     95  F   UNL A   1      47.409  28.961  35.302  1.00  0.00    -0.200 F 
ATOM     96  F   UNL A   1      47.003  26.926  37.073  1.00  0.00    -0.200 F 
ENDBRANCH  63  86
ENDBRANCH  37  38
ENDBRANCH  29  32
ENDBRANCH  27  28
ENDBRANCH  26  27
ENDBRANCH  25  26
ENDBRANCH   1  25
TORSDOF 17
ENDMDL
MODEL 3
REMARK VINA RESULT:     -11.0      6.544     10.686
REMARK SMILES CC(C)[C@H](NC(=O)[C@H](C)NC(=O)C[NH3+])C(=O)NCCCCNC(=O)c1ccc(-c2c3nc(c(-c4c(F)c(F)c(F)c(F)c4F)c4ccc([nH]4)c(-c4c(F)c(F)c(F)c(F)c4F)c4nc(c(-c5c(F)c(F)c(F)c(F)c5F)c5ccc2[nH]5)C=C4)C=C3)cc1
REMARK SMILES IDX 18 1 17 2 15 3 16 4 4 6 2 7 1 8 3 9 5 10 6 11 7 13 8 14 9 15
REMARK SMILES IDX 10 16 11 17 12 19 13 20 14 21 19 25 20 26 21 27 22 28 23 29
REMARK SMILES IDX 24 31 25 32 26 33 87 34 27 35 86 36 28 37 29 38 30 39 80 40
REMARK SMILES IDX 31 41 85 42 79 43 81 44 32 45 84 46 78 47 77 48 33 50 65 51
REMARK SMILES IDX 45 52 64 53 46 54 49 55 63 56 82 57 47 58 48 59 62 61 83 62
REMARK SMILES IDX 50 63 34 64 35 65 43 66 36 67 37 68 41 69 44 70 38 71 39 72
REMARK SMILES IDX 42 73 40 74 66 75 67 76 75 77 68 78 69 79 73 80 76 81 70 82
REMARK SMILES IDX 71 83 74 84 72 85 51 86 52 87 60 88 53 89 54 90 58 91 61 92
REMARK SMILES IDX 55 93 56 94 59 95 57 96
REMARK H PARENT 17 5 5 12 10 18 14 22 14 23 14 24 22 30 81 49 49 60
REMARK Flexibility Score: inf
ROOT
ATOM      1  C   UNL A   1      36.506  22.177  25.678  1.00  0.00     0.116 C 
ENDROOT
BRANCH   1   2
ATOM      2  N   UNL A   1      35.505  22.328  26.725  1.00  0.00    -0.354 N 
ATOM      3  C   UNL A   1      34.202  21.894  26.762  1.00  0.00     0.242 C 
ATOM      4  O   UNL A   1      33.646  21.833  27.860  1.00  0.00    -0.273 OA
ATOM      5  H   UNL A   1      35.806  22.812  27.527  1.00  0.00     0.163 HD
BRANCH   3   6
ATOM      6  C   UNL A   1      33.495  21.400  25.478  1.00  0.00     0.173 C 
BRANCH   6   7
ATOM      7  C   UNL A   1      32.625  22.497  24.780  1.00  0.00     0.015 C 
ATOM      8  C   UNL A   1      32.325  22.314  23.284  1.00  0.00     0.010 C 
ATOM      9  C   UNL A   1      31.244  22.572  25.446  1.00  0.00     0.010 C 
ENDBRANCH   6   7
BRANCH   6  10
ATOM     10  N   UNL A   1      32.800  20.156  25.867  1.00  0.00    -0.342 N 
ATOM     11  C   UNL A   1      32.903  18.861  25.477  1.00  0.00     0.242 C 
ATOM     12  H   UNL A   1      32.115  20.297  26.560  1.00  0.00     0.164 HD
ATOM     13  O   UNL A   1      32.335  18.021  26.184  1.00  0.00    -0.273 OA
BRANCH  11  14
ATOM     14  C   UNL A   1      33.779  18.451  24.293  1.00  0.00     0.168 C 
ATOM     15  C   UNL A   1      32.883  17.857  23.205  1.00  0.00     0.041 C 
BRANCH  14  16
ATOM     16  N   UNL A   1      34.713  17.436  24.777  1.00  0.00    -0.340 N 
ATOM     17  C   UNL A   1      34.525  16.122  25.074  1.00  0.00     0.275 C 
ATOM     18  H   UNL A   1      35.634  17.758  24.911  1.00  0.00     0.164 HD
ATOM     19  O   UNL A   1      35.471  15.496  25.559  1.00  0.00    -0.268 OA
BRANCH  17  20
ATOM     20  C   UNL A   1      33.225  15.401  24.722  1.00  0.00     0.360 C 
BRANCH  20  21
ATOM     21  N   UNL A   1      32.389  15.105  25.895  1.00  0.00    -0.350 N 
ATOM     22  H   UNL A   1      31.481  14.760  25.588  1.00  0.00     0.344 HD
ATOM     23  H   UNL A   1      32.261  15.955  26.445  1.00  0.00     0.344 HD
ATOM     24  H   UNL A   1      32.847  14.395  26.468  1.00  0.00     0.344 HD
ENDBRANCH  20  21
ENDBRANCH  17  20
ENDBRANCH  14  16
ENDBRANCH  11  14
ENDBRANCH   6  10
ENDBRANCH   3   6
ENDBRANCH   1   2
BRANCH   1  25
ATOM     25  C   UNL A   1      36.792  20.726  25.324  1.00  0.00     0.023 C 
BRANCH  25  26
ATOM     26  C   UNL A   1      38.240  20.451  24.916  1.00  0.00     0.023 C 
BRANCH  26  27
ATOM     27  C   UNL A   1      39.258  20.437  26.053  1.00  0.00     0.116 C 
BRANCH  27  28
ATOM     28  N   UNL A   1      40.190  19.319  25.983  1.00  0.00    -0.352 N 
ATOM     29  C   UNL A   1      41.560  19.329  26.083  1.00  0.00     0.251 C 
ATOM     30  H   UNL A   1      39.780  18.434  25.843  1.00  0.00     0.163 HD
ATOM     31  O   UNL A   1      42.209  18.304  25.899  1.00  0.00    -0.269 OA
BRANCH  29  32
ATOM     32  C   UNL A   1      42.248  20.600  26.376  1.00  0.00     0.039 A 
ATOM     33  C   UNL A   1      42.610  21.430  25.314  1.00  0.00     0.014 A 
ATOM     34  C   UNL A   1      42.472  20.993  27.698  1.00  0.00     0.014 A 
ATOM     35  C   UNL A   1      43.126  22.699  25.582  1.00  0.00     0.010 A 
ATOM     36  C   UNL A   1      42.914  22.286  27.961  1.00  0.00     0.010 A 
ATOM     37  C   UNL A   1      43.239  23.153  26.906  1.00  0.00    -0.014 A 
BRANCH  37  38
ATOM     38  C   UNL A   1      43.686  24.535  27.208  1.00  0.00     0.031 A 
ATOM     39  C   UNL A   1      42.700  25.552  27.708  1.00  0.00     0.074 A 
ATOM     40  C   UNL A   1      44.962  24.892  26.966  1.00  0.00     0.049 A 
ATOM     41  N   UNL A   1      42.877  26.825  27.957  1.00  0.00    -0.248 NA
ATOM     42  C   UNL A   1      41.323  25.083  27.928  1.00  0.00     0.031 C 
ATOM     43  C   UNL A   1      46.002  24.010  26.431  1.00  0.00     0.029 A 
ATOM     44  N   UNL A   1      45.602  26.096  27.126  1.00  0.00    -0.354 N 
ATOM     45  C   UNL A   1      41.636  27.308  28.348  1.00  0.00     0.074 A 
ATOM     46  C   UNL A   1      40.702  26.208  28.250  1.00  0.00     0.031 C 
ATOM     47  C   UNL A   1      47.152  24.695  26.330  1.00  0.00     0.029 A 
ATOM     48  C   UNL A   1      46.924  26.073  26.756  1.00  0.00     0.049 A 
ATOM     49  H   UNL A   1      45.154  26.901  27.475  1.00  0.00     0.167 HD
ATOM     50  C   UNL A   1      41.310  28.551  28.777  1.00  0.00     0.037 A 
ATOM     51  C   UNL A   1      47.846  27.054  26.753  1.00  0.00     0.037 A 
ATOM     52  C   UNL A   1      42.248  29.635  28.900  1.00  0.00     0.049 A 
ATOM     53  C   UNL A   1      47.457  28.427  27.231  1.00  0.00     0.074 A 
ATOM     54  C   UNL A   1      42.031  30.914  29.384  1.00  0.00     0.029 A 
ATOM     55  N   UNL A   1      43.585  29.568  28.534  1.00  0.00    -0.354 N 
ATOM     56  N   UNL A   1      46.297  28.854  27.668  1.00  0.00    -0.248 NA
ATOM     57  C   UNL A   1      48.507  29.456  27.220  1.00  0.00     0.031 C 
ATOM     58  C   UNL A   1      43.224  31.634  29.269  1.00  0.00     0.029 A 
ATOM     59  C   UNL A   1      44.199  30.790  28.761  1.00  0.00     0.049 A 
ATOM     60  H   UNL A   1      44.031  28.770  28.168  1.00  0.00     0.167 HD
ATOM     61  C   UNL A   1      46.484  30.186  28.010  1.00  0.00     0.074 A 
ATOM     62  C   UNL A   1      47.874  30.494  27.744  1.00  0.00     0.031 C 
ATOM     63  C   UNL A   1      45.585  31.076  28.500  1.00  0.00     0.037 A 
BRANCH  50  64
ATOM     64  C   UNL A   1      39.879  28.801  29.153  1.00  0.00     0.064 A 
ATOM     65  C   UNL A   1      38.946  29.275  28.217  1.00  0.00     0.173 A 
ATOM     66  C   UNL A   1      39.426  28.530  30.452  1.00  0.00     0.173 A 
ATOM     67  F   UNL A   1      39.333  29.561  26.965  1.00  0.00    -0.203 F 
ATOM     68  C   UNL A   1      37.620  29.496  28.577  1.00  0.00     0.198 A 
ATOM     69  C   UNL A   1      38.091  28.723  30.801  1.00  0.00     0.198 A 
ATOM     70  F   UNL A   1      40.275  28.072  31.384  1.00  0.00    -0.203 F 
ATOM     71  F   UNL A   1      36.759  29.996  27.681  1.00  0.00    -0.200 F 
ATOM     72  C   UNL A   1      37.191  29.212  29.865  1.00  0.00     0.200 A 
ATOM     73  F   UNL A   1      37.675  28.437  32.042  1.00  0.00    -0.200 F 
ATOM     74  F   UNL A   1      35.913  29.419  30.207  1.00  0.00    -0.200 F 
ENDBRANCH  50  64
BRANCH  51  75
ATOM     75  C   UNL A   1      49.235  26.772  26.307  1.00  0.00     0.064 A 
ATOM     76  C   UNL A   1      49.626  27.002  24.980  1.00  0.00     0.173 A 
ATOM     77  C   UNL A   1      50.195  26.254  27.188  1.00  0.00     0.173 A 
ATOM     78  F   UNL A   1      48.737  27.476  24.095  1.00  0.00    -0.203 F 
ATOM     79  C   UNL A   1      50.916  26.705  24.547  1.00  0.00     0.198 A 
ATOM     80  C   UNL A   1      51.494  25.983  26.761  1.00  0.00     0.198 A 
ATOM     81  F   UNL A   1      49.875  26.020  28.469  1.00  0.00    -0.203 F 
ATOM     82  F   UNL A   1      51.247  26.889  23.261  1.00  0.00    -0.200 F 
ATOM     83  C   UNL A   1      51.850  26.200  25.438  1.00  0.00     0.200 A 
ATOM     84  F   UNL A   1      52.398  25.509  27.628  1.00  0.00    -0.200 F 
ATOM     85  F   UNL A   1      53.092  25.915  25.021  1.00  0.00    -0.200 F 
ENDBRANCH  51  75
BRANCH  63  86
ATOM     86  C   UNL A   1      46.084  32.457  28.813  1.00  0.00     0.064 A 
ATOM     87  C   UNL A   1      46.631  32.776  30.064  1.00  0.00     0.173 A 
ATOM     88  C   UNL A   1      46.051  33.461  27.833  1.00  0.00     0.173 A 
ATOM     89  F   UNL A   1      46.670  31.854  31.038  1.00  0.00    -0.203 F 
ATOM     90  C   UNL A   1      47.106  34.057  30.331  1.00  0.00     0.198 A 
ATOM     91  C   UNL A   1      46.555  34.733  28.094  1.00  0.00     0.198 A 
ATOM     92  F   UNL A   1      45.543  33.205  26.618  1.00  0.00    -0.203 F 
ATOM     93  F   UNL A   1      47.581  34.353  31.548  1.00  0.00    -0.200 F 
ATOM     94  C   UNL A   1      47.075  35.032  29.344  1.00  0.00     0.200 A 
ATOM     95  F   UNL A   1      46.536  35.668  27.134  1.00  0.00    -0.200 F 
ATOM     96  F   UNL A   1      47.539  36.262  29.600  1.00  0.00    -0.200 F 
ENDBRANCH  63  86
ENDBRANCH  37  38
ENDBRANCH  29  32
ENDBRANCH  27  28
ENDBRANCH  26  27
ENDBRANCH  25  26
ENDBRANCH   1  25
TORSDOF 17
ENDMDL
