MODEL 1
REMARK VINA RESULT:     -13.9      0.000      0.000
REMARK SMILES Cc1nc(-c2ccccn2)cc(N2CCC[C@H](C(=O)NCCCCNC(=O)c3ccc(-c4c5nc(c(-c6c(F)c(F)c(F)c(F)c6F)c6ccc([nH]6)c(-c6c(F)c(F)c(F)c(F)c6F)c6nc(c(-c7c(F)c(F)c(F)c(F)c7F)c7ccc4[nH]7)C=C6)C=C5)cc3)C2)n1
REMARK SMILES IDX 22 1 21 2 20 3 18 4 19 5 17 7 13 8 14 9 91 10 15 11 16 12
REMARK SMILES IDX 12 13 1 14 2 15 3 16 92 17 4 18 11 19 5 20 6 21 10 22 7 23
REMARK SMILES IDX 9 24 8 25 23 26 24 27 25 28 26 29 27 31 28 32 29 33 90 34
REMARK SMILES IDX 30 35 89 36 31 37 32 38 33 39 83 40 34 41 88 42 82 43 84 44
REMARK SMILES IDX 35 45 87 46 81 47 80 48 36 50 68 51 48 52 67 53 49 54 52 55
REMARK SMILES IDX 66 56 85 57 50 58 51 59 65 61 86 62 53 63 37 64 38 65 46 66
REMARK SMILES IDX 39 67 40 68 44 69 47 70 41 71 42 72 45 73 43 74 69 75 70 76
REMARK SMILES IDX 78 77 71 78 72 79 76 80 79 81 73 82 74 83 77 84 75 85 54 86
REMARK SMILES IDX 55 87 63 88 56 89 57 90 61 91 64 92 58 93 59 94 62 95 60 96
REMARK H PARENT 20 6 25 30 84 49 52 60
REMARK Flexibility Score: inf
ROOT
ATOM      1  C   UNL A   1      33.362  28.979  24.635  1.00  0.00     0.023 C 
ENDROOT
BRANCH   1   2
ATOM      2  C   UNL A   1      33.150  28.795  23.145  1.00  0.00     0.116 C 
BRANCH   2   3
ATOM      3  N   UNL A   1      33.746  27.613  22.577  1.00  0.00    -0.356 N 
ATOM      4  C   UNL A   1      33.415  26.306  22.763  1.00  0.00     0.224 C 
ATOM      5  O   UNL A   1      33.892  25.500  21.954  1.00  0.00    -0.275 OA
ATOM      6  H   UNL A   1      34.502  27.773  21.967  1.00  0.00     0.163 HD
BRANCH   4   7
ATOM      7  C   UNL A   1      32.476  25.797  23.863  1.00  0.00     0.098 C 
ATOM      8  N   UNL A   1      32.817  23.396  24.075  1.00  0.00    -0.356 N 
ATOM      9  C   UNL A   1      31.406  23.015  24.078  1.00  0.00     0.118 C 
ATOM     10  C   UNL A   1      33.114  24.684  24.686  1.00  0.00     0.131 C 
ATOM     11  C   UNL A   1      30.560  24.069  23.342  1.00  0.00     0.022 C 
ATOM     12  C   UNL A   1      31.013  25.534  23.470  1.00  0.00     0.017 C 
BRANCH   8  13
ATOM     13  C   UNL A   1      33.748  22.389  24.322  1.00  0.00     0.132 A 
ATOM     14  C   UNL A   1      37.187  21.926  25.477  1.00  0.00     0.090 C 
ATOM     15  C   UNL A   1      35.767  21.648  25.100  1.00  0.00     0.128 A 
ATOM     16  N   UNL A   1      35.421  20.355  25.030  1.00  0.00    -0.231 NA
ATOM     17  N   UNL A   1      34.957  22.686  24.818  1.00  0.00    -0.216 NA
ATOM     18  C   UNL A   1      34.193  20.080  24.559  1.00  0.00     0.094 A 
ATOM     19  C   UNL A   1      33.368  21.079  24.094  1.00  0.00     0.077 A 
BRANCH  18  20
ATOM     20  C   UNL A   1      33.762  18.676  24.643  1.00  0.00     0.089 A 
ATOM     21  C   UNL A   1      34.332  17.656  23.885  1.00  0.00     0.030 A 
ATOM     22  N   UNL A   1      32.748  18.434  25.516  1.00  0.00    -0.255 NA
ATOM     23  C   UNL A   1      33.900  16.344  24.086  1.00  0.00     0.004 A 
ATOM     24  C   UNL A   1      32.342  17.162  25.689  1.00  0.00     0.112 A 
ATOM     25  C   UNL A   1      32.903  16.090  25.022  1.00  0.00     0.020 A 
ENDBRANCH  18  20
ENDBRANCH   8  13
ENDBRANCH   4   7
ENDBRANCH   2   3
ENDBRANCH   1   2
BRANCH   1  26
ATOM     26  C   UNL A   1      32.133  29.489  25.386  1.00  0.00     0.023 C 
BRANCH  26  27
ATOM     27  C   UNL A   1      32.370  30.016  26.802  1.00  0.00     0.116 C 
BRANCH  27  28
ATOM     28  N   UNL A   1      32.427  31.464  26.915  1.00  0.00    -0.352 N 
ATOM     29  C   UNL A   1      33.404  32.264  27.470  1.00  0.00     0.251 C 
ATOM     30  H   UNL A   1      31.654  31.945  26.540  1.00  0.00     0.163 HD
ATOM     31  O   UNL A   1      33.205  33.468  27.587  1.00  0.00    -0.269 OA
BRANCH  29  32
ATOM     32  C   UNL A   1      34.674  31.681  27.975  1.00  0.00     0.039 A 
ATOM     33  C   UNL A   1      35.789  32.514  28.120  1.00  0.00     0.014 A 
ATOM     34  C   UNL A   1      34.785  30.328  28.297  1.00  0.00     0.014 A 
ATOM     35  C   UNL A   1      36.972  32.010  28.669  1.00  0.00     0.010 A 
ATOM     36  C   UNL A   1      35.941  29.830  28.886  1.00  0.00     0.010 A 
ATOM     37  C   UNL A   1      37.035  30.673  29.094  1.00  0.00    -0.014 A 
BRANCH  37  38
ATOM     38  C   UNL A   1      38.174  30.171  29.890  1.00  0.00     0.031 A 
ATOM     39  C   UNL A   1      38.424  30.654  31.284  1.00  0.00     0.074 A 
ATOM     40  C   UNL A   1      39.058  29.372  29.267  1.00  0.00     0.049 A 
ATOM     41  N   UNL A   1      39.382  30.327  32.112  1.00  0.00    -0.248 NA
ATOM     42  C   UNL A   1      37.496  31.667  31.807  1.00  0.00     0.031 C 
ATOM     43  C   UNL A   1      38.961  28.947  27.867  1.00  0.00     0.029 A 
ATOM     44  N   UNL A   1      40.217  28.796  29.712  1.00  0.00    -0.354 N 
ATOM     45  C   UNL A   1      39.169  31.084  33.257  1.00  0.00     0.074 A 
ATOM     46  C   UNL A   1      38.029  31.937  32.991  1.00  0.00     0.031 C 
ATOM     47  C   UNL A   1      40.011  28.169  27.572  1.00  0.00     0.029 A 
ATOM     48  C   UNL A   1      40.856  28.048  28.755  1.00  0.00     0.049 A 
ATOM     49  H   UNL A   1      40.559  28.908  30.628  1.00  0.00     0.167 HD
ATOM     50  C   UNL A   1      39.853  31.043  34.426  1.00  0.00     0.037 A 
ATOM     51  C   UNL A   1      41.994  27.336  28.832  1.00  0.00     0.037 A 
ATOM     52  C   UNL A   1      40.987  30.182  34.656  1.00  0.00     0.049 A 
ATOM     53  C   UNL A   1      42.707  27.269  30.152  1.00  0.00     0.074 A 
ATOM     54  C   UNL A   1      41.699  29.981  35.825  1.00  0.00     0.029 A 
ATOM     55  N   UNL A   1      41.584  29.388  33.684  1.00  0.00    -0.354 N 
ATOM     56  N   UNL A   1      42.420  27.878  31.277  1.00  0.00    -0.248 NA
ATOM     57  C   UNL A   1      43.883  26.396  30.220  1.00  0.00     0.031 C 
ATOM     58  C   UNL A   1      42.761  29.112  35.546  1.00  0.00     0.029 A 
ATOM     59  C   UNL A   1      42.675  28.721  34.219  1.00  0.00     0.049 A 
ATOM     60  H   UNL A   1      41.276  29.311  32.752  1.00  0.00     0.167 HD
ATOM     61  C   UNL A   1      43.366  27.448  32.196  1.00  0.00     0.074 A 
ATOM     62  C   UNL A   1      44.217  26.503  31.499  1.00  0.00     0.031 C 
ATOM     63  C   UNL A   1      43.520  27.802  33.496  1.00  0.00     0.037 A 
BRANCH  50  64
ATOM     64  C   UNL A   1      39.390  31.934  35.546  1.00  0.00     0.064 A 
ATOM     65  C   UNL A   1      38.454  31.497  36.498  1.00  0.00     0.173 A 
ATOM     66  C   UNL A   1      39.929  33.220  35.710  1.00  0.00     0.173 A 
ATOM     67  F   UNL A   1      37.900  30.279  36.389  1.00  0.00    -0.203 F 
ATOM     68  C   UNL A   1      38.056  32.318  37.550  1.00  0.00     0.198 A 
ATOM     69  C   UNL A   1      39.553  34.027  36.782  1.00  0.00     0.198 A 
ATOM     70  F   UNL A   1      40.831  33.691  34.837  1.00  0.00    -0.203 F 
ATOM     71  F   UNL A   1      37.127  31.893  38.417  1.00  0.00    -0.200 F 
ATOM     72  C   UNL A   1      38.613  33.579  37.696  1.00  0.00     0.200 A 
ATOM     73  F   UNL A   1      40.105  35.241  36.931  1.00  0.00    -0.200 F 
ATOM     74  F   UNL A   1      38.239  34.364  38.717  1.00  0.00    -0.200 F 
ENDBRANCH  50  64
BRANCH  51  75
ATOM     75  C   UNL A   1      42.465  26.581  27.645  1.00  0.00     0.064 A 
ATOM     76  C   UNL A   1      43.422  27.127  26.779  1.00  0.00     0.173 A 
ATOM     77  C   UNL A   1      42.011  25.281  27.378  1.00  0.00     0.173 A 
ATOM     78  F   UNL A   1      43.882  28.369  26.991  1.00  0.00    -0.203 F 
ATOM     79  C   UNL A   1      43.892  26.411  25.682  1.00  0.00     0.198 A 
ATOM     80  C   UNL A   1      42.504  24.554  26.297  1.00  0.00     0.198 A 
ATOM     81  F   UNL A   1      41.109  24.705  28.189  1.00  0.00    -0.203 F 
ATOM     82  F   UNL A   1      44.782  26.972  24.850  1.00  0.00    -0.200 F 
ATOM     83  C   UNL A   1      43.439  25.122  25.445  1.00  0.00     0.200 A 
ATOM     84  F   UNL A   1      42.080  23.300  26.086  1.00  0.00    -0.200 F 
ATOM     85  F   UNL A   1      43.904  24.428  24.398  1.00  0.00    -0.200 F 
ENDBRANCH  51  75
BRANCH  63  86
ATOM     86  C   UNL A   1      44.653  27.154  34.239  1.00  0.00     0.064 A 
ATOM     87  C   UNL A   1      44.493  25.924  34.896  1.00  0.00     0.173 A 
ATOM     88  C   UNL A   1      45.913  27.768  34.291  1.00  0.00     0.173 A 
ATOM     89  F   UNL A   1      43.303  25.304  34.887  1.00  0.00    -0.203 F 
ATOM     90  C   UNL A   1      45.541  25.356  35.614  1.00  0.00     0.198 A 
ATOM     91  C   UNL A   1      46.969  27.178  34.980  1.00  0.00     0.198 A 
ATOM     92  F   UNL A   1      46.122  28.941  33.673  1.00  0.00    -0.203 F 
ATOM     93  F   UNL A   1      45.344  24.216  36.292  1.00  0.00    -0.200 F 
ATOM     94  C   UNL A   1      46.778  25.980  35.652  1.00  0.00     0.200 A 
ATOM     95  F   UNL A   1      48.169  27.775  35.003  1.00  0.00    -0.200 F 
ATOM     96  F   UNL A   1      47.785  25.432  36.347  1.00  0.00    -0.200 F 
ENDBRANCH  63  86
ENDBRANCH  37  38
ENDBRANCH  29  32
ENDBRANCH  27  28
ENDBRANCH  26  27
ENDBRANCH   1  26
TORSDOF 13
ENDMDL
MODEL 2
REMARK VINA RESULT:     -13.8      1.925      7.747
REMARK SMILES Cc1nc(-c2ccccn2)cc(N2CCC[C@H](C(=O)NCCCCNC(=O)c3ccc(-c4c5nc(c(-c6c(F)c(F)c(F)c(F)c6F)c6ccc([nH]6)c(-c6c(F)c(F)c(F)c(F)c6F)c6nc(c(-c7c(F)c(F)c(F)c(F)c7F)c7ccc4[nH]7)C=C6)C=C5)cc3)C2)n1
REMARK SMILES IDX 22 1 21 2 20 3 18 4 19 5 17 7 13 8 14 9 91 10 15 11 16 12
REMARK SMILES IDX 12 13 1 14 2 15 3 16 92 17 4 18 11 19 5 20 6 21 10 22 7 23
REMARK SMILES IDX 9 24 8 25 23 26 24 27 25 28 26 29 27 31 28 32 29 33 90 34
REMARK SMILES IDX 30 35 89 36 31 37 32 38 33 39 83 40 34 41 88 42 82 43 84 44
REMARK SMILES IDX 35 45 87 46 81 47 80 48 36 50 68 51 48 52 67 53 49 54 52 55
REMARK SMILES IDX 66 56 85 57 50 58 51 59 65 61 86 62 53 63 37 64 38 65 46 66
REMARK SMILES IDX 39 67 40 68 44 69 47 70 41 71 42 72 45 73 43 74 69 75 70 76
REMARK SMILES IDX 78 77 71 78 72 79 76 80 79 81 73 82 74 83 77 84 75 85 54 86
REMARK SMILES IDX 55 87 63 88 56 89 57 90 61 91 64 92 58 93 59 94 62 95 60 96
REMARK H PARENT 20 6 25 30 84 49 52 60
REMARK Flexibility Score: inf
ROOT
ATOM      1  C   UNL A   1      31.776  30.451  26.457  1.00  0.00     0.023 C 
ENDROOT
BRANCH   1   2
ATOM      2  C   UNL A   1      33.211  29.976  26.572  1.00  0.00     0.116 C 
BRANCH   2   3
ATOM      3  N   UNL A   1      33.700  29.210  25.455  1.00  0.00    -0.356 N 
ATOM      4  C   UNL A   1      33.258  28.018  24.967  1.00  0.00     0.224 C 
ATOM      5  O   UNL A   1      33.660  27.705  23.840  1.00  0.00    -0.275 OA
ATOM      6  H   UNL A   1      34.464  29.604  24.975  1.00  0.00     0.163 HD
BRANCH   4   7
ATOM      7  C   UNL A   1      32.284  27.088  25.701  1.00  0.00     0.098 C 
ATOM      8  N   UNL A   1      32.788  24.805  25.023  1.00  0.00    -0.356 N 
ATOM      9  C   UNL A   1      31.414  24.392  24.749  1.00  0.00     0.118 C 
ATOM     10  C   UNL A   1      32.944  25.773  26.099  1.00  0.00     0.131 C 
ATOM     11  C   UNL A   1      30.545  25.611  24.388  1.00  0.00     0.022 C 
ATOM     12  C   UNL A   1      30.877  26.934  25.101  1.00  0.00     0.017 C 
BRANCH   8  13
ATOM     13  C   UNL A   1      33.773  23.820  24.960  1.00  0.00     0.132 A 
ATOM     14  C   UNL A   1      37.345  23.335  25.571  1.00  0.00     0.090 C 
ATOM     15  C   UNL A   1      35.897  23.057  25.328  1.00  0.00     0.128 A 
ATOM     16  N   UNL A   1      35.581  21.782  25.059  1.00  0.00    -0.231 NA
ATOM     17  N   UNL A   1      35.027  24.085  25.348  1.00  0.00    -0.216 NA
ATOM     18  C   UNL A   1      34.311  21.533  24.701  1.00  0.00     0.094 A 
ATOM     19  C   UNL A   1      33.403  22.555  24.538  1.00  0.00     0.077 A 
BRANCH  18  20
ATOM     20  C   UNL A   1      33.935  20.117  24.572  1.00  0.00     0.089 A 
ATOM     21  C   UNL A   1      32.620  19.687  24.411  1.00  0.00     0.030 A 
ATOM     22  N   UNL A   1      34.970  19.236  24.632  1.00  0.00    -0.255 NA
ATOM     23  C   UNL A   1      32.372  18.327  24.229  1.00  0.00     0.004 A 
ATOM     24  C   UNL A   1      34.707  17.927  24.461  1.00  0.00     0.112 A 
ATOM     25  C   UNL A   1      33.438  17.433  24.231  1.00  0.00     0.020 A 
ENDBRANCH  18  20
ENDBRANCH   8  13
ENDBRANCH   4   7
ENDBRANCH   2   3
ENDBRANCH   1   2
BRANCH   1  26
ATOM     26  C   UNL A   1      31.602  31.964  26.581  1.00  0.00     0.023 C 
BRANCH  26  27
ATOM     27  C   UNL A   1      32.710  32.719  27.316  1.00  0.00     0.116 C 
BRANCH  27  28
ATOM     28  N   UNL A   1      32.401  34.104  27.632  1.00  0.00    -0.352 N 
ATOM     29  C   UNL A   1      32.979  34.943  28.561  1.00  0.00     0.251 C 
ATOM     30  H   UNL A   1      31.671  34.502  27.105  1.00  0.00     0.163 HD
ATOM     31  O   UNL A   1      32.486  36.046  28.770  1.00  0.00    -0.269 OA
BRANCH  29  32
ATOM     32  C   UNL A   1      34.162  34.511  29.351  1.00  0.00     0.039 A 
ATOM     33  C   UNL A   1      33.964  33.996  30.636  1.00  0.00     0.014 A 
ATOM     34  C   UNL A   1      35.459  34.615  28.847  1.00  0.00     0.014 A 
ATOM     35  C   UNL A   1      35.050  33.506  31.368  1.00  0.00     0.010 A 
ATOM     36  C   UNL A   1      36.537  34.090  29.550  1.00  0.00     0.010 A 
ATOM     37  C   UNL A   1      36.336  33.514  30.806  1.00  0.00    -0.014 A 
BRANCH  37  38
ATOM     38  C   UNL A   1      37.460  32.796  31.442  1.00  0.00     0.031 A 
ATOM     39  C   UNL A   1      38.086  31.599  30.798  1.00  0.00     0.074 A 
ATOM     40  C   UNL A   1      37.804  33.169  32.688  1.00  0.00     0.049 A 
ATOM     41  N   UNL A   1      39.067  30.848  31.227  1.00  0.00    -0.248 NA
ATOM     42  C   UNL A   1      37.512  31.165  29.516  1.00  0.00     0.031 C 
ATOM     43  C   UNL A   1      37.164  34.247  33.447  1.00  0.00     0.029 A 
ATOM     44  N   UNL A   1      38.752  32.676  33.543  1.00  0.00    -0.354 N 
ATOM     45  C   UNL A   1      39.236  29.860  30.266  1.00  0.00     0.074 A 
ATOM     46  C   UNL A   1      38.211  30.067  29.264  1.00  0.00     0.031 C 
ATOM     47  C   UNL A   1      37.745  34.341  34.650  1.00  0.00     0.029 A 
ATOM     48  C   UNL A   1      38.788  33.327  34.750  1.00  0.00     0.049 A 
ATOM     49  H   UNL A   1      39.349  31.926  33.314  1.00  0.00     0.167 HD
ATOM     50  C   UNL A   1      40.181  28.889  30.222  1.00  0.00     0.037 A 
ATOM     51  C   UNL A   1      39.587  33.131  35.814  1.00  0.00     0.037 A 
ATOM     52  C   UNL A   1      41.186  28.709  31.241  1.00  0.00     0.049 A 
ATOM     53  C   UNL A   1      40.656  32.080  35.722  1.00  0.00     0.074 A 
ATOM     54  C   UNL A   1      42.252  27.826  31.260  1.00  0.00     0.029 A 
ATOM     55  N   UNL A   1      41.237  29.421  32.433  1.00  0.00    -0.354 N 
ATOM     56  N   UNL A   1      40.903  31.238  34.748  1.00  0.00    -0.248 NA
ATOM     57  C   UNL A   1      41.571  31.972  36.862  1.00  0.00     0.031 C 
ATOM     58  C   UNL A   1      42.911  27.965  32.487  1.00  0.00     0.029 A 
ATOM     59  C   UNL A   1      42.296  28.975  33.208  1.00  0.00     0.049 A 
ATOM     60  H   UNL A   1      40.612  30.137  32.688  1.00  0.00     0.167 HD
ATOM     61  C   UNL A   1      42.015  30.511  35.146  1.00  0.00     0.074 A 
ATOM     62  C   UNL A   1      42.410  31.036  36.439  1.00  0.00     0.031 C 
ATOM     63  C   UNL A   1      42.654  29.501  34.503  1.00  0.00     0.037 A 
BRANCH  50  64
ATOM     64  C   UNL A   1      40.185  27.961  29.038  1.00  0.00     0.064 A 
ATOM     65  C   UNL A   1      40.915  28.255  27.875  1.00  0.00     0.173 A 
ATOM     66  C   UNL A   1      39.502  26.735  29.083  1.00  0.00     0.173 A 
ATOM     67  F   UNL A   1      41.582  29.415  27.772  1.00  0.00    -0.203 F 
ATOM     68  C   UNL A   1      40.938  27.374  26.796  1.00  0.00     0.198 A 
ATOM     69  C   UNL A   1      39.555  25.842  28.015  1.00  0.00     0.198 A 
ATOM     70  F   UNL A   1      38.793  26.396  30.170  1.00  0.00    -0.203 F 
ATOM     71  F   UNL A   1      41.605  27.701  25.680  1.00  0.00    -0.200 F 
ATOM     72  C   UNL A   1      40.266  26.164  26.871  1.00  0.00     0.200 A 
ATOM     73  F   UNL A   1      38.916  24.665  28.096  1.00  0.00    -0.200 F 
ATOM     74  F   UNL A   1      40.300  25.312  25.837  1.00  0.00    -0.200 F 
ENDBRANCH  50  64
BRANCH  51  75
ATOM     75  C   UNL A   1      39.442  34.002  37.007  1.00  0.00     0.064 A 
ATOM     76  C   UNL A   1      38.717  33.572  38.126  1.00  0.00     0.173 A 
ATOM     77  C   UNL A   1      40.064  35.257  37.075  1.00  0.00     0.173 A 
ATOM     78  F   UNL A   1      38.100  32.381  38.106  1.00  0.00    -0.203 F 
ATOM     79  C   UNL A   1      38.604  34.370  39.261  1.00  0.00     0.198 A 
ATOM     80  C   UNL A   1      39.975  36.042  38.222  1.00  0.00     0.198 A 
ATOM     81  F   UNL A   1      40.786  35.706  36.037  1.00  0.00    -0.203 F 
ATOM     82  F   UNL A   1      37.876  33.948  40.305  1.00  0.00    -0.200 F 
ATOM     83  C   UNL A   1      39.240  35.602  39.312  1.00  0.00     0.200 A 
ATOM     84  F   UNL A   1      40.610  37.221  38.275  1.00  0.00    -0.200 F 
ATOM     85  F   UNL A   1      39.143  36.363  40.410  1.00  0.00    -0.200 F 
ENDBRANCH  51  75
BRANCH  63  86
ATOM     86  C   UNL A   1      43.845  28.909  35.200  1.00  0.00     0.064 A 
ATOM     87  C   UNL A   1      45.143  29.393  34.975  1.00  0.00     0.173 A 
ATOM     88  C   UNL A   1      43.686  27.848  36.104  1.00  0.00     0.173 A 
ATOM     89  F   UNL A   1      45.348  30.397  34.109  1.00  0.00    -0.203 F 
ATOM     90  C   UNL A   1      46.242  28.807  35.596  1.00  0.00     0.198 A 
ATOM     91  C   UNL A   1      44.785  27.289  36.751  1.00  0.00     0.198 A 
ATOM     92  F   UNL A   1      42.466  27.353  36.360  1.00  0.00    -0.203 F 
ATOM     93  F   UNL A   1      47.478  29.241  35.313  1.00  0.00    -0.200 F 
ATOM     94  C   UNL A   1      46.062  27.760  36.487  1.00  0.00     0.200 A 
ATOM     95  F   UNL A   1      44.607  26.287  37.623  1.00  0.00    -0.200 F 
ATOM     96  F   UNL A   1      47.122  27.196  37.082  1.00  0.00    -0.200 F 
ENDBRANCH  63  86
ENDBRANCH  37  38
ENDBRANCH  29  32
ENDBRANCH  27  28
ENDBRANCH  26  27
ENDBRANCH   1  26
TORSDOF 13
ENDMDL
MODEL 3
REMARK VINA RESULT:     -13.6      4.751      9.073
REMARK SMILES Cc1nc(-c2ccccn2)cc(N2CCC[C@H](C(=O)NCCCCNC(=O)c3ccc(-c4c5nc(c(-c6c(F)c(F)c(F)c(F)c6F)c6ccc([nH]6)c(-c6c(F)c(F)c(F)c(F)c6F)c6nc(c(-c7c(F)c(F)c(F)c(F)c7F)c7ccc4[nH]7)C=C6)C=C5)cc3)C2)n1
REMARK SMILES IDX 22 1 21 2 20 3 18 4 19 5 17 7 13 8 14 9 91 10 15 11 16 12
REMARK SMILES IDX 12 13 1 14 2 15 3 16 92 17 4 18 11 19 5 20 6 21 10 22 7 23
REMARK SMILES IDX 9 24 8 25 23 26 24 27 25 28 26 29 27 31 28 32 29 33 90 34
REMARK SMILES IDX 30 35 89 36 31 37 32 38 33 39 83 40 34 41 88 42 82 43 84 44
REMARK SMILES IDX 35 45 87 46 81 47 80 48 36 50 68 51 48 52 67 53 49 54 52 55
REMARK SMILES IDX 66 56 85 57 50 58 51 59 65 61 86 62 53 63 37 64 38 65 46 66
REMARK SMILES IDX 39 67 40 68 44 69 47 70 41 71 42 72 45 73 43 74 69 75 70 76
REMARK SMILES IDX 78 77 71 78 72 79 76 80 79 81 73 82 74 83 77 84 75 85 54 86
REMARK SMILES IDX 55 87 63 88 56 89 57 90 61 91 64 92 58 93 59 94 62 95 60 96
REMARK H PARENT 20 6 25 30 84 49 52 60
REMARK Flexibility Score: inf
ROOT
ATOM      1  C   UNL A   1      36.478  21.023  25.019  1.00  0.00     0.023 C 
ENDROOT
BRANCH   1   2
ATOM      2  C   UNL A   1      36.449  22.467  24.560  1.00  0.00     0.116 C 
BRANCH   2   3
ATOM      3  N   UNL A   1      35.742  23.377  25.426  1.00  0.00    -0.356 N 
ATOM      4  C   UNL A   1      34.646  24.141  25.164  1.00  0.00     0.224 C 
ATOM      5  O   UNL A   1      34.067  24.621  26.147  1.00  0.00    -0.275 OA
ATOM      6  H   UNL A   1      36.104  23.458  26.338  1.00  0.00     0.163 HD
BRANCH   4   7
ATOM      7  C   UNL A   1      34.082  24.397  23.761  1.00  0.00     0.098 C 
ATOM      8  N   UNL A   1      32.302  26.044  23.970  1.00  0.00    -0.356 N 
ATOM      9  C   UNL A   1      31.313  25.343  23.155  1.00  0.00     0.118 C 
ATOM     10  C   UNL A   1      33.688  25.856  23.565  1.00  0.00     0.131 C 
ATOM     11  C   UNL A   1      31.583  23.827  23.163  1.00  0.00     0.022 C 
ATOM     12  C   UNL A   1      33.057  23.386  23.224  1.00  0.00     0.017 C 
BRANCH   8  13
ATOM     13  C   UNL A   1      31.975  27.329  24.400  1.00  0.00     0.132 A 
ATOM     14  C   UNL A   1      33.119  29.926  26.706  1.00  0.00     0.090 C 
ATOM     15  C   UNL A   1      32.406  29.234  25.590  1.00  0.00     0.128 A 
ATOM     16  N   UNL A   1      31.427  29.932  24.997  1.00  0.00    -0.231 NA
ATOM     17  N   UNL A   1      32.750  27.968  25.287  1.00  0.00    -0.216 NA
ATOM     18  C   UNL A   1      30.682  29.282  24.088  1.00  0.00     0.094 A 
ATOM     19  C   UNL A   1      30.865  27.940  23.844  1.00  0.00     0.077 A 
BRANCH  18  20
ATOM     20  C   UNL A   1      29.725  30.098  23.325  1.00  0.00     0.089 A 
ATOM     21  C   UNL A   1      29.032  31.175  23.873  1.00  0.00     0.030 A 
ATOM     22  N   UNL A   1      29.548  29.723  22.030  1.00  0.00    -0.255 NA
ATOM     23  C   UNL A   1      28.198  31.930  23.048  1.00  0.00     0.004 A 
ATOM     24  C   UNL A   1      28.732  30.461  21.254  1.00  0.00     0.112 A 
ATOM     25  C   UNL A   1      28.063  31.580  21.709  1.00  0.00     0.020 A 
ENDBRANCH  18  20
ENDBRANCH   8  13
ENDBRANCH   4   7
ENDBRANCH   2   3
ENDBRANCH   1   2
BRANCH   1  26
ATOM     26  C   UNL A   1      37.791  20.298  24.729  1.00  0.00     0.023 C 
BRANCH  26  27
ATOM     27  C   UNL A   1      38.924  20.512  25.734  1.00  0.00     0.116 C 
BRANCH  27  28
ATOM     28  N   UNL A   1      39.849  19.398  25.860  1.00  0.00    -0.352 N 
ATOM     29  C   UNL A   1      41.204  19.406  26.115  1.00  0.00     0.251 C 
ATOM     30  H   UNL A   1      39.448  18.506  25.748  1.00  0.00     0.163 HD
ATOM     31  O   UNL A   1      41.837  18.358  26.053  1.00  0.00    -0.269 OA
BRANCH  29  32
ATOM     32  C   UNL A   1      41.919  20.674  26.412  1.00  0.00     0.039 A 
ATOM     33  C   UNL A   1      42.435  21.424  25.350  1.00  0.00     0.014 A 
ATOM     34  C   UNL A   1      42.096  21.128  27.720  1.00  0.00     0.014 A 
ATOM     35  C   UNL A   1      43.040  22.661  25.595  1.00  0.00     0.010 A 
ATOM     36  C   UNL A   1      42.655  22.377  27.968  1.00  0.00     0.010 A 
ATOM     37  C   UNL A   1      43.112  23.159  26.906  1.00  0.00    -0.014 A 
BRANCH  37  38
ATOM     38  C   UNL A   1      43.522  24.552  27.179  1.00  0.00     0.031 A 
ATOM     39  C   UNL A   1      42.531  25.588  27.608  1.00  0.00     0.074 A 
ATOM     40  C   UNL A   1      44.792  24.889  26.890  1.00  0.00     0.049 A 
ATOM     41  N   UNL A   1      42.722  26.854  27.874  1.00  0.00    -0.248 NA
ATOM     42  C   UNL A   1      41.132  25.153  27.720  1.00  0.00     0.031 C 
ATOM     43  C   UNL A   1      45.799  23.973  26.347  1.00  0.00     0.029 A 
ATOM     44  N   UNL A   1      45.447  26.087  26.984  1.00  0.00    -0.354 N 
ATOM     45  C   UNL A   1      41.472  27.366  28.194  1.00  0.00     0.074 A 
ATOM     46  C   UNL A   1      40.519  26.290  28.024  1.00  0.00     0.031 C 
ATOM     47  C   UNL A   1      46.948  24.640  26.168  1.00  0.00     0.029 A 
ATOM     48  C   UNL A   1      46.755  26.027  26.573  1.00  0.00     0.049 A 
ATOM     49  H   UNL A   1      45.021  26.911  27.315  1.00  0.00     0.167 HD
ATOM     50  C   UNL A   1      41.163  28.617  28.616  1.00  0.00     0.037 A 
ATOM     51  C   UNL A   1      47.694  26.988  26.539  1.00  0.00     0.037 A 
ATOM     52  C   UNL A   1      42.139  29.668  28.772  1.00  0.00     0.049 A 
ATOM     53  C   UNL A   1      47.340  28.353  27.056  1.00  0.00     0.074 A 
ATOM     54  C   UNL A   1      41.965  30.943  29.282  1.00  0.00     0.029 A 
ATOM     55  N   UNL A   1      43.474  29.566  28.401  1.00  0.00    -0.354 N 
ATOM     56  N   UNL A   1      46.186  28.796  27.493  1.00  0.00    -0.248 NA
ATOM     57  C   UNL A   1      48.423  29.340  27.101  1.00  0.00     0.031 C 
ATOM     58  C   UNL A   1      43.180  31.629  29.165  1.00  0.00     0.029 A 
ATOM     59  C   UNL A   1      44.127  30.765  28.640  1.00  0.00     0.049 A 
ATOM     60  H   UNL A   1      43.894  28.760  28.023  1.00  0.00     0.167 HD
ATOM     61  C   UNL A   1      46.406  30.109  27.885  1.00  0.00     0.074 A 
ATOM     62  C   UNL A   1      47.813  30.376  27.659  1.00  0.00     0.031 C 
ATOM     63  C   UNL A   1      45.526  31.012  28.385  1.00  0.00     0.037 A 
BRANCH  50  64
ATOM     64  C   UNL A   1      39.728  28.915  28.953  1.00  0.00     0.064 A 
ATOM     65  C   UNL A   1      38.825  29.384  27.986  1.00  0.00     0.173 A 
ATOM     66  C   UNL A   1      39.229  28.673  30.243  1.00  0.00     0.173 A 
ATOM     67  F   UNL A   1      39.247  29.640  26.737  1.00  0.00    -0.203 F 
ATOM     68  C   UNL A   1      37.491  29.626  28.301  1.00  0.00     0.198 A 
ATOM     69  C   UNL A   1      37.885  28.885  30.547  1.00  0.00     0.198 A 
ATOM     70  F   UNL A   1      40.041  28.218  31.209  1.00  0.00    -0.203 F 
ATOM     71  F   UNL A   1      36.662  30.119  27.370  1.00  0.00    -0.200 F 
ATOM     72  C   UNL A   1      37.020  29.368  29.579  1.00  0.00     0.200 A 
ATOM     73  F   UNL A   1      37.429  28.619  31.780  1.00  0.00    -0.200 F 
ATOM     74  F   UNL A   1      35.731  29.588  29.878  1.00  0.00    -0.200 F 
ENDBRANCH  50  64
BRANCH  51  75
ATOM     75  C   UNL A   1      49.063  26.656  26.071  1.00  0.00     0.064 A 
ATOM     76  C   UNL A   1      49.474  26.977  24.771  1.00  0.00     0.173 A 
ATOM     77  C   UNL A   1      50.002  26.058  26.924  1.00  0.00     0.173 A 
ATOM     78  F   UNL A   1      48.610  27.544  23.917  1.00  0.00    -0.203 F 
ATOM     79  C   UNL A   1      50.767  26.697  24.335  1.00  0.00     0.198 A 
ATOM     80  C   UNL A   1      51.304  25.806  26.497  1.00  0.00     0.198 A 
ATOM     81  F   UNL A   1      49.663  25.749  28.185  1.00  0.00    -0.203 F 
ATOM     82  F   UNL A   1      51.123  26.984  23.075  1.00  0.00    -0.200 F 
ATOM     83  C   UNL A   1      51.684  26.119  25.200  1.00  0.00     0.200 A 
ATOM     84  F   UNL A   1      52.193  25.269  27.344  1.00  0.00    -0.200 F 
ATOM     85  F   UNL A   1      52.932  25.864  24.785  1.00  0.00    -0.200 F 
ENDBRANCH  51  75
BRANCH  63  86
ATOM     86  C   UNL A   1      46.074  32.369  28.720  1.00  0.00     0.064 A 
ATOM     87  C   UNL A   1      46.081  33.411  27.780  1.00  0.00     0.173 A 
ATOM     88  C   UNL A   1      46.595  32.632  29.996  1.00  0.00     0.173 A 
ATOM     89  F   UNL A   1      45.608  33.205  26.541  1.00  0.00    -0.203 F 
ATOM     90  C   UNL A   1      46.631  34.651  28.091  1.00  0.00     0.198 A 
ATOM     91  C   UNL A   1      47.110  33.885  30.315  1.00  0.00     0.198 A 
ATOM     92  F   UNL A   1      46.604  31.673  30.935  1.00  0.00    -0.203 F 
ATOM     93  F   UNL A   1      46.690  35.609  27.155  1.00  0.00    -0.200 F 
ATOM     94  C   UNL A   1      47.139  34.889  29.358  1.00  0.00     0.200 A 
ATOM     95  F   UNL A   1      47.587  34.118  31.546  1.00  0.00    -0.200 F 
ATOM     96  F   UNL A   1      47.670  36.084  29.656  1.00  0.00    -0.200 F 
ENDBRANCH  63  86
ENDBRANCH  37  38
ENDBRANCH  29  32
ENDBRANCH  27  28
ENDBRANCH  26  27
ENDBRANCH   1  26
TORSDOF 13
ENDMDL
