MODEL 1
REMARK VINA RESULT:     -12.6      0.000      0.000
REMARK SMILES CC[C@](O)(C(=O)NCCCCNC(=O)c1ccc(-c2c3nc(c(-c4c(F)c(F)c(F)c(F)c4F)c4ccc([nH]4)c(-c4c(F)c(F)c(F)c(F)c4F)c4nc(c(-c5c(F)c(F)c(F)c(F)c5F)c5ccc2[nH]5)C=C4)C=C3)cc1)[C@@H](C)c1ccc2c(c1)OCCO2
REMARK SMILES IDX 9 1 8 2 7 3 5 4 6 5 3 7 2 8 1 9 78 10 79 11 80 12 81 13
REMARK SMILES IDX 85 14 82 15 84 16 83 17 86 18 89 19 87 20 88 21 4 22 10 24
REMARK SMILES IDX 11 25 12 26 13 27 14 29 15 30 16 31 77 32 17 33 76 34 18 35
REMARK SMILES IDX 19 36 20 37 70 38 21 39 75 40 69 41 71 42 22 43 74 44 68 45
REMARK SMILES IDX 67 46 23 48 55 49 35 50 54 51 36 52 39 53 53 54 72 55 37 56
REMARK SMILES IDX 38 57 52 59 73 60 40 61 24 62 25 63 33 64 26 65 27 66 31 67
REMARK SMILES IDX 34 68 28 69 29 70 32 71 30 72 56 73 57 74 65 75 58 76 59 77
REMARK SMILES IDX 63 78 66 79 60 80 61 81 64 82 62 83 41 84 42 85 50 86 43 87
REMARK SMILES IDX 44 88 48 89 51 90 45 91 46 92 49 93 47 94
REMARK H PARENT 7 6 4 23 12 28 71 47 39 58
REMARK Flexibility Score: inf
ROOT
ATOM      1  C   UNL A   1      37.174  21.639  25.207  1.00  0.00     0.023 C 
ENDROOT
BRANCH   1   2
ATOM      2  C   UNL A   1      35.782  21.386  24.633  1.00  0.00     0.116 C 
BRANCH   2   3
ATOM      3  N   UNL A   1      35.026  20.383  25.366  1.00  0.00    -0.354 N 
ATOM      4  C   UNL A   1      33.668  20.324  25.588  1.00  0.00     0.252 C 
ATOM      5  O   UNL A   1      33.220  19.310  26.125  1.00  0.00    -0.272 OA
ATOM      6  H   UNL A   1      35.556  19.650  25.756  1.00  0.00     0.163 HD
BRANCH   4   7
ATOM      7  C   UNL A   1      32.765  21.488  25.080  1.00  0.00     0.149 C 
BRANCH   7   8
ATOM      8  C   UNL A   1      33.231  22.760  25.862  1.00  0.00     0.043 C 
ATOM      9  C   UNL A   1      32.272  23.373  26.875  1.00  0.00     0.007 C 
ENDBRANCH   7   8
BRANCH   7  10
ATOM     10  C   UNL A   1      32.892  21.707  23.532  1.00  0.00     0.058 C 
ATOM     11  C   UNL A   1      32.153  20.658  22.673  1.00  0.00     0.016 C 
BRANCH  10  12
ATOM     12  C   UNL A   1      32.365  23.074  23.087  1.00  0.00    -0.038 A 
ATOM     13  C   UNL A   1      31.056  23.489  23.380  1.00  0.00     0.008 A 
ATOM     14  C   UNL A   1      33.237  23.985  22.468  1.00  0.00     0.054 A 
ATOM     15  C   UNL A   1      30.661  24.808  23.124  1.00  0.00     0.051 A 
ATOM     16  C   UNL A   1      32.856  25.290  22.234  1.00  0.00     0.161 A 
ATOM     17  C   UNL A   1      31.586  25.714  22.609  1.00  0.00     0.161 A 
ATOM     18  O   UNL A   1      33.828  26.112  21.740  1.00  0.00    -0.486 OA
ATOM     19  O   UNL A   1      31.272  27.050  22.605  1.00  0.00    -0.486 OA
ATOM     20  C   UNL A   1      33.586  27.496  22.001  1.00  0.00     0.271 C 
ATOM     21  C   UNL A   1      32.464  27.746  23.004  1.00  0.00     0.271 C 
ENDBRANCH  10  12
ENDBRANCH   7  10
BRANCH   7  22
ATOM     22  O   UNL A   1      31.428  21.065  25.394  1.00  0.00    -0.379 OA
ATOM     23  H   UNL A   1      31.073  20.544  24.657  1.00  0.00     0.212 HD
ENDBRANCH   7  22
ENDBRANCH   4   7
ENDBRANCH   2   3
ENDBRANCH   1   2
BRANCH   1  24
ATOM     24  C   UNL A   1      38.146  20.474  25.048  1.00  0.00     0.023 C 
BRANCH  24  25
ATOM     25  C   UNL A   1      39.312  20.475  26.026  1.00  0.00     0.116 C 
BRANCH  25  26
ATOM     26  N   UNL A   1      40.161  19.294  25.927  1.00  0.00    -0.352 N 
ATOM     27  C   UNL A   1      41.526  19.225  26.067  1.00  0.00     0.251 C 
ATOM     28  H   UNL A   1      39.701  18.444  25.737  1.00  0.00     0.163 HD
ATOM     29  O   UNL A   1      42.133  18.175  25.880  1.00  0.00    -0.269 OA
BRANCH  27  30
ATOM     30  C   UNL A   1      42.256  20.461  26.402  1.00  0.00     0.039 A 
ATOM     31  C   UNL A   1      42.868  21.182  25.376  1.00  0.00     0.014 A 
ATOM     32  C   UNL A   1      42.234  20.951  27.710  1.00  0.00     0.014 A 
ATOM     33  C   UNL A   1      43.394  22.445  25.649  1.00  0.00     0.010 A 
ATOM     34  C   UNL A   1      42.688  22.239  27.962  1.00  0.00     0.010 A 
ATOM     35  C   UNL A   1      43.267  23.000  26.932  1.00  0.00    -0.014 A 
BRANCH  35  36
ATOM     36  C   UNL A   1      43.722  24.379  27.231  1.00  0.00     0.031 A 
ATOM     37  C   UNL A   1      42.736  25.396  27.728  1.00  0.00     0.074 A 
ATOM     38  C   UNL A   1      44.990  24.740  26.954  1.00  0.00     0.049 A 
ATOM     39  N   UNL A   1      42.895  26.679  27.921  1.00  0.00    -0.248 NA
ATOM     40  C   UNL A   1      41.376  24.908  28.010  1.00  0.00     0.031 C 
ATOM     41  C   UNL A   1      46.023  23.856  26.413  1.00  0.00     0.029 A 
ATOM     42  N   UNL A   1      45.617  25.956  27.065  1.00  0.00    -0.354 N 
ATOM     43  C   UNL A   1      41.653  27.155  28.320  1.00  0.00     0.074 A 
ATOM     44  C   UNL A   1      40.740  26.034  28.293  1.00  0.00     0.031 C 
ATOM     45  C   UNL A   1      47.156  24.556  26.243  1.00  0.00     0.029 A 
ATOM     46  C   UNL A   1      46.919  25.946  26.626  1.00  0.00     0.049 A 
ATOM     47  H   UNL A   1      45.176  26.759  27.425  1.00  0.00     0.167 HD
ATOM     48  C   UNL A   1      41.313  28.411  28.692  1.00  0.00     0.037 A 
ATOM     49  C   UNL A   1      47.813  26.948  26.524  1.00  0.00     0.037 A 
ATOM     50  C   UNL A   1      42.236  29.513  28.750  1.00  0.00     0.049 A 
ATOM     51  C   UNL A   1      47.416  28.332  26.959  1.00  0.00     0.074 A 
ATOM     52  C   UNL A   1      42.012  30.802  29.198  1.00  0.00     0.029 A 
ATOM     53  N   UNL A   1      43.560  29.453  28.340  1.00  0.00    -0.354 N 
ATOM     54  N   UNL A   1      46.262  28.755  27.415  1.00  0.00    -0.248 NA
ATOM     55  C   UNL A   1      48.446  29.377  26.874  1.00  0.00     0.031 C 
ATOM     56  C   UNL A   1      43.189  31.536  29.016  1.00  0.00     0.029 A 
ATOM     57  C   UNL A   1      44.160  30.693  28.500  1.00  0.00     0.049 A 
ATOM     58  H   UNL A   1      44.008  28.650  27.988  1.00  0.00     0.167 HD
ATOM     59  C   UNL A   1      46.431  30.106  27.691  1.00  0.00     0.074 A 
ATOM     60  C   UNL A   1      47.804  30.429  27.363  1.00  0.00     0.031 C 
ATOM     61  C   UNL A   1      45.531  30.995  28.175  1.00  0.00     0.037 A 
BRANCH  48  62
ATOM     62  C   UNL A   1      39.879  28.657  29.062  1.00  0.00     0.064 A 
ATOM     63  C   UNL A   1      39.410  28.457  30.369  1.00  0.00     0.173 A 
ATOM     64  C   UNL A   1      38.967  29.117  28.101  1.00  0.00     0.173 A 
ATOM     65  F   UNL A   1      40.238  28.007  31.324  1.00  0.00    -0.203 F 
ATOM     66  C   UNL A   1      38.073  28.672  30.691  1.00  0.00     0.198 A 
ATOM     67  C   UNL A   1      37.638  29.363  28.434  1.00  0.00     0.198 A 
ATOM     68  F   UNL A   1      39.365  29.330  26.837  1.00  0.00    -0.203 F 
ATOM     69  F   UNL A   1      37.635  28.419  31.931  1.00  0.00    -0.200 F 
ATOM     70  C   UNL A   1      37.189  29.130  29.725  1.00  0.00     0.200 A 
ATOM     71  F   UNL A   1      36.788  29.817  27.502  1.00  0.00    -0.200 F 
ATOM     72  F   UNL A   1      35.903  29.339  30.037  1.00  0.00    -0.200 F 
ENDBRANCH  48  62
BRANCH  49  73
ATOM     73  C   UNL A   1      49.173  26.669  25.999  1.00  0.00     0.064 A 
ATOM     74  C   UNL A   1      50.169  26.130  26.825  1.00  0.00     0.173 A 
ATOM     75  C   UNL A   1      49.502  26.918  24.658  1.00  0.00     0.173 A 
ATOM     76  F   UNL A   1      49.908  25.892  28.119  1.00  0.00    -0.203 F 
ATOM     77  C   UNL A   1      51.445  25.861  26.334  1.00  0.00     0.198 A 
ATOM     78  C   UNL A   1      50.771  26.625  24.162  1.00  0.00     0.198 A 
ATOM     79  F   UNL A   1      48.583  27.428  23.825  1.00  0.00    -0.203 F 
ATOM     80  F   UNL A   1      52.388  25.379  27.154  1.00  0.00    -0.200 F 
ATOM     81  C   UNL A   1      51.743  26.102  25.002  1.00  0.00     0.200 A 
ATOM     82  F   UNL A   1      51.050  26.845  22.869  1.00  0.00    -0.200 F 
ATOM     83  F   UNL A   1      52.967  25.836  24.528  1.00  0.00    -0.200 F 
ENDBRANCH  49  73
BRANCH  61  84
ATOM     84  C   UNL A   1      46.002  32.399  28.412  1.00  0.00     0.064 A 
ATOM     85  C   UNL A   1      46.606  32.777  29.619  1.00  0.00     0.173 A 
ATOM     86  C   UNL A   1      45.907  33.359  27.393  1.00  0.00     0.173 A 
ATOM     87  F   UNL A   1      46.705  31.899  30.629  1.00  0.00    -0.203 F 
ATOM     88  C   UNL A   1      47.090  34.070  29.802  1.00  0.00     0.198 A 
ATOM     89  C   UNL A   1      46.416  34.642  27.570  1.00  0.00     0.198 A 
ATOM     90  F   UNL A   1      45.343  33.045  26.218  1.00  0.00    -0.203 F 
ATOM     91  F   UNL A   1      47.635  34.420  30.975  1.00  0.00    -0.200 F 
ATOM     92  C   UNL A   1      47.003  34.998  28.774  1.00  0.00     0.200 A 
ATOM     93  F   UNL A   1      46.345  35.533  26.570  1.00  0.00    -0.200 F 
ATOM     94  F   UNL A   1      47.484  36.237  28.946  1.00  0.00    -0.200 F 
ENDBRANCH  61  84
ENDBRANCH  35  36
ENDBRANCH  27  30
ENDBRANCH  25  26
ENDBRANCH  24  25
ENDBRANCH   1  24
TORSDOF 15
ENDMDL
MODEL 2
REMARK VINA RESULT:     -12.6      5.820     11.235
REMARK SMILES CC[C@](O)(C(=O)NCCCCNC(=O)c1ccc(-c2c3nc(c(-c4c(F)c(F)c(F)c(F)c4F)c4ccc([nH]4)c(-c4c(F)c(F)c(F)c(F)c4F)c4nc(c(-c5c(F)c(F)c(F)c(F)c5F)c5ccc2[nH]5)C=C4)C=C3)cc1)[C@@H](C)c1ccc2c(c1)OCCO2
REMARK SMILES IDX 9 1 8 2 7 3 5 4 6 5 3 7 2 8 1 9 78 10 79 11 80 12 81 13
REMARK SMILES IDX 85 14 82 15 84 16 83 17 86 18 89 19 87 20 88 21 4 22 10 24
REMARK SMILES IDX 11 25 12 26 13 27 14 29 15 30 16 31 77 32 17 33 76 34 18 35
REMARK SMILES IDX 19 36 20 37 70 38 21 39 75 40 69 41 71 42 22 43 74 44 68 45
REMARK SMILES IDX 67 46 23 48 55 49 35 50 54 51 36 52 39 53 53 54 72 55 37 56
REMARK SMILES IDX 38 57 52 59 73 60 40 61 24 62 25 63 33 64 26 65 27 66 31 67
REMARK SMILES IDX 34 68 28 69 29 70 32 71 30 72 56 73 57 74 65 75 58 76 59 77
REMARK SMILES IDX 63 78 66 79 60 80 61 81 64 82 62 83 41 84 42 85 50 86 43 87
REMARK SMILES IDX 44 88 48 89 51 90 45 91 46 92 49 93 47 94
REMARK H PARENT 7 6 4 23 12 28 71 47 39 58
REMARK Flexibility Score: inf
ROOT
ATOM      1  C   UNL A   1      32.284  30.039  27.040  1.00  0.00     0.023 C 
ENDROOT
BRANCH   1   2
ATOM      2  C   UNL A   1      32.019  29.152  25.827  1.00  0.00     0.116 C 
BRANCH   2   3
ATOM      3  N   UNL A   1      31.368  29.850  24.729  1.00  0.00    -0.354 N 
ATOM      4  C   UNL A   1      30.787  29.320  23.598  1.00  0.00     0.252 C 
ATOM      5  O   UNL A   1      30.172  30.089  22.857  1.00  0.00    -0.272 OA
ATOM      6  H   UNL A   1      31.340  30.832  24.805  1.00  0.00     0.163 HD
BRANCH   4   7
ATOM      7  C   UNL A   1      30.862  27.783  23.356  1.00  0.00     0.149 C 
BRANCH   7   8
ATOM      8  C   UNL A   1      32.329  27.368  23.710  1.00  0.00     0.043 C 
ATOM      9  C   UNL A   1      33.260  26.978  22.568  1.00  0.00     0.007 C 
ENDBRANCH   7   8
BRANCH   7  10
ATOM     10  C   UNL A   1      29.832  26.991  24.235  1.00  0.00     0.058 C 
ATOM     11  C   UNL A   1      28.411  26.907  23.638  1.00  0.00     0.016 C 
BRANCH  10  12
ATOM     12  C   UNL A   1      30.272  25.549  24.500  1.00  0.00    -0.038 A 
ATOM     13  C   UNL A   1      30.466  24.634  23.452  1.00  0.00     0.008 A 
ATOM     14  C   UNL A   1      30.598  25.152  25.807  1.00  0.00     0.054 A 
ATOM     15  C   UNL A   1      31.043  23.383  23.705  1.00  0.00     0.051 A 
ATOM     16  C   UNL A   1      31.184  23.929  26.056  1.00  0.00     0.161 A 
ATOM     17  C   UNL A   1      31.452  23.067  24.999  1.00  0.00     0.161 A 
ATOM     18  O   UNL A   1      31.567  23.707  27.348  1.00  0.00    -0.486 OA
ATOM     19  O   UNL A   1      32.242  21.960  25.190  1.00  0.00    -0.486 OA
ATOM     20  C   UNL A   1      32.596  22.723  27.473  1.00  0.00     0.271 C 
ATOM     21  C   UNL A   1      33.245  22.341  26.146  1.00  0.00     0.271 C 
ENDBRANCH  10  12
ENDBRANCH   7  10
BRANCH   7  22
ATOM     22  O   UNL A   1      30.527  27.624  21.968  1.00  0.00    -0.379 OA
ATOM     23  H   UNL A   1      29.723  28.130  21.770  1.00  0.00     0.212 HD
ENDBRANCH   7  22
ENDBRANCH   4   7
ENDBRANCH   2   3
ENDBRANCH   1   2
BRANCH   1  24
ATOM     24  C   UNL A   1      31.981  31.518  26.822  1.00  0.00     0.023 C 
BRANCH  24  25
ATOM     25  C   UNL A   1      33.033  32.474  27.365  1.00  0.00     0.116 C 
BRANCH  25  26
ATOM     26  N   UNL A   1      32.538  33.826  27.590  1.00  0.00    -0.352 N 
ATOM     27  C   UNL A   1      33.014  34.760  28.478  1.00  0.00     0.251 C 
ATOM     28  H   UNL A   1      31.769  34.103  27.040  1.00  0.00     0.163 HD
ATOM     29  O   UNL A   1      32.453  35.841  28.627  1.00  0.00    -0.269 OA
BRANCH  27  30
ATOM     30  C   UNL A   1      34.194  34.412  29.290  1.00  0.00     0.039 A 
ATOM     31  C   UNL A   1      34.004  33.814  30.536  1.00  0.00     0.014 A 
ATOM     32  C   UNL A   1      35.477  34.582  28.764  1.00  0.00     0.014 A 
ATOM     33  C   UNL A   1      35.106  33.307  31.226  1.00  0.00     0.010 A 
ATOM     34  C   UNL A   1      36.561  34.009  29.415  1.00  0.00     0.010 A 
ATOM     35  C   UNL A   1      36.385  33.361  30.649  1.00  0.00    -0.014 A 
BRANCH  35  36
ATOM     36  C   UNL A   1      37.561  32.742  31.307  1.00  0.00     0.031 A 
ATOM     37  C   UNL A   1      38.252  31.581  30.653  1.00  0.00     0.074 A 
ATOM     38  C   UNL A   1      37.935  33.154  32.534  1.00  0.00     0.049 A 
ATOM     39  N   UNL A   1      39.206  30.817  31.117  1.00  0.00    -0.248 NA
ATOM     40  C   UNL A   1      37.780  31.208  29.310  1.00  0.00     0.031 C 
ATOM     41  C   UNL A   1      37.303  34.232  33.294  1.00  0.00     0.029 A 
ATOM     42  N   UNL A   1      38.922  32.693  33.367  1.00  0.00    -0.354 N 
ATOM     43  C   UNL A   1      39.428  29.859  30.138  1.00  0.00     0.074 A 
ATOM     44  C   UNL A   1      38.477  30.107  29.077  1.00  0.00     0.031 C 
ATOM     45  C   UNL A   1      37.920  34.354  34.480  1.00  0.00     0.029 A 
ATOM     46  C   UNL A   1      38.963  33.338  34.580  1.00  0.00     0.049 A 
ATOM     47  H   UNL A   1      39.542  31.969  33.121  1.00  0.00     0.167 HD
ATOM     48  C   UNL A   1      40.356  28.872  30.120  1.00  0.00     0.037 A 
ATOM     49  C   UNL A   1      39.742  33.120  35.657  1.00  0.00     0.037 A 
ATOM     50  C   UNL A   1      41.322  28.655  31.163  1.00  0.00     0.049 A 
ATOM     51  C   UNL A   1      40.777  32.029  35.607  1.00  0.00     0.074 A 
ATOM     52  C   UNL A   1      42.359  27.742  31.200  1.00  0.00     0.029 A 
ATOM     53  N   UNL A   1      41.362  29.359  32.358  1.00  0.00    -0.354 N 
ATOM     54  N   UNL A   1      41.035  31.181  34.642  1.00  0.00    -0.248 NA
ATOM     55  C   UNL A   1      41.633  31.868  36.791  1.00  0.00     0.031 C 
ATOM     56  C   UNL A   1      43.000  27.860  32.438  1.00  0.00     0.029 A 
ATOM     57  C   UNL A   1      42.393  28.881  33.152  1.00  0.00     0.049 A 
ATOM     58  H   UNL A   1      40.750  30.090  32.605  1.00  0.00     0.167 HD
ATOM     59  C   UNL A   1      42.094  30.402  35.090  1.00  0.00     0.074 A 
ATOM     60  C   UNL A   1      42.438  30.887  36.411  1.00  0.00     0.031 C 
ATOM     61  C   UNL A   1      42.725  29.381  34.462  1.00  0.00     0.037 A 
BRANCH  48  62
ATOM     62  C   UNL A   1      40.364  27.954  28.932  1.00  0.00     0.064 A 
ATOM     63  C   UNL A   1      39.630  26.759  28.918  1.00  0.00     0.173 A 
ATOM     64  C   UNL A   1      41.103  28.284  27.787  1.00  0.00     0.173 A 
ATOM     65  F   UNL A   1      38.916  26.391  29.993  1.00  0.00    -0.203 F 
ATOM     66  C   UNL A   1      39.664  25.910  27.815  1.00  0.00     0.198 A 
ATOM     67  C   UNL A   1      41.109  27.449  26.672  1.00  0.00     0.198 A 
ATOM     68  F   UNL A   1      41.819  29.418  27.745  1.00  0.00    -0.203 F 
ATOM     69  F   UNL A   1      39.002  24.746  27.847  1.00  0.00    -0.200 F 
ATOM     70  C   UNL A   1      40.399  26.258  26.692  1.00  0.00     0.200 A 
ATOM     71  F   UNL A   1      41.810  27.793  25.583  1.00  0.00    -0.200 F 
ATOM     72  F   UNL A   1      40.430  25.441  25.630  1.00  0.00    -0.200 F 
ENDBRANCH  48  62
BRANCH  49  73
ATOM     73  C   UNL A   1      39.576  33.965  36.867  1.00  0.00     0.064 A 
ATOM     74  C   UNL A   1      38.778  33.540  37.938  1.00  0.00     0.173 A 
ATOM     75  C   UNL A   1      40.225  35.203  36.987  1.00  0.00     0.173 A 
ATOM     76  F   UNL A   1      38.123  32.372  37.863  1.00  0.00    -0.203 F 
ATOM     77  C   UNL A   1      38.625  34.327  39.079  1.00  0.00     0.198 A 
ATOM     78  C   UNL A   1      40.091  35.977  38.139  1.00  0.00     0.198 A 
ATOM     79  F   UNL A   1      41.004  35.652  35.993  1.00  0.00    -0.203 F 
ATOM     80  F   UNL A   1      37.828  33.913  40.073  1.00  0.00    -0.200 F 
ATOM     81  C   UNL A   1      39.286  35.541  39.181  1.00  0.00     0.200 A 
ATOM     82  F   UNL A   1      40.744  37.143  38.239  1.00  0.00    -0.200 F 
ATOM     83  F   UNL A   1      39.145  36.293  40.280  1.00  0.00    -0.200 F 
ENDBRANCH  49  73
BRANCH  61  84
ATOM     84  C   UNL A   1      43.874  28.733  35.176  1.00  0.00     0.064 A 
ATOM     85  C   UNL A   1      43.684  27.636  36.028  1.00  0.00     0.173 A 
ATOM     86  C   UNL A   1      45.188  29.173  34.949  1.00  0.00     0.173 A 
ATOM     87  F   UNL A   1      42.447  27.189  36.289  1.00  0.00    -0.203 F 
ATOM     88  C   UNL A   1      44.768  27.010  36.639  1.00  0.00     0.198 A 
ATOM     89  C   UNL A   1      46.270  28.526  35.539  1.00  0.00     0.198 A 
ATOM     90  F   UNL A   1      45.422  30.213  34.137  1.00  0.00    -0.203 F 
ATOM     91  F   UNL A   1      44.562  25.984  37.476  1.00  0.00    -0.200 F 
ATOM     92  C   UNL A   1      46.059  27.449  36.386  1.00  0.00     0.200 A 
ATOM     93  F   UNL A   1      47.518  28.943  35.282  1.00  0.00    -0.200 F 
ATOM     94  F   UNL A   1      47.102  26.835  36.961  1.00  0.00    -0.200 F 
ENDBRANCH  61  84
ENDBRANCH  35  36
ENDBRANCH  27  30
ENDBRANCH  25  26
ENDBRANCH  24  25
ENDBRANCH   1  24
TORSDOF 15
ENDMDL
MODEL 3
REMARK VINA RESULT:     -12.6      0.194      1.960
REMARK SMILES CC[C@](O)(C(=O)NCCCCNC(=O)c1ccc(-c2c3nc(c(-c4c(F)c(F)c(F)c(F)c4F)c4ccc([nH]4)c(-c4c(F)c(F)c(F)c(F)c4F)c4nc(c(-c5c(F)c(F)c(F)c(F)c5F)c5ccc2[nH]5)C=C4)C=C3)cc1)[C@@H](C)c1ccc2c(c1)OCCO2
REMARK SMILES IDX 9 1 8 2 7 3 5 4 6 5 3 7 2 8 1 9 78 10 79 11 80 12 81 13
REMARK SMILES IDX 85 14 82 15 84 16 83 17 86 18 89 19 87 20 88 21 4 22 10 24
REMARK SMILES IDX 11 25 12 26 13 27 14 29 15 30 16 31 77 32 17 33 76 34 18 35
REMARK SMILES IDX 19 36 20 37 70 38 21 39 75 40 69 41 71 42 22 43 74 44 68 45
REMARK SMILES IDX 67 46 23 48 55 49 35 50 54 51 36 52 39 53 53 54 72 55 37 56
REMARK SMILES IDX 38 57 52 59 73 60 40 61 24 62 25 63 33 64 26 65 27 66 31 67
REMARK SMILES IDX 34 68 28 69 29 70 32 71 30 72 56 73 57 74 65 75 58 76 59 77
REMARK SMILES IDX 63 78 66 79 60 80 61 81 64 82 62 83 41 84 42 85 50 86 43 87
REMARK SMILES IDX 44 88 48 89 51 90 45 91 46 92 49 93 47 94
REMARK H PARENT 7 6 4 23 12 28 71 47 39 58
REMARK Flexibility Score: inf
ROOT
ATOM      1  C   UNL A   1      37.133  21.481  25.353  1.00  0.00     0.023 C 
ENDROOT
BRANCH   1   2
ATOM      2  C   UNL A   1      35.772  21.260  24.696  1.00  0.00     0.116 C 
BRANCH   2   3
ATOM      3  N   UNL A   1      34.968  20.245  25.357  1.00  0.00    -0.354 N 
ATOM      4  C   UNL A   1      33.603  20.220  25.546  1.00  0.00     0.252 C 
ATOM      5  O   UNL A   1      33.110  19.194  26.018  1.00  0.00    -0.272 OA
ATOM      6  H   UNL A   1      35.464  19.475  25.717  1.00  0.00     0.163 HD
BRANCH   4   7
ATOM      7  C   UNL A   1      32.750  21.439  25.084  1.00  0.00     0.149 C 
BRANCH   7   8
ATOM      8  C   UNL A   1      33.278  22.663  25.903  1.00  0.00     0.043 C 
ATOM      9  C   UNL A   1      33.278  22.563  27.423  1.00  0.00     0.007 C 
ENDBRANCH   7   8
BRANCH   7  10
ATOM     10  C   UNL A   1      32.878  21.703  23.542  1.00  0.00     0.058 C 
ATOM     11  C   UNL A   1      32.153  20.671  22.653  1.00  0.00     0.016 C 
BRANCH  10  12
ATOM     12  C   UNL A   1      32.337  23.076  23.135  1.00  0.00    -0.038 A 
ATOM     13  C   UNL A   1      31.049  23.498  23.503  1.00  0.00     0.008 A 
ATOM     14  C   UNL A   1      33.178  23.985  22.473  1.00  0.00     0.054 A 
ATOM     15  C   UNL A   1      30.649  24.821  23.277  1.00  0.00     0.051 A 
ATOM     16  C   UNL A   1      32.794  25.293  22.267  1.00  0.00     0.161 A 
ATOM     17  C   UNL A   1      31.550  25.723  22.715  1.00  0.00     0.161 A 
ATOM     18  O   UNL A   1      33.743  26.112  21.724  1.00  0.00    -0.486 OA
ATOM     19  O   UNL A   1      31.245  27.062  22.736  1.00  0.00    -0.486 OA
ATOM     20  C   UNL A   1      33.525  27.496  22.005  1.00  0.00     0.271 C 
ATOM     21  C   UNL A   1      32.463  27.747  23.071  1.00  0.00     0.271 C 
ENDBRANCH  10  12
ENDBRANCH   7  10
BRANCH   7  22
ATOM     22  O   UNL A   1      31.398  21.066  25.393  1.00  0.00    -0.379 OA
ATOM     23  H   UNL A   1      30.811  21.824  25.247  1.00  0.00     0.212 HD
ENDBRANCH   7  22
ENDBRANCH   4   7
ENDBRANCH   2   3
ENDBRANCH   1   2
BRANCH   1  24
ATOM     24  C   UNL A   1      38.098  20.308  25.221  1.00  0.00     0.023 C 
BRANCH  24  25
ATOM     25  C   UNL A   1      39.421  20.482  25.953  1.00  0.00     0.116 C 
BRANCH  25  26
ATOM     26  N   UNL A   1      40.266  19.295  25.928  1.00  0.00    -0.352 N 
ATOM     27  C   UNL A   1      41.625  19.225  26.116  1.00  0.00     0.251 C 
ATOM     28  H   UNL A   1      39.808  18.440  25.754  1.00  0.00     0.163 HD
ATOM     29  O   UNL A   1      42.232  18.166  25.989  1.00  0.00    -0.269 OA
BRANCH  27  30
ATOM     30  C   UNL A   1      42.350  20.469  26.428  1.00  0.00     0.039 A 
ATOM     31  C   UNL A   1      42.888  21.218  25.381  1.00  0.00     0.014 A 
ATOM     32  C   UNL A   1      42.397  20.938  27.744  1.00  0.00     0.014 A 
ATOM     33  C   UNL A   1      43.405  22.487  25.644  1.00  0.00     0.010 A 
ATOM     34  C   UNL A   1      42.842  22.230  27.990  1.00  0.00     0.010 A 
ATOM     35  C   UNL A   1      43.344  23.019  26.942  1.00  0.00    -0.014 A 
BRANCH  35  36
ATOM     36  C   UNL A   1      43.790  24.401  27.238  1.00  0.00     0.031 A 
ATOM     37  C   UNL A   1      42.797  25.414  27.726  1.00  0.00     0.074 A 
ATOM     38  C   UNL A   1      45.057  24.769  26.964  1.00  0.00     0.049 A 
ATOM     39  N   UNL A   1      42.948  26.699  27.916  1.00  0.00    -0.248 NA
ATOM     40  C   UNL A   1      41.439  24.920  28.006  1.00  0.00     0.031 C 
ATOM     41  C   UNL A   1      46.097  23.888  26.430  1.00  0.00     0.029 A 
ATOM     42  N   UNL A   1      45.677  25.988  27.072  1.00  0.00    -0.354 N 
ATOM     43  C   UNL A   1      41.702  27.170  28.308  1.00  0.00     0.074 A 
ATOM     44  C   UNL A   1      40.795  26.043  28.282  1.00  0.00     0.031 C 
ATOM     45  C   UNL A   1      47.227  24.594  26.261  1.00  0.00     0.029 A 
ATOM     46  C   UNL A   1      46.980  25.983  26.637  1.00  0.00     0.049 A 
ATOM     47  H   UNL A   1      45.231  26.790  27.428  1.00  0.00     0.167 HD
ATOM     48  C   UNL A   1      41.353  28.426  28.674  1.00  0.00     0.037 A 
ATOM     49  C   UNL A   1      47.869  26.990  26.536  1.00  0.00     0.037 A 
ATOM     50  C   UNL A   1      42.271  29.532  28.731  1.00  0.00     0.049 A 
ATOM     51  C   UNL A   1      47.463  28.374  26.964  1.00  0.00     0.074 A 
ATOM     52  C   UNL A   1      42.038  30.822  29.174  1.00  0.00     0.029 A 
ATOM     53  N   UNL A   1      43.597  29.479  28.327  1.00  0.00    -0.354 N 
ATOM     54  N   UNL A   1      46.305  28.792  27.413  1.00  0.00    -0.248 NA
ATOM     55  C   UNL A   1      48.488  29.424  26.879  1.00  0.00     0.031 C 
ATOM     56  C   UNL A   1      43.211  31.562  28.993  1.00  0.00     0.029 A 
ATOM     57  C   UNL A   1      44.188  30.722  28.484  1.00  0.00     0.049 A 
ATOM     58  H   UNL A   1      44.050  28.677  27.979  1.00  0.00     0.167 HD
ATOM     59  C   UNL A   1      46.466  30.144  27.685  1.00  0.00     0.074 A 
ATOM     60  C   UNL A   1      47.838  30.474  27.361  1.00  0.00     0.031 C 
ATOM     61  C   UNL A   1      45.559  31.030  28.163  1.00  0.00     0.037 A 
BRANCH  48  62
ATOM     62  C   UNL A   1      39.917  28.665  29.038  1.00  0.00     0.064 A 
ATOM     63  C   UNL A   1      38.977  29.095  28.089  1.00  0.00     0.173 A 
ATOM     64  C   UNL A   1      39.472  28.445  30.350  1.00  0.00     0.173 A 
ATOM     65  F   UNL A   1      39.353  29.332  26.823  1.00  0.00    -0.203 F 
ATOM     66  C   UNL A   1      37.653  29.330  28.449  1.00  0.00     0.198 A 
ATOM     67  C   UNL A   1      38.140  28.649  30.698  1.00  0.00     0.198 A 
ATOM     68  F   UNL A   1      40.328  28.029  31.295  1.00  0.00    -0.203 F 
ATOM     69  F   UNL A   1      36.786  29.795  27.539  1.00  0.00    -0.200 F 
ATOM     70  C   UNL A   1      37.234  29.101  29.751  1.00  0.00     0.200 A 
ATOM     71  F   UNL A   1      37.734  28.417  31.955  1.00  0.00    -0.200 F 
ATOM     72  F   UNL A   1      35.959  29.327  30.095  1.00  0.00    -0.200 F 
ENDBRANCH  48  62
BRANCH  49  73
ATOM     73  C   UNL A   1      49.233  26.717  26.016  1.00  0.00     0.064 A 
ATOM     74  C   UNL A   1      49.551  26.951  24.671  1.00  0.00     0.173 A 
ATOM     75  C   UNL A   1      50.250  26.236  26.854  1.00  0.00     0.173 A 
ATOM     76  F   UNL A   1      48.607  27.393  23.827  1.00  0.00    -0.203 F 
ATOM     77  C   UNL A   1      50.832  26.702  24.180  1.00  0.00     0.198 A 
ATOM     78  C   UNL A   1      51.537  26.012  26.367  1.00  0.00     0.198 A 
ATOM     79  F   UNL A   1      49.998  26.002  28.150  1.00  0.00    -0.203 F 
ATOM     80  F   UNL A   1      51.100  26.900  22.883  1.00  0.00    -0.200 F 
ATOM     81  C   UNL A   1      51.825  26.240  25.030  1.00  0.00     0.200 A 
ATOM     82  F   UNL A   1      52.498  25.579  27.196  1.00  0.00    -0.200 F 
ATOM     83  F   UNL A   1      53.058  26.009  24.560  1.00  0.00    -0.200 F 
ENDBRANCH  49  73
BRANCH  61  84
ATOM     84  C   UNL A   1      46.021  32.438  28.396  1.00  0.00     0.064 A 
ATOM     85  C   UNL A   1      45.884  33.428  27.413  1.00  0.00     0.173 A 
ATOM     86  C   UNL A   1      46.545  32.814  29.643  1.00  0.00     0.173 A 
ATOM     87  F   UNL A   1      45.403  33.115  26.201  1.00  0.00    -0.203 F 
ATOM     88  C   UNL A   1      46.266  34.743  27.667  1.00  0.00     0.198 A 
ATOM     89  C   UNL A   1      46.900  34.135  29.900  1.00  0.00     0.198 A 
ATOM     90  F   UNL A   1      46.691  31.904  30.617  1.00  0.00    -0.203 F 
ATOM     91  F   UNL A   1      46.157  35.668  26.702  1.00  0.00    -0.200 F 
ATOM     92  C   UNL A   1      46.764  35.097  28.912  1.00  0.00     0.200 A 
ATOM     93  F   UNL A   1      47.368  34.477  31.110  1.00  0.00    -0.200 F 
ATOM     94  F   UNL A   1      47.116  36.366  29.159  1.00  0.00    -0.200 F 
ENDBRANCH  61  84
ENDBRANCH  35  36
ENDBRANCH  27  30
ENDBRANCH  25  26
ENDBRANCH  24  25
ENDBRANCH   1  24
TORSDOF 15
ENDMDL
