MODEL 1
REMARK VINA RESULT:     -14.6      0.000      0.000
REMARK SMILES Cc1ccc(C(=O)N2CCCC[C@@H]2C(=O)NCCCCNC(=O)c2ccc(-c3c4nc(c(-c5c(F)c(F)c(F)c(F)c5F)c5ccc([nH]5)c(-c5c(F)c(F)c(F)c(F)c5F)c5nc(c(-c6c(F)c(F)c(F)c(F)c6F)c6ccc3[nH]6)C=C5)C=C4)cc2)cc1S(=O)(=O)N1CCCCC1
REMARK SMILES IDX 17 1 16 2 14 3 15 4 13 6 8 7 9 8 10 9 12 10 11 11 6 12 7 13
REMARK SMILES IDX 5 14 1 15 2 16 3 17 88 18 4 19 87 20 89 21 90 22 91 23 92 24
REMARK SMILES IDX 93 25 97 26 94 27 96 28 95 29 18 30 19 31 20 32 21 33 22 34
REMARK SMILES IDX 23 36 24 37 25 38 86 39 26 40 85 41 27 42 28 43 29 44 79 45
REMARK SMILES IDX 30 46 84 47 78 48 80 49 31 50 83 51 77 52 76 53 32 55 64 56
REMARK SMILES IDX 44 57 63 58 45 59 48 60 62 61 81 62 46 63 47 64 61 66 82 67
REMARK SMILES IDX 49 68 33 69 34 70 42 71 35 72 36 73 40 74 43 75 37 76 38 77
REMARK SMILES IDX 41 78 39 79 65 80 66 81 74 82 67 83 68 84 72 85 75 86 69 87
REMARK SMILES IDX 70 88 73 89 71 90 50 91 51 92 59 93 52 94 53 95 57 96 60 97
REMARK SMILES IDX 54 98 55 99 58 100 56 101
REMARK H PARENT 16 5 21 35 80 54 48 65
REMARK Flexibility Score: inf
ROOT
ATOM      1  C   UNL A   1      32.233  28.832  25.373  1.00  0.00     0.116 C 
ENDROOT
BRANCH   1   2
ATOM      2  N   UNL A   1      31.555  27.772  26.099  1.00  0.00    -0.354 N 
ATOM      3  C   UNL A   1      31.118  26.552  25.674  1.00  0.00     0.242 C 
ATOM      4  O   UNL A   1      30.328  25.954  26.410  1.00  0.00    -0.273 OA
ATOM      5  H   UNL A   1      31.385  27.964  27.048  1.00  0.00     0.163 HD
BRANCH   3   6
ATOM      6  C   UNL A   1      31.509  25.973  24.293  1.00  0.00     0.174 C 
ATOM      7  N   UNL A   1      32.970  25.762  24.131  1.00  0.00    -0.327 N 
ATOM      8  C   UNL A   1      33.465  25.576  22.773  1.00  0.00     0.120 C 
ATOM      9  C   UNL A   1      32.983  26.650  21.822  1.00  0.00     0.022 C 
ATOM     10  C   UNL A   1      30.929  26.926  23.223  1.00  0.00     0.035 C 
ATOM     11  C   UNL A   1      31.463  26.695  21.817  1.00  0.00     0.004 C 
BRANCH   7  12
ATOM     12  C   UNL A   1      33.851  25.338  25.131  1.00  0.00     0.254 C 
ATOM     13  O   UNL A   1      34.280  26.115  25.986  1.00  0.00    -0.269 OA
BRANCH  12  14
ATOM     14  C   UNL A   1      34.338  23.942  25.190  1.00  0.00     0.041 A 
ATOM     15  C   UNL A   1      36.155  20.043  24.913  1.00  0.00     0.046 C 
ATOM     16  C   UNL A   1      35.377  21.315  25.015  1.00  0.00    -0.031 A 
ATOM     17  C   UNL A   1      36.195  22.425  25.343  1.00  0.00     0.005 A 
ATOM     18  C   UNL A   1      34.006  21.537  24.796  1.00  0.00     0.086 A 
ATOM     19  C   UNL A   1      35.689  23.719  25.431  1.00  0.00     0.014 A 
ATOM     20  C   UNL A   1      33.517  22.865  24.854  1.00  0.00     0.035 A 
BRANCH  18  21
ATOM     21  S   UNL A   1      32.672  20.383  24.428  1.00  0.00     0.243 S 
ATOM     22  O   UNL A   1      31.667  20.618  25.436  1.00  0.00    -0.207 OA
ATOM     23  O   UNL A   1      32.366  20.606  23.020  1.00  0.00    -0.207 OA
BRANCH  21  24
ATOM     24  N   UNL A   1      33.157  18.769  24.566  1.00  0.00    -0.198 NA
ATOM     25  C   UNL A   1      32.781  18.068  25.807  1.00  0.00     0.102 C 
ATOM     26  C   UNL A   1      33.457  18.061  23.303  1.00  0.00     0.102 C 
ATOM     27  C   UNL A   1      33.201  16.608  25.861  1.00  0.00     0.017 C 
ATOM     28  C   UNL A   1      33.809  16.589  23.466  1.00  0.00     0.017 C 
ATOM     29  C   UNL A   1      33.005  15.885  24.542  1.00  0.00     0.003 C 
ENDBRANCH  21  24
ENDBRANCH  18  21
ENDBRANCH  12  14
ENDBRANCH   7  12
ENDBRANCH   3   6
ENDBRANCH   1   2
BRANCH   1  30
ATOM     30  C   UNL A   1      31.474  30.162  25.482  1.00  0.00     0.023 C 
BRANCH  30  31
ATOM     31  C   UNL A   1      31.966  31.086  26.591  1.00  0.00     0.023 C 
BRANCH  31  32
ATOM     32  C   UNL A   1      33.150  30.537  27.365  1.00  0.00     0.116 C 
BRANCH  32  33
ATOM     33  N   UNL A   1      34.046  31.576  27.853  1.00  0.00    -0.352 N 
ATOM     34  C   UNL A   1      35.246  31.470  28.535  1.00  0.00     0.251 C 
ATOM     35  H   UNL A   1      33.753  32.498  27.670  1.00  0.00     0.163 HD
ATOM     36  O   UNL A   1      35.771  32.469  29.013  1.00  0.00    -0.269 OA
BRANCH  34  37
ATOM     37  C   UNL A   1      35.996  30.193  28.490  1.00  0.00     0.039 A 
ATOM     38  C   UNL A   1      36.274  29.614  29.737  1.00  0.00     0.014 A 
ATOM     39  C   UNL A   1      36.748  29.858  27.374  1.00  0.00     0.014 A 
ATOM     40  C   UNL A   1      37.501  29.003  29.932  1.00  0.00     0.010 A 
ATOM     41  C   UNL A   1      38.020  29.398  27.590  1.00  0.00     0.010 A 
ATOM     42  C   UNL A   1      38.410  29.055  28.885  1.00  0.00    -0.014 A 
BRANCH  42  43
ATOM     43  C   UNL A   1      39.811  28.722  29.010  1.00  0.00     0.031 A 
ATOM     44  C   UNL A   1      40.188  27.344  28.683  1.00  0.00     0.074 A 
ATOM     45  C   UNL A   1      40.682  29.731  29.228  1.00  0.00     0.049 A 
ATOM     46  N   UNL A   1      41.307  26.802  28.987  1.00  0.00    -0.248 NA
ATOM     47  C   UNL A   1      39.269  26.428  28.012  1.00  0.00     0.031 C 
ATOM     48  C   UNL A   1      42.133  29.732  29.080  1.00  0.00     0.029 A 
ATOM     49  N   UNL A   1      40.397  30.965  29.837  1.00  0.00    -0.354 N 
ATOM     50  C   UNL A   1      41.381  25.597  28.321  1.00  0.00     0.074 A 
ATOM     51  C   UNL A   1      40.053  25.367  27.818  1.00  0.00     0.031 C 
ATOM     52  C   UNL A   1      42.641  30.721  29.842  1.00  0.00     0.029 A 
ATOM     53  C   UNL A   1      41.537  31.261  30.621  1.00  0.00     0.049 A 
ATOM     54  H   UNL A   1      39.581  31.507  29.740  1.00  0.00     0.167 HD
ATOM     55  C   UNL A   1      42.615  25.038  28.170  1.00  0.00     0.037 A 
ATOM     56  C   UNL A   1      41.455  31.217  31.985  1.00  0.00     0.037 A 
ATOM     57  C   UNL A   1      43.581  25.784  28.982  1.00  0.00     0.049 A 
ATOM     58  C   UNL A   1      42.339  30.141  32.576  1.00  0.00     0.074 A 
ATOM     59  C   UNL A   1      44.447  26.821  28.680  1.00  0.00     0.029 A 
ATOM     60  N   UNL A   1      43.427  25.787  30.366  1.00  0.00    -0.354 N 
ATOM     61  N   UNL A   1      42.686  29.048  31.951  1.00  0.00    -0.248 NA
ATOM     62  C   UNL A   1      42.915  30.235  33.913  1.00  0.00     0.031 C 
ATOM     63  C   UNL A   1      44.735  27.511  29.890  1.00  0.00     0.029 A 
ATOM     64  C   UNL A   1      44.077  26.871  30.928  1.00  0.00     0.049 A 
ATOM     65  H   UNL A   1      42.926  25.111  30.876  1.00  0.00     0.167 HD
ATOM     66  C   UNL A   1      43.515  28.309  32.754  1.00  0.00     0.074 A 
ATOM     67  C   UNL A   1      43.636  29.102  33.966  1.00  0.00     0.031 C 
ATOM     68  C   UNL A   1      44.037  27.105  32.368  1.00  0.00     0.037 A 
BRANCH  55  69
ATOM     69  C   UNL A   1      43.011  24.033  27.104  1.00  0.00     0.064 A 
ATOM     70  C   UNL A   1      42.689  22.667  27.275  1.00  0.00     0.173 A 
ATOM     71  C   UNL A   1      43.770  24.304  25.947  1.00  0.00     0.173 A 
ATOM     72  F   UNL A   1      41.924  22.252  28.294  1.00  0.00    -0.203 F 
ATOM     73  C   UNL A   1      43.148  21.665  26.412  1.00  0.00     0.198 A 
ATOM     74  C   UNL A   1      44.249  23.301  25.098  1.00  0.00     0.198 A 
ATOM     75  F   UNL A   1      44.056  25.547  25.556  1.00  0.00    -0.203 F 
ATOM     76  F   UNL A   1      42.824  20.386  26.648  1.00  0.00    -0.200 F 
ATOM     77  C   UNL A   1      43.945  21.979  25.334  1.00  0.00     0.200 A 
ATOM     78  F   UNL A   1      45.012  23.633  24.045  1.00  0.00    -0.200 F 
ATOM     79  F   UNL A   1      44.406  21.021  24.520  1.00  0.00    -0.200 F 
ENDBRANCH  55  69
BRANCH  56  80
ATOM     80  C   UNL A   1      40.096  31.593  32.484  1.00  0.00     0.064 A 
ATOM     81  C   UNL A   1      39.623  32.891  32.187  1.00  0.00     0.173 A 
ATOM     82  C   UNL A   1      39.143  30.628  32.829  1.00  0.00     0.173 A 
ATOM     83  F   UNL A   1      40.493  33.866  31.877  1.00  0.00    -0.203 F 
ATOM     84  C   UNL A   1      38.261  33.156  32.059  1.00  0.00     0.198 A 
ATOM     85  C   UNL A   1      37.777  30.912  32.741  1.00  0.00     0.198 A 
ATOM     86  F   UNL A   1      39.519  29.377  33.132  1.00  0.00    -0.203 F 
ATOM     87  F   UNL A   1      37.852  34.352  31.607  1.00  0.00    -0.200 F 
ATOM     88  C   UNL A   1      37.340  32.156  32.305  1.00  0.00     0.200 A 
ATOM     89  F   UNL A   1      36.879  29.942  32.970  1.00  0.00    -0.200 F 
ATOM     90  F   UNL A   1      36.037  32.374  32.082  1.00  0.00    -0.200 F 
ENDBRANCH  56  80
BRANCH  68  91
ATOM     91  C   UNL A   1      44.654  26.075  33.295  1.00  0.00     0.064 A 
ATOM     92  C   UNL A   1      43.923  25.322  34.230  1.00  0.00     0.173 A 
ATOM     93  C   UNL A   1      46.017  25.705  33.163  1.00  0.00     0.173 A 
ATOM     94  F   UNL A   1      42.595  25.440  34.345  1.00  0.00    -0.203 F 
ATOM     95  C   UNL A   1      44.525  24.357  35.042  1.00  0.00     0.198 A 
ATOM     96  C   UNL A   1      46.593  24.682  33.914  1.00  0.00     0.198 A 
ATOM     97  F   UNL A   1      46.830  26.299  32.278  1.00  0.00    -0.203 F 
ATOM     98  F   UNL A   1      43.793  23.722  35.967  1.00  0.00    -0.200 F 
ATOM     99  C   UNL A   1      45.856  24.028  34.876  1.00  0.00     0.200 A 
ATOM    100  F   UNL A   1      47.864  24.323  33.681  1.00  0.00    -0.200 F 
ATOM    101  F   UNL A   1      46.416  23.069  35.622  1.00  0.00    -0.200 F 
ENDBRANCH  68  91
ENDBRANCH  42  43
ENDBRANCH  34  37
ENDBRANCH  32  33
ENDBRANCH  31  32
ENDBRANCH  30  31
ENDBRANCH   1  30
TORSDOF 15
ENDMDL
MODEL 2
REMARK VINA RESULT:     -14.1      3.153      9.694
REMARK SMILES Cc1ccc(C(=O)N2CCCC[C@@H]2C(=O)NCCCCNC(=O)c2ccc(-c3c4nc(c(-c5c(F)c(F)c(F)c(F)c5F)c5ccc([nH]5)c(-c5c(F)c(F)c(F)c(F)c5F)c5nc(c(-c6c(F)c(F)c(F)c(F)c6F)c6ccc3[nH]6)C=C5)C=C4)cc2)cc1S(=O)(=O)N1CCCCC1
REMARK SMILES IDX 17 1 16 2 14 3 15 4 13 6 8 7 9 8 10 9 12 10 11 11 6 12 7 13
REMARK SMILES IDX 5 14 1 15 2 16 3 17 88 18 4 19 87 20 89 21 90 22 91 23 92 24
REMARK SMILES IDX 93 25 97 26 94 27 96 28 95 29 18 30 19 31 20 32 21 33 22 34
REMARK SMILES IDX 23 36 24 37 25 38 86 39 26 40 85 41 27 42 28 43 29 44 79 45
REMARK SMILES IDX 30 46 84 47 78 48 80 49 31 50 83 51 77 52 76 53 32 55 64 56
REMARK SMILES IDX 44 57 63 58 45 59 48 60 62 61 81 62 46 63 47 64 61 66 82 67
REMARK SMILES IDX 49 68 33 69 34 70 42 71 35 72 36 73 40 74 43 75 37 76 38 77
REMARK SMILES IDX 41 78 39 79 65 80 66 81 74 82 67 83 68 84 72 85 75 86 69 87
REMARK SMILES IDX 70 88 73 89 71 90 50 91 51 92 59 93 52 94 53 95 57 96 60 97
REMARK SMILES IDX 54 98 55 99 58 100 56 101
REMARK H PARENT 16 5 21 35 80 54 48 65
REMARK Flexibility Score: inf
ROOT
ATOM      1  C   UNL A   1      35.398  23.631  25.585  1.00  0.00     0.116 C 
ENDROOT
BRANCH   1   2
ATOM      2  N   UNL A   1      34.973  22.704  26.619  1.00  0.00    -0.354 N 
ATOM      3  C   UNL A   1      34.308  21.517  26.522  1.00  0.00     0.242 C 
ATOM      4  O   UNL A   1      33.821  21.063  27.561  1.00  0.00    -0.273 OA
ATOM      5  H   UNL A   1      35.202  22.975  27.537  1.00  0.00     0.163 HD
BRANCH   3   6
ATOM      6  C   UNL A   1      34.083  20.810  25.164  1.00  0.00     0.174 C 
ATOM      7  N   UNL A   1      32.680  20.885  24.683  1.00  0.00    -0.327 N 
ATOM      8  C   UNL A   1      32.292  19.959  23.626  1.00  0.00     0.120 C 
ATOM      9  C   UNL A   1      32.661  18.525  23.941  1.00  0.00     0.022 C 
ATOM     10  C   UNL A   1      34.573  19.352  25.326  1.00  0.00     0.035 C 
ATOM     11  C   UNL A   1      34.156  18.419  24.199  1.00  0.00     0.004 C 
BRANCH   7  12
ATOM     12  C   UNL A   1      31.818  21.975  24.841  1.00  0.00     0.254 C 
ATOM     13  O   UNL A   1      30.829  21.916  25.573  1.00  0.00    -0.269 OA
BRANCH  12  14
ATOM     14  C   UNL A   1      32.034  23.243  24.109  1.00  0.00     0.041 A 
ATOM     15  C   UNL A   1      33.267  26.826  22.055  1.00  0.00     0.046 C 
ATOM     16  C   UNL A   1      32.723  25.679  22.843  1.00  0.00    -0.031 A 
ATOM     17  C   UNL A   1      33.161  24.425  22.347  1.00  0.00     0.005 A 
ATOM     18  C   UNL A   1      31.904  25.696  23.985  1.00  0.00     0.086 A 
ATOM     19  C   UNL A   1      32.823  23.224  22.965  1.00  0.00     0.014 A 
ATOM     20  C   UNL A   1      31.601  24.467  24.621  1.00  0.00     0.035 A 
BRANCH  18  21
ATOM     21  S   UNL A   1      31.119  27.069  24.849  1.00  0.00     0.243 S 
ATOM     22  O   UNL A   1      30.359  27.774  23.847  1.00  0.00    -0.207 OA
ATOM     23  O   UNL A   1      30.443  26.455  25.986  1.00  0.00    -0.207 OA
BRANCH  21  24
ATOM     24  N   UNL A   1      32.244  28.158  25.489  1.00  0.00    -0.198 NA
ATOM     25  C   UNL A   1      31.710  29.429  26.012  1.00  0.00     0.102 C 
ATOM     26  C   UNL A   1      33.537  27.589  25.923  1.00  0.00     0.102 C 
ATOM     27  C   UNL A   1      32.756  30.351  26.618  1.00  0.00     0.017 C 
ATOM     28  C   UNL A   1      34.487  28.588  26.568  1.00  0.00     0.017 C 
ATOM     29  C   UNL A   1      33.792  29.614  27.444  1.00  0.00     0.003 C 
ENDBRANCH  21  24
ENDBRANCH  18  21
ENDBRANCH  12  14
ENDBRANCH   7  12
ENDBRANCH   3   6
ENDBRANCH   1   2
BRANCH   1  30
ATOM     30  C   UNL A   1      36.876  24.014  25.745  1.00  0.00     0.023 C 
BRANCH  30  31
ATOM     31  C   UNL A   1      37.760  22.910  26.315  1.00  0.00     0.023 C 
BRANCH  31  32
ATOM     32  C   UNL A   1      39.189  22.945  25.806  1.00  0.00     0.116 C 
BRANCH  32  33
ATOM     33  N   UNL A   1      40.176  23.001  26.876  1.00  0.00    -0.352 N 
ATOM     34  C   UNL A   1      40.670  24.087  27.576  1.00  0.00     0.251 C 
ATOM     35  H   UNL A   1      40.550  22.131  27.142  1.00  0.00     0.163 HD
ATOM     36  O   UNL A   1      41.628  23.950  28.328  1.00  0.00    -0.269 OA
BRANCH  34  37
ATOM     37  C   UNL A   1      39.904  25.356  27.585  1.00  0.00     0.039 A 
ATOM     38  C   UNL A   1      40.441  26.389  26.805  1.00  0.00     0.014 A 
ATOM     39  C   UNL A   1      39.022  25.637  28.619  1.00  0.00     0.014 A 
ATOM     40  C   UNL A   1      40.385  27.687  27.284  1.00  0.00     0.010 A 
ATOM     41  C   UNL A   1      39.094  26.884  29.181  1.00  0.00     0.010 A 
ATOM     42  C   UNL A   1      39.847  27.875  28.549  1.00  0.00    -0.014 A 
BRANCH  42  43
ATOM     43  C   UNL A   1      39.964  29.100  29.307  1.00  0.00     0.031 A 
ATOM     44  C   UNL A   1      38.941  30.121  29.063  1.00  0.00     0.074 A 
ATOM     45  C   UNL A   1      40.874  29.140  30.303  1.00  0.00     0.049 A 
ATOM     46  N   UNL A   1      39.030  31.345  29.429  1.00  0.00    -0.248 NA
ATOM     47  C   UNL A   1      37.722  29.832  28.312  1.00  0.00     0.031 C 
ATOM     48  C   UNL A   1      40.985  30.095  31.401  1.00  0.00     0.029 A 
ATOM     49  N   UNL A   1      42.047  28.372  30.396  1.00  0.00    -0.354 N 
ATOM     50  C   UNL A   1      37.796  31.928  29.231  1.00  0.00     0.074 A 
ATOM     51  C   UNL A   1      37.057  30.980  28.442  1.00  0.00     0.031 C 
ATOM     52  C   UNL A   1      42.255  30.084  31.852  1.00  0.00     0.029 A 
ATOM     53  C   UNL A   1      43.018  29.245  30.941  1.00  0.00     0.049 A 
ATOM     54  H   UNL A   1      42.169  27.429  30.138  1.00  0.00     0.167 HD
ATOM     55  C   UNL A   1      37.535  33.086  29.902  1.00  0.00     0.037 A 
ATOM     56  C   UNL A   1      44.051  29.686  30.161  1.00  0.00     0.037 A 
ATOM     57  C   UNL A   1      38.770  33.564  30.531  1.00  0.00     0.049 A 
ATOM     58  C   UNL A   1      44.009  31.183  29.951  1.00  0.00     0.074 A 
ATOM     59  C   UNL A   1      39.289  33.404  31.805  1.00  0.00     0.029 A 
ATOM     60  N   UNL A   1      39.836  33.932  29.714  1.00  0.00    -0.354 N 
ATOM     61  N   UNL A   1      42.917  31.900  29.979  1.00  0.00    -0.248 NA
ATOM     62  C   UNL A   1      45.206  31.984  29.716  1.00  0.00     0.031 C 
ATOM     63  C   UNL A   1      40.697  33.583  31.724  1.00  0.00     0.029 A 
ATOM     64  C   UNL A   1      41.028  33.890  30.414  1.00  0.00     0.049 A 
ATOM     65  H   UNL A   1      39.754  34.188  28.767  1.00  0.00     0.167 HD
ATOM     66  C   UNL A   1      43.236  33.220  29.787  1.00  0.00     0.074 A 
ATOM     67  C   UNL A   1      44.681  33.220  29.640  1.00  0.00     0.031 C 
ATOM     68  C   UNL A   1      42.292  34.211  29.762  1.00  0.00     0.037 A 
BRANCH  55  69
ATOM     69  C   UNL A   1      36.158  33.629  30.234  1.00  0.00     0.064 A 
ATOM     70  C   UNL A   1      35.340  34.145  29.202  1.00  0.00     0.173 A 
ATOM     71  C   UNL A   1      35.605  33.760  31.524  1.00  0.00     0.173 A 
ATOM     72  F   UNL A   1      35.696  34.047  27.914  1.00  0.00    -0.203 F 
ATOM     73  C   UNL A   1      34.126  34.795  29.449  1.00  0.00     0.198 A 
ATOM     74  C   UNL A   1      34.403  34.431  31.774  1.00  0.00     0.198 A 
ATOM     75  F   UNL A   1      36.173  33.217  32.602  1.00  0.00    -0.203 F 
ATOM     76  F   UNL A   1      33.413  35.282  28.424  1.00  0.00    -0.200 F 
ATOM     77  C   UNL A   1      33.666  34.956  30.737  1.00  0.00     0.200 A 
ATOM     78  F   UNL A   1      33.968  34.562  33.037  1.00  0.00    -0.200 F 
ATOM     79  F   UNL A   1      32.516  35.599  30.979  1.00  0.00    -0.200 F 
ENDBRANCH  55  69
BRANCH  56  80
ATOM     80  C   UNL A   1      44.457  28.678  29.133  1.00  0.00     0.064 A 
ATOM     81  C   UNL A   1      44.933  27.428  29.591  1.00  0.00     0.173 A 
ATOM     82  C   UNL A   1      43.996  28.743  27.814  1.00  0.00     0.173 A 
ATOM     83  F   UNL A   1      45.413  27.312  30.839  1.00  0.00    -0.203 F 
ATOM     84  C   UNL A   1      44.781  26.270  28.831  1.00  0.00     0.198 A 
ATOM     85  C   UNL A   1      43.887  27.584  27.039  1.00  0.00     0.198 A 
ATOM     86  F   UNL A   1      43.538  29.897  27.308  1.00  0.00    -0.203 F 
ATOM     87  F   UNL A   1      45.084  25.077  29.363  1.00  0.00    -0.200 F 
ATOM     88  C   UNL A   1      44.227  26.345  27.567  1.00  0.00     0.200 A 
ATOM     89  F   UNL A   1      43.340  27.651  25.815  1.00  0.00    -0.200 F 
ATOM     90  F   UNL A   1      43.981  25.225  26.874  1.00  0.00    -0.200 F 
ENDBRANCH  56  80
BRANCH  68  91
ATOM     91  C   UNL A   1      42.501  35.609  29.213  1.00  0.00     0.064 A 
ATOM     92  C   UNL A   1      41.885  36.097  28.049  1.00  0.00     0.173 A 
ATOM     93  C   UNL A   1      43.238  36.573  29.949  1.00  0.00     0.173 A 
ATOM     94  F   UNL A   1      41.024  35.353  27.344  1.00  0.00    -0.203 F 
ATOM     95  C   UNL A   1      42.077  37.406  27.597  1.00  0.00     0.198 A 
ATOM     96  C   UNL A   1      43.355  37.901  29.541  1.00  0.00     0.198 A 
ATOM     97  F   UNL A   1      43.842  36.272  31.107  1.00  0.00    -0.203 F 
ATOM     98  F   UNL A   1      41.525  37.793  26.439  1.00  0.00    -0.200 F 
ATOM     99  C   UNL A   1      42.801  38.310  28.347  1.00  0.00     0.200 A 
ATOM    100  F   UNL A   1      43.993  38.783  30.324  1.00  0.00    -0.200 F 
ATOM    101  F   UNL A   1      42.941  39.576  27.936  1.00  0.00    -0.200 F 
ENDBRANCH  68  91
ENDBRANCH  42  43
ENDBRANCH  34  37
ENDBRANCH  32  33
ENDBRANCH  31  32
ENDBRANCH  30  31
ENDBRANCH   1  30
TORSDOF 15
ENDMDL
MODEL 3
REMARK VINA RESULT:     -14.1      1.392      2.313
REMARK SMILES Cc1ccc(C(=O)N2CCCC[C@@H]2C(=O)NCCCCNC(=O)c2ccc(-c3c4nc(c(-c5c(F)c(F)c(F)c(F)c5F)c5ccc([nH]5)c(-c5c(F)c(F)c(F)c(F)c5F)c5nc(c(-c6c(F)c(F)c(F)c(F)c6F)c6ccc3[nH]6)C=C5)C=C4)cc2)cc1S(=O)(=O)N1CCCCC1
REMARK SMILES IDX 17 1 16 2 14 3 15 4 13 6 8 7 9 8 10 9 12 10 11 11 6 12 7 13
REMARK SMILES IDX 5 14 1 15 2 16 3 17 88 18 4 19 87 20 89 21 90 22 91 23 92 24
REMARK SMILES IDX 93 25 97 26 94 27 96 28 95 29 18 30 19 31 20 32 21 33 22 34
REMARK SMILES IDX 23 36 24 37 25 38 86 39 26 40 85 41 27 42 28 43 29 44 79 45
REMARK SMILES IDX 30 46 84 47 78 48 80 49 31 50 83 51 77 52 76 53 32 55 64 56
REMARK SMILES IDX 44 57 63 58 45 59 48 60 62 61 81 62 46 63 47 64 61 66 82 67
REMARK SMILES IDX 49 68 33 69 34 70 42 71 35 72 36 73 40 74 43 75 37 76 38 77
REMARK SMILES IDX 41 78 39 79 65 80 66 81 74 82 67 83 68 84 72 85 75 86 69 87
REMARK SMILES IDX 70 88 73 89 71 90 50 91 51 92 59 93 52 94 53 95 57 96 60 97
REMARK SMILES IDX 54 98 55 99 58 100 56 101
REMARK H PARENT 16 5 21 35 80 54 48 65
REMARK Flexibility Score: inf
ROOT
ATOM      1  C   UNL A   1      33.547  27.655  25.955  1.00  0.00     0.116 C 
ENDROOT
BRANCH   1   2
ATOM      2  N   UNL A   1      32.580  26.687  26.444  1.00  0.00    -0.354 N 
ATOM      3  C   UNL A   1      31.272  26.500  26.109  1.00  0.00     0.242 C 
ATOM      4  O   UNL A   1      30.596  25.798  26.867  1.00  0.00    -0.273 OA
ATOM      5  H   UNL A   1      32.925  26.067  27.126  1.00  0.00     0.163 HD
BRANCH   3   6
ATOM      6  C   UNL A   1      30.625  27.206  24.893  1.00  0.00     0.174 C 
ATOM      7  N   UNL A   1      30.909  26.535  23.600  1.00  0.00    -0.327 N 
ATOM      8  C   UNL A   1      30.664  27.305  22.386  1.00  0.00     0.120 C 
ATOM      9  C   UNL A   1      31.313  28.672  22.420  1.00  0.00     0.022 C 
ATOM     10  C   UNL A   1      31.108  28.674  24.913  1.00  0.00     0.035 C 
ATOM     11  C   UNL A   1      30.825  29.448  23.634  1.00  0.00     0.004 C 
BRANCH   7  12
ATOM     12  C   UNL A   1      31.006  25.154  23.397  1.00  0.00     0.254 C 
ATOM     13  O   UNL A   1      30.048  24.491  22.995  1.00  0.00    -0.269 OA
BRANCH  12  14
ATOM     14  C   UNL A   1      32.255  24.416  23.691  1.00  0.00     0.041 A 
ATOM     15  C   UNL A   1      35.989  22.278  23.932  1.00  0.00     0.046 C 
ATOM     16  C   UNL A   1      34.635  22.907  23.959  1.00  0.00    -0.031 A 
ATOM     17  C   UNL A   1      34.628  24.205  23.388  1.00  0.00     0.005 A 
ATOM     18  C   UNL A   1      33.417  22.376  24.422  1.00  0.00     0.086 A 
ATOM     19  C   UNL A   1      33.461  24.952  23.256  1.00  0.00     0.014 A 
ATOM     20  C   UNL A   1      32.236  23.136  24.245  1.00  0.00     0.035 A 
BRANCH  18  21
ATOM     21  S   UNL A   1      33.054  20.815  25.247  1.00  0.00     0.243 S 
ATOM     22  O   UNL A   1      33.920  20.775  26.399  1.00  0.00    -0.207 OA
ATOM     23  O   UNL A   1      31.606  20.815  25.417  1.00  0.00    -0.207 OA
BRANCH  21  24
ATOM     24  N   UNL A   1      33.427  19.475  24.286  1.00  0.00    -0.198 NA
ATOM     25  C   UNL A   1      34.478  18.572  24.790  1.00  0.00     0.102 C 
ATOM     26  C   UNL A   1      32.390  19.043  23.326  1.00  0.00     0.102 C 
ATOM     27  C   UNL A   1      34.743  17.359  23.913  1.00  0.00     0.017 C 
ATOM     28  C   UNL A   1      32.732  17.785  22.541  1.00  0.00     0.017 C 
ATOM     29  C   UNL A   1      33.475  16.742  23.355  1.00  0.00     0.003 C 
ENDBRANCH  21  24
ENDBRANCH  18  21
ENDBRANCH  12  14
ENDBRANCH   7  12
ENDBRANCH   3   6
ENDBRANCH   1   2
BRANCH   1  30
ATOM     30  C   UNL A   1      34.025  28.588  27.077  1.00  0.00     0.023 C 
BRANCH  30  31
ATOM     31  C   UNL A   1      33.988  30.072  26.727  1.00  0.00     0.023 C 
BRANCH  31  32
ATOM     32  C   UNL A   1      33.864  30.983  27.933  1.00  0.00     0.116 C 
BRANCH  32  33
ATOM     33  N   UNL A   1      34.971  31.921  28.059  1.00  0.00    -0.352 N 
ATOM     34  C   UNL A   1      36.288  31.702  28.422  1.00  0.00     0.251 C 
ATOM     35  H   UNL A   1      34.747  32.858  27.853  1.00  0.00     0.163 HD
ATOM     36  O   UNL A   1      37.032  32.652  28.636  1.00  0.00    -0.269 OA
BRANCH  34  37
ATOM     37  C   UNL A   1      36.848  30.333  28.333  1.00  0.00     0.039 A 
ATOM     38  C   UNL A   1      37.036  29.679  29.559  1.00  0.00     0.014 A 
ATOM     39  C   UNL A   1      37.548  29.932  27.205  1.00  0.00     0.014 A 
ATOM     40  C   UNL A   1      38.162  28.892  29.731  1.00  0.00     0.010 A 
ATOM     41  C   UNL A   1      38.740  29.288  27.402  1.00  0.00     0.010 A 
ATOM     42  C   UNL A   1      39.073  28.849  28.685  1.00  0.00    -0.014 A 
BRANCH  42  43
ATOM     43  C   UNL A   1      40.411  28.315  28.796  1.00  0.00     0.031 A 
ATOM     44  C   UNL A   1      40.556  26.868  28.611  1.00  0.00     0.074 A 
ATOM     45  C   UNL A   1      41.436  29.192  28.869  1.00  0.00     0.049 A 
ATOM     46  N   UNL A   1      41.595  26.192  28.933  1.00  0.00    -0.248 NA
ATOM     47  C   UNL A   1      39.475  26.044  28.079  1.00  0.00     0.031 C 
ATOM     48  C   UNL A   1      42.861  28.950  28.670  1.00  0.00     0.029 A 
ATOM     49  N   UNL A   1      41.375  30.512  29.347  1.00  0.00    -0.354 N 
ATOM     50  C   UNL A   1      41.449  24.928  28.403  1.00  0.00     0.074 A 
ATOM     51  C   UNL A   1      40.077  24.858  27.976  1.00  0.00     0.031 C 
ATOM     52  C   UNL A   1      43.553  29.920  29.300  1.00  0.00     0.029 A 
ATOM     53  C   UNL A   1      42.586  30.705  30.052  1.00  0.00     0.049 A 
ATOM     54  H   UNL A   1      40.646  31.162  29.219  1.00  0.00     0.167 HD
ATOM     55  C   UNL A   1      42.574  24.169  28.272  1.00  0.00     0.037 A 
ATOM     56  C   UNL A   1      42.570  30.817  31.415  1.00  0.00     0.037 A 
ATOM     57  C   UNL A   1      43.683  24.834  28.961  1.00  0.00     0.049 A 
ATOM     58  C   UNL A   1      43.309  29.684  32.090  1.00  0.00     0.074 A 
ATOM     59  C   UNL A   1      44.681  25.686  28.515  1.00  0.00     0.029 A 
ATOM     60  N   UNL A   1      43.605  25.007  30.341  1.00  0.00    -0.354 N 
ATOM     61  N   UNL A   1      43.452  28.490  31.578  1.00  0.00    -0.248 NA
ATOM     62  C   UNL A   1      43.962  29.825  33.387  1.00  0.00     0.031 C 
ATOM     63  C   UNL A   1      45.133  26.444  29.629  1.00  0.00     0.029 A 
ATOM     64  C   UNL A   1      44.440  26.027  30.755  1.00  0.00     0.049 A 
ATOM     65  H   UNL A   1      43.033  24.474  30.940  1.00  0.00     0.167 HD
ATOM     66  C   UNL A   1      44.201  27.718  32.429  1.00  0.00     0.074 A 
ATOM     67  C   UNL A   1      44.505  28.604  33.539  1.00  0.00     0.031 C 
ATOM     68  C   UNL A   1      44.512  26.413  32.160  1.00  0.00     0.037 A 
BRANCH  55  69
ATOM     69  C   UNL A   1      42.756  23.009  27.311  1.00  0.00     0.064 A 
ATOM     70  C   UNL A   1      42.059  21.799  27.533  1.00  0.00     0.173 A 
ATOM     71  C   UNL A   1      43.642  22.967  26.216  1.00  0.00     0.173 A 
ATOM     72  F   UNL A   1      41.138  21.691  28.500  1.00  0.00    -0.203 F 
ATOM     73  C   UNL A   1      42.288  20.641  26.781  1.00  0.00     0.198 A 
ATOM     74  C   UNL A   1      43.889  21.805  25.477  1.00  0.00     0.198 A 
ATOM     75  F   UNL A   1      44.286  24.051  25.778  1.00  0.00    -0.203 F 
ATOM     76  F   UNL A   1      41.609  19.521  27.063  1.00  0.00    -0.200 F 
ATOM     77  C   UNL A   1      43.218  20.638  25.764  1.00  0.00     0.200 A 
ATOM     78  F   UNL A   1      44.789  21.831  24.482  1.00  0.00    -0.200 F 
ATOM     79  F   UNL A   1      43.456  19.526  25.057  1.00  0.00    -0.200 F 
ENDBRANCH  55  69
BRANCH  56  80
ATOM     80  C   UNL A   1      41.312  31.452  31.917  1.00  0.00     0.064 A 
ATOM     81  C   UNL A   1      40.335  30.610  32.493  1.00  0.00     0.173 A 
ATOM     82  C   UNL A   1      41.248  32.815  32.231  1.00  0.00     0.173 A 
ATOM     83  F   UNL A   1      40.329  29.299  32.206  1.00  0.00    -0.203 F 
ATOM     84  C   UNL A   1      39.462  31.075  33.474  1.00  0.00     0.198 A 
ATOM     85  C   UNL A   1      40.340  33.284  33.185  1.00  0.00     0.198 A 
ATOM     86  F   UNL A   1      42.137  33.676  31.715  1.00  0.00    -0.203 F 
ATOM     87  F   UNL A   1      38.665  30.213  34.124  1.00  0.00    -0.200 F 
ATOM     88  C   UNL A   1      39.487  32.407  33.842  1.00  0.00     0.200 A 
ATOM     89  F   UNL A   1      40.368  34.575  33.552  1.00  0.00    -0.200 F 
ATOM     90  F   UNL A   1      38.726  32.838  34.857  1.00  0.00    -0.200 F 
ENDBRANCH  56  80
BRANCH  68  91
ATOM     91  C   UNL A   1      45.012  25.402  33.174  1.00  0.00     0.064 A 
ATOM     92  C   UNL A   1      46.341  24.953  33.245  1.00  0.00     0.173 A 
ATOM     93  C   UNL A   1      44.172  24.954  34.225  1.00  0.00     0.173 A 
ATOM     94  F   UNL A   1      47.288  25.423  32.423  1.00  0.00    -0.203 F 
ATOM     95  C   UNL A   1      46.769  24.046  34.219  1.00  0.00     0.198 A 
ATOM     96  C   UNL A   1      44.626  24.118  35.245  1.00  0.00     0.198 A 
ATOM     97  F   UNL A   1      42.891  25.337  34.322  1.00  0.00    -0.203 F 
ATOM     98  F   UNL A   1      48.031  23.594  34.192  1.00  0.00    -0.200 F 
ATOM     99  C   UNL A   1      45.917  23.638  35.224  1.00  0.00     0.200 A 
ATOM    100  F   UNL A   1      43.805  23.799  36.257  1.00  0.00    -0.200 F 
ATOM    101  F   UNL A   1      46.345  22.808  36.183  1.00  0.00    -0.200 F 
ENDBRANCH  68  91
ENDBRANCH  42  43
ENDBRANCH  34  37
ENDBRANCH  32  33
ENDBRANCH  31  32
ENDBRANCH  30  31
ENDBRANCH   1  30
TORSDOF 15
ENDMDL
