MODEL 1
REMARK VINA RESULT:     -11.7      0.000      0.000
REMARK SMILES C[NH2+][C@](C)(C(=O)NCCCCNC(=O)c1ccc(-c2c3nc(c(-c4c(F)c(F)c(F)c(F)c4F)c4ccc([nH]4)c(-c4c(F)c(F)c(F)c(F)c4F)c4nc(c(-c5c(F)c(F)c(F)c(F)c5F)c5ccc2[nH]5)C=C4)C=C3)cc1)c1cccc(Cl)c1
REMARK SMILES IDX 10 1 9 2 8 3 7 4 5 5 6 6 3 8 4 9 2 10 1 11 78 14 79 15 84 16
REMARK SMILES IDX 80 17 82 18 81 19 83 20 11 21 12 22 13 23 14 25 15 26 16 27
REMARK SMILES IDX 77 28 17 29 76 30 18 31 19 32 20 33 70 34 21 35 75 36 69 37
REMARK SMILES IDX 71 38 22 39 74 40 68 41 67 42 23 44 55 45 35 46 54 47 36 48
REMARK SMILES IDX 39 49 53 50 72 51 37 52 38 53 52 55 73 56 40 57 24 58 25 59
REMARK SMILES IDX 33 60 26 61 27 62 31 63 34 64 28 65 29 66 32 67 30 68 56 69
REMARK SMILES IDX 57 70 65 71 58 72 59 73 63 74 66 75 60 76 61 77 64 78 62 79
REMARK SMILES IDX 41 80 42 81 50 82 43 83 44 84 48 85 51 86 45 87 46 88 49 89
REMARK SMILES IDX 47 90
REMARK H PARENT 7 7 2 12 2 13 12 24 71 43 39 54
REMARK Flexibility Score: inf
ROOT
ATOM      1  C   UNL A   1      31.275  31.824  26.868  1.00  0.00     0.023 C 
ENDROOT
BRANCH   1   2
ATOM      2  C   UNL A   1      31.218  30.938  25.627  1.00  0.00     0.023 C 
BRANCH   2   3
ATOM      3  C   UNL A   1      32.109  29.699  25.699  1.00  0.00     0.116 C 
BRANCH   3   4
ATOM      4  N   UNL A   1      32.990  29.623  24.553  1.00  0.00    -0.350 N 
ATOM      5  C   UNL A   1      32.967  28.790  23.466  1.00  0.00     0.285 C 
ATOM      6  O   UNL A   1      33.931  28.900  22.700  1.00  0.00    -0.267 OA
ATOM      7  H   UNL A   1      33.725  30.278  24.554  1.00  0.00     0.163 HD
BRANCH   5   8
ATOM      8  C   UNL A   1      31.788  27.738  23.236  1.00  0.00     0.198 C 
ATOM      9  C   UNL A   1      32.284  26.794  22.111  1.00  0.00     0.096 C 
BRANCH   8  10
ATOM     10  N   UNL A   1      31.554  27.057  24.543  1.00  0.00    -0.332 N 
ATOM     11  C   UNL A   1      32.478  26.000  24.910  1.00  0.00     0.332 C 
ATOM     12  H   UNL A   1      31.596  27.768  25.273  1.00  0.00     0.347 HD
ATOM     13  H   UNL A   1      30.651  26.595  24.442  1.00  0.00     0.347 HD
ENDBRANCH   8  10
BRANCH   8  14
ATOM     14  C   UNL A   1      30.489  28.485  22.814  1.00  0.00     0.023 A 
ATOM     15  C   UNL A   1      30.497  29.635  22.000  1.00  0.00     0.011 A 
ATOM     16  C   UNL A   1      29.234  28.035  23.279  1.00  0.00     0.031 A 
ATOM     17  C   UNL A   1      29.318  30.329  21.707  1.00  0.00     0.002 A 
ATOM     18  C   UNL A   1      28.060  28.734  22.988  1.00  0.00     0.041 A 
ATOM     19  C   UNL A   1      28.099  29.885  22.209  1.00  0.00     0.020 A 
ATOM     20  Cl  UNL A   1      26.555  28.180  23.613  1.00  0.00    -0.084 Cl
ENDBRANCH   8  14
ENDBRANCH   5   8
ENDBRANCH   3   4
ENDBRANCH   2   3
ENDBRANCH   1   2
BRANCH   1  21
ATOM     21  C   UNL A   1      32.581  32.581  27.047  1.00  0.00     0.116 C 
BRANCH  21  22
ATOM     22  N   UNL A   1      32.388  33.955  27.486  1.00  0.00    -0.352 N 
ATOM     23  C   UNL A   1      33.059  34.651  28.461  1.00  0.00     0.251 C 
ATOM     24  H   UNL A   1      31.677  34.454  27.021  1.00  0.00     0.163 HD
ATOM     25  O   UNL A   1      32.678  35.760  28.807  1.00  0.00    -0.269 OA
BRANCH  23  26
ATOM     26  C   UNL A   1      34.233  34.031  29.108  1.00  0.00     0.039 A 
ATOM     27  C   UNL A   1      34.028  33.016  30.044  1.00  0.00     0.014 A 
ATOM     28  C   UNL A   1      35.529  34.439  28.780  1.00  0.00     0.014 A 
ATOM     29  C   UNL A   1      35.129  32.381  30.620  1.00  0.00     0.010 A 
ATOM     30  C   UNL A   1      36.621  33.739  29.277  1.00  0.00     0.010 A 
ATOM     31  C   UNL A   1      36.434  32.720  30.222  1.00  0.00    -0.014 A 
BRANCH  31  32
ATOM     32  C   UNL A   1      37.612  32.050  30.826  1.00  0.00     0.031 A 
ATOM     33  C   UNL A   1      38.061  32.427  32.211  1.00  0.00     0.074 A 
ATOM     34  C   UNL A   1      38.294  31.130  30.116  1.00  0.00     0.049 A 
ATOM     35  N   UNL A   1      39.069  31.966  32.910  1.00  0.00    -0.248 NA
ATOM     36  C   UNL A   1      37.298  33.486  32.893  1.00  0.00     0.031 C 
ATOM     37  C   UNL A   1      37.993  30.726  28.742  1.00  0.00     0.029 A 
ATOM     38  N   UNL A   1      39.383  30.367  30.456  1.00  0.00    -0.354 N 
ATOM     39  C   UNL A   1      39.064  32.685  34.098  1.00  0.00     0.074 A 
ATOM     40  C   UNL A   1      38.001  33.660  34.002  1.00  0.00     0.031 C 
ATOM     41  C   UNL A   1      38.854  29.766  28.367  1.00  0.00     0.029 A 
ATOM     42  C   UNL A   1      39.787  29.510  29.461  1.00  0.00     0.049 A 
ATOM     43  H   UNL A   1      39.833  30.428  31.329  1.00  0.00     0.167 HD
ATOM     44  C   UNL A   1      39.854  32.526  35.186  1.00  0.00     0.037 A 
ATOM     45  C   UNL A   1      40.795  28.619  29.438  1.00  0.00     0.037 A 
ATOM     46  C   UNL A   1      40.892  31.535  35.289  1.00  0.00     0.049 A 
ATOM     47  C   UNL A   1      41.646  28.449  30.670  1.00  0.00     0.074 A 
ATOM     48  C   UNL A   1      41.713  31.253  36.366  1.00  0.00     0.029 A 
ATOM     49  N   UNL A   1      41.252  30.663  34.271  1.00  0.00    -0.354 N 
ATOM     50  N   UNL A   1      41.581  29.080  31.817  1.00  0.00    -0.248 NA
ATOM     51  C   UNL A   1      42.699  27.427  30.607  1.00  0.00     0.031 C 
ATOM     52  C   UNL A   1      42.604  30.245  35.984  1.00  0.00     0.029 A 
ATOM     53  C   UNL A   1      42.295  29.853  34.691  1.00  0.00     0.049 A 
ATOM     54  H   UNL A   1      40.829  30.625  33.383  1.00  0.00     0.167 HD
ATOM     55  C   UNL A   1      42.554  28.505  32.625  1.00  0.00     0.074 A 
ATOM     56  C   UNL A   1      43.182  27.463  31.839  1.00  0.00     0.031 C 
ATOM     57  C   UNL A   1      42.898  28.810  33.901  1.00  0.00     0.037 A 
BRANCH  44  58
ATOM     58  C   UNL A   1      39.622  33.440  36.356  1.00  0.00     0.064 A 
ATOM     59  C   UNL A   1      38.790  33.073  37.426  1.00  0.00     0.173 A 
ATOM     60  C   UNL A   1      40.269  34.682  36.428  1.00  0.00     0.173 A 
ATOM     61  F   UNL A   1      38.135  31.902  37.402  1.00  0.00    -0.203 F 
ATOM     62  C   UNL A   1      38.594  33.926  38.509  1.00  0.00     0.198 A 
ATOM     63  C   UNL A   1      40.099  35.519  37.528  1.00  0.00     0.198 A 
ATOM     64  F   UNL A   1      41.078  35.083  35.435  1.00  0.00    -0.203 F 
ATOM     65  F   UNL A   1      37.755  33.577  39.493  1.00  0.00    -0.200 F 
ATOM     66  C   UNL A   1      39.256  35.144  38.564  1.00  0.00     0.200 A 
ATOM     67  F   UNL A   1      40.750  36.688  37.587  1.00  0.00    -0.200 F 
ATOM     68  F   UNL A   1      39.076  35.959  39.612  1.00  0.00    -0.200 F 
ENDBRANCH  44  58
BRANCH  45  69
ATOM     69  C   UNL A   1      41.038  27.791  28.226  1.00  0.00     0.064 A 
ATOM     70  C   UNL A   1      40.475  26.513  28.097  1.00  0.00     0.173 A 
ATOM     71  C   UNL A   1      41.858  28.249  27.184  1.00  0.00     0.173 A 
ATOM     72  F   UNL A   1      39.698  26.023  29.074  1.00  0.00    -0.203 F 
ATOM     73  C   UNL A   1      40.753  25.711  26.993  1.00  0.00     0.198 A 
ATOM     74  C   UNL A   1      42.107  27.459  26.064  1.00  0.00     0.198 A 
ATOM     75  F   UNL A   1      42.413  29.467  27.252  1.00  0.00    -0.203 F 
ATOM     76  F   UNL A   1      40.253  24.468  26.927  1.00  0.00    -0.200 F 
ATOM     77  C   UNL A   1      41.565  26.185  25.975  1.00  0.00     0.200 A 
ATOM     78  F   UNL A   1      42.879  27.929  25.074  1.00  0.00    -0.200 F 
ATOM     79  F   UNL A   1      41.835  25.413  24.914  1.00  0.00    -0.200 F 
ENDBRANCH  45  69
BRANCH  57  80
ATOM     80  C   UNL A   1      43.961  27.965  34.546  1.00  0.00     0.064 A 
ATOM     81  C   UNL A   1      45.313  28.333  34.535  1.00  0.00     0.173 A 
ATOM     82  C   UNL A   1      43.611  26.769  35.194  1.00  0.00     0.173 A 
ATOM     83  F   UNL A   1      45.703  29.461  33.921  1.00  0.00    -0.203 F 
ATOM     84  C   UNL A   1      46.283  27.512  35.106  1.00  0.00     0.198 A 
ATOM     85  C   UNL A   1      44.578  25.972  35.798  1.00  0.00     0.198 A 
ATOM     86  F   UNL A   1      42.330  26.376  35.245  1.00  0.00    -0.203 F 
ATOM     87  F   UNL A   1      47.577  27.848  35.019  1.00  0.00    -0.200 F 
ATOM     88  C   UNL A   1      45.914  26.335  35.741  1.00  0.00     0.200 A 
ATOM     89  F   UNL A   1      44.217  24.845  36.428  1.00  0.00    -0.200 F 
ATOM     90  F   UNL A   1      46.849  25.546  36.288  1.00  0.00    -0.200 F 
ENDBRANCH  57  80
ENDBRANCH  31  32
ENDBRANCH  23  26
ENDBRANCH  21  22
ENDBRANCH   1  21
TORSDOF 13
ENDMDL
MODEL 2
REMARK VINA RESULT:     -11.7      0.169      1.285
REMARK SMILES C[NH2+][C@](C)(C(=O)NCCCCNC(=O)c1ccc(-c2c3nc(c(-c4c(F)c(F)c(F)c(F)c4F)c4ccc([nH]4)c(-c4c(F)c(F)c(F)c(F)c4F)c4nc(c(-c5c(F)c(F)c(F)c(F)c5F)c5ccc2[nH]5)C=C4)C=C3)cc1)c1cccc(Cl)c1
REMARK SMILES IDX 10 1 9 2 8 3 7 4 5 5 6 6 3 8 4 9 2 10 1 11 78 14 79 15 84 16
REMARK SMILES IDX 80 17 82 18 81 19 83 20 11 21 12 22 13 23 14 25 15 26 16 27
REMARK SMILES IDX 77 28 17 29 76 30 18 31 19 32 20 33 70 34 21 35 75 36 69 37
REMARK SMILES IDX 71 38 22 39 74 40 68 41 67 42 23 44 55 45 35 46 54 47 36 48
REMARK SMILES IDX 39 49 53 50 72 51 37 52 38 53 52 55 73 56 40 57 24 58 25 59
REMARK SMILES IDX 33 60 26 61 27 62 31 63 34 64 28 65 29 66 32 67 30 68 56 69
REMARK SMILES IDX 57 70 65 71 58 72 59 73 63 74 66 75 60 76 61 77 64 78 62 79
REMARK SMILES IDX 41 80 42 81 50 82 43 83 44 84 48 85 51 86 45 87 46 88 49 89
REMARK SMILES IDX 47 90
REMARK H PARENT 7 7 2 12 2 13 12 24 71 43 39 54
REMARK Flexibility Score: inf
ROOT
ATOM      1  C   UNL A   1      31.334  31.904  26.864  1.00  0.00     0.023 C 
ENDROOT
BRANCH   1   2
ATOM      2  C   UNL A   1      31.249  30.936  25.687  1.00  0.00     0.023 C 
BRANCH   2   3
ATOM      3  C   UNL A   1      32.223  29.762  25.767  1.00  0.00     0.116 C 
BRANCH   3   4
ATOM      4  N   UNL A   1      33.042  29.683  24.576  1.00  0.00    -0.350 N 
ATOM      5  C   UNL A   1      32.960  28.848  23.493  1.00  0.00     0.285 C 
ATOM      6  O   UNL A   1      33.883  28.955  22.677  1.00  0.00    -0.267 OA
ATOM      7  H   UNL A   1      33.777  30.336  24.537  1.00  0.00     0.163 HD
BRANCH   5   8
ATOM      8  C   UNL A   1      31.769  27.797  23.328  1.00  0.00     0.198 C 
ATOM      9  C   UNL A   1      32.251  26.783  22.261  1.00  0.00     0.096 C 
BRANCH   8  10
ATOM     10  N   UNL A   1      31.531  27.197  24.674  1.00  0.00    -0.332 N 
ATOM     11  C   UNL A   1      31.837  25.788  24.831  1.00  0.00     0.332 C 
ATOM     12  H   UNL A   1      32.101  27.711  25.345  1.00  0.00     0.347 HD
ATOM     13  H   UNL A   1      30.525  27.267  24.820  1.00  0.00     0.347 HD
ENDBRANCH   8  10
BRANCH   8  14
ATOM     14  C   UNL A   1      30.478  28.532  22.865  1.00  0.00     0.023 A 
ATOM     15  C   UNL A   1      30.500  29.669  22.034  1.00  0.00     0.011 A 
ATOM     16  C   UNL A   1      29.214  28.086  23.310  1.00  0.00     0.031 A 
ATOM     17  C   UNL A   1      29.326  30.354  21.703  1.00  0.00     0.002 A 
ATOM     18  C   UNL A   1      28.045  28.776  22.982  1.00  0.00     0.041 A 
ATOM     19  C   UNL A   1      28.097  29.915  22.185  1.00  0.00     0.020 A 
ATOM     20  Cl  UNL A   1      26.528  28.227  23.583  1.00  0.00    -0.084 Cl
ENDBRANCH   8  14
ENDBRANCH   5   8
ENDBRANCH   3   4
ENDBRANCH   2   3
ENDBRANCH   1   2
BRANCH   1  21
ATOM     21  C   UNL A   1      32.622  32.710  26.928  1.00  0.00     0.116 C 
BRANCH  21  22
ATOM     22  N   UNL A   1      32.445  34.016  27.546  1.00  0.00    -0.352 N 
ATOM     23  C   UNL A   1      33.132  34.570  28.599  1.00  0.00     0.251 C 
ATOM     24  H   UNL A   1      31.736  34.577  27.158  1.00  0.00     0.163 HD
ATOM     25  O   UNL A   1      32.765  35.627  29.091  1.00  0.00    -0.269 OA
BRANCH  23  26
ATOM     26  C   UNL A   1      34.305  33.860  29.148  1.00  0.00     0.039 A 
ATOM     27  C   UNL A   1      35.582  34.278  28.770  1.00  0.00     0.014 A 
ATOM     28  C   UNL A   1      34.143  32.799  30.043  1.00  0.00     0.014 A 
ATOM     29  C   UNL A   1      36.700  33.655  29.326  1.00  0.00     0.010 A 
ATOM     30  C   UNL A   1      35.254  32.250  30.671  1.00  0.00     0.010 A 
ATOM     31  C   UNL A   1      36.545  32.653  30.300  1.00  0.00    -0.014 A 
BRANCH  31  32
ATOM     32  C   UNL A   1      37.726  31.986  30.900  1.00  0.00     0.031 A 
ATOM     33  C   UNL A   1      38.174  32.358  32.288  1.00  0.00     0.074 A 
ATOM     34  C   UNL A   1      38.412  31.072  30.186  1.00  0.00     0.049 A 
ATOM     35  N   UNL A   1      39.183  31.898  32.984  1.00  0.00    -0.248 NA
ATOM     36  C   UNL A   1      37.406  33.410  32.975  1.00  0.00     0.031 C 
ATOM     37  C   UNL A   1      38.113  30.673  28.810  1.00  0.00     0.029 A 
ATOM     38  N   UNL A   1      39.505  30.313  30.522  1.00  0.00    -0.354 N 
ATOM     39  C   UNL A   1      39.175  32.612  34.175  1.00  0.00     0.074 A 
ATOM     40  C   UNL A   1      38.108  33.582  34.084  1.00  0.00     0.031 C 
ATOM     41  C   UNL A   1      38.979  29.719  28.431  1.00  0.00     0.029 A 
ATOM     42  C   UNL A   1      39.912  29.463  29.523  1.00  0.00     0.049 A 
ATOM     43  H   UNL A   1      39.955  30.372  31.396  1.00  0.00     0.167 HD
ATOM     44  C   UNL A   1      39.966  32.452  35.263  1.00  0.00     0.037 A 
ATOM     45  C   UNL A   1      40.925  28.576  29.497  1.00  0.00     0.037 A 
ATOM     46  C   UNL A   1      41.009  31.464  35.361  1.00  0.00     0.049 A 
ATOM     47  C   UNL A   1      41.777  28.404  30.727  1.00  0.00     0.074 A 
ATOM     48  C   UNL A   1      41.830  31.181  36.437  1.00  0.00     0.029 A 
ATOM     49  N   UNL A   1      41.373  30.599  34.339  1.00  0.00    -0.354 N 
ATOM     50  N   UNL A   1      41.708  29.029  31.878  1.00  0.00    -0.248 NA
ATOM     51  C   UNL A   1      42.834  27.387  30.660  1.00  0.00     0.031 C 
ATOM     52  C   UNL A   1      42.726  30.179  36.050  1.00  0.00     0.029 A 
ATOM     53  C   UNL A   1      42.419  29.792  34.755  1.00  0.00     0.049 A 
ATOM     54  H   UNL A   1      40.950  30.564  33.451  1.00  0.00     0.167 HD
ATOM     55  C   UNL A   1      42.684  28.455  32.683  1.00  0.00     0.074 A 
ATOM     56  C   UNL A   1      43.317  27.419  31.892  1.00  0.00     0.031 C 
ATOM     57  C   UNL A   1      43.027  28.755  33.961  1.00  0.00     0.037 A 
BRANCH  44  58
ATOM     58  C   UNL A   1      39.730  33.359  36.437  1.00  0.00     0.064 A 
ATOM     59  C   UNL A   1      40.364  34.607  36.545  1.00  0.00     0.173 A 
ATOM     60  C   UNL A   1      38.831  32.993  37.450  1.00  0.00     0.173 A 
ATOM     61  F   UNL A   1      41.244  35.000  35.612  1.00  0.00    -0.203 F 
ATOM     62  C   UNL A   1      40.127  35.441  37.634  1.00  0.00     0.198 A 
ATOM     63  C   UNL A   1      38.569  33.845  38.520  1.00  0.00     0.198 A 
ATOM     64  F   UNL A   1      38.195  31.812  37.397  1.00  0.00    -0.203 F 
ATOM     65  F   UNL A   1      40.783  36.605  37.741  1.00  0.00    -0.200 F 
ATOM     66  C   UNL A   1      39.222  35.064  38.615  1.00  0.00     0.200 A 
ATOM     67  F   UNL A   1      37.685  33.485  39.460  1.00  0.00    -0.200 F 
ATOM     68  F   UNL A   1      38.986  35.873  39.658  1.00  0.00    -0.200 F 
ENDBRANCH  44  58
BRANCH  45  69
ATOM     69  C   UNL A   1      41.171  27.755  28.281  1.00  0.00     0.064 A 
ATOM     70  C   UNL A   1      40.554  26.507  28.112  1.00  0.00     0.173 A 
ATOM     71  C   UNL A   1      42.048  28.188  27.276  1.00  0.00     0.173 A 
ATOM     72  F   UNL A   1      39.720  26.041  29.053  1.00  0.00    -0.203 F 
ATOM     73  C   UNL A   1      40.833  25.708  27.005  1.00  0.00     0.198 A 
ATOM     74  C   UNL A   1      42.300  27.403  26.152  1.00  0.00     0.198 A 
ATOM     75  F   UNL A   1      42.658  29.377  27.382  1.00  0.00    -0.203 F 
ATOM     76  F   UNL A   1      40.277  24.492  26.902  1.00  0.00    -0.200 F 
ATOM     77  C   UNL A   1      41.702  26.158  26.024  1.00  0.00     0.200 A 
ATOM     78  F   UNL A   1      43.128  27.850  25.198  1.00  0.00    -0.200 F 
ATOM     79  F   UNL A   1      41.972  25.389  24.961  1.00  0.00    -0.200 F 
ENDBRANCH  45  69
BRANCH  57  80
ATOM     80  C   UNL A   1      44.093  27.912  34.601  1.00  0.00     0.064 A 
ATOM     81  C   UNL A   1      45.448  28.270  34.565  1.00  0.00     0.173 A 
ATOM     82  C   UNL A   1      43.745  26.728  35.271  1.00  0.00     0.173 A 
ATOM     83  F   UNL A   1      45.836  29.387  33.930  1.00  0.00    -0.203 F 
ATOM     84  C   UNL A   1      46.420  27.451  35.133  1.00  0.00     0.198 A 
ATOM     85  C   UNL A   1      44.716  25.933  35.872  1.00  0.00     0.198 A 
ATOM     86  F   UNL A   1      42.462  26.344  35.347  1.00  0.00    -0.203 F 
ATOM     87  F   UNL A   1      47.715  27.777  35.023  1.00  0.00    -0.200 F 
ATOM     88  C   UNL A   1      46.053  26.286  35.790  1.00  0.00     0.200 A 
ATOM     89  F   UNL A   1      44.357  24.817  36.523  1.00  0.00    -0.200 F 
ATOM     90  F   UNL A   1      46.991  25.498  36.334  1.00  0.00    -0.200 F 
ENDBRANCH  57  80
ENDBRANCH  31  32
ENDBRANCH  23  26
ENDBRANCH  21  22
ENDBRANCH   1  21
TORSDOF 13
ENDMDL
MODEL 3
REMARK VINA RESULT:     -11.5      6.002     11.383
REMARK SMILES C[NH2+][C@](C)(C(=O)NCCCCNC(=O)c1ccc(-c2c3nc(c(-c4c(F)c(F)c(F)c(F)c4F)c4ccc([nH]4)c(-c4c(F)c(F)c(F)c(F)c4F)c4nc(c(-c5c(F)c(F)c(F)c(F)c5F)c5ccc2[nH]5)C=C4)C=C3)cc1)c1cccc(Cl)c1
REMARK SMILES IDX 10 1 9 2 8 3 7 4 5 5 6 6 3 8 4 9 2 10 1 11 78 14 79 15 84 16
REMARK SMILES IDX 80 17 82 18 81 19 83 20 11 21 12 22 13 23 14 25 15 26 16 27
REMARK SMILES IDX 77 28 17 29 76 30 18 31 19 32 20 33 70 34 21 35 75 36 69 37
REMARK SMILES IDX 71 38 22 39 74 40 68 41 67 42 23 44 55 45 35 46 54 47 36 48
REMARK SMILES IDX 39 49 53 50 72 51 37 52 38 53 52 55 73 56 40 57 24 58 25 59
REMARK SMILES IDX 33 60 26 61 27 62 31 63 34 64 28 65 29 66 32 67 30 68 56 69
REMARK SMILES IDX 57 70 65 71 58 72 59 73 63 74 66 75 60 76 61 77 64 78 62 79
REMARK SMILES IDX 41 80 42 81 50 82 43 83 44 84 48 85 51 86 45 87 46 88 49 89
REMARK SMILES IDX 47 90
REMARK H PARENT 7 7 2 12 2 13 12 24 71 43 39 54
REMARK Flexibility Score: inf
ROOT
ATOM      1  C   UNL A   1      38.034  19.879  24.656  1.00  0.00     0.023 C 
ENDROOT
BRANCH   1   2
ATOM      2  C   UNL A   1      36.562  20.065  25.012  1.00  0.00     0.023 C 
BRANCH   2   3
ATOM      3  C   UNL A   1      36.186  21.492  25.408  1.00  0.00     0.116 C 
BRANCH   3   4
ATOM      4  N   UNL A   1      35.361  21.503  26.598  1.00  0.00    -0.350 N 
ATOM      5  C   UNL A   1      34.018  21.723  26.748  1.00  0.00     0.285 C 
ATOM      6  O   UNL A   1      33.622  21.775  27.918  1.00  0.00    -0.267 OA
ATOM      7  H   UNL A   1      35.845  21.321  27.436  1.00  0.00     0.163 HD
BRANCH   5   8
ATOM      8  C   UNL A   1      33.052  21.925  25.493  1.00  0.00     0.198 C 
ATOM      9  C   UNL A   1      31.716  22.451  26.074  1.00  0.00     0.096 C 
BRANCH   8  10
ATOM     10  N   UNL A   1      33.734  22.882  24.572  1.00  0.00    -0.332 N 
ATOM     11  C   UNL A   1      33.585  24.295  24.862  1.00  0.00     0.332 C 
ATOM     12  H   UNL A   1      34.731  22.669  24.589  1.00  0.00     0.347 HD
ATOM     13  H   UNL A   1      33.280  22.748  23.669  1.00  0.00     0.347 HD
ENDBRANCH   8  10
BRANCH   8  14
ATOM     14  C   UNL A   1      32.852  20.568  24.757  1.00  0.00     0.023 A 
ATOM     15  C   UNL A   1      32.517  20.480  23.392  1.00  0.00     0.011 A 
ATOM     16  C   UNL A   1      32.971  19.354  25.470  1.00  0.00     0.031 A 
ATOM     17  C   UNL A   1      32.264  19.247  22.780  1.00  0.00     0.002 A 
ATOM     18  C   UNL A   1      32.712  18.126  24.857  1.00  0.00     0.041 A 
ATOM     19  C   UNL A   1      32.351  18.069  23.515  1.00  0.00     0.020 A 
ATOM     20  Cl  UNL A   1      32.821  16.672  25.772  1.00  0.00    -0.084 Cl
ENDBRANCH   8  14
ENDBRANCH   5   8
ENDBRANCH   3   4
ENDBRANCH   2   3
ENDBRANCH   1   2
BRANCH   1  21
ATOM     21  C   UNL A   1      39.001  20.167  25.793  1.00  0.00     0.116 C 
BRANCH  21  22
ATOM     22  N   UNL A   1      40.076  19.190  25.887  1.00  0.00    -0.352 N 
ATOM     23  C   UNL A   1      41.413  19.400  26.120  1.00  0.00     0.251 C 
ATOM     24  H   UNL A   1      39.808  18.251  25.765  1.00  0.00     0.163 HD
ATOM     25  O   UNL A   1      42.212  18.479  26.027  1.00  0.00    -0.269 OA
BRANCH  23  26
ATOM     26  C   UNL A   1      41.880  20.761  26.458  1.00  0.00     0.039 A 
ATOM     27  C   UNL A   1      42.058  21.686  25.428  1.00  0.00     0.014 A 
ATOM     28  C   UNL A   1      42.123  21.123  27.785  1.00  0.00     0.014 A 
ATOM     29  C   UNL A   1      42.442  22.991  25.738  1.00  0.00     0.010 A 
ATOM     30  C   UNL A   1      42.406  22.447  28.099  1.00  0.00     0.010 A 
ATOM     31  C   UNL A   1      42.594  23.389  27.077  1.00  0.00    -0.014 A 
BRANCH  31  32
ATOM     32  C   UNL A   1      42.999  24.775  27.419  1.00  0.00     0.031 A 
ATOM     33  C   UNL A   1      44.408  25.231  27.153  1.00  0.00     0.074 A 
ATOM     34  C   UNL A   1      42.112  25.607  27.996  1.00  0.00     0.049 A 
ATOM     35  N   UNL A   1      44.960  26.396  27.387  1.00  0.00    -0.248 NA
ATOM     36  C   UNL A   1      45.332  24.239  26.577  1.00  0.00     0.031 C 
ATOM     37  C   UNL A   1      40.737  25.261  28.360  1.00  0.00     0.029 A 
ATOM     38  N   UNL A   1      42.236  26.919  28.378  1.00  0.00    -0.354 N 
ATOM     39  C   UNL A   1      46.288  26.268  27.000  1.00  0.00     0.074 A 
ATOM     40  C   UNL A   1      46.480  24.898  26.582  1.00  0.00     0.031 C 
ATOM     41  C   UNL A   1      40.134  26.342  28.880  1.00  0.00     0.029 A 
ATOM     42  C   UNL A   1      41.088  27.447  28.917  1.00  0.00     0.049 A 
ATOM     43  H   UNL A   1      43.069  27.435  28.276  1.00  0.00     0.167 HD
ATOM     44  C   UNL A   1      47.253  27.217  26.965  1.00  0.00     0.037 A 
ATOM     45  C   UNL A   1      40.836  28.683  29.386  1.00  0.00     0.037 A 
ATOM     46  C   UNL A   1      47.049  28.588  27.354  1.00  0.00     0.049 A 
ATOM     47  C   UNL A   1      41.923  29.724  29.318  1.00  0.00     0.074 A 
ATOM     48  C   UNL A   1      47.944  29.641  27.305  1.00  0.00     0.029 A 
ATOM     49  N   UNL A   1      45.863  29.093  27.867  1.00  0.00    -0.354 N 
ATOM     50  N   UNL A   1      43.152  29.613  28.875  1.00  0.00    -0.248 NA
ATOM     51  C   UNL A   1      41.578  31.070  29.796  1.00  0.00     0.031 C 
ATOM     52  C   UNL A   1      47.316  30.772  27.836  1.00  0.00     0.029 A 
ATOM     53  C   UNL A   1      46.009  30.440  28.154  1.00  0.00     0.049 A 
ATOM     54  H   UNL A   1      45.040  28.570  28.006  1.00  0.00     0.167 HD
ATOM     55  C   UNL A   1      43.713  30.880  28.984  1.00  0.00     0.074 A 
ATOM     56  C   UNL A   1      42.682  31.745  29.517  1.00  0.00     0.031 C 
ATOM     57  C   UNL A   1      44.968  31.291  28.670  1.00  0.00     0.037 A 
BRANCH  44  58
ATOM     58  C   UNL A   1      48.616  26.808  26.483  1.00  0.00     0.064 A 
ATOM     59  C   UNL A   1      49.005  26.968  25.143  1.00  0.00     0.173 A 
ATOM     60  C   UNL A   1      49.560  26.284  27.379  1.00  0.00     0.173 A 
ATOM     61  F   UNL A   1      48.137  27.451  24.242  1.00  0.00    -0.203 F 
ATOM     62  C   UNL A   1      50.276  26.594  24.715  1.00  0.00     0.198 A 
ATOM     63  C   UNL A   1      50.842  25.943  26.954  1.00  0.00     0.198 A 
ATOM     64  F   UNL A   1      49.244  26.111  28.671  1.00  0.00    -0.203 F 
ATOM     65  F   UNL A   1      50.606  26.709  23.421  1.00  0.00    -0.200 F 
ATOM     66  C   UNL A   1      51.196  26.092  25.622  1.00  0.00     0.200 A 
ATOM     67  F   UNL A   1      51.735  25.471  27.835  1.00  0.00    -0.200 F 
ATOM     68  F   UNL A   1      52.423  25.743  25.211  1.00  0.00    -0.200 F 
ENDBRANCH  44  58
BRANCH  45  69
ATOM     69  C   UNL A   1      39.493  29.021  29.929  1.00  0.00     0.064 A 
ATOM     70  C   UNL A   1      38.502  29.585  29.112  1.00  0.00     0.173 A 
ATOM     71  C   UNL A   1      39.181  28.812  31.280  1.00  0.00     0.173 A 
ATOM     72  F   UNL A   1      38.757  29.820  27.817  1.00  0.00    -0.203 F 
ATOM     73  C   UNL A   1      37.266  29.961  29.633  1.00  0.00     0.198 A 
ATOM     74  C   UNL A   1      37.932  29.158  31.793  1.00  0.00     0.198 A 
ATOM     75  F   UNL A   1      40.088  28.268  32.104  1.00  0.00    -0.203 F 
ATOM     76  F   UNL A   1      36.361  30.556  28.843  1.00  0.00    -0.200 F 
ATOM     77  C   UNL A   1      36.980  29.744  30.972  1.00  0.00     0.200 A 
ATOM     78  F   UNL A   1      37.653  28.929  33.084  1.00  0.00    -0.200 F 
ATOM     79  F   UNL A   1      35.793  30.108  31.473  1.00  0.00    -0.200 F 
ENDBRANCH  45  69
BRANCH  57  80
ATOM     80  C   UNL A   1      45.272  32.753  28.839  1.00  0.00     0.064 A 
ATOM     81  C   UNL A   1      45.856  33.262  30.007  1.00  0.00     0.173 A 
ATOM     82  C   UNL A   1      44.981  33.656  27.804  1.00  0.00     0.173 A 
ATOM     83  F   UNL A   1      46.145  32.444  31.031  1.00  0.00    -0.203 F 
ATOM     84  C   UNL A   1      46.092  34.627  30.153  1.00  0.00     0.198 A 
ATOM     85  C   UNL A   1      45.255  35.013  27.938  1.00  0.00     0.198 A 
ATOM     86  F   UNL A   1      44.433  33.221  26.659  1.00  0.00    -0.203 F 
ATOM     87  F   UNL A   1      46.582  35.099  31.307  1.00  0.00    -0.200 F 
ATOM     88  C   UNL A   1      45.796  35.500  29.117  1.00  0.00     0.200 A 
ATOM     89  F   UNL A   1      44.987  35.853  26.928  1.00  0.00    -0.200 F 
ATOM     90  F   UNL A   1      46.022  36.813  29.261  1.00  0.00    -0.200 F 
ENDBRANCH  57  80
ENDBRANCH  31  32
ENDBRANCH  23  26
ENDBRANCH  21  22
ENDBRANCH   1  21
TORSDOF 13
ENDMDL
