MODEL 1
REMARK VINA RESULT:     -11.5      0.000      0.000
REMARK SMILES Cc1cc(O[C@@H](C)C(=O)NCCCCNC(=O)c2ccc(-c3c4nc(c(-c5c(F)c(F)c(F)c(F)c5F)c5ccc([nH]5)c(-c5c(F)c(F)c(F)c(F)c5F)c5nc(c(-c6c(F)c(F)c(F)c(F)c6F)c6ccc3[nH]6)C=C5)C=C4)cc2)n(C)n1
REMARK SMILES IDX 12 1 11 2 10 3 8 4 9 5 6 7 7 8 5 9 4 10 1 11 2 12 3 13 83 14
REMARK SMILES IDX 81 15 82 16 13 17 14 18 15 19 16 20 17 22 18 23 19 24 80 25
REMARK SMILES IDX 20 26 79 27 21 28 22 29 23 30 73 31 24 32 78 33 72 34 74 35
REMARK SMILES IDX 25 36 77 37 71 38 70 39 26 41 58 42 38 43 57 44 39 45 42 46
REMARK SMILES IDX 56 47 75 48 40 49 41 50 55 52 76 53 43 54 27 55 28 56 36 57
REMARK SMILES IDX 29 58 30 59 34 60 37 61 31 62 32 63 35 64 33 65 59 66 60 67
REMARK SMILES IDX 68 68 61 69 62 70 66 71 69 72 63 73 64 74 67 75 65 76 44 77
REMARK SMILES IDX 45 78 53 79 46 80 47 81 51 82 54 83 48 84 49 85 52 86 50 87
REMARK H PARENT 10 6 15 21 74 40 42 51
REMARK Flexibility Score: inf
ROOT
ATOM      1  C   UNL A   1      31.262  27.612  26.581  1.00  0.00     0.023 C 
ENDROOT
BRANCH   1   2
ATOM      2  C   UNL A   1      30.921  26.238  26.006  1.00  0.00     0.116 C 
BRANCH   2   3
ATOM      3  N   UNL A   1      31.295  25.179  26.914  1.00  0.00    -0.353 N 
ATOM      4  C   UNL A   1      31.757  23.921  26.681  1.00  0.00     0.260 C 
ATOM      5  O   UNL A   1      31.897  23.205  27.681  1.00  0.00    -0.271 OA
ATOM      6  H   UNL A   1      31.200  25.408  27.867  1.00  0.00     0.163 HD
BRANCH   4   7
ATOM      7  C   UNL A   1      32.144  23.382  25.276  1.00  0.00     0.260 C 
ATOM      8  C   UNL A   1      31.647  21.967  24.995  1.00  0.00     0.064 C 
BRANCH   7   9
ATOM      9  O   UNL A   1      33.405  23.749  24.731  1.00  0.00    -0.465 OA
BRANCH   9  10
ATOM     10  C   UNL A   1      33.555  24.780  23.902  1.00  0.00     0.212 A 
ATOM     11  C   UNL A   1      33.804  28.086  22.314  1.00  0.00     0.069 C 
ATOM     12  C   UNL A   1      33.752  26.661  22.722  1.00  0.00     0.063 A 
ATOM     13  C   UNL A   1      33.872  26.116  24.024  1.00  0.00     0.093 A 
ATOM     14  N   UNL A   1      33.502  25.710  21.818  1.00  0.00    -0.175 NA
ATOM     15  N   UNL A   1      33.473  24.574  22.543  1.00  0.00    -0.237 N 
ATOM     16  C   UNL A   1      33.325  23.314  21.854  1.00  0.00     0.178 C 
ENDBRANCH   9  10
ENDBRANCH   7   9
ENDBRANCH   4   7
ENDBRANCH   2   3
ENDBRANCH   1   2
BRANCH   1  17
ATOM     17  C   UNL A   1      31.708  28.641  25.548  1.00  0.00     0.023 C 
BRANCH  17  18
ATOM     18  C   UNL A   1      32.868  29.533  25.982  1.00  0.00     0.116 C 
BRANCH  18  19
ATOM     19  N   UNL A   1      32.472  30.843  26.485  1.00  0.00    -0.352 N 
ATOM     20  C   UNL A   1      33.198  31.708  27.270  1.00  0.00     0.251 C 
ATOM     21  H   UNL A   1      31.571  31.146  26.229  1.00  0.00     0.163 HD
ATOM     22  O   UNL A   1      32.718  32.771  27.651  1.00  0.00    -0.269 OA
BRANCH  20  23
ATOM     23  C   UNL A   1      34.554  31.307  27.695  1.00  0.00     0.039 A 
ATOM     24  C   UNL A   1      35.546  32.283  27.804  1.00  0.00     0.014 A 
ATOM     25  C   UNL A   1      34.802  29.993  28.096  1.00  0.00     0.014 A 
ATOM     26  C   UNL A   1      36.759  31.964  28.417  1.00  0.00     0.010 A 
ATOM     27  C   UNL A   1      35.975  29.698  28.779  1.00  0.00     0.010 A 
ATOM     28  C   UNL A   1      36.958  30.685  28.961  1.00  0.00    -0.014 A 
BRANCH  28  29
ATOM     29  C   UNL A   1      38.169  30.352  29.753  1.00  0.00     0.031 A 
ATOM     30  C   UNL A   1      39.183  29.392  29.200  1.00  0.00     0.074 A 
ATOM     31  C   UNL A   1      38.290  30.813  31.014  1.00  0.00     0.049 A 
ATOM     32  N   UNL A   1      40.220  28.853  29.786  1.00  0.00    -0.248 NA
ATOM     33  C   UNL A   1      38.975  28.945  27.814  1.00  0.00     0.031 C 
ATOM     34  C   UNL A   1      37.334  31.691  31.691  1.00  0.00     0.029 A 
ATOM     35  N   UNL A   1      39.260  30.587  31.959  1.00  0.00    -0.354 N 
ATOM     36  C   UNL A   1      40.761  27.974  28.859  1.00  0.00     0.074 A 
ATOM     37  C   UNL A   1      39.914  28.020  27.687  1.00  0.00     0.031 C 
ATOM     38  C   UNL A   1      37.773  31.942  32.935  1.00  0.00     0.029 A 
ATOM     39  C   UNL A   1      39.020  31.217  33.156  1.00  0.00     0.049 A 
ATOM     40  H   UNL A   1      40.052  30.026  31.794  1.00  0.00     0.167 HD
ATOM     41  C   UNL A   1      41.875  27.211  28.967  1.00  0.00     0.037 A 
ATOM     42  C   UNL A   1      39.724  31.205  34.303  1.00  0.00     0.037 A 
ATOM     43  C   UNL A   1      42.745  27.214  30.111  1.00  0.00     0.049 A 
ATOM     44  C   UNL A   1      40.995  30.404  34.376  1.00  0.00     0.074 A 
ATOM     45  C   UNL A   1      43.949  26.552  30.283  1.00  0.00     0.029 A 
ATOM     46  N   UNL A   1      42.508  27.924  31.280  1.00  0.00    -0.354 N 
ATOM     47  N   UNL A   1      41.537  29.632  33.467  1.00  0.00    -0.248 NA
ATOM     48  C   UNL A   1      41.756  30.479  35.631  1.00  0.00     0.031 C 
ATOM     49  C   UNL A   1      44.426  26.839  31.567  1.00  0.00     0.029 A 
ATOM     50  C   UNL A   1      43.536  27.708  32.181  1.00  0.00     0.049 A 
ATOM     51  H   UNL A   1      41.723  28.496  31.444  1.00  0.00     0.167 HD
ATOM     52  C   UNL A   1      42.708  29.145  34.027  1.00  0.00     0.074 A 
ATOM     53  C   UNL A   1      42.807  29.721  35.353  1.00  0.00     0.031 C 
ATOM     54  C   UNL A   1      43.620  28.297  33.494  1.00  0.00     0.037 A 
BRANCH  41  55
ATOM     55  C   UNL A   1      42.214  26.317  27.811  1.00  0.00     0.064 A 
ATOM     56  C   UNL A   1      41.601  25.066  27.643  1.00  0.00     0.173 A 
ATOM     57  C   UNL A   1      43.156  26.721  26.855  1.00  0.00     0.173 A 
ATOM     58  F   UNL A   1      40.703  24.629  28.539  1.00  0.00    -0.203 F 
ATOM     59  C   UNL A   1      41.945  24.237  26.579  1.00  0.00     0.198 A 
ATOM     60  C   UNL A   1      43.478  25.901  25.775  1.00  0.00     0.198 A 
ATOM     61  F   UNL A   1      43.770  27.909  26.966  1.00  0.00    -0.203 F 
ATOM     62  F   UNL A   1      41.389  23.023  26.472  1.00  0.00    -0.200 F 
ATOM     63  C   UNL A   1      42.879  24.656  25.644  1.00  0.00     0.200 A 
ATOM     64  F   UNL A   1      44.372  26.312  24.866  1.00  0.00    -0.200 F 
ATOM     65  F   UNL A   1      43.210  23.857  24.621  1.00  0.00    -0.200 F 
ENDBRANCH  41  55
BRANCH  42  66
ATOM     66  C   UNL A   1      39.258  32.007  35.463  1.00  0.00     0.064 A 
ATOM     67  C   UNL A   1      39.613  33.357  35.586  1.00  0.00     0.173 A 
ATOM     68  C   UNL A   1      38.441  31.452  36.457  1.00  0.00     0.173 A 
ATOM     69  F   UNL A   1      40.408  33.926  34.669  1.00  0.00    -0.203 F 
ATOM     70  C   UNL A   1      39.178  34.120  36.667  1.00  0.00     0.198 A 
ATOM     71  C   UNL A   1      37.988  32.221  37.527  1.00  0.00     0.198 A 
ATOM     72  F   UNL A   1      38.071  30.166  36.381  1.00  0.00    -0.203 F 
ATOM     73  F   UNL A   1      39.558  35.400  36.778  1.00  0.00    -0.200 F 
ATOM     74  C   UNL A   1      38.361  33.554  37.634  1.00  0.00     0.200 A 
ATOM     75  F   UNL A   1      37.189  31.673  38.453  1.00  0.00    -0.200 F 
ATOM     76  F   UNL A   1      37.936  34.289  38.671  1.00  0.00    -0.200 F 
ENDBRANCH  42  66
BRANCH  54  77
ATOM     77  C   UNL A   1      44.816  27.960  34.330  1.00  0.00     0.064 A 
ATOM     78  C   UNL A   1      44.829  26.839  35.171  1.00  0.00     0.173 A 
ATOM     79  C   UNL A   1      45.981  28.740  34.250  1.00  0.00     0.173 A 
ATOM     80  F   UNL A   1      43.734  26.073  35.291  1.00  0.00    -0.203 F 
ATOM     81  C   UNL A   1      45.961  26.519  35.915  1.00  0.00     0.198 A 
ATOM     82  C   UNL A   1      47.118  28.403  34.977  1.00  0.00     0.198 A 
ATOM     83  F   UNL A   1      46.017  29.820  33.455  1.00  0.00    -0.203 F 
ATOM     84  F   UNL A   1      45.942  25.462  36.740  1.00  0.00    -0.200 F 
ATOM     85  C   UNL A   1      47.107  27.295  35.812  1.00  0.00     0.200 A 
ATOM     86  F   UNL A   1      48.226  29.149  34.870  1.00  0.00    -0.200 F 
ATOM     87  F   UNL A   1      48.198  26.980  36.524  1.00  0.00    -0.200 F 
ENDBRANCH  54  77
ENDBRANCH  28  29
ENDBRANCH  20  23
ENDBRANCH  18  19
ENDBRANCH  17  18
ENDBRANCH   1  17
TORSDOF 13
ENDMDL
MODEL 2
REMARK VINA RESULT:     -11.5      2.339      8.174
REMARK SMILES Cc1cc(O[C@@H](C)C(=O)NCCCCNC(=O)c2ccc(-c3c4nc(c(-c5c(F)c(F)c(F)c(F)c5F)c5ccc([nH]5)c(-c5c(F)c(F)c(F)c(F)c5F)c5nc(c(-c6c(F)c(F)c(F)c(F)c6F)c6ccc3[nH]6)C=C5)C=C4)cc2)n(C)n1
REMARK SMILES IDX 12 1 11 2 10 3 8 4 9 5 6 7 7 8 5 9 4 10 1 11 2 12 3 13 83 14
REMARK SMILES IDX 81 15 82 16 13 17 14 18 15 19 16 20 17 22 18 23 19 24 80 25
REMARK SMILES IDX 20 26 79 27 21 28 22 29 23 30 73 31 24 32 78 33 72 34 74 35
REMARK SMILES IDX 25 36 77 37 71 38 70 39 26 41 58 42 38 43 57 44 39 45 42 46
REMARK SMILES IDX 56 47 75 48 40 49 41 50 55 52 76 53 43 54 27 55 28 56 36 57
REMARK SMILES IDX 29 58 30 59 34 60 37 61 31 62 32 63 35 64 33 65 59 66 60 67
REMARK SMILES IDX 68 68 61 69 62 70 66 71 69 72 63 73 64 74 67 75 65 76 44 77
REMARK SMILES IDX 45 78 53 79 46 80 47 81 51 82 54 83 48 84 49 85 52 86 50 87
REMARK H PARENT 10 6 15 21 74 40 42 51
REMARK Flexibility Score: inf
ROOT
ATOM      1  C   UNL A   1      31.779  30.517  26.847  1.00  0.00     0.023 C 
ENDROOT
BRANCH   1   2
ATOM      2  C   UNL A   1      33.169  29.897  26.722  1.00  0.00     0.116 C 
BRANCH   2   3
ATOM      3  N   UNL A   1      33.567  29.771  25.339  1.00  0.00    -0.353 N 
ATOM      4  C   UNL A   1      33.196  28.884  24.378  1.00  0.00     0.260 C 
ATOM      5  O   UNL A   1      33.796  28.976  23.299  1.00  0.00    -0.271 OA
ATOM      6  H   UNL A   1      34.220  30.445  25.041  1.00  0.00     0.163 HD
BRANCH   4   7
ATOM      7  C   UNL A   1      32.065  27.833  24.552  1.00  0.00     0.260 C 
ATOM      8  C   UNL A   1      32.394  26.725  25.548  1.00  0.00     0.064 C 
BRANCH   7   9
ATOM      9  O   UNL A   1      31.287  27.477  23.417  1.00  0.00    -0.465 OA
BRANCH   9  10
ATOM     10  C   UNL A   1      30.291  28.236  22.963  1.00  0.00     0.212 A 
ATOM     11  C   UNL A   1      28.153  30.930  21.663  1.00  0.00     0.069 C 
ATOM     12  C   UNL A   1      28.803  29.704  22.188  1.00  0.00     0.063 A 
ATOM     13  C   UNL A   1      30.180  29.374  22.190  1.00  0.00     0.093 A 
ATOM     14  N   UNL A   1      28.077  28.770  22.808  1.00  0.00    -0.175 NA
ATOM     15  N   UNL A   1      28.988  27.854  23.191  1.00  0.00    -0.237 N 
ATOM     16  C   UNL A   1      28.529  26.634  23.812  1.00  0.00     0.178 C 
ENDBRANCH   9  10
ENDBRANCH   7   9
ENDBRANCH   4   7
ENDBRANCH   2   3
ENDBRANCH   1   2
BRANCH   1  17
ATOM     17  C   UNL A   1      31.738  32.030  26.657  1.00  0.00     0.023 C 
BRANCH  17  18
ATOM     18  C   UNL A   1      32.766  32.811  27.472  1.00  0.00     0.116 C 
BRANCH  18  19
ATOM     19  N   UNL A   1      32.398  34.195  27.746  1.00  0.00    -0.352 N 
ATOM     20  C   UNL A   1      32.985  35.073  28.628  1.00  0.00     0.251 C 
ATOM     21  H   UNL A   1      31.633  34.546  27.234  1.00  0.00     0.163 HD
ATOM     22  O   UNL A   1      32.541  36.206  28.782  1.00  0.00    -0.269 OA
BRANCH  20  23
ATOM     23  C   UNL A   1      34.131  34.604  29.432  1.00  0.00     0.039 A 
ATOM     24  C   UNL A   1      33.892  34.041  30.687  1.00  0.00     0.014 A 
ATOM     25  C   UNL A   1      35.418  34.616  28.891  1.00  0.00     0.014 A 
ATOM     26  C   UNL A   1      34.930  33.391  31.357  1.00  0.00     0.010 A 
ATOM     27  C   UNL A   1      36.428  33.898  29.518  1.00  0.00     0.010 A 
ATOM     28  C   UNL A   1      36.190  33.265  30.749  1.00  0.00    -0.014 A 
BRANCH  28  29
ATOM     29  C   UNL A   1      37.273  32.452  31.357  1.00  0.00     0.031 A 
ATOM     30  C   UNL A   1      37.781  32.790  32.729  1.00  0.00     0.074 A 
ATOM     31  C   UNL A   1      37.881  31.496  30.627  1.00  0.00     0.049 A 
ATOM     32  N   UNL A   1      38.814  32.311  33.373  1.00  0.00    -0.248 NA
ATOM     33  C   UNL A   1      37.055  33.843  33.456  1.00  0.00     0.031 C 
ATOM     34  C   UNL A   1      37.530  31.125  29.255  1.00  0.00     0.029 A 
ATOM     35  N   UNL A   1      38.940  30.675  30.931  1.00  0.00    -0.354 N 
ATOM     36  C   UNL A   1      38.885  33.030  34.557  1.00  0.00     0.074 A 
ATOM     37  C   UNL A   1      37.818  34.007  34.526  1.00  0.00     0.031 C 
ATOM     38  C   UNL A   1      38.346  30.141  28.843  1.00  0.00     0.029 A 
ATOM     39  C   UNL A   1      39.299  29.836  29.906  1.00  0.00     0.049 A 
ATOM     40  H   UNL A   1      39.398  30.689  31.802  1.00  0.00     0.167 HD
ATOM     41  C   UNL A   1      39.751  32.877  35.588  1.00  0.00     0.037 A 
ATOM     42  C   UNL A   1      40.290  28.928  29.829  1.00  0.00     0.037 A 
ATOM     43  C   UNL A   1      40.772  31.866  35.640  1.00  0.00     0.049 A 
ATOM     44  C   UNL A   1      41.196  28.729  31.013  1.00  0.00     0.074 A 
ATOM     45  C   UNL A   1      41.637  31.564  36.677  1.00  0.00     0.029 A 
ATOM     46  N   UNL A   1      41.058  30.983  34.608  1.00  0.00    -0.354 N 
ATOM     47  N   UNL A   1      41.209  29.366  32.158  1.00  0.00    -0.248 NA
ATOM     48  C   UNL A   1      42.218  27.679  30.898  1.00  0.00     0.031 C 
ATOM     49  C   UNL A   1      42.467  30.517  36.262  1.00  0.00     0.029 A 
ATOM     50  C   UNL A   1      42.094  30.143  34.980  1.00  0.00     0.049 A 
ATOM     51  H   UNL A   1      40.594  30.958  33.740  1.00  0.00     0.167 HD
ATOM     52  C   UNL A   1      42.223  28.786  32.906  1.00  0.00     0.074 A 
ATOM     53  C   UNL A   1      42.793  27.734  32.090  1.00  0.00     0.031 C 
ATOM     54  C   UNL A   1      42.643  29.097  34.156  1.00  0.00     0.037 A 
BRANCH  41  55
ATOM     55  C   UNL A   1      39.621  33.825  36.744  1.00  0.00     0.064 A 
ATOM     56  C   UNL A   1      38.859  33.504  37.877  1.00  0.00     0.173 A 
ATOM     57  C   UNL A   1      40.277  35.064  36.722  1.00  0.00     0.173 A 
ATOM     58  F   UNL A   1      38.200  32.336  37.939  1.00  0.00    -0.203 F 
ATOM     59  C   UNL A   1      38.727  34.405  38.930  1.00  0.00     0.198 A 
ATOM     60  C   UNL A   1      40.168  35.951  37.791  1.00  0.00     0.198 A 
ATOM     61  F   UNL A   1      41.023  35.419  35.665  1.00  0.00    -0.203 F 
ATOM     62  F   UNL A   1      37.945  34.101  39.975  1.00  0.00    -0.200 F 
ATOM     63  C   UNL A   1      39.385  35.625  38.889  1.00  0.00     0.200 A 
ATOM     64  F   UNL A   1      40.812  37.125  37.755  1.00  0.00    -0.200 F 
ATOM     65  F   UNL A   1      39.257  36.491  39.903  1.00  0.00    -0.200 F 
ENDBRANCH  41  55
BRANCH  42  66
ATOM     66  C   UNL A   1      40.451  28.115  28.597  1.00  0.00     0.064 A 
ATOM     67  C   UNL A   1      41.256  28.568  27.543  1.00  0.00     0.173 A 
ATOM     68  C   UNL A   1      39.826  26.869  28.453  1.00  0.00     0.173 A 
ATOM     69  F   UNL A   1      41.860  29.762  27.627  1.00  0.00    -0.203 F 
ATOM     70  C   UNL A   1      41.418  27.812  26.385  1.00  0.00     0.198 A 
ATOM     71  C   UNL A   1      40.006  26.102  27.304  1.00  0.00     0.198 A 
ATOM     72  F   UNL A   1      39.050  26.390  29.437  1.00  0.00    -0.203 F 
ATOM     73  F   UNL A   1      42.167  28.283  25.378  1.00  0.00    -0.200 F 
ATOM     74  C   UNL A   1      40.799  26.577  26.268  1.00  0.00     0.200 A 
ATOM     75  F   UNL A   1      39.415  24.905  27.200  1.00  0.00    -0.200 F 
ATOM     76  F   UNL A   1      40.960  25.845  25.157  1.00  0.00    -0.200 F 
ENDBRANCH  42  66
BRANCH  54  77
ATOM     77  C   UNL A   1      43.757  28.274  34.730  1.00  0.00     0.064 A 
ATOM     78  C   UNL A   1      45.093  28.690  34.644  1.00  0.00     0.173 A 
ATOM     79  C   UNL A   1      43.477  27.082  35.416  1.00  0.00     0.173 A 
ATOM     80  F   UNL A   1      45.408  29.814  33.984  1.00  0.00    -0.203 F 
ATOM     81  C   UNL A   1      46.112  27.933  35.213  1.00  0.00     0.198 A 
ATOM     82  C   UNL A   1      44.498  26.341  36.004  1.00  0.00     0.198 A 
ATOM     83  F   UNL A   1      42.214  26.647  35.528  1.00  0.00    -0.203 F 
ATOM     84  F   UNL A   1      47.387  28.330  35.090  1.00  0.00    -0.200 F 
ATOM     85  C   UNL A   1      45.815  26.764  35.899  1.00  0.00     0.200 A 
ATOM     86  F   UNL A   1      44.208  25.217  36.673  1.00  0.00    -0.200 F 
ATOM     87  F   UNL A   1      46.798  26.041  36.452  1.00  0.00    -0.200 F 
ENDBRANCH  54  77
ENDBRANCH  28  29
ENDBRANCH  20  23
ENDBRANCH  18  19
ENDBRANCH  17  18
ENDBRANCH   1  17
TORSDOF 13
ENDMDL
MODEL 3
REMARK VINA RESULT:     -11.5      2.333      3.526
REMARK SMILES Cc1cc(O[C@@H](C)C(=O)NCCCCNC(=O)c2ccc(-c3c4nc(c(-c5c(F)c(F)c(F)c(F)c5F)c5ccc([nH]5)c(-c5c(F)c(F)c(F)c(F)c5F)c5nc(c(-c6c(F)c(F)c(F)c(F)c6F)c6ccc3[nH]6)C=C5)C=C4)cc2)n(C)n1
REMARK SMILES IDX 12 1 11 2 10 3 8 4 9 5 6 7 7 8 5 9 4 10 1 11 2 12 3 13 83 14
REMARK SMILES IDX 81 15 82 16 13 17 14 18 15 19 16 20 17 22 18 23 19 24 80 25
REMARK SMILES IDX 20 26 79 27 21 28 22 29 23 30 73 31 24 32 78 33 72 34 74 35
REMARK SMILES IDX 25 36 77 37 71 38 70 39 26 41 58 42 38 43 57 44 39 45 42 46
REMARK SMILES IDX 56 47 75 48 40 49 41 50 55 52 76 53 43 54 27 55 28 56 36 57
REMARK SMILES IDX 29 58 30 59 34 60 37 61 31 62 32 63 35 64 33 65 59 66 60 67
REMARK SMILES IDX 68 68 61 69 62 70 66 71 69 72 63 73 64 74 67 75 65 76 44 77
REMARK SMILES IDX 45 78 53 79 46 80 47 81 51 82 54 83 48 84 49 85 52 86 50 87
REMARK H PARENT 10 6 15 21 74 40 42 51
REMARK Flexibility Score: inf
ROOT
ATOM      1  C   UNL A   1      32.240  29.895  27.118  1.00  0.00     0.023 C 
ENDROOT
BRANCH   1   2
ATOM      2  C   UNL A   1      33.496  29.219  26.571  1.00  0.00     0.116 C 
BRANCH   2   3
ATOM      3  N   UNL A   1      33.675  29.499  25.166  1.00  0.00    -0.353 N 
ATOM      4  C   UNL A   1      33.283  28.811  24.059  1.00  0.00     0.260 C 
ATOM      5  O   UNL A   1      33.678  29.263  22.976  1.00  0.00    -0.271 OA
ATOM      6  H   UNL A   1      34.164  30.331  24.975  1.00  0.00     0.163 HD
BRANCH   4   7
ATOM      7  C   UNL A   1      32.362  27.560  24.091  1.00  0.00     0.260 C 
ATOM      8  C   UNL A   1      33.006  26.329  24.720  1.00  0.00     0.064 C 
BRANCH   7   9
ATOM      9  O   UNL A   1      31.470  27.346  23.005  1.00  0.00    -0.465 OA
BRANCH   9  10
ATOM     10  C   UNL A   1      30.394  28.103  22.798  1.00  0.00     0.212 A 
ATOM     11  C   UNL A   1      28.006  30.808  22.095  1.00  0.00     0.069 C 
ATOM     12  C   UNL A   1      28.763  29.573  22.414  1.00  0.00     0.063 A 
ATOM     13  C   UNL A   1      30.118  29.276  22.127  1.00  0.00     0.093 A 
ATOM     14  N   UNL A   1      28.187  28.591  23.111  1.00  0.00    -0.175 NA
ATOM     15  N   UNL A   1      29.168  27.678  23.256  1.00  0.00    -0.237 N 
ATOM     16  C   UNL A   1      28.856  26.417  23.886  1.00  0.00     0.178 C 
ENDBRANCH   9  10
ENDBRANCH   7   9
ENDBRANCH   4   7
ENDBRANCH   2   3
ENDBRANCH   1   2
BRANCH   1  17
ATOM     17  C   UNL A   1      32.110  31.373  26.768  1.00  0.00     0.023 C 
BRANCH  17  18
ATOM     18  C   UNL A   1      33.025  32.308  27.555  1.00  0.00     0.116 C 
BRANCH  18  19
ATOM     19  N   UNL A   1      32.530  33.672  27.689  1.00  0.00    -0.352 N 
ATOM     20  C   UNL A   1      33.027  34.684  28.479  1.00  0.00     0.251 C 
ATOM     21  H   UNL A   1      31.740  33.898  27.147  1.00  0.00     0.163 HD
ATOM     22  O   UNL A   1      32.479  35.781  28.520  1.00  0.00    -0.269 OA
BRANCH  20  23
ATOM     23  C   UNL A   1      34.205  34.405  29.324  1.00  0.00     0.039 A 
ATOM     24  C   UNL A   1      34.011  33.871  30.600  1.00  0.00     0.014 A 
ATOM     25  C   UNL A   1      35.492  34.561  28.806  1.00  0.00     0.014 A 
ATOM     26  C   UNL A   1      35.109  33.392  31.317  1.00  0.00     0.010 A 
ATOM     27  C   UNL A   1      36.571  34.011  29.484  1.00  0.00     0.010 A 
ATOM     28  C   UNL A   1      36.388  33.406  30.739  1.00  0.00    -0.014 A 
BRANCH  28  29
ATOM     29  C   UNL A   1      37.554  32.770  31.404  1.00  0.00     0.031 A 
ATOM     30  C   UNL A   1      38.253  31.616  30.744  1.00  0.00     0.074 A 
ATOM     31  C   UNL A   1      37.900  33.149  32.650  1.00  0.00     0.049 A 
ATOM     32  N   UNL A   1      39.182  30.828  31.219  1.00  0.00    -0.248 NA
ATOM     33  C   UNL A   1      37.813  31.276  29.382  1.00  0.00     0.031 C 
ATOM     34  C   UNL A   1      37.250  34.205  33.428  1.00  0.00     0.029 A 
ATOM     35  N   UNL A   1      38.873  32.669  33.492  1.00  0.00    -0.354 N 
ATOM     36  C   UNL A   1      39.406  29.877  30.235  1.00  0.00     0.074 A 
ATOM     37  C   UNL A   1      38.489  30.160  29.153  1.00  0.00     0.031 C 
ATOM     38  C   UNL A   1      37.852  34.305  34.624  1.00  0.00     0.029 A 
ATOM     39  C   UNL A   1      38.905  33.298  34.713  1.00  0.00     0.049 A 
ATOM     40  H   UNL A   1      39.489  31.942  33.245  1.00  0.00     0.167 HD
ATOM     41  C   UNL A   1      40.311  28.868  30.225  1.00  0.00     0.037 A 
ATOM     42  C   UNL A   1      39.691  33.083  35.784  1.00  0.00     0.037 A 
ATOM     43  C   UNL A   1      41.262  28.628  31.277  1.00  0.00     0.049 A 
ATOM     44  C   UNL A   1      40.735  32.002  35.723  1.00  0.00     0.074 A 
ATOM     45  C   UNL A   1      42.283  27.695  31.322  1.00  0.00     0.029 A 
ATOM     46  N   UNL A   1      41.312  29.336  32.470  1.00  0.00    -0.354 N 
ATOM     47  N   UNL A   1      40.988  31.153  34.757  1.00  0.00    -0.248 NA
ATOM     48  C   UNL A   1      41.607  31.854  36.896  1.00  0.00     0.031 C 
ATOM     49  C   UNL A   1      42.934  27.819  32.555  1.00  0.00     0.029 A 
ATOM     50  C   UNL A   1      42.340  28.854  33.262  1.00  0.00     0.049 A 
ATOM     51  H   UNL A   1      40.706  30.072  32.716  1.00  0.00     0.167 HD
ATOM     52  C   UNL A   1      42.057  30.385  35.194  1.00  0.00     0.074 A 
ATOM     53  C   UNL A   1      42.415  30.878  36.508  1.00  0.00     0.031 C 
ATOM     54  C   UNL A   1      42.685  29.363  34.564  1.00  0.00     0.037 A 
BRANCH  41  55
ATOM     55  C   UNL A   1      40.316  27.958  29.033  1.00  0.00     0.064 A 
ATOM     56  C   UNL A   1      41.058  28.257  27.880  1.00  0.00     0.173 A 
ATOM     57  C   UNL A   1      39.578  26.765  29.048  1.00  0.00     0.173 A 
ATOM     58  F   UNL A   1      41.768  29.393  27.811  1.00  0.00    -0.203 F 
ATOM     59  C   UNL A   1      41.031  27.415  26.772  1.00  0.00     0.198 A 
ATOM     60  C   UNL A   1      39.577  25.909  27.949  1.00  0.00     0.198 A 
ATOM     61  F   UNL A   1      38.855  26.429  30.127  1.00  0.00    -0.203 F 
ATOM     62  F   UNL A   1      41.700  27.751  25.661  1.00  0.00    -0.200 F 
ATOM     63  C   UNL A   1      40.296  26.239  26.809  1.00  0.00     0.200 A 
ATOM     64  F   UNL A   1      38.874  24.769  27.990  1.00  0.00    -0.200 F 
ATOM     65  F   UNL A   1      40.270  25.430  25.742  1.00  0.00    -0.200 F 
ENDBRANCH  41  55
BRANCH  42  66
ATOM     66  C   UNL A   1      39.542  33.934  36.992  1.00  0.00     0.064 A 
ATOM     67  C   UNL A   1      40.133  35.204  37.047  1.00  0.00     0.173 A 
ATOM     68  C   UNL A   1      38.798  33.510  38.101  1.00  0.00     0.173 A 
ATOM     69  F   UNL A   1      40.869  35.645  36.017  1.00  0.00    -0.203 F 
ATOM     70  C   UNL A   1      39.995  36.013  38.173  1.00  0.00     0.198 A 
ATOM     71  C   UNL A   1      38.642  34.328  39.218  1.00  0.00     0.198 A 
ATOM     72  F   UNL A   1      38.209  32.305  38.093  1.00  0.00    -0.203 F 
ATOM     73  F   UNL A   1      40.598  37.209  38.214  1.00  0.00    -0.200 F 
ATOM     74  C   UNL A   1      39.246  35.578  39.255  1.00  0.00     0.200 A 
ATOM     75  F   UNL A   1      37.908  33.908  40.257  1.00  0.00    -0.200 F 
ATOM     76  F   UNL A   1      39.107  36.358  40.336  1.00  0.00    -0.200 F 
ENDBRANCH  42  66
BRANCH  54  77
ATOM     77  C   UNL A   1      43.840  28.726  35.274  1.00  0.00     0.064 A 
ATOM     78  C   UNL A   1      43.654  27.658  36.164  1.00  0.00     0.173 A 
ATOM     79  C   UNL A   1      45.153  29.156  35.023  1.00  0.00     0.173 A 
ATOM     80  F   UNL A   1      42.416  27.224  36.446  1.00  0.00    -0.203 F 
ATOM     81  C   UNL A   1      44.741  27.053  36.788  1.00  0.00     0.198 A 
ATOM     82  C   UNL A   1      46.237  28.532  35.632  1.00  0.00     0.198 A 
ATOM     83  F   UNL A   1      45.380  30.171  34.176  1.00  0.00    -0.203 F 
ATOM     84  F   UNL A   1      44.538  26.056  37.662  1.00  0.00    -0.200 F 
ATOM     85  C   UNL A   1      46.031  27.484  36.517  1.00  0.00     0.200 A 
ATOM     86  F   UNL A   1      47.484  28.944  35.362  1.00  0.00    -0.200 F 
ATOM     87  F   UNL A   1      47.076  26.895  37.114  1.00  0.00    -0.200 F 
ENDBRANCH  54  77
ENDBRANCH  28  29
ENDBRANCH  20  23
ENDBRANCH  18  19
ENDBRANCH  17  18
ENDBRANCH   1  17
TORSDOF 13
ENDMDL
