MODEL 1
REMARK VINA RESULT:     -13.3      0.000      0.000
REMARK SMILES CN(C)c1ccc(NC(=O)[C@H]2CC=CC[C@@H]2C(=O)NCCCCNC(=O)c2ccc(-c3c4nc(c(-c5c(F)c(F)c(F)c(F)c5F)c5ccc([nH]5)c(-c5c(F)c(F)c(F)c(F)c5F)c5nc(c(-c6c(F)c(F)c(F)c(F)c6F)c6ccc3[nH]6)C=C5)C=C4)cc2)cc1
REMARK SMILES IDX 21 1 20 2 19 3 17 4 18 5 16 7 11 8 12 9 13 10 15 11 14 12
REMARK SMILES IDX 9 13 8 14 10 16 7 17 4 18 5 19 91 20 6 21 90 22 2 23 1 24
REMARK SMILES IDX 3 25 22 26 23 27 24 28 25 29 26 31 27 32 28 33 89 34 29 35
REMARK SMILES IDX 88 36 30 37 31 38 32 39 82 40 33 41 87 42 81 43 83 44 34 45
REMARK SMILES IDX 86 46 80 47 79 48 35 50 67 51 47 52 66 53 48 54 51 55 65 56
REMARK SMILES IDX 84 57 49 58 50 59 64 61 85 62 52 63 36 64 37 65 45 66 38 67
REMARK SMILES IDX 39 68 43 69 46 70 40 71 41 72 44 73 42 74 68 75 69 76 77 77
REMARK SMILES IDX 70 78 71 79 75 80 78 81 72 82 73 83 76 84 74 85 53 86 54 87
REMARK SMILES IDX 62 88 55 89 56 90 60 91 63 92 57 93 58 94 61 95 59 96
REMARK H PARENT 19 6 8 15 24 30 83 49 51 60
REMARK Flexibility Score: inf
ROOT
ATOM      1  C   UNL A   1      31.853  30.564  26.675  1.00  0.00     0.023 C 
ENDROOT
BRANCH   1   2
ATOM      2  C   UNL A   1      31.785  30.143  25.211  1.00  0.00     0.116 C 
BRANCH   2   3
ATOM      3  N   UNL A   1      33.054  29.671  24.713  1.00  0.00    -0.356 N 
ATOM      4  C   UNL A   1      33.430  28.490  24.152  1.00  0.00     0.224 C 
ATOM      5  O   UNL A   1      34.586  28.466  23.718  1.00  0.00    -0.275 OA
ATOM      6  H   UNL A   1      33.784  30.327  24.795  1.00  0.00     0.163 HD
BRANCH   4   7
ATOM      7  C   UNL A   1      32.461  27.298  23.978  1.00  0.00     0.095 C 
ATOM      8  C   UNL A   1      31.748  26.835  25.273  1.00  0.00     0.095 C 
ATOM      9  C   UNL A   1      32.832  26.371  26.285  1.00  0.00     0.041 C 
ATOM     10  C   UNL A   1      33.887  25.488  25.675  1.00  0.00    -0.030 C 
ATOM     11  C   UNL A   1      33.218  26.102  23.351  1.00  0.00     0.041 C 
ATOM     12  C   UNL A   1      34.040  25.341  24.352  1.00  0.00    -0.030 C 
BRANCH   8  13
ATOM     13  C   UNL A   1      30.676  25.728  25.097  1.00  0.00     0.228 C 
ATOM     14  N   UNL A   1      29.532  25.856  24.359  1.00  0.00    -0.326 N 
ATOM     15  H   UNL A   1      29.007  25.024  24.311  1.00  0.00     0.169 HD
ATOM     16  O   UNL A   1      30.810  24.631  25.654  1.00  0.00    -0.274 OA
BRANCH  14  17
ATOM     17  C   UNL A   1      28.947  26.916  23.659  1.00  0.00     0.041 A 
ATOM     18  C   UNL A   1      28.032  29.381  22.665  1.00  0.00     0.036 A 
ATOM     19  C   UNL A   1      27.158  28.499  23.305  1.00  0.00     0.028 A 
ATOM     20  C   UNL A   1      29.313  28.919  22.353  1.00  0.00     0.028 A 
ATOM     21  C   UNL A   1      27.608  27.253  23.754  1.00  0.00     0.028 A 
ATOM     22  C   UNL A   1      29.771  27.691  22.844  1.00  0.00     0.028 A 
BRANCH  18  23
ATOM     23  N   UNL A   1      27.686  30.694  22.380  1.00  0.00    -0.378 N 
ATOM     24  C   UNL A   1      27.584  31.608  23.503  1.00  0.00     0.143 C 
ATOM     25  C   UNL A   1      28.077  31.216  21.079  1.00  0.00     0.143 C 
ENDBRANCH  18  23
ENDBRANCH  14  17
ENDBRANCH   8  13
ENDBRANCH   4   7
ENDBRANCH   2   3
ENDBRANCH   1   2
BRANCH   1  26
ATOM     26  C   UNL A   1      31.557  32.043  26.913  1.00  0.00     0.023 C 
BRANCH  26  27
ATOM     27  C   UNL A   1      32.750  32.874  27.377  1.00  0.00     0.116 C 
BRANCH  27  28
ATOM     28  N   UNL A   1      32.408  34.251  27.705  1.00  0.00    -0.352 N 
ATOM     29  C   UNL A   1      32.977  35.087  28.640  1.00  0.00     0.251 C 
ATOM     30  H   UNL A   1      31.666  34.638  27.186  1.00  0.00     0.163 HD
ATOM     31  O   UNL A   1      32.499  36.192  28.861  1.00  0.00    -0.269 OA
BRANCH  29  32
ATOM     32  C   UNL A   1      34.146  34.615  29.410  1.00  0.00     0.039 A 
ATOM     33  C   UNL A   1      33.940  34.067  30.678  1.00  0.00     0.014 A 
ATOM     34  C   UNL A   1      35.426  34.649  28.851  1.00  0.00     0.014 A 
ATOM     35  C   UNL A   1      35.005  33.457  31.343  1.00  0.00     0.010 A 
ATOM     36  C   UNL A   1      36.466  33.974  29.480  1.00  0.00     0.010 A 
ATOM     37  C   UNL A   1      36.262  33.356  30.723  1.00  0.00    -0.014 A 
BRANCH  37  38
ATOM     38  C   UNL A   1      37.362  32.569  31.337  1.00  0.00     0.031 A 
ATOM     39  C   UNL A   1      37.894  32.938  32.692  1.00  0.00     0.074 A 
ATOM     40  C   UNL A   1      37.940  31.578  30.629  1.00  0.00     0.049 A 
ATOM     41  N   UNL A   1      38.905  32.427  33.350  1.00  0.00    -0.248 NA
ATOM     42  C   UNL A   1      37.221  34.044  33.389  1.00  0.00     0.031 C 
ATOM     43  C   UNL A   1      37.558  31.169  29.276  1.00  0.00     0.029 A 
ATOM     44  N   UNL A   1      38.987  30.746  30.941  1.00  0.00    -0.354 N 
ATOM     45  C   UNL A   1      38.999  33.160  34.525  1.00  0.00     0.074 A 
ATOM     46  C   UNL A   1      37.975  34.181  34.471  1.00  0.00     0.031 C 
ATOM     47  C   UNL A   1      38.345  30.154  28.883  1.00  0.00     0.029 A 
ATOM     48  C   UNL A   1      39.312  29.866  29.938  1.00  0.00     0.049 A 
ATOM     49  H   UNL A   1      39.461  30.777  31.804  1.00  0.00     0.167 HD
ATOM     50  C   UNL A   1      39.849  32.983  35.563  1.00  0.00     0.037 A 
ATOM     51  C   UNL A   1      40.286  28.939  29.870  1.00  0.00     0.037 A 
ATOM     52  C   UNL A   1      40.844  31.944  35.629  1.00  0.00     0.049 A 
ATOM     53  C   UNL A   1      41.208  28.756  31.045  1.00  0.00     0.074 A 
ATOM     54  C   UNL A   1      41.694  31.631  36.675  1.00  0.00     0.029 A 
ATOM     55  N   UNL A   1      41.122  31.051  34.606  1.00  0.00    -0.354 N 
ATOM     56  N   UNL A   1      41.231  29.400  32.185  1.00  0.00    -0.248 NA
ATOM     57  C   UNL A   1      42.237  27.714  30.924  1.00  0.00     0.031 C 
ATOM     58  C   UNL A   1      42.518  30.577  36.268  1.00  0.00     0.029 A 
ATOM     59  C   UNL A   1      42.149  30.203  34.986  1.00  0.00     0.049 A 
ATOM     60  H   UNL A   1      40.659  31.024  33.738  1.00  0.00     0.167 HD
ATOM     61  C   UNL A   1      42.257  28.829  32.925  1.00  0.00     0.074 A 
ATOM     62  C   UNL A   1      42.821  27.772  32.113  1.00  0.00     0.031 C 
ATOM     63  C   UNL A   1      42.696  29.154  34.166  1.00  0.00     0.037 A 
BRANCH  50  64
ATOM     64  C   UNL A   1      39.738  33.925  36.726  1.00  0.00     0.064 A 
ATOM     65  C   UNL A   1      38.936  33.626  37.838  1.00  0.00     0.173 A 
ATOM     66  C   UNL A   1      40.485  35.111  36.753  1.00  0.00     0.173 A 
ATOM     67  F   UNL A   1      38.193  32.509  37.854  1.00  0.00    -0.203 F 
ATOM     68  C   UNL A   1      38.873  34.490  38.927  1.00  0.00     0.198 A 
ATOM     69  C   UNL A   1      40.440  35.961  37.856  1.00  0.00     0.198 A 
ATOM     70  F   UNL A   1      41.270  35.441  35.717  1.00  0.00    -0.203 F 
ATOM     71  F   UNL A   1      38.070  34.204  39.961  1.00  0.00    -0.200 F 
ATOM     72  C   UNL A   1      39.630  35.652  38.938  1.00  0.00     0.200 A 
ATOM     73  F   UNL A   1      41.181  37.077  37.871  1.00  0.00    -0.200 F 
ATOM     74  F   UNL A   1      39.577  36.477  39.993  1.00  0.00    -0.200 F 
ENDBRANCH  50  64
BRANCH  51  75
ATOM     75  C   UNL A   1      40.435  28.101  28.652  1.00  0.00     0.064 A 
ATOM     76  C   UNL A   1      39.807  26.851  28.556  1.00  0.00     0.173 A 
ATOM     77  C   UNL A   1      41.221  28.520  27.568  1.00  0.00     0.173 A 
ATOM     78  F   UNL A   1      39.062  26.397  29.575  1.00  0.00    -0.203 F 
ATOM     79  C   UNL A   1      39.979  26.042  27.435  1.00  0.00     0.198 A 
ATOM     80  C   UNL A   1      41.370  27.723  26.436  1.00  0.00     0.198 A 
ATOM     81  F   UNL A   1      41.840  29.709  27.609  1.00  0.00    -0.203 F 
ATOM     82  F   UNL A   1      39.409  24.831  27.391  1.00  0.00    -0.200 F 
ATOM     83  C   UNL A   1      40.756  26.481  26.374  1.00  0.00     0.200 A 
ATOM     84  F   UNL A   1      42.110  28.156  25.407  1.00  0.00    -0.200 F 
ATOM     85  F   UNL A   1      40.922  25.703  25.294  1.00  0.00    -0.200 F 
ENDBRANCH  51  75
BRANCH  63  86
ATOM     86  C   UNL A   1      43.826  28.341  34.728  1.00  0.00     0.064 A 
ATOM     87  C   UNL A   1      45.161  28.737  34.571  1.00  0.00     0.173 A 
ATOM     88  C   UNL A   1      43.566  27.176  35.464  1.00  0.00     0.173 A 
ATOM     89  F   UNL A   1      45.462  29.835  33.862  1.00  0.00    -0.203 F 
ATOM     90  C   UNL A   1      46.199  27.980  35.111  1.00  0.00     0.198 A 
ATOM     91  C   UNL A   1      44.603  26.438  36.026  1.00  0.00     0.198 A 
ATOM     92  F   UNL A   1      42.303  26.759  35.648  1.00  0.00    -0.203 F 
ATOM     93  F   UNL A   1      47.470  28.352  34.909  1.00  0.00    -0.200 F 
ATOM     94  C   UNL A   1      45.918  26.837  35.843  1.00  0.00     0.200 A 
ATOM     95  F   UNL A   1      44.330  25.340  36.745  1.00  0.00    -0.200 F 
ATOM     96  F   UNL A   1      46.917  26.114  36.368  1.00  0.00    -0.200 F 
ENDBRANCH  63  86
ENDBRANCH  37  38
ENDBRANCH  29  32
ENDBRANCH  27  28
ENDBRANCH  26  27
ENDBRANCH   1  26
TORSDOF 14
ENDMDL
MODEL 2
REMARK VINA RESULT:     -13.2      0.431      7.321
REMARK SMILES CN(C)c1ccc(NC(=O)[C@H]2CC=CC[C@@H]2C(=O)NCCCCNC(=O)c2ccc(-c3c4nc(c(-c5c(F)c(F)c(F)c(F)c5F)c5ccc([nH]5)c(-c5c(F)c(F)c(F)c(F)c5F)c5nc(c(-c6c(F)c(F)c(F)c(F)c6F)c6ccc3[nH]6)C=C5)C=C4)cc2)cc1
REMARK SMILES IDX 21 1 20 2 19 3 17 4 18 5 16 7 11 8 12 9 13 10 15 11 14 12
REMARK SMILES IDX 9 13 8 14 10 16 7 17 4 18 5 19 91 20 6 21 90 22 2 23 1 24
REMARK SMILES IDX 3 25 22 26 23 27 24 28 25 29 26 31 27 32 28 33 89 34 29 35
REMARK SMILES IDX 88 36 30 37 31 38 32 39 82 40 33 41 87 42 81 43 83 44 34 45
REMARK SMILES IDX 86 46 80 47 79 48 35 50 67 51 47 52 66 53 48 54 51 55 65 56
REMARK SMILES IDX 84 57 49 58 50 59 64 61 85 62 52 63 36 64 37 65 45 66 38 67
REMARK SMILES IDX 39 68 43 69 46 70 40 71 41 72 44 73 42 74 68 75 69 76 77 77
REMARK SMILES IDX 70 78 71 79 75 80 78 81 72 82 73 83 76 84 74 85 53 86 54 87
REMARK SMILES IDX 62 88 55 89 56 90 60 91 63 92 57 93 58 94 61 95 59 96
REMARK H PARENT 19 6 8 15 24 30 83 49 51 60
REMARK Flexibility Score: inf
ROOT
ATOM      1  C   UNL A   1      32.132  30.418  26.741  1.00  0.00     0.023 C 
ENDROOT
BRANCH   1   2
ATOM      2  C   UNL A   1      31.941  30.037  25.277  1.00  0.00     0.116 C 
BRANCH   2   3
ATOM      3  N   UNL A   1      33.165  29.590  24.660  1.00  0.00    -0.356 N 
ATOM      4  C   UNL A   1      33.498  28.429  24.031  1.00  0.00     0.224 C 
ATOM      5  O   UNL A   1      34.613  28.427  23.501  1.00  0.00    -0.275 OA
ATOM      6  H   UNL A   1      33.897  30.248  24.700  1.00  0.00     0.163 HD
BRANCH   4   7
ATOM      7  C   UNL A   1      32.524  27.237  23.902  1.00  0.00     0.095 C 
ATOM      8  C   UNL A   1      31.835  26.803  25.220  1.00  0.00     0.095 C 
ATOM      9  C   UNL A   1      32.938  26.358  26.220  1.00  0.00     0.041 C 
ATOM     10  C   UNL A   1      33.979  25.460  25.609  1.00  0.00    -0.030 C 
ATOM     11  C   UNL A   1      33.265  26.025  23.286  1.00  0.00     0.041 C 
ATOM     12  C   UNL A   1      34.105  25.284  24.286  1.00  0.00    -0.030 C 
BRANCH   8  13
ATOM     13  C   UNL A   1      30.757  25.695  25.089  1.00  0.00     0.228 C 
ATOM     14  N   UNL A   1      29.594  25.814  24.380  1.00  0.00    -0.326 N 
ATOM     15  H   UNL A   1      29.068  24.982  24.358  1.00  0.00     0.169 HD
ATOM     16  O   UNL A   1      30.905  24.606  25.659  1.00  0.00    -0.274 OA
BRANCH  14  17
ATOM     17  C   UNL A   1      28.993  26.864  23.680  1.00  0.00     0.041 A 
ATOM     18  C   UNL A   1      28.024  29.312  22.695  1.00  0.00     0.036 A 
ATOM     19  C   UNL A   1      27.164  28.396  23.305  1.00  0.00     0.028 A 
ATOM     20  C   UNL A   1      29.325  28.893  22.406  1.00  0.00     0.028 A 
ATOM     21  C   UNL A   1      27.642  27.159  23.750  1.00  0.00     0.028 A 
ATOM     22  C   UNL A   1      29.809  27.674  22.892  1.00  0.00     0.028 A 
BRANCH  18  23
ATOM     23  N   UNL A   1      27.644  30.618  22.417  1.00  0.00    -0.378 N 
ATOM     24  C   UNL A   1      27.591  31.541  23.537  1.00  0.00     0.143 C 
ATOM     25  C   UNL A   1      27.956  31.132  21.093  1.00  0.00     0.143 C 
ENDBRANCH  18  23
ENDBRANCH  14  17
ENDBRANCH   8  13
ENDBRANCH   4   7
ENDBRANCH   2   3
ENDBRANCH   1   2
BRANCH   1  26
ATOM     26  C   UNL A   1      31.734  31.856  27.068  1.00  0.00     0.023 C 
BRANCH  26  27
ATOM     27  C   UNL A   1      32.888  32.773  27.462  1.00  0.00     0.116 C 
BRANCH  27  28
ATOM     28  N   UNL A   1      32.479  34.145  27.722  1.00  0.00    -0.352 N 
ATOM     29  C   UNL A   1      33.007  35.054  28.614  1.00  0.00     0.251 C 
ATOM     30  H   UNL A   1      31.720  34.469  27.186  1.00  0.00     0.163 HD
ATOM     31  O   UNL A   1      32.475  36.143  28.781  1.00  0.00    -0.269 OA
BRANCH  29  32
ATOM     32  C   UNL A   1      34.197  34.678  29.403  1.00  0.00     0.039 A 
ATOM     33  C   UNL A   1      34.020  34.209  30.706  1.00  0.00     0.014 A 
ATOM     34  C   UNL A   1      35.471  34.722  28.832  1.00  0.00     0.014 A 
ATOM     35  C   UNL A   1      35.112  33.685  31.401  1.00  0.00     0.010 A 
ATOM     36  C   UNL A   1      36.540  34.130  29.495  1.00  0.00     0.010 A 
ATOM     37  C   UNL A   1      36.368  33.590  30.779  1.00  0.00    -0.014 A 
BRANCH  37  38
ATOM     38  C   UNL A   1      37.500  32.887  31.434  1.00  0.00     0.031 A 
ATOM     39  C   UNL A   1      38.140  31.699  30.775  1.00  0.00     0.074 A 
ATOM     40  C   UNL A   1      37.890  33.269  32.667  1.00  0.00     0.049 A 
ATOM     41  N   UNL A   1      39.076  30.906  31.230  1.00  0.00    -0.248 NA
ATOM     42  C   UNL A   1      37.642  31.336  29.439  1.00  0.00     0.031 C 
ATOM     43  C   UNL A   1      37.303  34.366  33.440  1.00  0.00     0.029 A 
ATOM     44  N   UNL A   1      38.861  32.764  33.497  1.00  0.00    -0.354 N 
ATOM     45  C   UNL A   1      39.266  29.943  30.248  1.00  0.00     0.074 A 
ATOM     46  C   UNL A   1      38.316  30.222  29.193  1.00  0.00     0.031 C 
ATOM     47  C   UNL A   1      37.937  34.461  34.620  1.00  0.00     0.029 A 
ATOM     48  C   UNL A   1      38.948  33.412  34.705  1.00  0.00     0.049 A 
ATOM     49  H   UNL A   1      39.442  32.008  33.248  1.00  0.00     0.167 HD
ATOM     50  C   UNL A   1      40.165  28.932  30.222  1.00  0.00     0.037 A 
ATOM     51  C   UNL A   1      39.742  33.179  35.766  1.00  0.00     0.037 A 
ATOM     52  C   UNL A   1      41.133  28.680  31.257  1.00  0.00     0.049 A 
ATOM     53  C   UNL A   1      40.742  32.056  35.702  1.00  0.00     0.074 A 
ATOM     54  C   UNL A   1      42.142  27.732  31.280  1.00  0.00     0.029 A 
ATOM     55  N   UNL A   1      41.210  29.377  32.452  1.00  0.00    -0.354 N 
ATOM     56  N   UNL A   1      40.968  31.205  34.732  1.00  0.00    -0.248 NA
ATOM     57  C   UNL A   1      41.600  31.863  36.880  1.00  0.00     0.031 C 
ATOM     58  C   UNL A   1      42.802  27.827  32.510  1.00  0.00     0.029 A 
ATOM     59  C   UNL A   1      42.234  28.864  33.233  1.00  0.00     0.049 A 
ATOM     60  H   UNL A   1      40.625  30.126  32.709  1.00  0.00     0.167 HD
ATOM     61  C   UNL A   1      42.005  30.394  35.170  1.00  0.00     0.074 A 
ATOM     62  C   UNL A   1      42.378  30.866  36.487  1.00  0.00     0.031 C 
ATOM     63  C   UNL A   1      42.594  29.348  34.540  1.00  0.00     0.037 A 
BRANCH  50  64
ATOM     64  C   UNL A   1      40.160  28.024  29.028  1.00  0.00     0.064 A 
ATOM     65  C   UNL A   1      40.871  28.342  27.860  1.00  0.00     0.173 A 
ATOM     66  C   UNL A   1      39.483  26.797  29.071  1.00  0.00     0.173 A 
ATOM     67  F   UNL A   1      41.524  29.510  27.765  1.00  0.00    -0.203 F 
ATOM     68  C   UNL A   1      40.890  27.472  26.774  1.00  0.00     0.198 A 
ATOM     69  C   UNL A   1      39.526  25.916  27.992  1.00  0.00     0.198 A 
ATOM     70  F   UNL A   1      38.792  26.444  30.164  1.00  0.00    -0.203 F 
ATOM     71  F   UNL A   1      41.543  27.813  25.655  1.00  0.00    -0.200 F 
ATOM     72  C   UNL A   1      40.224  26.257  26.844  1.00  0.00     0.200 A 
ATOM     73  F   UNL A   1      38.893  24.738  28.066  1.00  0.00    -0.200 F 
ATOM     74  F   UNL A   1      40.253  25.415  25.802  1.00  0.00    -0.200 F 
ENDBRANCH  50  64
BRANCH  51  75
ATOM     75  C   UNL A   1      39.638  34.033  36.978  1.00  0.00     0.064 A 
ATOM     76  C   UNL A   1      38.853  33.640  38.070  1.00  0.00     0.173 A 
ATOM     77  C   UNL A   1      40.305  35.264  37.064  1.00  0.00     0.173 A 
ATOM     78  F   UNL A   1      38.179  32.481  38.027  1.00  0.00    -0.203 F 
ATOM     79  C   UNL A   1      38.716  34.456  39.191  1.00  0.00     0.198 A 
ATOM     80  C   UNL A   1      40.191  36.067  38.196  1.00  0.00     0.198 A 
ATOM     81  F   UNL A   1      41.073  35.684  36.048  1.00  0.00    -0.203 F 
ATOM     82  F   UNL A   1      37.918  34.080  40.199  1.00  0.00    -0.200 F 
ATOM     83  C   UNL A   1      39.389  35.667  39.255  1.00  0.00     0.200 A 
ATOM     84  F   UNL A   1      40.854  37.229  38.261  1.00  0.00    -0.200 F 
ATOM     85  F   UNL A   1      39.259  36.453  40.333  1.00  0.00    -0.200 F 
ENDBRANCH  51  75
BRANCH  63  86
ATOM     86  C   UNL A   1      43.718  28.659  35.258  1.00  0.00     0.064 A 
ATOM     87  C   UNL A   1      43.479  27.612  36.159  1.00  0.00     0.173 A 
ATOM     88  C   UNL A   1      45.049  29.026  35.011  1.00  0.00     0.173 A 
ATOM     89  F   UNL A   1      42.222  27.236  36.439  1.00  0.00    -0.203 F 
ATOM     90  C   UNL A   1      44.533  26.973  36.807  1.00  0.00     0.198 A 
ATOM     91  C   UNL A   1      46.101  28.365  35.638  1.00  0.00     0.198 A 
ATOM     92  F   UNL A   1      45.330  30.017  34.151  1.00  0.00    -0.203 F 
ATOM     93  F   UNL A   1      44.279  26.005  37.698  1.00  0.00    -0.200 F 
ATOM     94  C   UNL A   1      45.842  27.344  36.540  1.00  0.00     0.200 A 
ATOM     95  F   UNL A   1      47.366  28.716  35.370  1.00  0.00    -0.200 F 
ATOM     96  F   UNL A   1      46.855  26.723  37.159  1.00  0.00    -0.200 F 
ENDBRANCH  63  86
ENDBRANCH  37  38
ENDBRANCH  29  32
ENDBRANCH  27  28
ENDBRANCH  26  27
ENDBRANCH   1  26
TORSDOF 14
ENDMDL
MODEL 3
REMARK VINA RESULT:     -13.1      1.723      8.207
REMARK SMILES CN(C)c1ccc(NC(=O)[C@H]2CC=CC[C@@H]2C(=O)NCCCCNC(=O)c2ccc(-c3c4nc(c(-c5c(F)c(F)c(F)c(F)c5F)c5ccc([nH]5)c(-c5c(F)c(F)c(F)c(F)c5F)c5nc(c(-c6c(F)c(F)c(F)c(F)c6F)c6ccc3[nH]6)C=C5)C=C4)cc2)cc1
REMARK SMILES IDX 21 1 20 2 19 3 17 4 18 5 16 7 11 8 12 9 13 10 15 11 14 12
REMARK SMILES IDX 9 13 8 14 10 16 7 17 4 18 5 19 91 20 6 21 90 22 2 23 1 24
REMARK SMILES IDX 3 25 22 26 23 27 24 28 25 29 26 31 27 32 28 33 89 34 29 35
REMARK SMILES IDX 88 36 30 37 31 38 32 39 82 40 33 41 87 42 81 43 83 44 34 45
REMARK SMILES IDX 86 46 80 47 79 48 35 50 67 51 47 52 66 53 48 54 51 55 65 56
REMARK SMILES IDX 84 57 49 58 50 59 64 61 85 62 52 63 36 64 37 65 45 66 38 67
REMARK SMILES IDX 39 68 43 69 46 70 40 71 41 72 44 73 42 74 68 75 69 76 77 77
REMARK SMILES IDX 70 78 71 79 75 80 78 81 72 82 73 83 76 84 74 85 53 86 54 87
REMARK SMILES IDX 62 88 55 89 56 90 60 91 63 92 57 93 58 94 61 95 59 96
REMARK H PARENT 19 6 8 15 24 30 83 49 51 60
REMARK Flexibility Score: inf
ROOT
ATOM      1  C   UNL A   1      32.044  30.204  26.852  1.00  0.00     0.023 C 
ENDROOT
BRANCH   1   2
ATOM      2  C   UNL A   1      33.263  29.691  26.092  1.00  0.00     0.116 C 
BRANCH   2   3
ATOM      3  N   UNL A   1      33.076  29.727  24.662  1.00  0.00    -0.356 N 
ATOM      4  C   UNL A   1      32.466  28.868  23.800  1.00  0.00     0.224 C 
ATOM      5  O   UNL A   1      32.378  29.274  22.637  1.00  0.00    -0.275 OA
ATOM      6  H   UNL A   1      33.461  30.523  24.229  1.00  0.00     0.163 HD
BRANCH   4   7
ATOM      7  C   UNL A   1      31.843  27.528  24.253  1.00  0.00     0.095 C 
ATOM      8  C   UNL A   1      32.860  26.407  24.584  1.00  0.00     0.095 C 
ATOM      9  C   UNL A   1      33.675  26.096  23.298  1.00  0.00     0.041 C 
ATOM     10  C   UNL A   1      32.826  25.971  22.062  1.00  0.00    -0.030 C 
ATOM     11  C   UNL A   1      30.855  27.024  23.173  1.00  0.00     0.041 C 
ATOM     12  C   UNL A   1      31.544  26.360  22.015  1.00  0.00    -0.030 C 
BRANCH   8  13
ATOM     13  C   UNL A   1      32.262  25.099  25.165  1.00  0.00     0.228 C 
ATOM     14  N   UNL A   1      32.974  23.961  25.426  1.00  0.00    -0.326 N 
ATOM     15  H   UNL A   1      32.435  23.258  25.855  1.00  0.00     0.169 HD
ATOM     16  O   UNL A   1      31.053  25.020  25.418  1.00  0.00    -0.274 OA
BRANCH  14  17
ATOM     17  C   UNL A   1      34.304  23.584  25.214  1.00  0.00     0.041 A 
ATOM     18  C   UNL A   1      36.817  22.332  25.073  1.00  0.00     0.036 A 
ATOM     19  C   UNL A   1      36.604  23.412  25.932  1.00  0.00     0.028 A 
ATOM     20  C   UNL A   1      35.816  22.028  24.146  1.00  0.00     0.028 A 
ATOM     21  C   UNL A   1      35.366  24.063  25.963  1.00  0.00     0.028 A 
ATOM     22  C   UNL A   1      34.565  22.651  24.212  1.00  0.00     0.028 A 
BRANCH  18  23
ATOM     23  N   UNL A   1      37.952  21.537  25.145  1.00  0.00    -0.378 N 
ATOM     24  C   UNL A   1      39.004  21.970  26.047  1.00  0.00     0.143 C 
ATOM     25  C   UNL A   1      37.783  20.115  24.889  1.00  0.00     0.143 C 
ENDBRANCH  18  23
ENDBRANCH  14  17
ENDBRANCH   8  13
ENDBRANCH   4   7
ENDBRANCH   2   3
ENDBRANCH   1   2
BRANCH   1  26
ATOM     26  C   UNL A   1      31.819  31.709  26.725  1.00  0.00     0.023 C 
BRANCH  26  27
ATOM     27  C   UNL A   1      32.887  32.579  27.380  1.00  0.00     0.116 C 
BRANCH  27  28
ATOM     28  N   UNL A   1      32.452  33.946  27.631  1.00  0.00    -0.352 N 
ATOM     29  C   UNL A   1      32.956  34.868  28.522  1.00  0.00     0.251 C 
ATOM     30  H   UNL A   1      31.690  34.254  27.088  1.00  0.00     0.163 HD
ATOM     31  O   UNL A   1      32.404  35.948  28.680  1.00  0.00    -0.269 OA
BRANCH  29  32
ATOM     32  C   UNL A   1      34.148  34.517  29.321  1.00  0.00     0.039 A 
ATOM     33  C   UNL A   1      33.969  34.039  30.621  1.00  0.00     0.014 A 
ATOM     34  C   UNL A   1      35.426  34.593  28.763  1.00  0.00     0.014 A 
ATOM     35  C   UNL A   1      35.065  33.539  31.325  1.00  0.00     0.010 A 
ATOM     36  C   UNL A   1      36.502  34.024  29.435  1.00  0.00     0.010 A 
ATOM     37  C   UNL A   1      36.329  33.475  30.715  1.00  0.00    -0.014 A 
BRANCH  37  38
ATOM     38  C   UNL A   1      37.472  32.797  31.379  1.00  0.00     0.031 A 
ATOM     39  C   UNL A   1      38.126  31.608  30.736  1.00  0.00     0.074 A 
ATOM     40  C   UNL A   1      37.858  33.201  32.606  1.00  0.00     0.049 A 
ATOM     41  N   UNL A   1      39.073  30.834  31.201  1.00  0.00    -0.248 NA
ATOM     42  C   UNL A   1      37.631  31.219  29.406  1.00  0.00     0.031 C 
ATOM     43  C   UNL A   1      37.257  34.301  33.364  1.00  0.00     0.029 A 
ATOM     44  N   UNL A   1      38.836  32.721  33.442  1.00  0.00    -0.354 N 
ATOM     45  C   UNL A   1      39.274  29.859  30.233  1.00  0.00     0.074 A 
ATOM     46  C   UNL A   1      38.320  30.110  29.175  1.00  0.00     0.031 C 
ATOM     47  C   UNL A   1      37.890  34.422  34.542  1.00  0.00     0.029 A 
ATOM     48  C   UNL A   1      38.915  33.387  34.640  1.00  0.00     0.049 A 
ATOM     49  H   UNL A   1      39.426  31.969  33.203  1.00  0.00     0.167 HD
ATOM     50  C   UNL A   1      40.187  28.860  30.220  1.00  0.00     0.037 A 
ATOM     51  C   UNL A   1      39.714  33.180  35.704  1.00  0.00     0.037 A 
ATOM     52  C   UNL A   1      41.159  28.635  31.258  1.00  0.00     0.049 A 
ATOM     53  C   UNL A   1      40.727  32.069  35.655  1.00  0.00     0.074 A 
ATOM     54  C   UNL A   1      42.180  27.701  31.294  1.00  0.00     0.029 A 
ATOM     55  N   UNL A   1      41.228  29.350  32.444  1.00  0.00    -0.354 N 
ATOM     56  N   UNL A   1      40.964  31.208  34.697  1.00  0.00    -0.248 NA
ATOM     57  C   UNL A   1      41.589  31.905  36.834  1.00  0.00     0.031 C 
ATOM     58  C   UNL A   1      42.840  27.822  32.522  1.00  0.00     0.029 A 
ATOM     59  C   UNL A   1      42.259  28.861  33.230  1.00  0.00     0.049 A 
ATOM     60  H   UNL A   1      40.633  30.095  32.690  1.00  0.00     0.167 HD
ATOM     61  C   UNL A   1      42.012  30.416  35.146  1.00  0.00     0.074 A 
ATOM     62  C   UNL A   1      42.380  30.912  36.455  1.00  0.00     0.031 C 
ATOM     63  C   UNL A   1      42.614  29.369  34.530  1.00  0.00     0.037 A 
BRANCH  50  64
ATOM     64  C   UNL A   1      40.192  27.935  29.040  1.00  0.00     0.064 A 
ATOM     65  C   UNL A   1      40.934  28.224  27.884  1.00  0.00     0.173 A 
ATOM     66  C   UNL A   1      39.495  26.719  29.085  1.00  0.00     0.173 A 
ATOM     67  F   UNL A   1      41.608  29.380  27.786  1.00  0.00    -0.203 F 
ATOM     68  C   UNL A   1      40.961  27.338  26.811  1.00  0.00     0.198 A 
ATOM     69  C   UNL A   1      39.546  25.823  28.021  1.00  0.00     0.198 A 
ATOM     70  F   UNL A   1      38.774  26.393  30.169  1.00  0.00    -0.203 F 
ATOM     71  F   UNL A   1      41.644  27.653  25.701  1.00  0.00    -0.200 F 
ATOM     72  C   UNL A   1      40.275  26.135  26.884  1.00  0.00     0.200 A 
ATOM     73  F   UNL A   1      38.892  24.656  28.098  1.00  0.00    -0.200 F 
ATOM     74  F   UNL A   1      40.312  25.277  25.854  1.00  0.00    -0.200 F 
ENDBRANCH  50  64
BRANCH  51  75
ATOM     75  C   UNL A   1      39.600  34.050  36.904  1.00  0.00     0.064 A 
ATOM     76  C   UNL A   1      40.295  35.264  36.982  1.00  0.00     0.173 A 
ATOM     77  C   UNL A   1      38.811  33.678  38.003  1.00  0.00     0.173 A 
ATOM     78  F   UNL A   1      41.079  35.652  35.965  1.00  0.00    -0.203 F 
ATOM     79  C   UNL A   1      40.227  36.062  38.121  1.00  0.00     0.198 A 
ATOM     80  C   UNL A   1      38.721  34.490  39.131  1.00  0.00     0.198 A 
ATOM     81  F   UNL A   1      38.123  32.528  37.976  1.00  0.00    -0.203 F 
ATOM     82  F   UNL A   1      40.942  37.193  38.189  1.00  0.00    -0.200 F 
ATOM     83  C   UNL A   1      39.435  35.677  39.193  1.00  0.00     0.200 A 
ATOM     84  F   UNL A   1      37.945  34.122  40.159  1.00  0.00    -0.200 F 
ATOM     85  F   UNL A   1      39.369  36.444  40.290  1.00  0.00    -0.200 F 
ENDBRANCH  51  75
BRANCH  63  86
ATOM     86  C   UNL A   1      43.747  28.705  35.256  1.00  0.00     0.064 A 
ATOM     87  C   UNL A   1      45.078  29.088  35.042  1.00  0.00     0.173 A 
ATOM     88  C   UNL A   1      43.494  27.703  36.204  1.00  0.00     0.173 A 
ATOM     89  F   UNL A   1      45.373  30.030  34.134  1.00  0.00    -0.203 F 
ATOM     90  C   UNL A   1      46.119  28.473  35.734  1.00  0.00     0.198 A 
ATOM     91  C   UNL A   1      44.533  27.111  36.915  1.00  0.00     0.198 A 
ATOM     92  F   UNL A   1      42.236  27.307  36.450  1.00  0.00    -0.203 F 
ATOM     93  F   UNL A   1      47.387  28.822  35.480  1.00  0.00    -0.200 F 
ATOM     94  C   UNL A   1      45.845  27.491  36.674  1.00  0.00     0.200 A 
ATOM     95  F   UNL A   1      44.266  26.171  37.833  1.00  0.00    -0.200 F 
ATOM     96  F   UNL A   1      46.847  26.906  37.344  1.00  0.00    -0.200 F 
ENDBRANCH  63  86
ENDBRANCH  37  38
ENDBRANCH  29  32
ENDBRANCH  27  28
ENDBRANCH  26  27
ENDBRANCH   1  26
TORSDOF 14
ENDMDL
