MODEL 1
REMARK VINA RESULT:     -12.9      0.000      0.000
REMARK SMILES O=C(NCCCCNC(=O)[C@H]1CCCCN1C(=O)c1nc(C2CC2)n[nH]1)c1ccc(-c2c3nc(c(-c4c(F)c(F)c(F)c(F)c4F)c4ccc([nH]4)c(-c4c(F)c(F)c(F)c(F)c4F)c4nc(c(-c5c(F)c(F)c(F)c(F)c5F)c5ccc2[nH]5)C=C4)C=C3)cc1
REMARK SMILES IDX 6 1 5 2 4 3 3 4 1 5 2 6 27 8 28 9 89 10 29 11 88 12 30 13
REMARK SMILES IDX 31 14 32 15 82 16 33 17 87 18 81 19 83 20 34 21 86 22 80 23
REMARK SMILES IDX 79 24 35 26 67 27 47 28 66 29 48 30 51 31 65 32 84 33 49 34
REMARK SMILES IDX 50 35 64 37 85 38 52 39 36 40 37 41 45 42 38 43 39 44 43 45
REMARK SMILES IDX 46 46 40 47 41 48 44 49 42 50 68 51 69 52 77 53 70 54 71 55
REMARK SMILES IDX 75 56 78 57 72 58 73 59 76 60 74 61 53 62 54 63 62 64 55 65
REMARK SMILES IDX 56 66 60 67 63 68 57 69 58 70 61 71 59 72 7 73 8 74 9 75
REMARK SMILES IDX 10 77 11 78 12 79 16 80 13 81 15 82 14 83 17 84 18 85 19 86
REMARK SMILES IDX 20 87 26 88 21 89 25 90 22 92 23 93 24 94
REMARK H PARENT 3 7 83 25 51 36 8 76 26 91
REMARK Flexibility Score: inf
ROOT
ATOM      1  C   UNL A   1      36.977  20.528  24.981  1.00  0.00     0.023 C 
ENDROOT
BRANCH   1   2
ATOM      2  C   UNL A   1      38.125  19.529  24.988  1.00  0.00     0.023 C 
BRANCH   2   3
ATOM      3  C   UNL A   1      39.379  19.975  25.730  1.00  0.00     0.116 C 
BRANCH   3   4
ATOM      4  N   UNL A   1      40.396  18.937  25.841  1.00  0.00    -0.352 N 
ATOM      5  O   UNL A   1      42.466  18.053  26.044  1.00  0.00    -0.269 OA
ATOM      6  C   UNL A   1      41.748  19.043  26.082  1.00  0.00     0.251 C 
ATOM      7  H   UNL A   1      40.065  18.016  25.727  1.00  0.00     0.163 HD
BRANCH   6   8
ATOM      8  C   UNL A   1      42.333  20.374  26.345  1.00  0.00     0.039 A 
ATOM      9  C   UNL A   1      42.355  20.887  27.640  1.00  0.00     0.014 A 
ATOM     10  C   UNL A   1      42.817  21.133  25.276  1.00  0.00     0.014 A 
ATOM     11  C   UNL A   1      42.665  22.223  27.840  1.00  0.00     0.010 A 
ATOM     12  C   UNL A   1      43.233  22.449  25.496  1.00  0.00     0.010 A 
ATOM     13  C   UNL A   1      43.113  23.020  26.772  1.00  0.00    -0.014 A 
BRANCH  13  14
ATOM     14  C   UNL A   1      43.491  24.431  27.039  1.00  0.00     0.031 A 
ATOM     15  C   UNL A   1      42.512  25.404  27.637  1.00  0.00     0.074 A 
ATOM     16  C   UNL A   1      44.756  24.813  26.780  1.00  0.00     0.049 A 
ATOM     17  N   UNL A   1      42.690  26.665  27.945  1.00  0.00    -0.248 NA
ATOM     18  C   UNL A   1      41.158  24.905  27.923  1.00  0.00     0.031 C 
ATOM     19  C   UNL A   1      45.788  23.954  26.193  1.00  0.00     0.029 A 
ATOM     20  N   UNL A   1      45.399  26.003  26.997  1.00  0.00    -0.354 N 
ATOM     21  C   UNL A   1      41.469  27.117  28.429  1.00  0.00     0.074 A 
ATOM     22  C   UNL A   1      40.551  25.999  28.366  1.00  0.00     0.031 C 
ATOM     23  C   UNL A   1      46.947  24.624  26.151  1.00  0.00     0.029 A 
ATOM     24  C   UNL A   1      46.724  25.981  26.637  1.00  0.00     0.049 A 
ATOM     25  H   UNL A   1      44.956  26.797  27.375  1.00  0.00     0.167 HD
ATOM     26  C   UNL A   1      41.151  28.352  28.886  1.00  0.00     0.037 A 
ATOM     27  C   UNL A   1      47.655  26.951  26.673  1.00  0.00     0.037 A 
ATOM     28  C   UNL A   1      42.081  29.449  28.978  1.00  0.00     0.049 A 
ATOM     29  C   UNL A   1      47.270  28.307  27.186  1.00  0.00     0.074 A 
ATOM     30  C   UNL A   1      41.863  30.726  29.465  1.00  0.00     0.029 A 
ATOM     31  N   UNL A   1      43.407  29.396  28.577  1.00  0.00    -0.354 N 
ATOM     32  N   UNL A   1      46.116  28.714  27.654  1.00  0.00    -0.248 NA
ATOM     33  C   UNL A   1      48.314  29.340  27.166  1.00  0.00     0.031 C 
ATOM     34  C   UNL A   1      43.047  31.458  29.324  1.00  0.00     0.029 A 
ATOM     35  C   UNL A   1      44.014  30.624  28.787  1.00  0.00     0.049 A 
ATOM     36  H   UNL A   1      43.852  28.603  28.198  1.00  0.00     0.167 HD
ATOM     37  C   UNL A   1      46.293  30.047  27.989  1.00  0.00     0.074 A 
ATOM     38  C   UNL A   1      47.674  30.372  27.698  1.00  0.00     0.031 C 
ATOM     39  C   UNL A   1      45.390  30.927  28.486  1.00  0.00     0.037 A 
BRANCH  26  40
ATOM     40  C   UNL A   1      39.734  28.603  29.312  1.00  0.00     0.064 A 
ATOM     41  C   UNL A   1      39.312  28.396  30.633  1.00  0.00     0.173 A 
ATOM     42  C   UNL A   1      38.806  29.137  28.403  1.00  0.00     0.173 A 
ATOM     43  F   UNL A   1      40.157  27.878  31.538  1.00  0.00    -0.203 F 
ATOM     44  C   UNL A   1      38.011  28.704  31.026  1.00  0.00     0.198 A 
ATOM     45  C   UNL A   1      37.514  29.465  28.806  1.00  0.00     0.198 A 
ATOM     46  F   UNL A   1      39.161  29.360  27.129  1.00  0.00    -0.203 F 
ATOM     47  F   UNL A   1      37.623  28.474  32.289  1.00  0.00    -0.200 F 
ATOM     48  C   UNL A   1      37.117  29.246  30.116  1.00  0.00     0.200 A 
ATOM     49  F   UNL A   1      36.655  29.999  27.926  1.00  0.00    -0.200 F 
ATOM     50  F   UNL A   1      35.872  29.557  30.501  1.00  0.00    -0.200 F 
ENDBRANCH  26  40
BRANCH  27  51
ATOM     51  C   UNL A   1      49.031  26.667  26.192  1.00  0.00     0.064 A 
ATOM     52  C   UNL A   1      49.981  26.073  27.031  1.00  0.00     0.173 A 
ATOM     53  C   UNL A   1      49.413  26.965  24.876  1.00  0.00     0.173 A 
ATOM     54  F   UNL A   1      49.667  25.785  28.303  1.00  0.00    -0.203 F 
ATOM     55  C   UNL A   1      51.268  25.796  26.574  1.00  0.00     0.198 A 
ATOM     56  C   UNL A   1      50.690  26.661  24.411  1.00  0.00     0.198 A 
ATOM     57  F   UNL A   1      48.536  27.529  24.033  1.00  0.00    -0.203 F 
ATOM     58  F   UNL A   1      52.172  25.261  27.406  1.00  0.00    -0.200 F 
ATOM     59  C   UNL A   1      51.619  26.083  25.263  1.00  0.00     0.200 A 
ATOM     60  F   UNL A   1      51.016  26.922  23.138  1.00  0.00    -0.200 F 
ATOM     61  F   UNL A   1      52.852  25.807  24.821  1.00  0.00    -0.200 F 
ENDBRANCH  27  51
BRANCH  39  62
ATOM     62  C   UNL A   1      45.879  32.317  28.755  1.00  0.00     0.064 A 
ATOM     63  C   UNL A   1      46.453  32.662  29.988  1.00  0.00     0.173 A 
ATOM     64  C   UNL A   1      45.787  33.308  27.768  1.00  0.00     0.173 A 
ATOM     65  F   UNL A   1      46.543  31.751  30.969  1.00  0.00    -0.203 F 
ATOM     66  C   UNL A   1      46.894  33.959  30.231  1.00  0.00     0.198 A 
ATOM     67  C   UNL A   1      46.253  34.597  28.005  1.00  0.00     0.198 A 
ATOM     68  F   UNL A   1      45.249  33.024  26.573  1.00  0.00    -0.203 F 
ATOM     69  F   UNL A   1      47.394  34.280  31.432  1.00  0.00    -0.200 F 
ATOM     70  C   UNL A   1      46.798  34.924  29.238  1.00  0.00     0.200 A 
ATOM     71  F   UNL A   1      46.167  35.527  27.044  1.00  0.00    -0.200 F 
ATOM     72  F   UNL A   1      47.223  36.173  29.474  1.00  0.00    -0.200 F 
ENDBRANCH  39  62
ENDBRANCH  13  14
ENDBRANCH   6   8
ENDBRANCH   3   4
ENDBRANCH   2   3
ENDBRANCH   1   2
BRANCH   1  73
ATOM     73  C   UNL A   1      37.336  21.953  24.584  1.00  0.00     0.116 C 
BRANCH  73  74
ATOM     74  N   UNL A   1      36.511  22.510  23.542  1.00  0.00    -0.354 N 
ATOM     75  C   UNL A   1      35.267  23.060  23.566  1.00  0.00     0.242 C 
ATOM     76  H   UNL A   1      36.923  22.488  22.648  1.00  0.00     0.163 HD
ATOM     77  O   UNL A   1      34.918  23.590  22.500  1.00  0.00    -0.273 OA
BRANCH  75  78
ATOM     78  C   UNL A   1      34.312  23.118  24.799  1.00  0.00     0.174 C 
ATOM     79  C   UNL A   1      34.406  24.179  25.903  1.00  0.00     0.035 C 
ATOM     80  N   UNL A   1      32.905  23.067  24.371  1.00  0.00    -0.324 N 
ATOM     81  C   UNL A   1      33.692  25.512  25.594  1.00  0.00     0.004 C 
ATOM     82  C   UNL A   1      32.434  24.301  23.753  1.00  0.00     0.121 C 
ATOM     83  C   UNL A   1      32.362  25.366  24.846  1.00  0.00     0.022 C 
BRANCH  80  84
ATOM     84  C   UNL A   1      32.050  22.159  25.019  1.00  0.00     0.291 C 
ATOM     85  O   UNL A   1      30.995  22.533  25.534  1.00  0.00    -0.265 OA
BRANCH  84  86
ATOM     86  C   UNL A   1      32.341  20.749  24.912  1.00  0.00     0.214 A 
ATOM     87  N   UNL A   1      32.453  20.024  23.816  1.00  0.00    -0.207 NA
ATOM     88  N   UNL A   1      32.536  19.943  25.993  1.00  0.00    -0.255 N 
ATOM     89  C   UNL A   1      32.652  18.756  24.299  1.00  0.00     0.154 A 
ATOM     90  N   UNL A   1      32.644  18.654  25.632  1.00  0.00    -0.158 NA
ATOM     91  H   UNL A   1      32.591  20.265  26.922  1.00  0.00     0.192 HD
BRANCH  89  92
ATOM     92  C   UNL A   1      32.865  17.550  23.401  1.00  0.00     0.060 C 
ATOM     93  C   UNL A   1      34.268  17.011  23.216  1.00  0.00     0.012 C 
ATOM     94  C   UNL A   1      33.294  16.251  24.050  1.00  0.00     0.012 C 
ENDBRANCH  89  92
ENDBRANCH  84  86
ENDBRANCH  80  84
ENDBRANCH  75  78
ENDBRANCH  73  74
ENDBRANCH   1  73
TORSDOF 14
ENDMDL
MODEL 2
REMARK VINA RESULT:     -12.8      5.899     10.148
REMARK SMILES O=C(NCCCCNC(=O)[C@H]1CCCCN1C(=O)c1nc(C2CC2)n[nH]1)c1ccc(-c2c3nc(c(-c4c(F)c(F)c(F)c(F)c4F)c4ccc([nH]4)c(-c4c(F)c(F)c(F)c(F)c4F)c4nc(c(-c5c(F)c(F)c(F)c(F)c5F)c5ccc2[nH]5)C=C4)C=C3)cc1
REMARK SMILES IDX 6 1 5 2 4 3 3 4 1 5 2 6 27 8 28 9 89 10 29 11 88 12 30 13
REMARK SMILES IDX 31 14 32 15 82 16 33 17 87 18 81 19 83 20 34 21 86 22 80 23
REMARK SMILES IDX 79 24 35 26 67 27 47 28 66 29 48 30 51 31 65 32 84 33 49 34
REMARK SMILES IDX 50 35 64 37 85 38 52 39 36 40 37 41 45 42 38 43 39 44 43 45
REMARK SMILES IDX 46 46 40 47 41 48 44 49 42 50 68 51 69 52 77 53 70 54 71 55
REMARK SMILES IDX 75 56 78 57 72 58 73 59 76 60 74 61 53 62 54 63 62 64 55 65
REMARK SMILES IDX 56 66 60 67 63 68 57 69 58 70 61 71 59 72 7 73 8 74 9 75
REMARK SMILES IDX 10 77 11 78 12 79 16 80 13 81 15 82 14 83 17 84 18 85 19 86
REMARK SMILES IDX 20 87 26 88 21 89 25 90 22 92 23 93 24 94
REMARK H PARENT 3 7 83 25 51 36 8 76 26 91
REMARK Flexibility Score: inf
ROOT
ATOM      1  C   UNL A   1      30.993  31.415  25.668  1.00  0.00     0.023 C 
ENDROOT
BRANCH   1   2
ATOM      2  C   UNL A   1      31.285  32.152  26.967  1.00  0.00     0.023 C 
BRANCH   2   3
ATOM      3  C   UNL A   1      32.580  32.954  26.990  1.00  0.00     0.116 C 
BRANCH   3   4
ATOM      4  N   UNL A   1      32.475  34.218  27.709  1.00  0.00    -0.352 N 
ATOM      5  O   UNL A   1      32.949  35.775  29.276  1.00  0.00    -0.269 OA
ATOM      6  C   UNL A   1      33.253  34.726  28.725  1.00  0.00     0.251 C 
ATOM      7  H   UNL A   1      31.733  34.799  27.423  1.00  0.00     0.163 HD
BRANCH   6   8
ATOM      8  C   UNL A   1      34.439  33.968  29.176  1.00  0.00     0.039 A 
ATOM      9  C   UNL A   1      34.284  32.808  29.932  1.00  0.00     0.014 A 
ATOM     10  C   UNL A   1      35.716  34.454  28.880  1.00  0.00     0.014 A 
ATOM     11  C   UNL A   1      35.387  32.252  30.562  1.00  0.00     0.010 A 
ATOM     12  C   UNL A   1      36.837  33.827  29.428  1.00  0.00     0.010 A 
ATOM     13  C   UNL A   1      36.678  32.750  30.314  1.00  0.00    -0.014 A 
BRANCH  13  14
ATOM     14  C   UNL A   1      37.839  32.090  30.963  1.00  0.00     0.031 A 
ATOM     15  C   UNL A   1      38.232  32.412  32.378  1.00  0.00     0.074 A 
ATOM     16  C   UNL A   1      38.508  31.149  30.269  1.00  0.00     0.049 A 
ATOM     17  N   UNL A   1      39.209  31.913  33.094  1.00  0.00    -0.248 NA
ATOM     18  C   UNL A   1      37.434  33.427  33.084  1.00  0.00     0.031 C 
ATOM     19  C   UNL A   1      38.217  30.760  28.887  1.00  0.00     0.029 A 
ATOM     20  N   UNL A   1      39.546  30.331  30.632  1.00  0.00    -0.354 N 
ATOM     21  C   UNL A   1      39.164  32.571  34.316  1.00  0.00     0.074 A 
ATOM     22  C   UNL A   1      38.068  33.514  34.246  1.00  0.00     0.031 C 
ATOM     23  C   UNL A   1      39.015  29.743  28.538  1.00  0.00     0.029 A 
ATOM     24  C   UNL A   1      39.923  29.457  29.643  1.00  0.00     0.049 A 
ATOM     25  H   UNL A   1      39.980  30.367  31.515  1.00  0.00     0.167 HD
ATOM     26  C   UNL A   1      39.963  32.396  35.396  1.00  0.00     0.037 A 
ATOM     27  C   UNL A   1      40.905  28.538  29.617  1.00  0.00     0.037 A 
ATOM     28  C   UNL A   1      41.029  31.428  35.470  1.00  0.00     0.049 A 
ATOM     29  C   UNL A   1      41.772  28.369  30.829  1.00  0.00     0.074 A 
ATOM     30  C   UNL A   1      41.868  31.149  36.535  1.00  0.00     0.029 A 
ATOM     31  N   UNL A   1      41.399  30.580  34.437  1.00  0.00    -0.354 N 
ATOM     32  N   UNL A   1      41.707  28.989  31.982  1.00  0.00    -0.248 NA
ATOM     33  C   UNL A   1      42.854  27.381  30.733  1.00  0.00     0.031 C 
ATOM     34  C   UNL A   1      42.771  30.158  36.134  1.00  0.00     0.029 A 
ATOM     35  C   UNL A   1      42.467  29.790  34.833  1.00  0.00     0.049 A 
ATOM     36  H   UNL A   1      40.967  30.544  33.553  1.00  0.00     0.167 HD
ATOM     37  C   UNL A   1      42.733  28.465  32.751  1.00  0.00     0.074 A 
ATOM     38  C   UNL A   1      43.388  27.455  31.944  1.00  0.00     0.031 C 
ATOM     39  C   UNL A   1      43.107  28.795  34.011  1.00  0.00     0.037 A 
BRANCH  26  40
ATOM     40  C   UNL A   1      39.738  33.275  36.591  1.00  0.00     0.064 A 
ATOM     41  C   UNL A   1      40.388  34.509  36.732  1.00  0.00     0.173 A 
ATOM     42  C   UNL A   1      38.796  32.913  37.567  1.00  0.00     0.173 A 
ATOM     43  F   UNL A   1      41.304  34.897  35.833  1.00  0.00    -0.203 F 
ATOM     44  C   UNL A   1      40.110  35.345  37.813  1.00  0.00     0.198 A 
ATOM     45  C   UNL A   1      38.505  33.761  38.633  1.00  0.00     0.198 A 
ATOM     46  F   UNL A   1      38.141  31.746  37.475  1.00  0.00    -0.203 F 
ATOM     47  F   UNL A   1      40.762  36.510  37.941  1.00  0.00    -0.200 F 
ATOM     48  C   UNL A   1      39.163  34.975  38.756  1.00  0.00     0.200 A 
ATOM     49  F   UNL A   1      37.581  33.406  39.537  1.00  0.00    -0.200 F 
ATOM     50  F   UNL A   1      38.886  35.788  39.785  1.00  0.00    -0.200 F 
ENDBRANCH  26  40
BRANCH  27  51
ATOM     51  C   UNL A   1      41.121  27.728  28.392  1.00  0.00     0.064 A 
ATOM     52  C   UNL A   1      42.010  28.148  27.395  1.00  0.00     0.173 A 
ATOM     53  C   UNL A   1      40.458  26.505  28.207  1.00  0.00     0.173 A 
ATOM     54  F   UNL A   1      42.654  29.317  27.520  1.00  0.00    -0.203 F 
ATOM     55  C   UNL A   1      42.220  27.380  26.252  1.00  0.00     0.198 A 
ATOM     56  C   UNL A   1      40.691  25.724  27.078  1.00  0.00     0.198 A 
ATOM     57  F   UNL A   1      39.602  26.058  29.137  1.00  0.00    -0.203 F 
ATOM     58  F   UNL A   1      43.047  27.820  25.294  1.00  0.00    -0.200 F 
ATOM     59  C   UNL A   1      41.567  26.166  26.098  1.00  0.00     0.200 A 
ATOM     60  F   UNL A   1      40.073  24.544  26.944  1.00  0.00    -0.200 F 
ATOM     61  F   UNL A   1      41.778  25.422  25.004  1.00  0.00    -0.200 F 
ENDBRANCH  27  51
BRANCH  39  62
ATOM     62  C   UNL A   1      44.267  28.046  34.591  1.00  0.00     0.064 A 
ATOM     63  C   UNL A   1      44.085  26.827  35.262  1.00  0.00     0.173 A 
ATOM     64  C   UNL A   1      45.572  28.542  34.460  1.00  0.00     0.173 A 
ATOM     65  F   UNL A   1      42.853  26.324  35.427  1.00  0.00    -0.203 F 
ATOM     66  C   UNL A   1      45.170  26.144  35.805  1.00  0.00     0.198 A 
ATOM     67  C   UNL A   1      46.656  27.843  34.982  1.00  0.00     0.198 A 
ATOM     68  F   UNL A   1      45.794  29.700  33.823  1.00  0.00    -0.203 F 
ATOM     69  F   UNL A   1      44.970  25.007  36.485  1.00  0.00    -0.200 F 
ATOM     70  C   UNL A   1      46.454  26.651  35.661  1.00  0.00     0.200 A 
ATOM     71  F   UNL A   1      47.897  28.328  34.835  1.00  0.00    -0.200 F 
ATOM     72  F   UNL A   1      47.497  25.991  36.185  1.00  0.00    -0.200 F 
ENDBRANCH  39  62
ENDBRANCH  13  14
ENDBRANCH   6   8
ENDBRANCH   3   4
ENDBRANCH   2   3
ENDBRANCH   1   2
BRANCH   1  73
ATOM     73  C   UNL A   1      31.676  30.066  25.498  1.00  0.00     0.116 C 
BRANCH  73  74
ATOM     74  N   UNL A   1      31.643  29.226  26.669  1.00  0.00    -0.354 N 
ATOM     75  C   UNL A   1      31.819  27.888  26.831  1.00  0.00     0.242 C 
ATOM     76  H   UNL A   1      31.459  29.711  27.506  1.00  0.00     0.163 HD
ATOM     77  O   UNL A   1      31.883  27.516  28.012  1.00  0.00    -0.273 OA
BRANCH  75  78
ATOM     78  C   UNL A   1      31.995  26.840  25.688  1.00  0.00     0.174 C 
ATOM     79  C   UNL A   1      32.808  25.546  25.832  1.00  0.00     0.035 C 
ATOM     80  N   UNL A   1      30.691  26.465  25.118  1.00  0.00    -0.324 N 
ATOM     81  C   UNL A   1      32.049  24.363  26.470  1.00  0.00     0.004 C 
ATOM     82  C   UNL A   1      29.893  25.611  25.990  1.00  0.00     0.121 C 
ATOM     83  C   UNL A   1      30.579  24.248  26.053  1.00  0.00     0.022 C 
BRANCH  80  84
ATOM     84  C   UNL A   1      30.553  26.476  23.719  1.00  0.00     0.291 C 
ATOM     85  O   UNL A   1      30.678  25.445  23.058  1.00  0.00    -0.265 OA
BRANCH  84  86
ATOM     86  C   UNL A   1      30.081  27.686  23.088  1.00  0.00     0.214 A 
ATOM     87  N   UNL A   1      28.915  28.281  23.244  1.00  0.00    -0.207 NA
ATOM     88  N   UNL A   1      30.820  28.397  22.191  1.00  0.00    -0.255 N 
ATOM     89  C   UNL A   1      28.975  29.325  22.356  1.00  0.00     0.154 A 
ATOM     90  N   UNL A   1      30.104  29.391  21.642  1.00  0.00    -0.158 NA
ATOM     91  H   UNL A   1      31.762  28.206  21.973  1.00  0.00     0.192 HD
BRANCH  89  92
ATOM     92  C   UNL A   1      27.854  30.333  22.184  1.00  0.00     0.060 C 
ATOM     93  C   UNL A   1      27.704  31.446  23.200  1.00  0.00     0.012 C 
ATOM     94  C   UNL A   1      28.230  31.760  21.841  1.00  0.00     0.012 C 
ENDBRANCH  89  92
ENDBRANCH  84  86
ENDBRANCH  80  84
ENDBRANCH  75  78
ENDBRANCH  73  74
ENDBRANCH   1  73
TORSDOF 14
ENDMDL
MODEL 3
REMARK VINA RESULT:     -12.7      0.623      7.340
REMARK SMILES O=C(NCCCCNC(=O)[C@H]1CCCCN1C(=O)c1nc(C2CC2)n[nH]1)c1ccc(-c2c3nc(c(-c4c(F)c(F)c(F)c(F)c4F)c4ccc([nH]4)c(-c4c(F)c(F)c(F)c(F)c4F)c4nc(c(-c5c(F)c(F)c(F)c(F)c5F)c5ccc2[nH]5)C=C4)C=C3)cc1
REMARK SMILES IDX 6 1 5 2 4 3 3 4 1 5 2 6 27 8 28 9 89 10 29 11 88 12 30 13
REMARK SMILES IDX 31 14 32 15 82 16 33 17 87 18 81 19 83 20 34 21 86 22 80 23
REMARK SMILES IDX 79 24 35 26 67 27 47 28 66 29 48 30 51 31 65 32 84 33 49 34
REMARK SMILES IDX 50 35 64 37 85 38 52 39 36 40 37 41 45 42 38 43 39 44 43 45
REMARK SMILES IDX 46 46 40 47 41 48 44 49 42 50 68 51 69 52 77 53 70 54 71 55
REMARK SMILES IDX 75 56 78 57 72 58 73 59 76 60 74 61 53 62 54 63 62 64 55 65
REMARK SMILES IDX 56 66 60 67 63 68 57 69 58 70 61 71 59 72 7 73 8 74 9 75
REMARK SMILES IDX 10 77 11 78 12 79 16 80 13 81 15 82 14 83 17 84 18 85 19 86
REMARK SMILES IDX 20 87 26 88 21 89 25 90 22 92 23 93 24 94
REMARK H PARENT 3 7 83 25 51 36 8 76 26 91
REMARK Flexibility Score: inf
ROOT
ATOM      1  C   UNL A   1      36.905  19.510  25.018  1.00  0.00     0.023 C 
ENDROOT
BRANCH   1   2
ATOM      2  C   UNL A   1      38.309  19.969  24.650  1.00  0.00     0.023 C 
BRANCH   2   3
ATOM      3  C   UNL A   1      39.274  20.127  25.818  1.00  0.00     0.116 C 
BRANCH   3   4
ATOM      4  N   UNL A   1      40.282  19.076  25.894  1.00  0.00    -0.352 N 
ATOM      5  O   UNL A   1      42.343  18.165  26.062  1.00  0.00    -0.269 OA
ATOM      6  C   UNL A   1      41.635  19.161  26.133  1.00  0.00     0.251 C 
ATOM      7  H   UNL A   1      39.941  18.162  25.752  1.00  0.00     0.163 HD
BRANCH   6   8
ATOM      8  C   UNL A   1      42.234  20.477  26.435  1.00  0.00     0.039 A 
ATOM      9  C   UNL A   1      42.304  20.930  27.751  1.00  0.00     0.014 A 
ATOM     10  C   UNL A   1      42.683  21.283  25.385  1.00  0.00     0.014 A 
ATOM     11  C   UNL A   1      42.626  22.256  28.000  1.00  0.00     0.010 A 
ATOM     12  C   UNL A   1      43.112  22.586  25.650  1.00  0.00     0.010 A 
ATOM     13  C   UNL A   1      43.039  23.099  26.954  1.00  0.00    -0.014 A 
BRANCH  13  14
ATOM     14  C   UNL A   1      43.432  24.496  27.271  1.00  0.00     0.031 A 
ATOM     15  C   UNL A   1      44.814  25.008  26.973  1.00  0.00     0.074 A 
ATOM     16  C   UNL A   1      42.499  25.319  27.788  1.00  0.00     0.049 A 
ATOM     17  N   UNL A   1      45.309  26.204  27.174  1.00  0.00    -0.248 NA
ATOM     18  C   UNL A   1      45.768  24.059  26.378  1.00  0.00     0.031 C 
ATOM     19  C   UNL A   1      41.128  24.928  28.123  1.00  0.00     0.029 A 
ATOM     20  N   UNL A   1      42.548  26.653  28.097  1.00  0.00    -0.354 N 
ATOM     21  C   UNL A   1      46.634  26.144  26.762  1.00  0.00     0.074 A 
ATOM     22  C   UNL A   1      46.873  24.791  26.307  1.00  0.00     0.031 C 
ATOM     23  C   UNL A   1      40.450  26.007  28.536  1.00  0.00     0.029 A 
ATOM     24  C   UNL A   1      41.356  27.149  28.565  1.00  0.00     0.049 A 
ATOM     25  H   UNL A   1      43.358  27.203  27.994  1.00  0.00     0.167 HD
ATOM     26  C   UNL A   1      47.560  27.133  26.762  1.00  0.00     0.037 A 
ATOM     27  C   UNL A   1      41.031  28.383  28.991  1.00  0.00     0.037 A 
ATOM     28  C   UNL A   1      47.304  28.487  27.184  1.00  0.00     0.049 A 
ATOM     29  C   UNL A   1      42.079  29.455  28.977  1.00  0.00     0.074 A 
ATOM     30  C   UNL A   1      48.166  29.569  27.183  1.00  0.00     0.029 A 
ATOM     31  N   UNL A   1      46.091  28.944  27.678  1.00  0.00    -0.354 N 
ATOM     32  N   UNL A   1      43.323  29.386  28.571  1.00  0.00    -0.248 NA
ATOM     33  C   UNL A   1      41.682  30.772  29.490  1.00  0.00     0.031 C 
ATOM     34  C   UNL A   1      47.488  30.672  27.712  1.00  0.00     0.029 A 
ATOM     35  C   UNL A   1      46.189  30.288  28.004  1.00  0.00     0.049 A 
ATOM     36  H   UNL A   1      45.280  28.395  27.782  1.00  0.00     0.167 HD
ATOM     37  C   UNL A   1      43.857  30.648  28.774  1.00  0.00     0.074 A 
ATOM     38  C   UNL A   1      42.793  31.472  29.312  1.00  0.00     0.031 C 
ATOM     39  C   UNL A   1      45.119  31.086  28.543  1.00  0.00     0.037 A 
BRANCH  26  40
ATOM     40  C   UNL A   1      48.951  26.797  26.309  1.00  0.00     0.064 A 
ATOM     41  C   UNL A   1      49.878  26.182  27.162  1.00  0.00     0.173 A 
ATOM     42  C   UNL A   1      49.333  27.020  24.976  1.00  0.00     0.173 A 
ATOM     43  F   UNL A   1      49.566  25.956  28.447  1.00  0.00    -0.203 F 
ATOM     44  C   UNL A   1      51.140  25.812  26.701  1.00  0.00     0.198 A 
ATOM     45  C   UNL A   1      50.587  26.628  24.513  1.00  0.00     0.198 A 
ATOM     46  F   UNL A   1      48.481  27.600  24.117  1.00  0.00    -0.203 F 
ATOM     47  F   UNL A   1      52.019  25.247  27.542  1.00  0.00    -0.200 F 
ATOM     48  C   UNL A   1      51.490  26.027  25.376  1.00  0.00     0.200 A 
ATOM     49  F   UNL A   1      50.918  26.827  23.230  1.00  0.00    -0.200 F 
ATOM     50  F   UNL A   1      52.698  25.654  24.932  1.00  0.00    -0.200 F 
ENDBRANCH  26  40
BRANCH  27  51
ATOM     51  C   UNL A   1      39.654  28.652  29.478  1.00  0.00     0.064 A 
ATOM     52  C   UNL A   1      39.302  28.419  30.813  1.00  0.00     0.173 A 
ATOM     53  C   UNL A   1      38.671  29.170  28.622  1.00  0.00     0.173 A 
ATOM     54  F   UNL A   1      40.204  27.908  31.665  1.00  0.00    -0.203 F 
ATOM     55  C   UNL A   1      38.014  28.683  31.271  1.00  0.00     0.198 A 
ATOM     56  C   UNL A   1      37.393  29.462  29.088  1.00  0.00     0.198 A 
ATOM     57  F   UNL A   1      38.963  29.416  27.337  1.00  0.00    -0.203 F 
ATOM     58  F   UNL A   1      37.690  28.417  32.544  1.00  0.00    -0.200 F 
ATOM     59  C   UNL A   1      37.063  29.212  30.411  1.00  0.00     0.200 A 
ATOM     60  F   UNL A   1      36.484  29.991  28.257  1.00  0.00    -0.200 F 
ATOM     61  F   UNL A   1      35.827  29.477  30.855  1.00  0.00    -0.200 F 
ENDBRANCH  27  51
BRANCH  39  62
ATOM     62  C   UNL A   1      45.405  32.522  28.861  1.00  0.00     0.064 A 
ATOM     63  C   UNL A   1      45.186  33.535  27.916  1.00  0.00     0.173 A 
ATOM     64  C   UNL A   1      45.887  32.888  30.126  1.00  0.00     0.173 A 
ATOM     65  F   UNL A   1      44.744  33.229  26.687  1.00  0.00    -0.203 F 
ATOM     66  C   UNL A   1      45.465  34.865  28.220  1.00  0.00     0.198 A 
ATOM     67  C   UNL A   1      46.140  34.222  30.434  1.00  0.00     0.198 A 
ATOM     68  F   UNL A   1      46.107  31.955  31.062  1.00  0.00    -0.203 F 
ATOM     69  F   UNL A   1      45.295  35.812  27.287  1.00  0.00    -0.200 F 
ATOM     70  C   UNL A   1      45.937  35.207  29.479  1.00  0.00     0.200 A 
ATOM     71  F   UNL A   1      46.588  34.552  31.653  1.00  0.00    -0.200 F 
ATOM     72  F   UNL A   1      46.205  36.488  29.769  1.00  0.00    -0.200 F 
ENDBRANCH  39  62
ENDBRANCH  13  14
ENDBRANCH   6   8
ENDBRANCH   3   4
ENDBRANCH   2   3
ENDBRANCH   1   2
BRANCH   1  73
ATOM     73  C   UNL A   1      35.829  20.587  25.018  1.00  0.00     0.116 C 
BRANCH  73  74
ATOM     74  N   UNL A   1      36.325  21.928  24.836  1.00  0.00    -0.354 N 
ATOM     75  C   UNL A   1      35.752  23.143  25.046  1.00  0.00     0.242 C 
ATOM     76  H   UNL A   1      37.248  21.972  24.496  1.00  0.00     0.163 HD
ATOM     77  O   UNL A   1      36.528  24.104  24.935  1.00  0.00    -0.273 OA
BRANCH  75  78
ATOM     78  C   UNL A   1      34.268  23.400  25.454  1.00  0.00     0.174 C 
ATOM     79  C   UNL A   1      33.782  24.678  26.151  1.00  0.00     0.035 C 
ATOM     80  N   UNL A   1      33.366  23.164  24.315  1.00  0.00    -0.324 N 
ATOM     81  C   UNL A   1      33.475  25.862  25.209  1.00  0.00     0.004 C 
ATOM     82  C   UNL A   1      33.428  24.202  23.292  1.00  0.00     0.121 C 
ATOM     83  C   UNL A   1      32.814  25.469  23.883  1.00  0.00     0.022 C 
BRANCH  80  84
ATOM     84  C   UNL A   1      32.231  22.360  24.525  1.00  0.00     0.291 C 
ATOM     85  O   UNL A   1      31.098  22.844  24.517  1.00  0.00    -0.265 OA
BRANCH  84  86
ATOM     86  C   UNL A   1      32.406  20.928  24.569  1.00  0.00     0.214 A 
ATOM     87  N   UNL A   1      32.557  20.097  23.557  1.00  0.00    -0.207 NA
ATOM     88  N   UNL A   1      32.426  20.215  25.731  1.00  0.00    -0.255 N 
ATOM     89  C   UNL A   1      32.596  18.868  24.165  1.00  0.00     0.154 A 
ATOM     90  N   UNL A   1      32.453  18.893  25.495  1.00  0.00    -0.158 NA
ATOM     91  H   UNL A   1      32.421  20.618  26.629  1.00  0.00     0.192 HD
BRANCH  89  92
ATOM     92  C   UNL A   1      32.786  17.570  23.401  1.00  0.00     0.060 C 
ATOM     93  C   UNL A   1      34.189  17.044  23.182  1.00  0.00     0.012 C 
ATOM     94  C   UNL A   1      33.296  16.366  24.164  1.00  0.00     0.012 C 
ENDBRANCH  89  92
ENDBRANCH  84  86
ENDBRANCH  80  84
ENDBRANCH  75  78
ENDBRANCH  73  74
ENDBRANCH   1  73
TORSDOF 14
ENDMDL
