MODEL 1
REMARK VINA RESULT:     -12.5      0.000      0.000
REMARK SMILES O=Cc1[nH]nc2cc(C(=O)NCCCCNC(=O)c3ccc(-c4c5nc(c(-c6c(F)c(F)c(F)c(F)c6F)c6ccc([nH]6)c(-c6c(F)c(F)c(F)c(F)c6F)c6nc(c(-c7c(F)c(F)c(F)c(F)c7F)c7ccc4[nH]7)C=C6)C=C5)cc3)ccc12
REMARK SMILES IDX 14 1 13 2 12 3 11 4 9 5 10 6 8 8 3 9 4 10 84 11 5 12 6 14
REMARK SMILES IDX 83 15 7 16 82 17 2 18 1 19 15 20 16 21 17 22 18 24 19 25
REMARK SMILES IDX 20 26 81 27 21 28 80 29 22 30 23 31 24 32 74 33 25 34 79 35
REMARK SMILES IDX 73 36 75 37 26 38 78 39 72 40 71 41 27 43 59 44 39 45 58 46
REMARK SMILES IDX 40 47 43 48 57 49 76 50 41 51 42 52 56 54 77 55 44 56 28 57
REMARK SMILES IDX 29 58 37 59 30 60 31 61 35 62 38 63 32 64 33 65 36 66 34 67
REMARK SMILES IDX 60 68 61 69 69 70 62 71 63 72 67 73 70 74 64 75 65 76 68 77
REMARK SMILES IDX 66 78 45 79 46 80 54 81 47 82 48 83 52 84 55 85 49 86 50 87
REMARK SMILES IDX 53 88 51 89
REMARK H PARENT 11 7 4 13 16 23 75 42 43 53
REMARK Flexibility Score: inf
ROOT
ATOM      1  C   UNL A   1      31.602  31.945  26.861  1.00  0.00     0.023 C 
ENDROOT
BRANCH   1   2
ATOM      2  C   UNL A   1      31.846  30.432  26.866  1.00  0.00     0.023 C 
BRANCH   2   3
ATOM      3  C   UNL A   1      33.324  30.032  26.830  1.00  0.00     0.116 C 
BRANCH   3   4
ATOM      4  N   UNL A   1      33.719  29.660  25.488  1.00  0.00    -0.352 N 
ATOM      5  C   UNL A   1      33.593  28.511  24.751  1.00  0.00     0.251 C 
ATOM      6  O   UNL A   1      34.055  28.548  23.608  1.00  0.00    -0.269 OA
ATOM      7  H   UNL A   1      34.174  30.385  25.002  1.00  0.00     0.163 HD
BRANCH   5   8
ATOM      8  C   UNL A   1      32.918  27.255  25.216  1.00  0.00     0.042 A 
ATOM      9  C   UNL A   1      31.461  23.664  26.554  1.00  0.00     0.105 A 
ATOM     10  N   UNL A   1      32.690  23.118  26.818  1.00  0.00    -0.274 N 
ATOM     11  C   UNL A   1      31.759  24.923  26.089  1.00  0.00     0.030 A 
ATOM     12  N   UNL A   1      33.737  23.904  26.516  1.00  0.00    -0.175 NA
ATOM     13  H   UNL A   1      32.797  22.216  27.201  1.00  0.00     0.190 HD
ATOM     14  C   UNL A   1      33.192  25.042  26.060  1.00  0.00     0.094 A 
ATOM     15  C   UNL A   1      30.845  25.905  25.725  1.00  0.00     0.013 A 
ATOM     16  C   UNL A   1      33.809  26.219  25.608  1.00  0.00     0.044 A 
ATOM     17  C   UNL A   1      31.498  27.092  25.316  1.00  0.00     0.015 A 
BRANCH   9  18
ATOM     18  C   UNL A   1      30.217  22.977  26.761  1.00  0.00     0.280 C 
ATOM     19  O   UNL A   1      29.559  22.995  27.798  1.00  0.00    -0.296 OA
ENDBRANCH   9  18
ENDBRANCH   5   8
ENDBRANCH   3   4
ENDBRANCH   2   3
ENDBRANCH   1   2
BRANCH   1  20
ATOM     20  C   UNL A   1      32.767  32.791  27.366  1.00  0.00     0.116 C 
BRANCH  20  21
ATOM     21  N   UNL A   1      32.397  34.163  27.679  1.00  0.00    -0.352 N 
ATOM     22  C   UNL A   1      32.965  35.013  28.598  1.00  0.00     0.251 C 
ATOM     23  H   UNL A   1      31.641  34.530  27.166  1.00  0.00     0.163 HD
ATOM     24  O   UNL A   1      32.484  36.117  28.812  1.00  0.00    -0.269 OA
BRANCH  22  25
ATOM     25  C   UNL A   1      34.141  34.553  29.366  1.00  0.00     0.039 A 
ATOM     26  C   UNL A   1      33.937  33.979  30.622  1.00  0.00     0.014 A 
ATOM     27  C   UNL A   1      35.426  34.650  28.829  1.00  0.00     0.014 A 
ATOM     28  C   UNL A   1      35.020  33.430  31.312  1.00  0.00     0.010 A 
ATOM     29  C   UNL A   1      36.492  34.047  29.487  1.00  0.00     0.010 A 
ATOM     30  C   UNL A   1      36.298  33.426  30.730  1.00  0.00    -0.014 A 
BRANCH  30  31
ATOM     31  C   UNL A   1      37.443  32.762  31.398  1.00  0.00     0.031 A 
ATOM     32  C   UNL A   1      38.130  31.599  30.740  1.00  0.00     0.074 A 
ATOM     33  C   UNL A   1      37.808  33.154  32.634  1.00  0.00     0.049 A 
ATOM     34  N   UNL A   1      39.086  30.835  31.199  1.00  0.00    -0.248 NA
ATOM     35  C   UNL A   1      37.654  31.229  29.397  1.00  0.00     0.031 C 
ATOM     36  C   UNL A   1      37.180  34.231  33.399  1.00  0.00     0.029 A 
ATOM     37  N   UNL A   1      38.786  32.679  33.471  1.00  0.00    -0.354 N 
ATOM     38  C   UNL A   1      39.312  29.881  30.216  1.00  0.00     0.074 A 
ATOM     39  C   UNL A   1      38.362  30.135  29.154  1.00  0.00     0.031 C 
ATOM     40  C   UNL A   1      37.796  34.345  34.587  1.00  0.00     0.029 A 
ATOM     41  C   UNL A   1      38.841  33.330  34.679  1.00  0.00     0.049 A 
ATOM     42  H   UNL A   1      39.392  31.941  33.229  1.00  0.00     0.167 HD
ATOM     43  C   UNL A   1      40.242  28.898  30.191  1.00  0.00     0.037 A 
ATOM     44  C   UNL A   1      39.641  33.125  35.743  1.00  0.00     0.037 A 
ATOM     45  C   UNL A   1      41.207  28.672  31.234  1.00  0.00     0.049 A 
ATOM     46  C   UNL A   1      40.682  32.041  35.680  1.00  0.00     0.074 A 
ATOM     47  C   UNL A   1      42.238  27.750  31.271  1.00  0.00     0.029 A 
ATOM     48  N   UNL A   1      41.260  29.379  32.426  1.00  0.00    -0.354 N 
ATOM     49  N   UNL A   1      40.937  31.194  34.713  1.00  0.00    -0.248 NA
ATOM     50  C   UNL A   1      41.553  31.891  36.854  1.00  0.00     0.031 C 
ATOM     51  C   UNL A   1      42.892  27.874  32.502  1.00  0.00     0.029 A 
ATOM     52  C   UNL A   1      42.295  28.902  33.214  1.00  0.00     0.049 A 
ATOM     53  H   UNL A   1      40.651  30.112  32.676  1.00  0.00     0.167 HD
ATOM     54  C   UNL A   1      42.010  30.429  35.148  1.00  0.00     0.074 A 
ATOM     55  C   UNL A   1      42.368  30.922  36.463  1.00  0.00     0.031 C 
ATOM     56  C   UNL A   1      42.642  29.411  34.515  1.00  0.00     0.037 A 
BRANCH  43  57
ATOM     57  C   UNL A   1      40.262  27.994  28.994  1.00  0.00     0.064 A 
ATOM     58  C   UNL A   1      40.996  28.316  27.842  1.00  0.00     0.173 A 
ATOM     59  C   UNL A   1      39.565  26.776  29.009  1.00  0.00     0.173 A 
ATOM     60  F   UNL A   1      41.669  29.475  27.773  1.00  0.00    -0.203 F 
ATOM     61  C   UNL A   1      41.005  27.468  26.738  1.00  0.00     0.198 A 
ATOM     62  C   UNL A   1      39.601  25.917  27.914  1.00  0.00     0.198 A 
ATOM     63  F   UNL A   1      38.853  26.418  30.088  1.00  0.00    -0.203 F 
ATOM     64  F   UNL A   1      41.672  27.821  25.631  1.00  0.00    -0.200 F 
ATOM     65  C   UNL A   1      40.314  26.267  26.777  1.00  0.00     0.200 A 
ATOM     66  F   UNL A   1      38.941  24.751  27.958  1.00  0.00    -0.200 F 
ATOM     67  F   UNL A   1      40.328  25.450  25.716  1.00  0.00    -0.200 F 
ENDBRANCH  43  57
BRANCH  44  68
ATOM     68  C   UNL A   1      39.508  33.987  36.944  1.00  0.00     0.064 A 
ATOM     69  C   UNL A   1      40.141  35.235  37.006  1.00  0.00     0.173 A 
ATOM     70  C   UNL A   1      38.747  33.584  38.051  1.00  0.00     0.173 A 
ATOM     71  F   UNL A   1      40.895  35.654  35.979  1.00  0.00    -0.203 F 
ATOM     72  C   UNL A   1      40.033  36.043  38.136  1.00  0.00     0.198 A 
ATOM     73  C   UNL A   1      38.620  34.403  39.172  1.00  0.00     0.198 A 
ATOM     74  F   UNL A   1      38.118  32.400  38.040  1.00  0.00    -0.203 F 
ATOM     75  F   UNL A   1      40.682  37.214  38.185  1.00  0.00    -0.200 F 
ATOM     76  C   UNL A   1      39.268  35.628  39.217  1.00  0.00     0.200 A 
ATOM     77  F   UNL A   1      37.869  34.005  40.208  1.00  0.00    -0.200 F 
ATOM     78  F   UNL A   1      39.161  36.407  40.301  1.00  0.00    -0.200 F 
ENDBRANCH  44  68
BRANCH  56  79
ATOM     79  C   UNL A   1      43.807  28.782  35.221  1.00  0.00     0.064 A 
ATOM     80  C   UNL A   1      43.643  27.677  36.070  1.00  0.00     0.173 A 
ATOM     81  C   UNL A   1      45.108  29.264  35.008  1.00  0.00     0.173 A 
ATOM     82  F   UNL A   1      42.417  27.192  36.316  1.00  0.00    -0.203 F 
ATOM     83  C   UNL A   1      44.738  27.090  36.696  1.00  0.00     0.198 A 
ATOM     84  C   UNL A   1      46.203  28.656  35.615  1.00  0.00     0.198 A 
ATOM     85  F   UNL A   1      45.317  30.314  34.201  1.00  0.00    -0.203 F 
ATOM     86  F   UNL A   1      44.555  26.061  37.535  1.00  0.00    -0.200 F 
ATOM     87  C   UNL A   1      46.017  27.575  36.463  1.00  0.00     0.200 A 
ATOM     88  F   UNL A   1      47.439  29.118  35.380  1.00  0.00    -0.200 F 
ATOM     89  F   UNL A   1      47.071  27.002  37.061  1.00  0.00    -0.200 F 
ENDBRANCH  56  79
ENDBRANCH  30  31
ENDBRANCH  22  25
ENDBRANCH  20  21
ENDBRANCH   1  20
TORSDOF 12
ENDMDL
MODEL 2
REMARK VINA RESULT:     -12.4      5.985     11.461
REMARK SMILES O=Cc1[nH]nc2cc(C(=O)NCCCCNC(=O)c3ccc(-c4c5nc(c(-c6c(F)c(F)c(F)c(F)c6F)c6ccc([nH]6)c(-c6c(F)c(F)c(F)c(F)c6F)c6nc(c(-c7c(F)c(F)c(F)c(F)c7F)c7ccc4[nH]7)C=C6)C=C5)cc3)ccc12
REMARK SMILES IDX 14 1 13 2 12 3 11 4 9 5 10 6 8 8 3 9 4 10 84 11 5 12 6 14
REMARK SMILES IDX 83 15 7 16 82 17 2 18 1 19 15 20 16 21 17 22 18 24 19 25
REMARK SMILES IDX 20 26 81 27 21 28 80 29 22 30 23 31 24 32 74 33 25 34 79 35
REMARK SMILES IDX 73 36 75 37 26 38 78 39 72 40 71 41 27 43 59 44 39 45 58 46
REMARK SMILES IDX 40 47 43 48 57 49 76 50 41 51 42 52 56 54 77 55 44 56 28 57
REMARK SMILES IDX 29 58 37 59 30 60 31 61 35 62 38 63 32 64 33 65 36 66 34 67
REMARK SMILES IDX 60 68 61 69 69 70 62 71 63 72 67 73 70 74 64 75 65 76 68 77
REMARK SMILES IDX 66 78 45 79 46 80 54 81 47 82 48 83 52 84 55 85 49 86 50 87
REMARK SMILES IDX 53 88 51 89
REMARK H PARENT 11 7 4 13 16 23 75 42 43 53
REMARK Flexibility Score: inf
ROOT
ATOM      1  C   UNL A   1      38.122  20.037  25.020  1.00  0.00     0.023 C 
ENDROOT
BRANCH   1   2
ATOM      2  C   UNL A   1      37.370  21.307  24.607  1.00  0.00     0.023 C 
BRANCH   2   3
ATOM      3  C   UNL A   1      37.534  22.481  25.577  1.00  0.00     0.116 C 
BRANCH   3   4
ATOM      4  N   UNL A   1      36.411  22.549  26.489  1.00  0.00    -0.352 N 
ATOM      5  C   UNL A   1      35.143  23.058  26.389  1.00  0.00     0.251 C 
ATOM      6  O   UNL A   1      34.430  22.937  27.388  1.00  0.00    -0.269 OA
ATOM      7  H   UNL A   1      36.598  22.142  27.366  1.00  0.00     0.163 HD
BRANCH   5   8
ATOM      8  C   UNL A   1      34.566  23.707  25.166  1.00  0.00     0.042 A 
ATOM      9  C   UNL A   1      33.049  25.852  22.018  1.00  0.00     0.105 A 
ATOM     10  N   UNL A   1      33.252  27.081  22.591  1.00  0.00    -0.274 N 
ATOM     11  C   UNL A   1      33.527  24.972  22.960  1.00  0.00     0.030 A 
ATOM     12  N   UNL A   1      33.771  27.050  23.830  1.00  0.00    -0.175 NA
ATOM     13  H   UNL A   1      33.032  27.922  22.129  1.00  0.00     0.190 HD
ATOM     14  C   UNL A   1      33.959  25.748  24.092  1.00  0.00     0.094 A 
ATOM     15  C   UNL A   1      33.593  23.589  22.838  1.00  0.00     0.013 A 
ATOM     16  C   UNL A   1      34.483  25.125  25.236  1.00  0.00     0.044 A 
ATOM     17  C   UNL A   1      34.166  22.996  23.988  1.00  0.00     0.015 A 
BRANCH   9  18
ATOM     18  C   UNL A   1      32.464  25.659  20.721  1.00  0.00     0.280 C 
ATOM     19  O   UNL A   1      33.087  25.562  19.667  1.00  0.00    -0.296 OA
ENDBRANCH   9  18
ENDBRANCH   5   8
ENDBRANCH   3   4
ENDBRANCH   2   3
ENDBRANCH   1   2
BRANCH   1  20
ATOM     20  C   UNL A   1      39.342  20.266  25.907  1.00  0.00     0.116 C 
BRANCH  20  21
ATOM     21  N   UNL A   1      40.282  19.156  25.901  1.00  0.00    -0.352 N 
ATOM     22  C   UNL A   1      41.642  19.186  26.103  1.00  0.00     0.251 C 
ATOM     23  H   UNL A   1      39.894  18.267  25.729  1.00  0.00     0.163 HD
ATOM     24  O   UNL A   1      42.316  18.173  25.979  1.00  0.00    -0.269 OA
BRANCH  22  25
ATOM     25  C   UNL A   1      42.289  20.475  26.423  1.00  0.00     0.039 A 
ATOM     26  C   UNL A   1      42.792  21.249  25.375  1.00  0.00     0.014 A 
ATOM     27  C   UNL A   1      42.356  20.932  27.741  1.00  0.00     0.014 A 
ATOM     28  C   UNL A   1      43.299  22.523  25.643  1.00  0.00     0.010 A 
ATOM     29  C   UNL A   1      42.802  22.224  27.997  1.00  0.00     0.010 A 
ATOM     30  C   UNL A   1      43.270  23.033  26.950  1.00  0.00    -0.014 A 
BRANCH  30  31
ATOM     31  C   UNL A   1      43.711  24.419  27.244  1.00  0.00     0.031 A 
ATOM     32  C   UNL A   1      42.725  25.431  27.751  1.00  0.00     0.074 A 
ATOM     33  C   UNL A   1      44.978  24.782  26.972  1.00  0.00     0.049 A 
ATOM     34  N   UNL A   1      42.894  26.708  27.981  1.00  0.00    -0.248 NA
ATOM     35  C   UNL A   1      41.357  24.949  28.003  1.00  0.00     0.031 C 
ATOM     36  C   UNL A   1      46.012  23.904  26.422  1.00  0.00     0.029 A 
ATOM     37  N   UNL A   1      45.610  25.994  27.106  1.00  0.00    -0.354 N 
ATOM     38  C   UNL A   1      41.654  27.186  28.383  1.00  0.00     0.074 A 
ATOM     39  C   UNL A   1      40.731  26.073  28.322  1.00  0.00     0.031 C 
ATOM     40  C   UNL A   1      47.151  24.600  26.279  1.00  0.00     0.029 A 
ATOM     41  C   UNL A   1      46.920  25.980  26.697  1.00  0.00     0.049 A 
ATOM     42  H   UNL A   1      45.165  26.797  27.462  1.00  0.00     0.167 HD
ATOM     43  C   UNL A   1      41.322  28.435  28.788  1.00  0.00     0.037 A 
ATOM     44  C   UNL A   1      47.831  26.971  26.658  1.00  0.00     0.037 A 
ATOM     45  C   UNL A   1      42.252  29.529  28.880  1.00  0.00     0.049 A 
ATOM     46  C   UNL A   1      47.443  28.343  27.135  1.00  0.00     0.074 A 
ATOM     47  C   UNL A   1      42.031  30.812  29.347  1.00  0.00     0.029 A 
ATOM     48  N   UNL A   1      43.583  29.467  28.496  1.00  0.00    -0.354 N 
ATOM     49  N   UNL A   1      46.286  28.766  27.585  1.00  0.00    -0.248 NA
ATOM     50  C   UNL A   1      48.489  29.375  27.108  1.00  0.00     0.031 C 
ATOM     51  C   UNL A   1      43.220  31.538  29.212  1.00  0.00     0.029 A 
ATOM     52  C   UNL A   1      44.192  30.694  28.700  1.00  0.00     0.049 A 
ATOM     53  H   UNL A   1      44.030  28.668  28.132  1.00  0.00     0.167 HD
ATOM     54  C   UNL A   1      46.471  30.101  27.918  1.00  0.00     0.074 A 
ATOM     55  C   UNL A   1      47.856  30.415  27.630  1.00  0.00     0.031 C 
ATOM     56  C   UNL A   1      45.574  30.985  28.417  1.00  0.00     0.037 A 
BRANCH  43  57
ATOM     57  C   UNL A   1      39.891  28.682  29.165  1.00  0.00     0.064 A 
ATOM     58  C   UNL A   1      39.431  28.476  30.475  1.00  0.00     0.173 A 
ATOM     59  C   UNL A   1      38.976  29.160  28.215  1.00  0.00     0.173 A 
ATOM     60  F   UNL A   1      40.264  28.008  31.417  1.00  0.00    -0.203 F 
ATOM     61  C   UNL A   1      38.100  28.709  30.811  1.00  0.00     0.198 A 
ATOM     62  C   UNL A   1      37.654  29.420  28.562  1.00  0.00     0.198 A 
ATOM     63  F   UNL A   1      39.366  29.379  26.951  1.00  0.00    -0.203 F 
ATOM     64  F   UNL A   1      37.672  28.457  32.055  1.00  0.00    -0.200 F 
ATOM     65  C   UNL A   1      37.215  29.187  29.857  1.00  0.00     0.200 A 
ATOM     66  F   UNL A   1      36.801  29.893  27.642  1.00  0.00    -0.200 F 
ATOM     67  F   UNL A   1      35.936  29.416  30.184  1.00  0.00    -0.200 F 
ENDBRANCH  43  57
BRANCH  44  68
ATOM     68  C   UNL A   1      49.208  26.692  26.177  1.00  0.00     0.064 A 
ATOM     69  C   UNL A   1      50.180  26.174  27.044  1.00  0.00     0.173 A 
ATOM     70  C   UNL A   1      49.580  26.932  24.846  1.00  0.00     0.173 A 
ATOM     71  F   UNL A   1      49.876  25.946  28.330  1.00  0.00    -0.203 F 
ATOM     72  C   UNL A   1      51.478  25.924  26.603  1.00  0.00     0.198 A 
ATOM     73  C   UNL A   1      50.872  26.658  24.401  1.00  0.00     0.198 A 
ATOM     74  F   UNL A   1      48.685  27.422  23.976  1.00  0.00    -0.203 F 
ATOM     75  F   UNL A   1      52.398  25.467  27.463  1.00  0.00    -0.200 F 
ATOM     76  C   UNL A   1      51.822  26.161  25.280  1.00  0.00     0.200 A 
ATOM     77  F   UNL A   1      51.196  26.876  23.119  1.00  0.00    -0.200 F 
ATOM     78  F   UNL A   1      53.068  25.916  24.857  1.00  0.00    -0.200 F 
ENDBRANCH  44  68
BRANCH  56  79
ATOM     79  C   UNL A   1      46.069  32.369  28.716  1.00  0.00     0.064 A 
ATOM     80  C   UNL A   1      46.020  33.391  27.756  1.00  0.00     0.173 A 
ATOM     81  C   UNL A   1      46.556  32.687  29.994  1.00  0.00     0.173 A 
ATOM     82  F   UNL A   1      45.577  33.131  26.517  1.00  0.00    -0.203 F 
ATOM     83  C   UNL A   1      46.460  34.676  28.059  1.00  0.00     0.198 A 
ATOM     84  C   UNL A   1      46.969  33.980  30.300  1.00  0.00     0.198 A 
ATOM     85  F   UNL A   1      46.618  31.746  30.947  1.00  0.00    -0.203 F 
ATOM     86  F   UNL A   1      46.442  35.628  27.115  1.00  0.00    -0.200 F 
ATOM     87  C   UNL A   1      46.927  34.972  29.331  1.00  0.00     0.200 A 
ATOM     88  F   UNL A   1      47.410  34.267  31.533  1.00  0.00    -0.200 F 
ATOM     89  F   UNL A   1      47.342  36.212  29.623  1.00  0.00    -0.200 F 
ENDBRANCH  56  79
ENDBRANCH  30  31
ENDBRANCH  22  25
ENDBRANCH  20  21
ENDBRANCH   1  20
TORSDOF 12
ENDMDL
MODEL 3
REMARK VINA RESULT:     -12.4      0.900      7.594
REMARK SMILES O=Cc1[nH]nc2cc(C(=O)NCCCCNC(=O)c3ccc(-c4c5nc(c(-c6c(F)c(F)c(F)c(F)c6F)c6ccc([nH]6)c(-c6c(F)c(F)c(F)c(F)c6F)c6nc(c(-c7c(F)c(F)c(F)c(F)c7F)c7ccc4[nH]7)C=C6)C=C5)cc3)ccc12
REMARK SMILES IDX 14 1 13 2 12 3 11 4 9 5 10 6 8 8 3 9 4 10 84 11 5 12 6 14
REMARK SMILES IDX 83 15 7 16 82 17 2 18 1 19 15 20 16 21 17 22 18 24 19 25
REMARK SMILES IDX 20 26 81 27 21 28 80 29 22 30 23 31 24 32 74 33 25 34 79 35
REMARK SMILES IDX 73 36 75 37 26 38 78 39 72 40 71 41 27 43 59 44 39 45 58 46
REMARK SMILES IDX 40 47 43 48 57 49 76 50 41 51 42 52 56 54 77 55 44 56 28 57
REMARK SMILES IDX 29 58 37 59 30 60 31 61 35 62 38 63 32 64 33 65 36 66 34 67
REMARK SMILES IDX 60 68 61 69 69 70 62 71 63 72 67 73 70 74 64 75 65 76 68 77
REMARK SMILES IDX 66 78 45 79 46 80 54 81 47 82 48 83 52 84 55 85 49 86 50 87
REMARK SMILES IDX 53 88 51 89
REMARK H PARENT 11 7 4 13 16 23 75 42 43 53
REMARK Flexibility Score: inf
ROOT
ATOM      1  C   UNL A   1      31.476  32.079  26.701  1.00  0.00     0.023 C 
ENDROOT
BRANCH   1   2
ATOM      2  C   UNL A   1      31.673  30.570  26.522  1.00  0.00     0.023 C 
BRANCH   2   3
ATOM      3  C   UNL A   1      33.085  30.165  26.090  1.00  0.00     0.116 C 
BRANCH   3   4
ATOM      4  N   UNL A   1      33.091  29.730  24.709  1.00  0.00    -0.352 N 
ATOM      5  C   UNL A   1      32.957  28.508  24.103  1.00  0.00     0.251 C 
ATOM      6  O   UNL A   1      33.010  28.506  22.871  1.00  0.00    -0.269 OA
ATOM      7  H   UNL A   1      33.215  30.469  24.070  1.00  0.00     0.163 HD
BRANCH   5   8
ATOM      8  C   UNL A   1      32.724  27.211  24.818  1.00  0.00     0.042 A 
ATOM      9  C   UNL A   1      31.678  23.774  26.795  1.00  0.00     0.105 A 
ATOM     10  N   UNL A   1      30.341  24.071  26.868  1.00  0.00    -0.274 N 
ATOM     11  C   UNL A   1      32.212  24.850  26.127  1.00  0.00     0.030 A 
ATOM     12  N   UNL A   1      29.995  25.260  26.348  1.00  0.00    -0.175 NA
ATOM     13  H   UNL A   1      29.685  23.458  27.273  1.00  0.00     0.190 HD
ATOM     14  C   UNL A   1      31.139  25.774  25.873  1.00  0.00     0.094 A 
ATOM     15  C   UNL A   1      33.541  25.012  25.754  1.00  0.00     0.013 A 
ATOM     16  C   UNL A   1      31.376  26.992  25.216  1.00  0.00     0.044 A 
ATOM     17  C   UNL A   1      33.738  26.227  25.057  1.00  0.00     0.015 A 
BRANCH   9  18
ATOM     18  C   UNL A   1      32.264  22.577  27.330  1.00  0.00     0.280 C 
ATOM     19  O   UNL A   1      32.904  22.504  28.375  1.00  0.00    -0.296 OA
ENDBRANCH   9  18
ENDBRANCH   5   8
ENDBRANCH   3   4
ENDBRANCH   2   3
ENDBRANCH   1   2
BRANCH   1  20
ATOM     20  C   UNL A   1      32.691  32.833  27.230  1.00  0.00     0.116 C 
BRANCH  20  21
ATOM     21  N   UNL A   1      32.398  34.201  27.629  1.00  0.00    -0.352 N 
ATOM     22  C   UNL A   1      33.011  34.958  28.600  1.00  0.00     0.251 C 
ATOM     23  H   UNL A   1      31.666  34.642  27.141  1.00  0.00     0.163 HD
ATOM     24  O   UNL A   1      32.592  36.072  28.883  1.00  0.00    -0.269 OA
BRANCH  22  25
ATOM     25  C   UNL A   1      34.156  34.385  29.337  1.00  0.00     0.039 A 
ATOM     26  C   UNL A   1      33.905  33.648  30.495  1.00  0.00     0.014 A 
ATOM     27  C   UNL A   1      35.460  34.540  28.860  1.00  0.00     0.014 A 
ATOM     28  C   UNL A   1      34.960  32.998  31.140  1.00  0.00     0.010 A 
ATOM     29  C   UNL A   1      36.499  33.841  29.465  1.00  0.00     0.010 A 
ATOM     30  C   UNL A   1      36.257  33.059  30.605  1.00  0.00    -0.014 A 
BRANCH  30  31
ATOM     31  C   UNL A   1      37.375  32.298  31.214  1.00  0.00     0.031 A 
ATOM     32  C   UNL A   1      37.860  32.645  32.593  1.00  0.00     0.074 A 
ATOM     33  C   UNL A   1      38.005  31.353  30.491  1.00  0.00     0.049 A 
ATOM     34  N   UNL A   1      38.874  32.158  33.260  1.00  0.00    -0.248 NA
ATOM     35  C   UNL A   1      37.123  33.702  33.302  1.00  0.00     0.031 C 
ATOM     36  C   UNL A   1      37.664  30.968  29.121  1.00  0.00     0.029 A 
ATOM     37  N   UNL A   1      39.077  30.554  30.803  1.00  0.00    -0.354 N 
ATOM     38  C   UNL A   1      38.912  32.863  34.455  1.00  0.00     0.074 A 
ATOM     39  C   UNL A   1      37.847  33.842  34.404  1.00  0.00     0.031 C 
ATOM     40  C   UNL A   1      38.499  29.998  28.715  1.00  0.00     0.029 A 
ATOM     41  C   UNL A   1      39.454  29.716  29.783  1.00  0.00     0.049 A 
ATOM     42  H   UNL A   1      39.534  30.580  31.675  1.00  0.00     0.167 HD
ATOM     43  C   UNL A   1      39.745  32.694  35.509  1.00  0.00     0.037 A 
ATOM     44  C   UNL A   1      40.461  28.824  29.716  1.00  0.00     0.037 A 
ATOM     45  C   UNL A   1      40.780  31.696  35.569  1.00  0.00     0.049 A 
ATOM     46  C   UNL A   1      41.357  28.638  30.910  1.00  0.00     0.074 A 
ATOM     47  C   UNL A   1      41.629  31.395  36.619  1.00  0.00     0.029 A 
ATOM     48  N   UNL A   1      41.106  30.834  34.532  1.00  0.00    -0.354 N 
ATOM     49  N   UNL A   1      41.336  29.258  32.064  1.00  0.00    -0.248 NA
ATOM     50  C   UNL A   1      42.413  27.622  30.793  1.00  0.00     0.031 C 
ATOM     51  C   UNL A   1      42.493  30.375  36.205  1.00  0.00     0.029 A 
ATOM     52  C   UNL A   1      42.155  30.013  34.911  1.00  0.00     0.049 A 
ATOM     53  H   UNL A   1      40.658  30.810  33.655  1.00  0.00     0.167 HD
ATOM     54  C   UNL A   1      42.353  28.692  32.820  1.00  0.00     0.074 A 
ATOM     55  C   UNL A   1      42.965  27.669  31.997  1.00  0.00     0.031 C 
ATOM     56  C   UNL A   1      42.744  28.993  34.082  1.00  0.00     0.037 A 
BRANCH  43  57
ATOM     57  C   UNL A   1      39.567  33.607  36.686  1.00  0.00     0.064 A 
ATOM     58  C   UNL A   1      38.750  33.257  37.771  1.00  0.00     0.173 A 
ATOM     59  C   UNL A   1      40.246  34.834  36.744  1.00  0.00     0.173 A 
ATOM     60  F   UNL A   1      38.070  32.100  37.758  1.00  0.00    -0.203 F 
ATOM     61  C   UNL A   1      38.594  34.114  38.857  1.00  0.00     0.198 A 
ATOM     62  C   UNL A   1      40.111  35.676  37.844  1.00  0.00     0.198 A 
ATOM     63  F   UNL A   1      41.044  35.214  35.736  1.00  0.00    -0.203 F 
ATOM     64  F   UNL A   1      37.769  33.781  39.858  1.00  0.00    -0.200 F 
ATOM     65  C   UNL A   1      39.279  35.319  38.895  1.00  0.00     0.200 A 
ATOM     66  F   UNL A   1      40.782  36.835  37.886  1.00  0.00    -0.200 F 
ATOM     67  F   UNL A   1      39.131  36.141  39.944  1.00  0.00    -0.200 F 
ENDBRANCH  43  57
BRANCH  44  68
ATOM     68  C   UNL A   1      40.653  28.017  28.485  1.00  0.00     0.064 A 
ATOM     69  C   UNL A   1      41.455  28.487  27.436  1.00  0.00     0.173 A 
ATOM     70  C   UNL A   1      40.046  26.762  28.331  1.00  0.00     0.173 A 
ATOM     71  F   UNL A   1      42.040  29.690  27.529  1.00  0.00    -0.203 F 
ATOM     72  C   UNL A   1      41.628  27.741  26.272  1.00  0.00     0.198 A 
ATOM     73  C   UNL A   1      40.239  26.006  27.176  1.00  0.00     0.198 A 
ATOM     74  F   UNL A   1      39.274  26.265  29.309  1.00  0.00    -0.203 F 
ATOM     75  F   UNL A   1      42.366  28.233  25.268  1.00  0.00    -0.200 F 
ATOM     76  C   UNL A   1      41.024  26.499  26.145  1.00  0.00     0.200 A 
ATOM     77  F   UNL A   1      39.665  24.800  27.064  1.00  0.00    -0.200 F 
ATOM     78  F   UNL A   1      41.194  25.781  25.027  1.00  0.00    -0.200 F 
ENDBRANCH  44  68
BRANCH  56  79
ATOM     79  C   UNL A   1      43.865  28.185  34.664  1.00  0.00     0.064 A 
ATOM     80  C   UNL A   1      43.631  26.964  35.314  1.00  0.00     0.173 A 
ATOM     81  C   UNL A   1      45.194  28.617  34.531  1.00  0.00     0.173 A 
ATOM     82  F   UNL A   1      42.376  26.517  35.479  1.00  0.00    -0.203 F 
ATOM     83  C   UNL A   1      44.686  26.214  35.826  1.00  0.00     0.198 A 
ATOM     84  C   UNL A   1      46.248  27.850  35.020  1.00  0.00     0.198 A 
ATOM     85  F   UNL A   1      45.470  29.775  33.913  1.00  0.00    -0.203 F 
ATOM     86  F   UNL A   1      44.437  25.069  36.478  1.00  0.00    -0.200 F 
ATOM     87  C   UNL A   1      45.992  26.653  35.673  1.00  0.00     0.200 A 
ATOM     88  F   UNL A   1      47.510  28.270  34.861  1.00  0.00    -0.200 F 
ATOM     89  F   UNL A   1      47.007  25.925  36.159  1.00  0.00    -0.200 F 
ENDBRANCH  56  79
ENDBRANCH  30  31
ENDBRANCH  22  25
ENDBRANCH  20  21
ENDBRANCH   1  20
TORSDOF 12
ENDMDL
