MODEL 1
REMARK VINA RESULT:     -13.3      0.000      0.000
REMARK SMILES C[C@@H](C(=O)NCCCCNC(=O)c1ccc(-c2c3nc(c(-c4c(F)c(F)c(F)c(F)c4F)c4ccc([nH]4)c(-c4c(F)c(F)c(F)c(F)c4F)c4nc(c(-c5c(F)c(F)c(F)c(F)c5F)c5ccc2[nH]5)C=C4)C=C3)cc1)c1ccc2c3cc(Cl)ccc3n(C(=O)c3cocn3)c2c1
REMARK SMILES IDX 7 1 6 2 5 3 3 4 4 5 2 7 1 8 76 9 77 10 96 11 78 12 95 13
REMARK SMILES IDX 79 14 87 15 80 16 86 17 81 18 85 19 82 20 84 21 83 22 88 23
REMARK SMILES IDX 89 24 90 25 91 26 94 27 92 28 93 29 8 30 9 31 10 32 11 33
REMARK SMILES IDX 12 35 13 36 14 37 75 38 15 39 74 40 16 41 17 42 18 43 68 44
REMARK SMILES IDX 19 45 73 46 67 47 69 48 20 49 72 50 66 51 65 52 21 54 53 55
REMARK SMILES IDX 33 56 52 57 34 58 37 59 51 60 70 61 35 62 36 63 50 65 71 66
REMARK SMILES IDX 38 67 22 68 23 69 31 70 24 71 25 72 29 73 32 74 26 75 27 76
REMARK SMILES IDX 30 77 28 78 54 79 55 80 63 81 56 82 57 83 61 84 64 85 58 86
REMARK SMILES IDX 59 87 62 88 60 89 39 90 40 91 48 92 41 93 42 94 46 95 49 96
REMARK SMILES IDX 43 97 44 98 47 99 45 100
REMARK H PARENT 5 6 10 34 69 53 37 64
REMARK Flexibility Score: inf
ROOT
ATOM      1  C   UNL A   1      31.458  30.555  25.748  1.00  0.00     0.023 C 
ENDROOT
BRANCH   1   2
ATOM      2  C   UNL A   1      32.601  29.566  26.000  1.00  0.00     0.116 C 
BRANCH   2   3
ATOM      3  N   UNL A   1      32.100  28.374  26.651  1.00  0.00    -0.356 N 
ATOM      4  C   UNL A   1      31.408  27.331  26.101  1.00  0.00     0.227 C 
ATOM      5  O   UNL A   1      30.679  26.694  26.863  1.00  0.00    -0.274 OA
ATOM      6  H   UNL A   1      32.282  28.304  27.616  1.00  0.00     0.163 HD
BRANCH   4   7
ATOM      7  C   UNL A   1      31.550  27.026  24.597  1.00  0.00     0.105 C 
ATOM      8  C   UNL A   1      30.281  27.548  23.908  1.00  0.00     0.023 C 
BRANCH   7   9
ATOM      9  C   UNL A   1      31.831  25.554  24.255  1.00  0.00    -0.034 A 
ATOM     10  C   UNL A   1      31.076  24.894  23.276  1.00  0.00     0.005 A 
ATOM     11  C   UNL A   1      32.871  24.839  24.876  1.00  0.00     0.032 A 
ATOM     12  C   UNL A   1      31.277  23.541  22.983  1.00  0.00     0.011 A 
ATOM     13  C   UNL A   1      33.031  23.455  24.637  1.00  0.00     0.058 A 
ATOM     14  C   UNL A   1      32.248  22.806  23.689  1.00  0.00     0.008 A 
ATOM     15  N   UNL A   1      33.909  22.514  25.205  1.00  0.00    -0.274 N 
ATOM     16  C   UNL A   1      32.624  21.437  23.680  1.00  0.00     0.009 A 
ATOM     17  C   UNL A   1      33.597  21.251  24.669  1.00  0.00     0.057 A 
ATOM     18  C   UNL A   1      32.152  20.328  22.942  1.00  0.00     0.031 A 
ATOM     19  C   UNL A   1      34.029  19.949  25.000  1.00  0.00     0.029 A 
ATOM     20  C   UNL A   1      32.630  19.054  23.235  1.00  0.00     0.041 A 
ATOM     21  C   UNL A   1      33.545  18.863  24.260  1.00  0.00     0.023 A 
ATOM     22  Cl  UNL A   1      32.045  17.703  22.345  1.00  0.00    -0.084 Cl
BRANCH  15  23
ATOM     23  C   UNL A   1      34.894  22.817  26.190  1.00  0.00     0.284 C 
ATOM     24  O   UNL A   1      34.476  23.198  27.283  1.00  0.00    -0.266 OA
BRANCH  23  25
ATOM     25  C   UNL A   1      36.336  22.745  25.978  1.00  0.00     0.167 A 
ATOM     26  C   UNL A   1      37.274  23.750  26.081  1.00  0.00     0.231 A 
ATOM     27  N   UNL A   1      36.999  21.548  25.751  1.00  0.00    -0.211 NA
ATOM     28  O   UNL A   1      38.511  23.208  25.894  1.00  0.00    -0.451 OA
ATOM     29  C   UNL A   1      38.267  21.882  25.718  1.00  0.00     0.308 A 
ENDBRANCH  23  25
ENDBRANCH  15  23
ENDBRANCH   7   9
ENDBRANCH   4   7
ENDBRANCH   2   3
ENDBRANCH   1   2
BRANCH   1  30
ATOM     30  C   UNL A   1      31.359  31.700  26.761  1.00  0.00     0.023 C 
BRANCH  30  31
ATOM     31  C   UNL A   1      32.660  32.444  27.030  1.00  0.00     0.116 C 
BRANCH  31  32
ATOM     32  N   UNL A   1      32.445  33.811  27.476  1.00  0.00    -0.352 N 
ATOM     33  C   UNL A   1      33.107  34.536  28.432  1.00  0.00     0.251 C 
ATOM     34  H   UNL A   1      31.713  34.287  27.022  1.00  0.00     0.163 HD
ATOM     35  O   UNL A   1      32.688  35.645  28.751  1.00  0.00    -0.269 OA
BRANCH  33  36
ATOM     36  C   UNL A   1      34.299  33.979  29.106  1.00  0.00     0.039 A 
ATOM     37  C   UNL A   1      34.107  33.010  30.095  1.00  0.00     0.014 A 
ATOM     38  C   UNL A   1      35.590  34.414  28.792  1.00  0.00     0.014 A 
ATOM     39  C   UNL A   1      35.209  32.438  30.729  1.00  0.00     0.010 A 
ATOM     40  C   UNL A   1      36.693  33.798  29.380  1.00  0.00     0.010 A 
ATOM     41  C   UNL A   1      36.512  32.806  30.356  1.00  0.00    -0.014 A 
BRANCH  41  42
ATOM     42  C   UNL A   1      37.686  32.148  30.978  1.00  0.00     0.031 A 
ATOM     43  C   UNL A   1      38.138  32.538  32.356  1.00  0.00     0.074 A 
ATOM     44  C   UNL A   1      38.365  31.218  30.280  1.00  0.00     0.049 A 
ATOM     45  N   UNL A   1      39.135  32.069  33.063  1.00  0.00    -0.248 NA
ATOM     46  C   UNL A   1      37.383  33.611  33.023  1.00  0.00     0.031 C 
ATOM     47  C   UNL A   1      38.061  30.804  28.909  1.00  0.00     0.029 A 
ATOM     48  N   UNL A   1      39.449  30.455  30.626  1.00  0.00    -0.354 N 
ATOM     49  C   UNL A   1      39.130  32.789  34.249  1.00  0.00     0.074 A 
ATOM     50  C   UNL A   1      38.063  33.762  34.150  1.00  0.00     0.031 C 
ATOM     51  C   UNL A   1      38.927  29.846  28.538  1.00  0.00     0.029 A 
ATOM     52  C   UNL A   1      39.853  29.593  29.637  1.00  0.00     0.049 A 
ATOM     53  H   UNL A   1      39.897  30.519  31.501  1.00  0.00     0.167 HD
ATOM     54  C   UNL A   1      39.927  32.632  35.334  1.00  0.00     0.037 A 
ATOM     55  C   UNL A   1      40.854  28.693  29.623  1.00  0.00     0.037 A 
ATOM     56  C   UNL A   1      40.975  31.652  35.438  1.00  0.00     0.049 A 
ATOM     57  C   UNL A   1      41.697  28.516  30.855  1.00  0.00     0.074 A 
ATOM     58  C   UNL A   1      41.811  31.391  36.509  1.00  0.00     0.029 A 
ATOM     59  N   UNL A   1      41.328  30.767  34.430  1.00  0.00    -0.354 N 
ATOM     60  N   UNL A   1      41.639  29.157  31.996  1.00  0.00    -0.248 NA
ATOM     61  C   UNL A   1      42.734  27.476  30.801  1.00  0.00     0.031 C 
ATOM     62  C   UNL A   1      42.689  30.365  36.141  1.00  0.00     0.029 A 
ATOM     63  C   UNL A   1      42.375  29.963  34.852  1.00  0.00     0.049 A 
ATOM     64  H   UNL A   1      40.899  30.718  33.546  1.00  0.00     0.167 HD
ATOM     65  C   UNL A   1      42.619  28.592  32.800  1.00  0.00     0.074 A 
ATOM     66  C   UNL A   1      43.238  27.536  32.025  1.00  0.00     0.031 C 
ATOM     67  C   UNL A   1      42.978  28.921  34.065  1.00  0.00     0.037 A 
BRANCH  54  68
ATOM     68  C   UNL A   1      39.679  33.533  36.507  1.00  0.00     0.064 A 
ATOM     69  C   UNL A   1      40.279  34.798  36.593  1.00  0.00     0.173 A 
ATOM     70  C   UNL A   1      38.804  33.150  37.534  1.00  0.00     0.173 A 
ATOM     71  F   UNL A   1      41.134  35.206  35.642  1.00  0.00    -0.203 F 
ATOM     72  C   UNL A   1      40.027  35.639  37.673  1.00  0.00     0.198 A 
ATOM     73  C   UNL A   1      38.536  34.002  38.601  1.00  0.00     0.198 A 
ATOM     74  F   UNL A   1      38.204  31.951  37.498  1.00  0.00    -0.203 F 
ATOM     75  F   UNL A   1      40.642  36.828  37.753  1.00  0.00    -0.200 F 
ATOM     76  C   UNL A   1      39.151  35.243  38.673  1.00  0.00     0.200 A 
ATOM     77  F   UNL A   1      37.682  33.624  39.561  1.00  0.00    -0.200 F 
ATOM     78  F   UNL A   1      38.904  36.058  39.709  1.00  0.00    -0.200 F 
ENDBRANCH  54  68
BRANCH  55  79
ATOM     79  C   UNL A   1      41.089  27.866  28.413  1.00  0.00     0.064 A 
ATOM     80  C   UNL A   1      41.798  28.379  27.318  1.00  0.00     0.173 A 
ATOM     81  C   UNL A   1      40.607  26.553  28.324  1.00  0.00     0.173 A 
ATOM     82  F   UNL A   1      42.261  29.637  27.351  1.00  0.00    -0.203 F 
ATOM     83  C   UNL A   1      41.998  27.616  26.169  1.00  0.00     0.198 A 
ATOM     84  C   UNL A   1      40.827  25.782  27.185  1.00  0.00     0.198 A 
ATOM     85  F   UNL A   1      39.928  26.016  29.348  1.00  0.00    -0.203 F 
ATOM     86  F   UNL A   1      42.640  28.146  25.120  1.00  0.00    -0.200 F 
ATOM     87  C   UNL A   1      41.516  26.317  26.105  1.00  0.00     0.200 A 
ATOM     88  F   UNL A   1      40.371  24.524  27.130  1.00  0.00    -0.200 F 
ATOM     89  F   UNL A   1      41.707  25.584  25.001  1.00  0.00    -0.200 F 
ENDBRANCH  55  79
BRANCH  67  90
ATOM     90  C   UNL A   1      44.084  28.120  34.685  1.00  0.00     0.064 A 
ATOM     91  C   UNL A   1      43.816  26.976  35.451  1.00  0.00     0.173 A 
ATOM     92  C   UNL A   1      45.424  28.493  34.501  1.00  0.00     0.173 A 
ATOM     93  F   UNL A   1      42.551  26.590  35.667  1.00  0.00    -0.203 F 
ATOM     94  C   UNL A   1      44.850  26.250  36.035  1.00  0.00     0.198 A 
ATOM     95  C   UNL A   1      46.456  27.750  35.066  1.00  0.00     0.198 A 
ATOM     96  F   UNL A   1      45.729  29.577  33.773  1.00  0.00    -0.203 F 
ATOM     97  F   UNL A   1      44.570  25.188  36.804  1.00  0.00    -0.200 F 
ATOM     98  C   UNL A   1      46.169  26.635  35.838  1.00  0.00     0.200 A 
ATOM     99  F   UNL A   1      47.729  28.118  34.869  1.00  0.00    -0.200 F 
ATOM    100  F   UNL A   1      47.163  25.936  36.404  1.00  0.00    -0.200 F 
ENDBRANCH  67  90
ENDBRANCH  41  42
ENDBRANCH  33  36
ENDBRANCH  31  32
ENDBRANCH  30  31
ENDBRANCH   1  30
TORSDOF 14
ENDMDL
MODEL 2
REMARK VINA RESULT:     -13.1      2.180      3.346
REMARK SMILES C[C@@H](C(=O)NCCCCNC(=O)c1ccc(-c2c3nc(c(-c4c(F)c(F)c(F)c(F)c4F)c4ccc([nH]4)c(-c4c(F)c(F)c(F)c(F)c4F)c4nc(c(-c5c(F)c(F)c(F)c(F)c5F)c5ccc2[nH]5)C=C4)C=C3)cc1)c1ccc2c3cc(Cl)ccc3n(C(=O)c3cocn3)c2c1
REMARK SMILES IDX 7 1 6 2 5 3 3 4 4 5 2 7 1 8 76 9 77 10 96 11 78 12 95 13
REMARK SMILES IDX 79 14 87 15 80 16 86 17 81 18 85 19 82 20 84 21 83 22 88 23
REMARK SMILES IDX 89 24 90 25 91 26 94 27 92 28 93 29 8 30 9 31 10 32 11 33
REMARK SMILES IDX 12 35 13 36 14 37 75 38 15 39 74 40 16 41 17 42 18 43 68 44
REMARK SMILES IDX 19 45 73 46 67 47 69 48 20 49 72 50 66 51 65 52 21 54 53 55
REMARK SMILES IDX 33 56 52 57 34 58 37 59 51 60 70 61 35 62 36 63 50 65 71 66
REMARK SMILES IDX 38 67 22 68 23 69 31 70 24 71 25 72 29 73 32 74 26 75 27 76
REMARK SMILES IDX 30 77 28 78 54 79 55 80 63 81 56 82 57 83 61 84 64 85 58 86
REMARK SMILES IDX 59 87 62 88 60 89 39 90 40 91 48 92 41 93 42 94 46 95 49 96
REMARK SMILES IDX 43 97 44 98 47 99 45 100
REMARK H PARENT 5 6 10 34 69 53 37 64
REMARK Flexibility Score: inf
ROOT
ATOM      1  C   UNL A   1      31.771  29.024  23.920  1.00  0.00     0.023 C 
ENDROOT
BRANCH   1   2
ATOM      2  C   UNL A   1      30.644  27.990  24.003  1.00  0.00     0.116 C 
BRANCH   2   3
ATOM      3  N   UNL A   1      30.754  27.222  25.225  1.00  0.00    -0.356 N 
ATOM      4  C   UNL A   1      30.905  25.872  25.371  1.00  0.00     0.227 C 
ATOM      5  O   UNL A   1      30.500  25.385  26.428  1.00  0.00    -0.274 OA
ATOM      6  H   UNL A   1      30.715  27.741  26.061  1.00  0.00     0.163 HD
BRANCH   4   7
ATOM      7  C   UNL A   1      31.536  25.044  24.234  1.00  0.00     0.105 C 
ATOM      8  C   UNL A   1      30.443  24.110  23.695  1.00  0.00     0.023 C 
BRANCH   7   9
ATOM      9  C   UNL A   1      32.815  24.281  24.615  1.00  0.00    -0.034 A 
ATOM     10  C   UNL A   1      33.934  24.967  25.103  1.00  0.00     0.005 A 
ATOM     11  C   UNL A   1      32.890  22.879  24.527  1.00  0.00     0.032 A 
ATOM     12  C   UNL A   1      35.127  24.302  25.409  1.00  0.00     0.011 A 
ATOM     13  C   UNL A   1      34.113  22.211  24.764  1.00  0.00     0.058 A 
ATOM     14  C   UNL A   1      35.226  22.912  25.212  1.00  0.00     0.008 A 
ATOM     15  N   UNL A   1      34.464  20.855  24.640  1.00  0.00    -0.274 N 
ATOM     16  C   UNL A   1      36.295  21.988  25.348  1.00  0.00     0.009 A 
ATOM     17  C   UNL A   1      35.837  20.735  24.923  1.00  0.00     0.057 A 
ATOM     18  C   UNL A   1      37.643  22.146  25.740  1.00  0.00     0.031 A 
ATOM     19  C   UNL A   1      36.742  19.661  24.786  1.00  0.00     0.029 A 
ATOM     20  C   UNL A   1      38.514  21.064  25.660  1.00  0.00     0.041 A 
ATOM     21  C   UNL A   1      38.075  19.840  25.175  1.00  0.00     0.023 A 
ATOM     22  Cl  UNL A   1      40.159  21.261  26.125  1.00  0.00    -0.084 Cl
BRANCH  15  23
ATOM     23  C   UNL A   1      33.569  19.820  24.241  1.00  0.00     0.284 C 
ATOM     24  O   UNL A   1      32.676  20.140  23.457  1.00  0.00    -0.266 OA
BRANCH  23  25
ATOM     25  C   UNL A   1      33.617  18.443  24.722  1.00  0.00     0.167 A 
ATOM     26  C   UNL A   1      32.905  17.863  25.750  1.00  0.00     0.231 A 
ATOM     27  N   UNL A   1      34.347  17.452  24.081  1.00  0.00    -0.211 NA
ATOM     28  O   UNL A   1      33.197  16.531  25.782  1.00  0.00    -0.451 OA
ATOM     29  C   UNL A   1      34.056  16.357  24.741  1.00  0.00     0.308 A 
ENDBRANCH  23  25
ENDBRANCH  15  23
ENDBRANCH   7   9
ENDBRANCH   4   7
ENDBRANCH   2   3
ENDBRANCH   1   2
BRANCH   1  30
ATOM     30  C   UNL A   1      33.171  28.480  24.224  1.00  0.00     0.023 C 
BRANCH  30  31
ATOM     31  C   UNL A   1      33.850  29.080  25.448  1.00  0.00     0.116 C 
BRANCH  31  32
ATOM     32  N   UNL A   1      33.214  30.307  25.899  1.00  0.00    -0.352 N 
ATOM     33  C   UNL A   1      33.520  31.114  26.964  1.00  0.00     0.251 C 
ATOM     34  H   UNL A   1      32.447  30.602  25.358  1.00  0.00     0.163 HD
ATOM     35  O   UNL A   1      32.778  32.048  27.251  1.00  0.00    -0.269 OA
BRANCH  33  36
ATOM     36  C   UNL A   1      34.717  30.847  27.788  1.00  0.00     0.039 A 
ATOM     37  C   UNL A   1      34.790  29.632  28.477  1.00  0.00     0.014 A 
ATOM     38  C   UNL A   1      35.751  31.781  27.907  1.00  0.00     0.014 A 
ATOM     39  C   UNL A   1      35.918  29.331  29.238  1.00  0.00     0.010 A 
ATOM     40  C   UNL A   1      36.906  31.455  28.615  1.00  0.00     0.010 A 
ATOM     41  C   UNL A   1      36.999  30.228  29.289  1.00  0.00    -0.014 A 
BRANCH  41  42
ATOM     42  C   UNL A   1      38.229  29.880  30.040  1.00  0.00     0.031 A 
ATOM     43  C   UNL A   1      38.451  30.406  31.428  1.00  0.00     0.074 A 
ATOM     44  C   UNL A   1      39.163  29.111  29.449  1.00  0.00     0.049 A 
ATOM     45  N   UNL A   1      39.460  30.204  32.238  1.00  0.00    -0.248 NA
ATOM     46  C   UNL A   1      37.413  31.296  31.974  1.00  0.00     0.031 C 
ATOM     47  C   UNL A   1      39.090  28.595  28.081  1.00  0.00     0.029 A 
ATOM     48  N   UNL A   1      40.356  28.631  29.923  1.00  0.00    -0.354 N 
ATOM     49  C   UNL A   1      39.181  30.939  33.381  1.00  0.00     0.074 A 
ATOM     50  C   UNL A   1      37.935  31.635  33.144  1.00  0.00     0.031 C 
ATOM     51  C   UNL A   1      40.182  27.853  27.833  1.00  0.00     0.029 A 
ATOM     52  C   UNL A   1      41.035  27.855  29.016  1.00  0.00     0.049 A 
ATOM     53  H   UNL A   1      40.695  28.824  30.827  1.00  0.00     0.167 HD
ATOM     54  C   UNL A   1      39.888  31.006  34.535  1.00  0.00     0.037 A 
ATOM     55  C   UNL A   1      42.212  27.211  29.131  1.00  0.00     0.037 A 
ATOM     56  C   UNL A   1      41.119  30.299  34.776  1.00  0.00     0.049 A 
ATOM     57  C   UNL A   1      42.956  27.273  30.436  1.00  0.00     0.074 A 
ATOM     58  C   UNL A   1      41.890  30.272  35.924  1.00  0.00     0.029 A 
ATOM     59  N   UNL A   1      41.756  29.489  33.847  1.00  0.00    -0.354 N 
ATOM     60  N   UNL A   1      42.649  27.918  31.534  1.00  0.00    -0.248 NA
ATOM     61  C   UNL A   1      44.203  26.500  30.522  1.00  0.00     0.031 C 
ATOM     62  C   UNL A   1      43.008  29.466  35.683  1.00  0.00     0.029 A 
ATOM     63  C   UNL A   1      42.915  28.962  34.395  1.00  0.00     0.049 A 
ATOM     64  H   UNL A   1      41.432  29.314  32.934  1.00  0.00     0.167 HD
ATOM     65  C   UNL A   1      43.653  27.621  32.444  1.00  0.00     0.074 A 
ATOM     66  C   UNL A   1      44.565  26.714  31.779  1.00  0.00     0.031 C 
ATOM     67  C   UNL A   1      43.810  28.064  33.716  1.00  0.00     0.037 A 
BRANCH  54  68
ATOM     68  C   UNL A   1      39.335  31.861  35.635  1.00  0.00     0.064 A 
ATOM     69  C   UNL A   1      38.431  31.344  36.574  1.00  0.00     0.173 A 
ATOM     70  C   UNL A   1      39.741  33.196  35.779  1.00  0.00     0.173 A 
ATOM     71  F   UNL A   1      38.002  30.077  36.472  1.00  0.00    -0.203 F 
ATOM     72  C   UNL A   1      37.939  32.137  37.607  1.00  0.00     0.198 A 
ATOM     73  C   UNL A   1      39.265  33.980  36.827  1.00  0.00     0.198 A 
ATOM     74  F   UNL A   1      40.605  33.738  34.908  1.00  0.00    -0.203 F 
ATOM     75  F   UNL A   1      37.046  31.632  38.471  1.00  0.00    -0.200 F 
ATOM     76  C   UNL A   1      38.361  33.452  37.736  1.00  0.00     0.200 A 
ATOM     77  F   UNL A   1      39.681  35.247  36.957  1.00  0.00    -0.200 F 
ATOM     78  F   UNL A   1      37.892  34.211  38.736  1.00  0.00    -0.200 F 
ENDBRANCH  54  68
BRANCH  55  79
ATOM     79  C   UNL A   1      42.740  26.424  27.989  1.00  0.00     0.064 A 
ATOM     80  C   UNL A   1      43.558  27.022  27.021  1.00  0.00     0.173 A 
ATOM     81  C   UNL A   1      42.435  25.064  27.840  1.00  0.00     0.173 A 
ATOM     82  F   UNL A   1      43.860  28.324  27.112  1.00  0.00    -0.203 F 
ATOM     83  C   UNL A   1      44.033  26.293  25.932  1.00  0.00     0.198 A 
ATOM     84  C   UNL A   1      42.930  24.330  26.765  1.00  0.00     0.198 A 
ATOM     85  F   UNL A   1      41.661  24.446  28.745  1.00  0.00    -0.203 F 
ATOM     86  F   UNL A   1      44.776  26.899  24.997  1.00  0.00    -0.200 F 
ATOM     87  C   UNL A   1      43.722  24.947  25.807  1.00  0.00     0.200 A 
ATOM     88  F   UNL A   1      42.638  23.028  26.653  1.00  0.00    -0.200 F 
ATOM     89  F   UNL A   1      44.178  24.247  24.761  1.00  0.00    -0.200 F 
ENDBRANCH  55  79
BRANCH  67  90
ATOM     90  C   UNL A   1      45.006  27.561  34.466  1.00  0.00     0.064 A 
ATOM     91  C   UNL A   1      44.954  26.377  35.216  1.00  0.00     0.173 A 
ATOM     92  C   UNL A   1      46.220  28.262  34.423  1.00  0.00     0.173 A 
ATOM     93  F   UNL A   1      43.811  25.681  35.299  1.00  0.00    -0.203 F 
ATOM     94  C   UNL A   1      46.067  25.929  35.921  1.00  0.00     0.198 A 
ATOM     95  C   UNL A   1      47.338  27.797  35.109  1.00  0.00     0.198 A 
ATOM     96  F   UNL A   1      46.321  29.397  33.715  1.00  0.00    -0.203 F 
ATOM     97  F   UNL A   1      45.981  24.822  36.672  1.00  0.00    -0.200 F 
ATOM     98  C   UNL A   1      47.259  26.636  35.863  1.00  0.00     0.200 A 
ATOM     99  F   UNL A   1      48.492  28.477  35.046  1.00  0.00    -0.200 F 
ATOM    100  F   UNL A   1      48.329  26.204  36.545  1.00  0.00    -0.200 F 
ENDBRANCH  67  90
ENDBRANCH  41  42
ENDBRANCH  33  36
ENDBRANCH  31  32
ENDBRANCH  30  31
ENDBRANCH   1  30
TORSDOF 14
ENDMDL
MODEL 3
REMARK VINA RESULT:     -12.8      4.478     10.289
REMARK SMILES C[C@@H](C(=O)NCCCCNC(=O)c1ccc(-c2c3nc(c(-c4c(F)c(F)c(F)c(F)c4F)c4ccc([nH]4)c(-c4c(F)c(F)c(F)c(F)c4F)c4nc(c(-c5c(F)c(F)c(F)c(F)c5F)c5ccc2[nH]5)C=C4)C=C3)cc1)c1ccc2c3cc(Cl)ccc3n(C(=O)c3cocn3)c2c1
REMARK SMILES IDX 7 1 6 2 5 3 3 4 4 5 2 7 1 8 76 9 77 10 96 11 78 12 95 13
REMARK SMILES IDX 79 14 87 15 80 16 86 17 81 18 85 19 82 20 84 21 83 22 88 23
REMARK SMILES IDX 89 24 90 25 91 26 94 27 92 28 93 29 8 30 9 31 10 32 11 33
REMARK SMILES IDX 12 35 13 36 14 37 75 38 15 39 74 40 16 41 17 42 18 43 68 44
REMARK SMILES IDX 19 45 73 46 67 47 69 48 20 49 72 50 66 51 65 52 21 54 53 55
REMARK SMILES IDX 33 56 52 57 34 58 37 59 51 60 70 61 35 62 36 63 50 65 71 66
REMARK SMILES IDX 38 67 22 68 23 69 31 70 24 71 25 72 29 73 32 74 26 75 27 76
REMARK SMILES IDX 30 77 28 78 54 79 55 80 63 81 56 82 57 83 61 84 64 85 58 86
REMARK SMILES IDX 59 87 62 88 60 89 39 90 40 91 48 92 41 93 42 94 46 95 49 96
REMARK SMILES IDX 43 97 44 98 47 99 45 100
REMARK H PARENT 5 6 10 34 69 53 37 64
REMARK Flexibility Score: inf
ROOT
ATOM      1  C   UNL A   1      36.394  23.573  25.708  1.00  0.00     0.023 C 
ENDROOT
BRANCH   1   2
ATOM      2  C   UNL A   1      34.910  23.949  25.786  1.00  0.00     0.116 C 
BRANCH   2   3
ATOM      3  N   UNL A   1      34.262  23.217  26.854  1.00  0.00    -0.356 N 
ATOM      4  C   UNL A   1      32.947  22.859  26.963  1.00  0.00     0.227 C 
ATOM      5  O   UNL A   1      32.518  22.692  28.106  1.00  0.00    -0.274 OA
ATOM      6  H   UNL A   1      34.843  22.940  27.598  1.00  0.00     0.163 HD
BRANCH   4   7
ATOM      7  C   UNL A   1      32.086  22.708  25.694  1.00  0.00     0.105 C 
ATOM      8  C   UNL A   1      32.957  22.015  24.636  1.00  0.00     0.023 C 
BRANCH   7   9
ATOM      9  C   UNL A   1      31.467  24.014  25.168  1.00  0.00    -0.034 A 
ATOM     10  C   UNL A   1      30.709  24.018  23.991  1.00  0.00     0.005 A 
ATOM     11  C   UNL A   1      31.604  25.228  25.867  1.00  0.00     0.032 A 
ATOM     12  C   UNL A   1      30.178  25.201  23.464  1.00  0.00     0.011 A 
ATOM     13  C   UNL A   1      31.134  26.435  25.303  1.00  0.00     0.058 A 
ATOM     14  C   UNL A   1      30.415  26.427  24.113  1.00  0.00     0.008 A 
ATOM     15  N   UNL A   1      31.243  27.766  25.745  1.00  0.00    -0.274 N 
ATOM     16  C   UNL A   1      30.090  27.772  23.793  1.00  0.00     0.009 A 
ATOM     17  C   UNL A   1      30.667  28.597  24.766  1.00  0.00     0.057 A 
ATOM     18  C   UNL A   1      29.400  28.349  22.704  1.00  0.00     0.031 A 
ATOM     19  C   UNL A   1      30.651  29.998  24.604  1.00  0.00     0.029 A 
ATOM     20  C   UNL A   1      29.337  29.734  22.586  1.00  0.00     0.041 A 
ATOM     21  C   UNL A   1      29.967  30.550  23.515  1.00  0.00     0.023 A 
ATOM     22  Cl  UNL A   1      28.508  30.435  21.251  1.00  0.00    -0.084 Cl
BRANCH  15  23
ATOM     23  C   UNL A   1      31.882  28.167  26.954  1.00  0.00     0.284 C 
ATOM     24  O   UNL A   1      31.335  27.828  28.002  1.00  0.00    -0.266 OA
BRANCH  23  25
ATOM     25  C   UNL A   1      33.096  28.974  27.029  1.00  0.00     0.167 A 
ATOM     26  C   UNL A   1      33.221  30.329  27.249  1.00  0.00     0.231 A 
ATOM     27  N   UNL A   1      34.367  28.415  27.006  1.00  0.00    -0.211 NA
ATOM     28  O   UNL A   1      34.547  30.633  27.336  1.00  0.00    -0.451 OA
ATOM     29  C   UNL A   1      35.171  29.433  27.196  1.00  0.00     0.308 A 
ENDBRANCH  23  25
ENDBRANCH  15  23
ENDBRANCH   7   9
ENDBRANCH   4   7
ENDBRANCH   2   3
ENDBRANCH   1   2
BRANCH   1  30
ATOM     30  C   UNL A   1      36.681  22.069  25.724  1.00  0.00     0.023 C 
BRANCH  30  31
ATOM     31  C   UNL A   1      37.947  21.641  24.994  1.00  0.00     0.116 C 
BRANCH  31  32
ATOM     32  N   UNL A   1      38.736  20.682  25.751  1.00  0.00    -0.352 N 
ATOM     33  C   UNL A   1      39.816  20.887  26.569  1.00  0.00     0.251 C 
ATOM     34  H   UNL A   1      38.450  19.745  25.662  1.00  0.00     0.163 HD
ATOM     35  O   UNL A   1      40.425  19.923  27.023  1.00  0.00    -0.269 OA
BRANCH  33  36
ATOM     36  C   UNL A   1      40.275  22.257  26.879  1.00  0.00     0.039 A 
ATOM     37  C   UNL A   1      41.158  22.433  27.949  1.00  0.00     0.014 A 
ATOM     38  C   UNL A   1      39.831  23.364  26.149  1.00  0.00     0.014 A 
ATOM     39  C   UNL A   1      41.638  23.707  28.251  1.00  0.00     0.010 A 
ATOM     40  C   UNL A   1      40.358  24.627  26.411  1.00  0.00     0.010 A 
ATOM     41  C   UNL A   1      41.265  24.810  27.465  1.00  0.00    -0.014 A 
BRANCH  41  42
ATOM     42  C   UNL A   1      41.828  26.153  27.740  1.00  0.00     0.031 A 
ATOM     43  C   UNL A   1      43.212  26.509  27.278  1.00  0.00     0.074 A 
ATOM     44  C   UNL A   1      41.097  27.042  28.440  1.00  0.00     0.049 A 
ATOM     45  N   UNL A   1      43.867  27.634  27.422  1.00  0.00    -0.248 NA
ATOM     46  C   UNL A   1      43.970  25.457  26.582  1.00  0.00     0.031 C 
ATOM     47  C   UNL A   1      39.768  26.788  28.998  1.00  0.00     0.029 A 
ATOM     48  N   UNL A   1      41.369  28.336  28.802  1.00  0.00    -0.354 N 
ATOM     49  C   UNL A   1      45.109  27.424  26.839  1.00  0.00     0.074 A 
ATOM     50  C   UNL A   1      45.138  26.050  26.385  1.00  0.00     0.031 C 
ATOM     51  C   UNL A   1      39.331  27.899  29.614  1.00  0.00     0.029 A 
ATOM     52  C   UNL A   1      40.355  28.933  29.508  1.00  0.00     0.049 A 
ATOM     53  H   UNL A   1      42.212  28.793  28.577  1.00  0.00     0.167 HD
ATOM     54  C   UNL A   1      46.123  28.308  26.673  1.00  0.00     0.037 A 
ATOM     55  C   UNL A   1      40.259  30.180  30.006  1.00  0.00     0.037 A 
ATOM     56  C   UNL A   1      46.086  29.679  27.109  1.00  0.00     0.049 A 
ATOM     57  C   UNL A   1      41.385  31.150  29.775  1.00  0.00     0.074 A 
ATOM     58  C   UNL A   1      47.047  30.662  26.955  1.00  0.00     0.029 A 
ATOM     59  N   UNL A   1      45.024  30.261  27.786  1.00  0.00    -0.354 N 
ATOM     60  N   UNL A   1      42.528  30.960  29.163  1.00  0.00    -0.248 NA
ATOM     61  C   UNL A   1      41.198  32.513  30.289  1.00  0.00     0.031 C 
ATOM     62  C   UNL A   1      46.578  31.833  27.560  1.00  0.00     0.029 A 
ATOM     63  C   UNL A   1      45.310  31.589  28.061  1.00  0.00     0.049 A 
ATOM     64  H   UNL A   1      44.191  29.799  28.033  1.00  0.00     0.167 HD
ATOM     65  C   UNL A   1      43.190  32.178  29.206  1.00  0.00     0.074 A 
ATOM     66  C   UNL A   1      42.308  33.109  29.879  1.00  0.00     0.031 C 
ATOM     67  C   UNL A   1      44.420  32.497  28.734  1.00  0.00     0.037 A 
BRANCH  54  68
ATOM     68  C   UNL A   1      47.355  27.820  25.971  1.00  0.00     0.064 A 
ATOM     69  C   UNL A   1      48.454  27.324  26.689  1.00  0.00     0.173 A 
ATOM     70  C   UNL A   1      47.426  27.809  24.571  1.00  0.00     0.173 A 
ATOM     71  F   UNL A   1      48.441  27.326  28.031  1.00  0.00    -0.203 F 
ATOM     72  C   UNL A   1      49.586  26.852  26.030  1.00  0.00     0.198 A 
ATOM     73  C   UNL A   1      48.549  27.314  23.915  1.00  0.00     0.198 A 
ATOM     74  F   UNL A   1      46.401  28.271  23.839  1.00  0.00    -0.203 F 
ATOM     75  F   UNL A   1      50.639  26.418  26.738  1.00  0.00    -0.200 F 
ATOM     76  C   UNL A   1      49.630  26.841  24.644  1.00  0.00     0.200 A 
ATOM     77  F   UNL A   1      48.588  27.294  22.576  1.00  0.00    -0.200 F 
ATOM     78  F   UNL A   1      50.718  26.378  24.012  1.00  0.00    -0.200 F 
ENDBRANCH  54  68
BRANCH  55  79
ATOM     79  C   UNL A   1      39.038  30.592  30.742  1.00  0.00     0.064 A 
ATOM     80  C   UNL A   1      38.979  30.507  32.140  1.00  0.00     0.173 A 
ATOM     81  C   UNL A   1      37.909  31.072  30.066  1.00  0.00     0.173 A 
ATOM     82  F   UNL A   1      40.029  30.036  32.827  1.00  0.00    -0.203 F 
ATOM     83  C   UNL A   1      37.824  30.867  32.833  1.00  0.00     0.198 A 
ATOM     84  C   UNL A   1      36.764  31.454  30.761  1.00  0.00     0.198 A 
ATOM     85  F   UNL A   1      37.920  31.176  28.729  1.00  0.00    -0.203 F 
ATOM     86  F   UNL A   1      37.777  30.734  34.165  1.00  0.00    -0.200 F 
ATOM     87  C   UNL A   1      36.719  31.343  32.144  1.00  0.00     0.200 A 
ATOM     88  F   UNL A   1      35.702  31.925  30.093  1.00  0.00    -0.200 F 
ATOM     89  F   UNL A   1      35.610  31.688  32.809  1.00  0.00    -0.200 F 
ENDBRANCH  55  79
BRANCH  67  90
ATOM     90  C   UNL A   1      44.872  33.914  28.925  1.00  0.00     0.064 A 
ATOM     91  C   UNL A   1      44.587  34.906  27.975  1.00  0.00     0.173 A 
ATOM     92  C   UNL A   1      45.586  34.286  30.074  1.00  0.00     0.173 A 
ATOM     93  F   UNL A   1      43.922  34.595  26.854  1.00  0.00    -0.203 F 
ATOM     94  C   UNL A   1      45.026  36.214  28.156  1.00  0.00     0.198 A 
ATOM     95  C   UNL A   1      46.001  35.600  30.263  1.00  0.00     0.198 A 
ATOM     96  F   UNL A   1      45.878  33.373  31.013  1.00  0.00    -0.203 F 
ATOM     97  F   UNL A   1      44.786  37.136  27.213  1.00  0.00    -0.200 F 
ATOM     98  C   UNL A   1      45.728  36.561  29.301  1.00  0.00     0.200 A 
ATOM     99  F   UNL A   1      46.673  35.936  31.373  1.00  0.00    -0.200 F 
ATOM    100  F   UNL A   1      46.153  37.821  29.471  1.00  0.00    -0.200 F 
ENDBRANCH  67  90
ENDBRANCH  41  42
ENDBRANCH  33  36
ENDBRANCH  31  32
ENDBRANCH  30  31
ENDBRANCH   1  30
TORSDOF 14
ENDMDL
