MODEL 1
REMARK VINA RESULT:     -12.1      0.000      0.000
REMARK SMILES CC[C@@H]1CCCN1C(=O)NCc1ccc(C(=O)NCCCCNC(=O)c2ccc(-c3c4nc(c(-c5c(F)c(F)c(F)c(F)c5F)c5ccc([nH]5)c(-c5c(F)c(F)c(F)c(F)c5F)c5nc(c(-c6c(F)c(F)c(F)c(F)c6F)c6ccc3[nH]6)C=C5)C=C4)cc2)o1
REMARK SMILES IDX 19 1 18 2 16 3 17 4 15 6 12 7 13 8 89 9 14 10 11 11 10 12
REMARK SMILES IDX 8 13 9 14 7 16 3 17 4 18 5 19 6 20 2 21 1 22 20 23 21 24
REMARK SMILES IDX 22 25 23 26 24 27 25 29 26 30 27 31 88 32 28 33 87 34 29 35
REMARK SMILES IDX 30 36 31 37 81 38 32 39 86 40 80 41 82 42 33 43 85 44 79 45
REMARK SMILES IDX 78 46 34 48 66 49 46 50 65 51 47 52 50 53 64 54 83 55 48 56
REMARK SMILES IDX 49 57 63 59 84 60 51 61 35 62 36 63 44 64 37 65 38 66 42 67
REMARK SMILES IDX 45 68 39 69 40 70 43 71 41 72 67 73 68 74 76 75 69 76 70 77
REMARK SMILES IDX 74 78 77 79 71 80 72 81 75 82 73 83 52 84 53 85 61 86 54 87
REMARK SMILES IDX 55 88 59 89 62 90 56 91 57 92 60 93 58 94
REMARK H PARENT 18 5 10 15 23 28 82 47 50 58
REMARK Flexibility Score: inf
ROOT
ATOM      1  C   UNL A   1      32.526  29.573  25.314  1.00  0.00     0.116 C 
ENDROOT
BRANCH   1   2
ATOM      2  N   UNL A   1      31.407  30.003  24.509  1.00  0.00    -0.349 N 
ATOM      3  C   UNL A   1      30.479  29.274  23.799  1.00  0.00     0.286 C 
ATOM      4  O   UNL A   1      29.576  29.936  23.279  1.00  0.00    -0.266 OA
ATOM      5  H   UNL A   1      31.286  30.979  24.460  1.00  0.00     0.163 HD
BRANCH   3   6
ATOM      6  C   UNL A   1      30.570  27.829  23.675  1.00  0.00     0.191 A 
ATOM      7  C   UNL A   1      31.511  25.991  22.851  1.00  0.00     0.124 A 
ATOM      8  C   UNL A   1      30.542  25.573  23.736  1.00  0.00     0.048 A 
ATOM      9  O   UNL A   1      31.546  27.353  22.830  1.00  0.00    -0.454 OA
ATOM     10  C   UNL A   1      29.913  26.742  24.224  1.00  0.00     0.056 A 
BRANCH   7  11
ATOM     11  C   UNL A   1      32.443  25.302  21.924  1.00  0.00     0.193 C 
BRANCH  11  12
ATOM     12  N   UNL A   1      32.485  23.890  22.184  1.00  0.00    -0.331 N 
ATOM     13  C   UNL A   1      33.075  23.012  22.981  1.00  0.00     0.318 C 
ATOM     14  O   UNL A   1      32.667  21.857  22.774  1.00  0.00    -0.249 OA
ATOM     15  H   UNL A   1      31.878  23.421  21.566  1.00  0.00     0.165 HD
BRANCH  13  16
ATOM     16  N   UNL A   1      34.047  23.235  23.901  1.00  0.00    -0.322 N 
ATOM     17  C   UNL A   1      34.210  23.650  25.316  1.00  0.00     0.086 C 
ATOM     18  C   UNL A   1      35.591  24.332  25.253  1.00  0.00     0.027 C 
ATOM     19  C   UNL A   1      36.403  23.381  24.401  1.00  0.00     0.024 C 
ATOM     20  C   UNL A   1      35.381  22.840  23.417  1.00  0.00     0.122 C 
BRANCH  17  21
ATOM     21  C   UNL A   1      33.262  24.576  26.069  1.00  0.00     0.022 C 
ATOM     22  C   UNL A   1      33.568  26.054  25.841  1.00  0.00     0.006 C 
ENDBRANCH  17  21
ENDBRANCH  13  16
ENDBRANCH  11  12
ENDBRANCH   7  11
ENDBRANCH   3   6
ENDBRANCH   1   2
BRANCH   1  23
ATOM     23  C   UNL A   1      32.388  30.030  26.765  1.00  0.00     0.023 C 
BRANCH  23  24
ATOM     24  C   UNL A   1      31.937  31.482  26.930  1.00  0.00     0.023 C 
BRANCH  24  25
ATOM     25  C   UNL A   1      32.990  32.430  27.493  1.00  0.00     0.116 C 
BRANCH  25  26
ATOM     26  N   UNL A   1      32.524  33.803  27.637  1.00  0.00    -0.352 N 
ATOM     27  C   UNL A   1      33.019  34.787  28.462  1.00  0.00     0.251 C 
ATOM     28  H   UNL A   1      31.759  34.058  27.073  1.00  0.00     0.163 HD
ATOM     29  O   UNL A   1      32.473  35.876  28.544  1.00  0.00    -0.269 OA
BRANCH  27  30
ATOM     30  C   UNL A   1      34.201  34.474  29.288  1.00  0.00     0.039 A 
ATOM     31  C   UNL A   1      34.008  33.932  30.558  1.00  0.00     0.014 A 
ATOM     32  C   UNL A   1      35.485  34.614  28.754  1.00  0.00     0.014 A 
ATOM     33  C   UNL A   1      35.105  33.434  31.261  1.00  0.00     0.010 A 
ATOM     34  C   UNL A   1      36.565  34.053  29.425  1.00  0.00     0.010 A 
ATOM     35  C   UNL A   1      36.382  33.439  30.674  1.00  0.00    -0.014 A 
BRANCH  35  36
ATOM     36  C   UNL A   1      37.527  32.756  31.323  1.00  0.00     0.031 A 
ATOM     37  C   UNL A   1      38.189  31.588  30.653  1.00  0.00     0.074 A 
ATOM     38  C   UNL A   1      37.910  33.138  32.557  1.00  0.00     0.049 A 
ATOM     39  N   UNL A   1      39.144  30.812  31.098  1.00  0.00    -0.248 NA
ATOM     40  C   UNL A   1      37.694  31.227  29.315  1.00  0.00     0.031 C 
ATOM     41  C   UNL A   1      37.307  34.225  33.332  1.00  0.00     0.029 A 
ATOM     42  N   UNL A   1      38.888  32.647  33.385  1.00  0.00    -0.354 N 
ATOM     43  C   UNL A   1      39.357  29.870  30.102  1.00  0.00     0.074 A 
ATOM     44  C   UNL A   1      38.397  30.135  29.052  1.00  0.00     0.031 C 
ATOM     45  C   UNL A   1      37.940  34.330  34.511  1.00  0.00     0.029 A 
ATOM     46  C   UNL A   1      38.962  33.293  34.595  1.00  0.00     0.049 A 
ATOM     47  H   UNL A   1      39.480  31.901  33.136  1.00  0.00     0.167 HD
ATOM     48  C   UNL A   1      40.289  28.887  30.059  1.00  0.00     0.037 A 
ATOM     49  C   UNL A   1      39.757  33.065  35.659  1.00  0.00     0.037 A 
ATOM     50  C   UNL A   1      41.252  28.639  31.098  1.00  0.00     0.049 A 
ATOM     51  C   UNL A   1      40.762  31.947  35.594  1.00  0.00     0.074 A 
ATOM     52  C   UNL A   1      42.280  27.714  31.119  1.00  0.00     0.029 A 
ATOM     53  N   UNL A   1      41.299  29.315  32.309  1.00  0.00    -0.354 N 
ATOM     54  N   UNL A   1      41.013  31.115  34.612  1.00  0.00    -0.248 NA
ATOM     55  C   UNL A   1      41.597  31.738  36.786  1.00  0.00     0.031 C 
ATOM     56  C   UNL A   1      42.914  27.793  32.362  1.00  0.00     0.029 A 
ATOM     57  C   UNL A   1      42.317  28.804  33.098  1.00  0.00     0.049 A 
ATOM     58  H   UNL A   1      40.697  30.051  32.570  1.00  0.00     0.167 HD
ATOM     59  C   UNL A   1      42.042  30.298  35.059  1.00  0.00     0.074 A 
ATOM     60  C   UNL A   1      42.386  30.749  36.390  1.00  0.00     0.031 C 
ATOM     61  C   UNL A   1      42.645  29.262  34.424  1.00  0.00     0.037 A 
BRANCH  48  62
ATOM     62  C   UNL A   1      40.314  28.006  28.844  1.00  0.00     0.064 A 
ATOM     63  C   UNL A   1      41.046  28.354  27.699  1.00  0.00     0.173 A 
ATOM     64  C   UNL A   1      39.633  26.780  28.839  1.00  0.00     0.173 A 
ATOM     65  F   UNL A   1      41.706  29.522  27.647  1.00  0.00    -0.203 F 
ATOM     66  C   UNL A   1      41.077  27.519  26.586  1.00  0.00     0.198 A 
ATOM     67  C   UNL A   1      39.691  25.933  27.735  1.00  0.00     0.198 A 
ATOM     68  F   UNL A   1      38.921  26.396  29.908  1.00  0.00    -0.203 F 
ATOM     69  F   UNL A   1      41.745  27.895  25.486  1.00  0.00    -0.200 F 
ATOM     70  C   UNL A   1      40.405  26.306  26.607  1.00  0.00     0.200 A 
ATOM     71  F   UNL A   1      39.052  24.755  27.763  1.00  0.00    -0.200 F 
ATOM     72  F   UNL A   1      40.443  25.498  25.538  1.00  0.00    -0.200 F 
ENDBRANCH  48  62
BRANCH  49  73
ATOM     73  C   UNL A   1      39.640  33.915  36.873  1.00  0.00     0.064 A 
ATOM     74  C   UNL A   1      38.854  33.509  37.962  1.00  0.00     0.173 A 
ATOM     75  C   UNL A   1      40.297  35.150  36.970  1.00  0.00     0.173 A 
ATOM     76  F   UNL A   1      38.189  32.346  37.910  1.00  0.00    -0.203 F 
ATOM     77  C   UNL A   1      38.712  34.316  39.089  1.00  0.00     0.198 A 
ATOM     78  C   UNL A   1      40.180  35.942  38.109  1.00  0.00     0.198 A 
ATOM     79  F   UNL A   1      41.065  35.583  35.958  1.00  0.00    -0.203 F 
ATOM     80  F   UNL A   1      37.916  33.926  40.094  1.00  0.00    -0.200 F 
ATOM     81  C   UNL A   1      39.380  35.529  39.165  1.00  0.00     0.200 A 
ATOM     82  F   UNL A   1      40.838  37.107  38.185  1.00  0.00    -0.200 F 
ATOM     83  F   UNL A   1      39.246  36.303  40.250  1.00  0.00    -0.200 F 
ENDBRANCH  49  73
BRANCH  61  84
ATOM     84  C   UNL A   1      43.748  28.555  35.156  1.00  0.00     0.064 A 
ATOM     85  C   UNL A   1      43.492  27.436  35.961  1.00  0.00     0.173 A 
ATOM     86  C   UNL A   1      45.079  28.974  35.014  1.00  0.00     0.173 A 
ATOM     87  F   UNL A   1      42.234  27.007  36.142  1.00  0.00    -0.203 F 
ATOM     88  C   UNL A   1      44.529  26.774  36.616  1.00  0.00     0.198 A 
ATOM     89  C   UNL A   1      46.115  28.290  35.644  1.00  0.00     0.198 A 
ATOM     90  F   UNL A   1      45.378  30.035  34.251  1.00  0.00    -0.203 F 
ATOM     91  F   UNL A   1      44.256  25.735  37.417  1.00  0.00    -0.200 F 
ATOM     92  C   UNL A   1      45.839  27.196  36.449  1.00  0.00     0.200 A 
ATOM     93  F   UNL A   1      47.383  28.691  35.471  1.00  0.00    -0.200 F 
ATOM     94  F   UNL A   1      46.835  26.551  37.072  1.00  0.00    -0.200 F 
ENDBRANCH  61  84
ENDBRANCH  35  36
ENDBRANCH  27  30
ENDBRANCH  25  26
ENDBRANCH  24  25
ENDBRANCH  23  24
ENDBRANCH   1  23
TORSDOF 15
ENDMDL
MODEL 2
REMARK VINA RESULT:     -12.0      5.519     10.126
REMARK SMILES CC[C@@H]1CCCN1C(=O)NCc1ccc(C(=O)NCCCCNC(=O)c2ccc(-c3c4nc(c(-c5c(F)c(F)c(F)c(F)c5F)c5ccc([nH]5)c(-c5c(F)c(F)c(F)c(F)c5F)c5nc(c(-c6c(F)c(F)c(F)c(F)c6F)c6ccc3[nH]6)C=C5)C=C4)cc2)o1
REMARK SMILES IDX 19 1 18 2 16 3 17 4 15 6 12 7 13 8 89 9 14 10 11 11 10 12
REMARK SMILES IDX 8 13 9 14 7 16 3 17 4 18 5 19 6 20 2 21 1 22 20 23 21 24
REMARK SMILES IDX 22 25 23 26 24 27 25 29 26 30 27 31 88 32 28 33 87 34 29 35
REMARK SMILES IDX 30 36 31 37 81 38 32 39 86 40 80 41 82 42 33 43 85 44 79 45
REMARK SMILES IDX 78 46 34 48 66 49 46 50 65 51 47 52 50 53 64 54 83 55 48 56
REMARK SMILES IDX 49 57 63 59 84 60 51 61 35 62 36 63 44 64 37 65 38 66 42 67
REMARK SMILES IDX 45 68 39 69 40 70 43 71 41 72 67 73 68 74 76 75 69 76 70 77
REMARK SMILES IDX 74 78 77 79 71 80 72 81 75 82 73 83 52 84 53 85 61 86 54 87
REMARK SMILES IDX 55 88 59 89 62 90 56 91 57 92 60 93 58 94
REMARK H PARENT 18 5 10 15 23 28 82 47 50 58
REMARK Flexibility Score: inf
ROOT
ATOM      1  C   UNL A   1      36.009  21.461  25.274  1.00  0.00     0.116 C 
ENDROOT
BRANCH   1   2
ATOM      2  N   UNL A   1      35.307  20.203  25.180  1.00  0.00    -0.349 N 
ATOM      3  C   UNL A   1      34.014  19.923  24.798  1.00  0.00     0.286 C 
ATOM      4  O   UNL A   1      33.733  18.723  24.732  1.00  0.00    -0.266 OA
ATOM      5  H   UNL A   1      35.841  19.415  25.430  1.00  0.00     0.163 HD
BRANCH   3   6
ATOM      6  C   UNL A   1      33.057  20.975  24.500  1.00  0.00     0.191 A 
ATOM      7  C   UNL A   1      31.665  22.591  25.130  1.00  0.00     0.124 A 
ATOM      8  C   UNL A   1      31.680  22.600  23.753  1.00  0.00     0.048 A 
ATOM      9  O   UNL A   1      32.514  21.626  25.584  1.00  0.00    -0.454 OA
ATOM     10  C   UNL A   1      32.529  21.542  23.353  1.00  0.00     0.056 A 
BRANCH   7  11
ATOM     11  C   UNL A   1      30.917  23.341  26.169  1.00  0.00     0.193 C 
BRANCH  11  12
ATOM     12  N   UNL A   1      30.236  24.472  25.605  1.00  0.00    -0.331 N 
ATOM     13  C   UNL A   1      30.455  25.732  25.260  1.00  0.00     0.318 C 
ATOM     14  O   UNL A   1      29.450  26.249  24.743  1.00  0.00    -0.249 OA
ATOM     15  H   UNL A   1      29.300  24.233  25.412  1.00  0.00     0.165 HD
BRANCH  13  16
ATOM     16  N   UNL A   1      31.576  26.472  25.450  1.00  0.00    -0.322 N 
ATOM     17  C   UNL A   1      32.928  26.672  24.870  1.00  0.00     0.086 C 
ATOM     18  C   UNL A   1      33.713  27.100  26.126  1.00  0.00     0.027 C 
ATOM     19  C   UNL A   1      32.773  28.072  26.803  1.00  0.00     0.024 C 
ATOM     20  C   UNL A   1      31.400  27.504  26.486  1.00  0.00     0.122 C 
BRANCH  17  21
ATOM     21  C   UNL A   1      33.736  25.599  24.151  1.00  0.00     0.022 C 
ATOM     22  C   UNL A   1      34.665  24.829  25.085  1.00  0.00     0.006 C 
ENDBRANCH  17  21
ENDBRANCH  13  16
ENDBRANCH  11  12
ENDBRANCH   7  11
ENDBRANCH   3   6
ENDBRANCH   1   2
BRANCH   1  23
ATOM     23  C   UNL A   1      37.402  21.380  24.653  1.00  0.00     0.023 C 
BRANCH  23  24
ATOM     24  C   UNL A   1      38.182  20.114  25.013  1.00  0.00     0.023 C 
BRANCH  24  25
ATOM     25  C   UNL A   1      39.437  20.339  25.850  1.00  0.00     0.116 C 
BRANCH  25  26
ATOM     26  N   UNL A   1      40.325  19.185  25.893  1.00  0.00    -0.352 N 
ATOM     27  C   UNL A   1      41.681  19.163  26.125  1.00  0.00     0.251 C 
ATOM     28  H   UNL A   1      39.901  18.310  25.737  1.00  0.00     0.163 HD
ATOM     29  O   UNL A   1      42.320  18.126  26.047  1.00  0.00    -0.269 OA
BRANCH  27  30
ATOM     30  C   UNL A   1      42.357  20.441  26.420  1.00  0.00     0.039 A 
ATOM     31  C   UNL A   1      42.972  21.132  25.376  1.00  0.00     0.014 A 
ATOM     32  C   UNL A   1      42.277  20.996  27.700  1.00  0.00     0.014 A 
ATOM     33  C   UNL A   1      43.424  22.433  25.593  1.00  0.00     0.010 A 
ATOM     34  C   UNL A   1      42.664  22.317  27.894  1.00  0.00     0.010 A 
ATOM     35  C   UNL A   1      43.220  23.054  26.838  1.00  0.00    -0.014 A 
BRANCH  35  36
ATOM     36  C   UNL A   1      43.529  24.491  27.037  1.00  0.00     0.031 A 
ATOM     37  C   UNL A   1      44.915  25.008  26.788  1.00  0.00     0.074 A 
ATOM     38  C   UNL A   1      42.576  25.309  27.528  1.00  0.00     0.049 A 
ATOM     39  N   UNL A   1      45.397  26.209  26.986  1.00  0.00    -0.248 NA
ATOM     40  C   UNL A   1      45.897  24.042  26.271  1.00  0.00     0.031 C 
ATOM     41  C   UNL A   1      41.207  24.909  27.861  1.00  0.00     0.029 A 
ATOM     42  N   UNL A   1      42.616  26.643  27.847  1.00  0.00    -0.354 N 
ATOM     43  C   UNL A   1      46.736  26.139  26.628  1.00  0.00     0.074 A 
ATOM     44  C   UNL A   1      47.006  24.768  26.252  1.00  0.00     0.031 C 
ATOM     45  C   UNL A   1      40.534  25.977  28.317  1.00  0.00     0.029 A 
ATOM     46  C   UNL A   1      41.433  27.125  28.352  1.00  0.00     0.049 A 
ATOM     47  H   UNL A   1      43.418  27.201  27.726  1.00  0.00     0.167 HD
ATOM     48  C   UNL A   1      47.651  27.138  26.593  1.00  0.00     0.037 A 
ATOM     49  C   UNL A   1      41.114  28.353  28.804  1.00  0.00     0.037 A 
ATOM     50  C   UNL A   1      47.372  28.503  26.952  1.00  0.00     0.049 A 
ATOM     51  C   UNL A   1      42.159  29.435  28.782  1.00  0.00     0.074 A 
ATOM     52  C   UNL A   1      48.210  29.601  26.884  1.00  0.00     0.029 A 
ATOM     53  N   UNL A   1      46.161  28.955  27.456  1.00  0.00    -0.354 N 
ATOM     54  N   UNL A   1      43.400  29.379  28.361  1.00  0.00    -0.248 NA
ATOM     55  C   UNL A   1      41.759  30.753  29.296  1.00  0.00     0.031 C 
ATOM     56  C   UNL A   1      47.526  30.706  27.399  1.00  0.00     0.029 A 
ATOM     57  C   UNL A   1      46.242  30.310  27.737  1.00  0.00     0.049 A 
ATOM     58  H   UNL A   1      45.362  28.397  27.595  1.00  0.00     0.167 HD
ATOM     59  C   UNL A   1      43.921  30.653  28.543  1.00  0.00     0.074 A 
ATOM     60  C   UNL A   1      42.856  31.467  29.088  1.00  0.00     0.031 C 
ATOM     61  C   UNL A   1      45.173  31.106  28.284  1.00  0.00     0.037 A 
BRANCH  48  62
ATOM     62  C   UNL A   1      49.041  26.791  26.148  1.00  0.00     0.064 A 
ATOM     63  C   UNL A   1      49.991  26.270  27.040  1.00  0.00     0.173 A 
ATOM     64  C   UNL A   1      49.417  26.940  24.804  1.00  0.00     0.173 A 
ATOM     65  F   UNL A   1      49.686  26.118  28.338  1.00  0.00    -0.203 F 
ATOM     66  C   UNL A   1      51.271  25.934  26.609  1.00  0.00     0.198 A 
ATOM     67  C   UNL A   1      50.689  26.575  24.371  1.00  0.00     0.198 A 
ATOM     68  F   UNL A   1      48.547  27.430  23.909  1.00  0.00    -0.203 F 
ATOM     69  F   UNL A   1      52.175  25.482  27.490  1.00  0.00    -0.200 F 
ATOM     70  C   UNL A   1      51.617  26.080  25.274  1.00  0.00     0.200 A 
ATOM     71  F   UNL A   1      51.017  26.703  23.078  1.00  0.00    -0.200 F 
ATOM     72  F   UNL A   1      52.847  25.747  24.859  1.00  0.00    -0.200 F 
ENDBRANCH  48  62
BRANCH  49  73
ATOM     73  C   UNL A   1      39.744  28.628  29.312  1.00  0.00     0.064 A 
ATOM     74  C   UNL A   1      39.410  28.381  30.652  1.00  0.00     0.173 A 
ATOM     75  C   UNL A   1      38.738  29.129  28.473  1.00  0.00     0.173 A 
ATOM     76  F   UNL A   1      40.331  27.882  31.489  1.00  0.00    -0.203 F 
ATOM     77  C   UNL A   1      38.120  28.604  31.127  1.00  0.00     0.198 A 
ATOM     78  C   UNL A   1      37.455  29.381  28.956  1.00  0.00     0.198 A 
ATOM     79  F   UNL A   1      39.005  29.387  27.184  1.00  0.00    -0.203 F 
ATOM     80  F   UNL A   1      37.816  28.313  32.399  1.00  0.00    -0.200 F 
ATOM     81  C   UNL A   1      37.144  29.110  30.280  1.00  0.00     0.200 A 
ATOM     82  F   UNL A   1      36.520  29.883  28.138  1.00  0.00    -0.200 F 
ATOM     83  F   UNL A   1      35.904  29.327  30.737  1.00  0.00    -0.200 F 
ENDBRANCH  49  73
BRANCH  61  84
ATOM     84  C   UNL A   1      45.455  32.551  28.575  1.00  0.00     0.064 A 
ATOM     85  C   UNL A   1      46.007  32.957  29.799  1.00  0.00     0.173 A 
ATOM     86  C   UNL A   1      45.212  33.534  27.604  1.00  0.00     0.173 A 
ATOM     87  F   UNL A   1      46.241  32.058  30.766  1.00  0.00    -0.203 F 
ATOM     88  C   UNL A   1      46.286  34.299  30.047  1.00  0.00     0.198 A 
ATOM     89  C   UNL A   1      45.522  34.870  27.844  1.00  0.00     0.198 A 
ATOM     90  F   UNL A   1      44.691  33.197  26.415  1.00  0.00    -0.203 F 
ATOM     91  F   UNL A   1      46.771  34.670  31.240  1.00  0.00    -0.200 F 
ATOM     92  C   UNL A   1      46.052  35.252  29.067  1.00  0.00     0.200 A 
ATOM     93  F   UNL A   1      45.309  35.787  26.891  1.00  0.00    -0.200 F 
ATOM     94  F   UNL A   1      46.332  36.541  29.305  1.00  0.00    -0.200 F 
ENDBRANCH  61  84
ENDBRANCH  35  36
ENDBRANCH  27  30
ENDBRANCH  25  26
ENDBRANCH  24  25
ENDBRANCH  23  24
ENDBRANCH   1  23
TORSDOF 15
ENDMDL
MODEL 3
REMARK VINA RESULT:     -11.8      5.550     11.044
REMARK SMILES CC[C@@H]1CCCN1C(=O)NCc1ccc(C(=O)NCCCCNC(=O)c2ccc(-c3c4nc(c(-c5c(F)c(F)c(F)c(F)c5F)c5ccc([nH]5)c(-c5c(F)c(F)c(F)c(F)c5F)c5nc(c(-c6c(F)c(F)c(F)c(F)c6F)c6ccc3[nH]6)C=C5)C=C4)cc2)o1
REMARK SMILES IDX 19 1 18 2 16 3 17 4 15 6 12 7 13 8 89 9 14 10 11 11 10 12
REMARK SMILES IDX 8 13 9 14 7 16 3 17 4 18 5 19 6 20 2 21 1 22 20 23 21 24
REMARK SMILES IDX 22 25 23 26 24 27 25 29 26 30 27 31 88 32 28 33 87 34 29 35
REMARK SMILES IDX 30 36 31 37 81 38 32 39 86 40 80 41 82 42 33 43 85 44 79 45
REMARK SMILES IDX 78 46 34 48 66 49 46 50 65 51 47 52 50 53 64 54 83 55 48 56
REMARK SMILES IDX 49 57 63 59 84 60 51 61 35 62 36 63 44 64 37 65 38 66 42 67
REMARK SMILES IDX 45 68 39 69 40 70 43 71 41 72 67 73 68 74 76 75 69 76 70 77
REMARK SMILES IDX 74 78 77 79 71 80 72 81 75 82 73 83 52 84 53 85 61 86 54 87
REMARK SMILES IDX 55 88 59 89 62 90 56 91 57 92 60 93 58 94
REMARK H PARENT 18 5 10 15 23 28 82 47 50 58
REMARK Flexibility Score: inf
ROOT
ATOM      1  C   UNL A   1      35.896  22.018  24.422  1.00  0.00     0.116 C 
ENDROOT
BRANCH   1   2
ATOM      2  N   UNL A   1      35.288  22.668  25.560  1.00  0.00    -0.349 N 
ATOM      3  C   UNL A   1      34.065  23.286  25.694  1.00  0.00     0.286 C 
ATOM      4  O   UNL A   1      33.791  23.670  26.834  1.00  0.00    -0.266 OA
ATOM      5  H   UNL A   1      35.839  22.668  26.376  1.00  0.00     0.163 HD
BRANCH   3   6
ATOM      6  C   UNL A   1      33.171  23.469  24.563  1.00  0.00     0.191 A 
ATOM      7  C   UNL A   1      32.616  24.448  22.645  1.00  0.00     0.124 A 
ATOM      8  C   UNL A   1      31.660  23.486  22.886  1.00  0.00     0.048 A 
ATOM      9  O   UNL A   1      33.542  24.424  23.644  1.00  0.00    -0.454 OA
ATOM     10  C   UNL A   1      31.988  22.897  24.129  1.00  0.00     0.056 A 
BRANCH   7  11
ATOM     11  C   UNL A   1      32.810  25.487  21.603  1.00  0.00     0.193 C 
BRANCH  11  12
ATOM     12  N   UNL A   1      31.771  26.477  21.656  1.00  0.00    -0.331 N 
ATOM     13  C   UNL A   1      31.067  27.178  22.532  1.00  0.00     0.318 C 
ATOM     14  O   UNL A   1      30.291  27.969  21.971  1.00  0.00    -0.249 OA
ATOM     15  H   UNL A   1      31.489  26.711  20.741  1.00  0.00     0.165 HD
BRANCH  13  16
ATOM     16  N   UNL A   1      31.079  27.083  23.886  1.00  0.00    -0.322 N 
ATOM     17  C   UNL A   1      31.833  27.583  25.062  1.00  0.00     0.086 C 
ATOM     18  C   UNL A   1      31.638  26.410  26.042  1.00  0.00     0.027 C 
ATOM     19  C   UNL A   1      30.174  26.066  25.878  1.00  0.00     0.024 C 
ATOM     20  C   UNL A   1      29.916  26.345  24.408  1.00  0.00     0.122 C 
BRANCH  17  21
ATOM     21  C   UNL A   1      33.311  27.954  25.057  1.00  0.00     0.022 C 
ATOM     22  C   UNL A   1      33.887  28.119  26.461  1.00  0.00     0.006 C 
ENDBRANCH  17  21
ENDBRANCH  13  16
ENDBRANCH  11  12
ENDBRANCH   7  11
ENDBRANCH   3   6
ENDBRANCH   1   2
BRANCH   1  23
ATOM     23  C   UNL A   1      37.417  21.969  24.545  1.00  0.00     0.023 C 
BRANCH  23  24
ATOM     24  C   UNL A   1      37.964  20.656  25.109  1.00  0.00     0.023 C 
BRANCH  24  25
ATOM     25  C   UNL A   1      39.289  20.770  25.855  1.00  0.00     0.116 C 
BRANCH  25  26
ATOM     26  N   UNL A   1      40.056  19.533  25.875  1.00  0.00    -0.352 N 
ATOM     27  C   UNL A   1      41.401  19.369  26.119  1.00  0.00     0.251 C 
ATOM     28  H   UNL A   1      39.549  18.709  25.693  1.00  0.00     0.163 HD
ATOM     29  O   UNL A   1      41.934  18.275  26.019  1.00  0.00    -0.269 OA
BRANCH  27  30
ATOM     30  C   UNL A   1      42.198  20.566  26.454  1.00  0.00     0.039 A 
ATOM     31  C   UNL A   1      42.773  21.301  25.417  1.00  0.00     0.014 A 
ATOM     32  C   UNL A   1      42.271  21.010  27.777  1.00  0.00     0.014 A 
ATOM     33  C   UNL A   1      43.343  22.542  25.697  1.00  0.00     0.010 A 
ATOM     34  C   UNL A   1      42.776  22.277  28.041  1.00  0.00     0.010 A 
ATOM     35  C   UNL A   1      43.296  23.064  27.001  1.00  0.00    -0.014 A 
BRANCH  35  36
ATOM     36  C   UNL A   1      43.732  24.452  27.288  1.00  0.00     0.031 A 
ATOM     37  C   UNL A   1      42.743  25.468  27.780  1.00  0.00     0.074 A 
ATOM     38  C   UNL A   1      45.002  24.814  27.020  1.00  0.00     0.049 A 
ATOM     39  N   UNL A   1      42.914  26.746  28.004  1.00  0.00    -0.248 NA
ATOM     40  C   UNL A   1      41.374  24.991  28.027  1.00  0.00     0.031 C 
ATOM     41  C   UNL A   1      46.040  23.928  26.488  1.00  0.00     0.029 A 
ATOM     42  N   UNL A   1      45.635  26.026  27.143  1.00  0.00    -0.354 N 
ATOM     43  C   UNL A   1      41.676  27.225  28.409  1.00  0.00     0.074 A 
ATOM     44  C   UNL A   1      40.750  26.115  28.348  1.00  0.00     0.031 C 
ATOM     45  C   UNL A   1      47.182  24.619  26.350  1.00  0.00     0.029 A 
ATOM     46  C   UNL A   1      46.948  26.005  26.740  1.00  0.00     0.049 A 
ATOM     47  H   UNL A   1      45.190  26.833  27.487  1.00  0.00     0.167 HD
ATOM     48  C   UNL A   1      41.350  28.474  28.819  1.00  0.00     0.037 A 
ATOM     49  C   UNL A   1      47.858  26.998  26.680  1.00  0.00     0.037 A 
ATOM     50  C   UNL A   1      42.280  29.569  28.894  1.00  0.00     0.049 A 
ATOM     51  C   UNL A   1      47.459  28.382  27.113  1.00  0.00     0.074 A 
ATOM     52  C   UNL A   1      42.065  30.853  29.361  1.00  0.00     0.029 A 
ATOM     53  N   UNL A   1      43.603  29.512  28.480  1.00  0.00    -0.354 N 
ATOM     54  N   UNL A   1      46.307  28.805  27.575  1.00  0.00    -0.248 NA
ATOM     55  C   UNL A   1      48.487  29.428  27.018  1.00  0.00     0.031 C 
ATOM     56  C   UNL A   1      43.241  31.588  29.179  1.00  0.00     0.029 A 
ATOM     57  C   UNL A   1      44.207  30.748  28.649  1.00  0.00     0.049 A 
ATOM     58  H   UNL A   1      44.049  28.711  28.119  1.00  0.00     0.167 HD
ATOM     59  C   UNL A   1      46.476  30.157  27.842  1.00  0.00     0.074 A 
ATOM     60  C   UNL A   1      47.849  30.479  27.513  1.00  0.00     0.031 C 
ATOM     61  C   UNL A   1      45.574  31.053  28.313  1.00  0.00     0.037 A 
BRANCH  48  62
ATOM     62  C   UNL A   1      39.927  28.724  29.223  1.00  0.00     0.064 A 
ATOM     63  C   UNL A   1      38.969  29.174  28.301  1.00  0.00     0.173 A 
ATOM     64  C   UNL A   1      39.503  28.468  30.535  1.00  0.00     0.173 A 
ATOM     65  F   UNL A   1      39.324  29.445  27.035  1.00  0.00    -0.203 F 
ATOM     66  C   UNL A   1      37.647  29.383  28.684  1.00  0.00     0.198 A 
ATOM     67  C   UNL A   1      38.173  28.649  30.907  1.00  0.00     0.198 A 
ATOM     68  F   UNL A   1      40.376  28.033  31.455  1.00  0.00    -0.203 F 
ATOM     69  F   UNL A   1      36.761  29.858  27.797  1.00  0.00    -0.200 F 
ATOM     70  C   UNL A   1      37.249  29.113  29.985  1.00  0.00     0.200 A 
ATOM     71  F   UNL A   1      37.787  28.375  32.161  1.00  0.00    -0.200 F 
ATOM     72  F   UNL A   1      35.973  29.306  30.350  1.00  0.00    -0.200 F 
ENDBRANCH  48  62
BRANCH  49  73
ATOM     73  C   UNL A   1      49.235  26.718  26.196  1.00  0.00     0.064 A 
ATOM     74  C   UNL A   1      49.588  26.947  24.858  1.00  0.00     0.173 A 
ATOM     75  C   UNL A   1      50.223  26.207  27.051  1.00  0.00     0.173 A 
ATOM     76  F   UNL A   1      48.673  27.416  23.996  1.00  0.00    -0.203 F 
ATOM     77  C   UNL A   1      50.867  26.656  24.390  1.00  0.00     0.198 A 
ATOM     78  C   UNL A   1      51.511  25.945  26.589  1.00  0.00     0.198 A 
ATOM     79  F   UNL A   1      49.939  25.974  28.341  1.00  0.00    -0.203 F 
ATOM     80  F   UNL A   1      51.162  26.839  23.095  1.00  0.00    -0.200 F 
ATOM     81  C   UNL A   1      51.830  26.160  25.257  1.00  0.00     0.200 A 
ATOM     82  F   UNL A   1      52.442  25.480  27.433  1.00  0.00    -0.200 F 
ATOM     83  F   UNL A   1      53.061  25.883  24.807  1.00  0.00    -0.200 F 
ENDBRANCH  49  73
BRANCH  61  84
ATOM     84  C   UNL A   1      46.046  32.463  28.513  1.00  0.00     0.064 A 
ATOM     85  C   UNL A   1      46.648  32.871  29.713  1.00  0.00     0.173 A 
ATOM     86  C   UNL A   1      45.935  33.405  27.479  1.00  0.00     0.173 A 
ATOM     87  F   UNL A   1      46.761  32.013  30.737  1.00  0.00    -0.203 F 
ATOM     88  C   UNL A   1      47.102  34.178  29.876  1.00  0.00     0.198 A 
ATOM     89  C   UNL A   1      46.420  34.701  27.635  1.00  0.00     0.198 A 
ATOM     90  F   UNL A   1      45.372  33.064  26.310  1.00  0.00    -0.203 F 
ATOM     91  F   UNL A   1      47.633  34.558  31.047  1.00  0.00    -0.200 F 
ATOM     92  C   UNL A   1      46.997  35.087  28.835  1.00  0.00     0.200 A 
ATOM     93  F   UNL A   1      46.330  35.574  26.624  1.00  0.00    -0.200 F 
ATOM     94  F   UNL A   1      47.445  36.341  28.992  1.00  0.00    -0.200 F 
ENDBRANCH  61  84
ENDBRANCH  35  36
ENDBRANCH  27  30
ENDBRANCH  25  26
ENDBRANCH  24  25
ENDBRANCH  23  24
ENDBRANCH   1  23
TORSDOF 15
ENDMDL
