MODEL 1
REMARK VINA RESULT:     -13.9      0.000      0.000
REMARK SMILES COc1cccc(/C=C2/C(=O)N(c3cccc(C(=O)NCCCCNC(=O)c4ccc(-c5c6nc(c(-c7c(F)c(F)c(F)c(F)c7F)c7ccc([nH]7)c(-c7c(F)c(F)c(F)c(F)c7F)c7nc(c(-c8c(F)c(F)c(F)c(F)c8F)c8ccc5[nH]8)C=C7)C=C6)cc4)c3)N=C2C)c1
REMARK SMILES IDX 22 1 21 2 20 3 18 4 19 5 17 7 13 8 14 9 91 10 15 11 16 12
REMARK SMILES IDX 12 13 8 14 9 15 10 16 93 17 11 18 92 19 94 20 7 21 3 22 4 23
REMARK SMILES IDX 95 24 5 25 6 26 2 27 1 28 23 29 24 30 25 31 26 32 27 34
REMARK SMILES IDX 28 35 29 36 90 37 30 38 89 39 31 40 32 41 33 42 83 43 34 44
REMARK SMILES IDX 88 45 82 46 84 47 35 48 87 49 81 50 80 51 36 53 68 54 48 55
REMARK SMILES IDX 67 56 49 57 52 58 66 59 85 60 50 61 51 62 65 64 86 65 53 66
REMARK SMILES IDX 37 67 38 68 46 69 39 70 40 71 44 72 47 73 41 74 42 75 45 76
REMARK SMILES IDX 43 77 69 78 70 79 78 80 71 81 72 82 76 83 79 84 73 85 74 86
REMARK SMILES IDX 77 87 75 88 54 89 55 90 63 91 56 92 57 93 61 94 64 95 58 96
REMARK SMILES IDX 59 97 62 98 60 99
REMARK H PARENT 20 6 25 33 84 52 52 63
REMARK Flexibility Score: inf
ROOT
ATOM      1  C   UNL A   1      31.768  30.364  26.598  1.00  0.00     0.023 C 
ENDROOT
BRANCH   1   2
ATOM      2  C   UNL A   1      33.058  29.688  26.148  1.00  0.00     0.116 C 
BRANCH   2   3
ATOM      3  N   UNL A   1      33.256  29.654  24.707  1.00  0.00    -0.352 N 
ATOM      4  C   UNL A   1      32.599  28.959  23.710  1.00  0.00     0.251 C 
ATOM      5  O   UNL A   1      32.974  29.104  22.547  1.00  0.00    -0.269 OA
ATOM      6  H   UNL A   1      33.989  30.228  24.384  1.00  0.00     0.163 HD
BRANCH   4   7
ATOM      7  C   UNL A   1      31.525  27.975  24.012  1.00  0.00     0.041 A 
ATOM      8  C   UNL A   1      30.857  25.687  24.423  1.00  0.00     0.069 A 
ATOM      9  C   UNL A   1      29.557  26.008  24.011  1.00  0.00     0.028 A 
ATOM     10  C   UNL A   1      31.796  26.715  24.548  1.00  0.00     0.042 A 
ATOM     11  C   UNL A   1      29.217  27.323  23.692  1.00  0.00     0.003 A 
ATOM     12  C   UNL A   1      30.211  28.299  23.653  1.00  0.00     0.014 A 
BRANCH   8  13
ATOM     13  N   UNL A   1      31.258  24.336  24.548  1.00  0.00    -0.196 N 
ATOM     14  C   UNL A   1      33.049  21.545  25.773  1.00  0.00     0.024 C 
ATOM     15  C   UNL A   1      32.392  22.448  25.033  1.00  0.00     0.065 C 
ATOM     16  C   UNL A   1      32.004  23.767  25.591  1.00  0.00     0.280 C 
ATOM     17  C   UNL A   1      31.881  22.469  23.651  1.00  0.00     0.071 C 
ATOM     18  O   UNL A   1      32.325  24.197  26.681  1.00  0.00    -0.267 OA
ATOM     19  N   UNL A   1      31.187  23.549  23.401  1.00  0.00    -0.169 NA
ATOM     20  C   UNL A   1      32.171  21.442  22.607  1.00  0.00     0.069 C 
BRANCH  14  21
ATOM     21  C   UNL A   1      33.451  20.215  25.325  1.00  0.00    -0.021 A 
ATOM     22  C   UNL A   1      32.965  17.855  25.055  1.00  0.00     0.119 A 
ATOM     23  C   UNL A   1      34.272  17.651  24.608  1.00  0.00     0.046 A 
ATOM     24  C   UNL A   1      32.551  19.142  25.399  1.00  0.00     0.054 A 
ATOM     25  C   UNL A   1      35.155  18.724  24.482  1.00  0.00     0.004 A 
ATOM     26  C   UNL A   1      34.747  20.007  24.843  1.00  0.00     0.008 A 
BRANCH  22  27
ATOM     27  O   UNL A   1      32.209  16.722  25.169  1.00  0.00    -0.497 OA
ATOM     28  C   UNL A   1      32.920  15.493  25.251  1.00  0.00     0.278 C 
ENDBRANCH  22  27
ENDBRANCH  14  21
ENDBRANCH   8  13
ENDBRANCH   4   7
ENDBRANCH   2   3
ENDBRANCH   1   2
BRANCH   1  29
ATOM     29  C   UNL A   1      31.738  31.884  26.517  1.00  0.00     0.023 C 
BRANCH  29  30
ATOM     30  C   UNL A   1      32.771  32.615  27.365  1.00  0.00     0.116 C 
BRANCH  30  31
ATOM     31  N   UNL A   1      32.422  33.999  27.654  1.00  0.00    -0.352 N 
ATOM     32  C   UNL A   1      32.978  34.873  28.560  1.00  0.00     0.251 C 
ATOM     33  H   UNL A   1      31.678  34.365  27.121  1.00  0.00     0.163 HD
ATOM     34  O   UNL A   1      32.478  35.978  28.744  1.00  0.00    -0.269 OA
BRANCH  32  35
ATOM     35  C   UNL A   1      34.159  34.457  29.346  1.00  0.00     0.039 A 
ATOM     36  C   UNL A   1      33.967  33.889  30.609  1.00  0.00     0.014 A 
ATOM     37  C   UNL A   1      35.446  34.582  28.822  1.00  0.00     0.014 A 
ATOM     38  C   UNL A   1      35.059  33.363  31.302  1.00  0.00     0.010 A 
ATOM     39  C   UNL A   1      36.517  33.974  29.469  1.00  0.00     0.010 A 
ATOM     40  C   UNL A   1      36.335  33.353  30.714  1.00  0.00    -0.014 A 
BRANCH  40  41
ATOM     41  C   UNL A   1      37.489  32.693  31.379  1.00  0.00     0.031 A 
ATOM     42  C   UNL A   1      38.190  31.544  30.711  1.00  0.00     0.074 A 
ATOM     43  C   UNL A   1      37.859  33.081  32.616  1.00  0.00     0.049 A 
ATOM     44  N   UNL A   1      39.167  30.795  31.158  1.00  0.00    -0.248 NA
ATOM     45  C   UNL A   1      37.712  31.168  29.371  1.00  0.00     0.031 C 
ATOM     46  C   UNL A   1      37.225  34.147  33.395  1.00  0.00     0.029 A 
ATOM     47  N   UNL A   1      38.851  32.615  33.443  1.00  0.00    -0.354 N 
ATOM     48  C   UNL A   1      39.407  29.856  30.164  1.00  0.00     0.074 A 
ATOM     49  C   UNL A   1      38.435  30.087  29.119  1.00  0.00     0.031 C 
ATOM     50  C   UNL A   1      37.859  34.272  34.570  1.00  0.00     0.029 A 
ATOM     51  C   UNL A   1      38.915  33.266  34.652  1.00  0.00     0.049 A 
ATOM     52  H   UNL A   1      39.461  31.882  33.193  1.00  0.00     0.167 HD
ATOM     53  C   UNL A   1      40.369  28.903  30.115  1.00  0.00     0.037 A 
ATOM     54  C   UNL A   1      39.724  33.068  35.710  1.00  0.00     0.037 A 
ATOM     55  C   UNL A   1      41.346  28.688  31.150  1.00  0.00     0.049 A 
ATOM     56  C   UNL A   1      40.771  31.987  35.640  1.00  0.00     0.074 A 
ATOM     57  C   UNL A   1      42.396  27.789  31.171  1.00  0.00     0.029 A 
ATOM     58  N   UNL A   1      41.383  29.374  32.356  1.00  0.00    -0.354 N 
ATOM     59  N   UNL A   1      41.039  31.156  34.662  1.00  0.00    -0.248 NA
ATOM     60  C   UNL A   1      41.632  31.821  36.819  1.00  0.00     0.031 C 
ATOM     61  C   UNL A   1      43.032  27.886  32.413  1.00  0.00     0.029 A 
ATOM     62  C   UNL A   1      42.422  28.896  33.139  1.00  0.00     0.049 A 
ATOM     63  H   UNL A   1      40.764  30.094  32.616  1.00  0.00     0.167 HD
ATOM     64  C   UNL A   1      42.116  30.393  35.093  1.00  0.00     0.074 A 
ATOM     65  C   UNL A   1      42.463  30.873  36.415  1.00  0.00     0.031 C 
ATOM     66  C   UNL A   1      42.761  29.388  34.451  1.00  0.00     0.037 A 
BRANCH  53  67
ATOM     67  C   UNL A   1      40.413  28.020  28.900  1.00  0.00     0.064 A 
ATOM     68  C   UNL A   1      39.701  26.811  28.838  1.00  0.00     0.173 A 
ATOM     69  C   UNL A   1      41.150  28.403  27.768  1.00  0.00     0.173 A 
ATOM     70  F   UNL A   1      38.989  26.392  29.895  1.00  0.00    -0.203 F 
ATOM     71  C   UNL A   1      39.754  26.004  27.706  1.00  0.00     0.198 A 
ATOM     72  C   UNL A   1      41.170  27.610  26.624  1.00  0.00     0.198 A 
ATOM     73  F   UNL A   1      41.843  29.551  27.768  1.00  0.00    -0.203 F 
ATOM     74  F   UNL A   1      39.112  24.827  27.693  1.00  0.00    -0.200 F 
ATOM     75  C   UNL A   1      40.480  26.408  26.597  1.00  0.00     0.200 A 
ATOM     76  F   UNL A   1      41.859  28.010  25.547  1.00  0.00    -0.200 F 
ATOM     77  F   UNL A   1      40.523  25.634  25.503  1.00  0.00    -0.200 F 
ENDBRANCH  53  67
BRANCH  54  78
ATOM     78  C   UNL A   1      39.590  33.920  36.922  1.00  0.00     0.064 A 
ATOM     79  C   UNL A   1      38.819  33.501  38.017  1.00  0.00     0.173 A 
ATOM     80  C   UNL A   1      40.217  35.172  37.010  1.00  0.00     0.173 A 
ATOM     81  F   UNL A   1      38.183  32.321  37.975  1.00  0.00    -0.203 F 
ATOM     82  C   UNL A   1      38.658  34.311  39.138  1.00  0.00     0.198 A 
ATOM     83  C   UNL A   1      40.083  35.967  38.147  1.00  0.00     0.198 A 
ATOM     84  F   UNL A   1      40.970  35.618  35.996  1.00  0.00    -0.203 F 
ATOM     85  F   UNL A   1      37.871  33.909  40.146  1.00  0.00    -0.200 F 
ATOM     86  C   UNL A   1      39.295  35.541  39.206  1.00  0.00     0.200 A 
ATOM     87  F   UNL A   1      40.715  37.146  38.215  1.00  0.00    -0.200 F 
ATOM     88  F   UNL A   1      39.145  36.318  40.287  1.00  0.00    -0.200 F 
ENDBRANCH  54  78
BRANCH  66  89
ATOM     89  C   UNL A   1      43.937  28.763  35.149  1.00  0.00     0.064 A 
ATOM     90  C   UNL A   1      45.241  29.255  34.991  1.00  0.00     0.173 A 
ATOM     91  C   UNL A   1      43.746  27.681  36.024  1.00  0.00     0.173 A 
ATOM     92  F   UNL A   1      45.481  30.277  34.155  1.00  0.00    -0.203 F 
ATOM     93  C   UNL A   1      46.313  28.668  35.659  1.00  0.00     0.198 A 
ATOM     94  C   UNL A   1      44.815  27.122  36.718  1.00  0.00     0.198 A 
ATOM     95  F   UNL A   1      42.518  27.177  36.219  1.00  0.00    -0.203 F 
ATOM     96  F   UNL A   1      47.557  29.120  35.450  1.00  0.00    -0.200 F 
ATOM     97  C   UNL A   1      46.098  27.610  36.528  1.00  0.00     0.200 A 
ATOM     98  F   UNL A   1      44.601  26.111  37.572  1.00  0.00    -0.200 F 
ATOM     99  F   UNL A   1      47.130  27.055  37.179  1.00  0.00    -0.200 F 
ENDBRANCH  66  89
ENDBRANCH  40  41
ENDBRANCH  32  35
ENDBRANCH  30  31
ENDBRANCH  29  30
ENDBRANCH   1  29
TORSDOF 14
ENDMDL
MODEL 2
REMARK VINA RESULT:     -13.7      0.459      7.258
REMARK SMILES COc1cccc(/C=C2/C(=O)N(c3cccc(C(=O)NCCCCNC(=O)c4ccc(-c5c6nc(c(-c7c(F)c(F)c(F)c(F)c7F)c7ccc([nH]7)c(-c7c(F)c(F)c(F)c(F)c7F)c7nc(c(-c8c(F)c(F)c(F)c(F)c8F)c8ccc5[nH]8)C=C7)C=C6)cc4)c3)N=C2C)c1
REMARK SMILES IDX 22 1 21 2 20 3 18 4 19 5 17 7 13 8 14 9 91 10 15 11 16 12
REMARK SMILES IDX 12 13 8 14 9 15 10 16 93 17 11 18 92 19 94 20 7 21 3 22 4 23
REMARK SMILES IDX 95 24 5 25 6 26 2 27 1 28 23 29 24 30 25 31 26 32 27 34
REMARK SMILES IDX 28 35 29 36 90 37 30 38 89 39 31 40 32 41 33 42 83 43 34 44
REMARK SMILES IDX 88 45 82 46 84 47 35 48 87 49 81 50 80 51 36 53 68 54 48 55
REMARK SMILES IDX 67 56 49 57 52 58 66 59 85 60 50 61 51 62 65 64 86 65 53 66
REMARK SMILES IDX 37 67 38 68 46 69 39 70 40 71 44 72 47 73 41 74 42 75 45 76
REMARK SMILES IDX 43 77 69 78 70 79 78 80 71 81 72 82 76 83 79 84 73 85 74 86
REMARK SMILES IDX 77 87 75 88 54 89 55 90 63 91 56 92 57 93 61 94 64 95 58 96
REMARK SMILES IDX 59 97 62 98 60 99
REMARK H PARENT 20 6 25 33 84 52 52 63
REMARK Flexibility Score: inf
ROOT
ATOM      1  C   UNL A   1      31.506  31.108  25.979  1.00  0.00     0.023 C 
ENDROOT
BRANCH   1   2
ATOM      2  C   UNL A   1      32.568  30.016  25.941  1.00  0.00     0.116 C 
BRANCH   2   3
ATOM      3  N   UNL A   1      33.067  29.697  24.612  1.00  0.00    -0.352 N 
ATOM      4  C   UNL A   1      32.654  28.763  23.681  1.00  0.00     0.251 C 
ATOM      5  O   UNL A   1      33.262  28.690  22.614  1.00  0.00    -0.269 OA
ATOM      6  H   UNL A   1      33.834  30.243  24.325  1.00  0.00     0.163 HD
BRANCH   4   7
ATOM      7  C   UNL A   1      31.569  27.788  23.970  1.00  0.00     0.041 A 
ATOM      8  C   UNL A   1      30.882  25.509  24.394  1.00  0.00     0.069 A 
ATOM      9  C   UNL A   1      29.593  25.829  23.947  1.00  0.00     0.028 A 
ATOM     10  C   UNL A   1      31.821  26.534  24.528  1.00  0.00     0.042 A 
ATOM     11  C   UNL A   1      29.267  27.142  23.604  1.00  0.00     0.003 A 
ATOM     12  C   UNL A   1      30.265  28.113  23.576  1.00  0.00     0.014 A 
BRANCH   8  13
ATOM     13  N   UNL A   1      31.273  24.158  24.546  1.00  0.00    -0.196 N 
ATOM     14  C   UNL A   1      33.026  21.375  25.844  1.00  0.00     0.024 C 
ATOM     15  C   UNL A   1      32.388  22.271  25.079  1.00  0.00     0.065 C 
ATOM     16  C   UNL A   1      31.996  23.599  25.610  1.00  0.00     0.280 C 
ATOM     17  C   UNL A   1      31.904  22.275  23.688  1.00  0.00     0.071 C 
ATOM     18  O   UNL A   1      32.298  24.043  26.701  1.00  0.00    -0.267 OA
ATOM     19  N   UNL A   1      31.220  23.354  23.409  1.00  0.00    -0.169 NA
ATOM     20  C   UNL A   1      32.209  21.232  22.664  1.00  0.00     0.069 C 
BRANCH  14  21
ATOM     21  C   UNL A   1      33.430  20.037  25.422  1.00  0.00    -0.021 A 
ATOM     22  C   UNL A   1      33.013  17.651  25.329  1.00  0.00     0.119 A 
ATOM     23  C   UNL A   1      34.271  17.468  24.751  1.00  0.00     0.046 A 
ATOM     24  C   UNL A   1      32.588  18.940  25.651  1.00  0.00     0.054 A 
ATOM     25  C   UNL A   1      35.091  18.562  24.473  1.00  0.00     0.004 A 
ATOM     26  C   UNL A   1      34.673  19.848  24.811  1.00  0.00     0.008 A 
BRANCH  22  27
ATOM     27  O   UNL A   1      32.320  16.501  25.584  1.00  0.00    -0.497 OA
ATOM     28  C   UNL A   1      32.907  15.292  25.116  1.00  0.00     0.278 C 
ENDBRANCH  22  27
ENDBRANCH  14  21
ENDBRANCH   8  13
ENDBRANCH   4   7
ENDBRANCH   2   3
ENDBRANCH   1   2
BRANCH   1  29
ATOM     29  C   UNL A   1      31.559  32.063  27.164  1.00  0.00     0.023 C 
BRANCH  29  30
ATOM     30  C   UNL A   1      32.788  32.960  27.239  1.00  0.00     0.116 C 
BRANCH  30  31
ATOM     31  N   UNL A   1      32.494  34.325  27.653  1.00  0.00    -0.352 N 
ATOM     32  C   UNL A   1      33.075  35.085  28.643  1.00  0.00     0.251 C 
ATOM     33  H   UNL A   1      31.774  34.771  27.151  1.00  0.00     0.163 HD
ATOM     34  O   UNL A   1      32.621  36.189  28.925  1.00  0.00    -0.269 OA
BRANCH  32  35
ATOM     35  C   UNL A   1      34.227  34.546  29.397  1.00  0.00     0.039 A 
ATOM     36  C   UNL A   1      33.993  33.853  30.588  1.00  0.00     0.014 A 
ATOM     37  C   UNL A   1      35.527  34.682  28.908  1.00  0.00     0.014 A 
ATOM     38  C   UNL A   1      35.054  33.218  31.237  1.00  0.00     0.010 A 
ATOM     39  C   UNL A   1      36.565  33.970  29.502  1.00  0.00     0.010 A 
ATOM     40  C   UNL A   1      36.340  33.227  30.670  1.00  0.00    -0.014 A 
BRANCH  40  41
ATOM     41  C   UNL A   1      37.458  32.459  31.278  1.00  0.00     0.031 A 
ATOM     42  C   UNL A   1      37.971  32.825  32.643  1.00  0.00     0.074 A 
ATOM     43  C   UNL A   1      38.059  31.481  30.571  1.00  0.00     0.049 A 
ATOM     44  N   UNL A   1      38.980  32.325  33.311  1.00  0.00    -0.248 NA
ATOM     45  C   UNL A   1      37.276  33.919  33.338  1.00  0.00     0.031 C 
ATOM     46  C   UNL A   1      37.691  31.067  29.217  1.00  0.00     0.029 A 
ATOM     47  N   UNL A   1      39.116  30.665  30.890  1.00  0.00    -0.354 N 
ATOM     48  C   UNL A   1      39.046  33.049  34.493  1.00  0.00     0.074 A 
ATOM     49  C   UNL A   1      38.019  34.065  34.425  1.00  0.00     0.031 C 
ATOM     50  C   UNL A   1      38.488  30.058  28.832  1.00  0.00     0.029 A 
ATOM     51  C   UNL A   1      39.454  29.783  29.891  1.00  0.00     0.049 A 
ATOM     52  H   UNL A   1      39.588  30.706  31.754  1.00  0.00     0.167 HD
ATOM     53  C   UNL A   1      39.872  32.868  35.552  1.00  0.00     0.037 A 
ATOM     54  C   UNL A   1      40.439  28.866  29.831  1.00  0.00     0.037 A 
ATOM     55  C   UNL A   1      40.882  31.844  35.622  1.00  0.00     0.049 A 
ATOM     56  C   UNL A   1      41.358  28.699  31.012  1.00  0.00     0.074 A 
ATOM     57  C   UNL A   1      41.729  31.540  36.672  1.00  0.00     0.029 A 
ATOM     58  N   UNL A   1      41.188  30.964  34.593  1.00  0.00    -0.354 N 
ATOM     59  N   UNL A   1      41.361  29.338  32.157  1.00  0.00    -0.248 NA
ATOM     60  C   UNL A   1      42.408  27.677  30.896  1.00  0.00     0.031 C 
ATOM     61  C   UNL A   1      42.590  30.519  36.258  1.00  0.00     0.029 A 
ATOM     62  C   UNL A   1      42.232  30.137  34.974  1.00  0.00     0.049 A 
ATOM     63  H   UNL A   1      40.731  30.932  33.722  1.00  0.00     0.167 HD
ATOM     64  C   UNL A   1      42.385  28.777  32.907  1.00  0.00     0.074 A 
ATOM     65  C   UNL A   1      42.972  27.732  32.092  1.00  0.00     0.031 C 
ATOM     66  C   UNL A   1      42.802  29.096  34.157  1.00  0.00     0.037 A 
BRANCH  53  67
ATOM     67  C   UNL A   1      39.717  33.797  36.723  1.00  0.00     0.064 A 
ATOM     68  C   UNL A   1      40.360  35.044  36.768  1.00  0.00     0.173 A 
ATOM     69  C   UNL A   1      38.887  33.450  37.801  1.00  0.00     0.173 A 
ATOM     70  F   UNL A   1      41.172  35.421  35.768  1.00  0.00    -0.203 F 
ATOM     71  C   UNL A   1      40.207  35.892  37.860  1.00  0.00     0.198 A 
ATOM     72  C   UNL A   1      38.708  34.318  38.875  1.00  0.00     0.198 A 
ATOM     73  F   UNL A   1      38.243  32.274  37.809  1.00  0.00    -0.203 F 
ATOM     74  F   UNL A   1      40.876  37.052  37.905  1.00  0.00    -0.200 F 
ATOM     75  C   UNL A   1      39.375  35.533  38.909  1.00  0.00     0.200 A 
ATOM     76  F   UNL A   1      37.890  33.975  39.880  1.00  0.00    -0.200 F 
ATOM     77  F   UNL A   1      39.220  36.354  39.957  1.00  0.00    -0.200 F 
ENDBRANCH  53  67
BRANCH  54  78
ATOM     78  C   UNL A   1      40.599  28.022  28.617  1.00  0.00     0.064 A 
ATOM     79  C   UNL A   1      41.382  28.454  27.536  1.00  0.00     0.173 A 
ATOM     80  C   UNL A   1      39.967  26.774  28.504  1.00  0.00     0.173 A 
ATOM     81  F   UNL A   1      41.991  29.648  27.586  1.00  0.00    -0.203 F 
ATOM     82  C   UNL A   1      41.504  27.685  26.380  1.00  0.00     0.198 A 
ATOM     83  C   UNL A   1      40.118  25.991  27.361  1.00  0.00     0.198 A 
ATOM     84  F   UNL A   1      39.212  26.310  29.509  1.00  0.00    -0.203 F 
ATOM     85  F   UNL A   1      42.214  28.148  25.342  1.00  0.00    -0.200 F 
ATOM     86  C   UNL A   1      40.878  26.451  26.295  1.00  0.00     0.200 A 
ATOM     87  F   UNL A   1      39.525  24.791  27.290  1.00  0.00    -0.200 F 
ATOM     88  F   UNL A   1      41.000  25.710  25.187  1.00  0.00    -0.200 F 
ENDBRANCH  54  78
BRANCH  66  89
ATOM     89  C   UNL A   1      43.920  28.281  34.743  1.00  0.00     0.064 A 
ATOM     90  C   UNL A   1      43.693  27.036  35.350  1.00  0.00     0.173 A 
ATOM     91  C   UNL A   1      45.247  28.734  34.656  1.00  0.00     0.173 A 
ATOM     92  F   UNL A   1      42.443  26.563  35.472  1.00  0.00    -0.203 F 
ATOM     93  C   UNL A   1      44.747  26.292  35.873  1.00  0.00     0.198 A 
ATOM     94  C   UNL A   1      46.301  27.970  35.148  1.00  0.00     0.198 A 
ATOM     95  F   UNL A   1      45.522  29.913  34.078  1.00  0.00    -0.203 F 
ATOM     96  F   UNL A   1      44.499  25.132  36.497  1.00  0.00    -0.200 F 
ATOM     97  C   UNL A   1      46.049  26.754  35.763  1.00  0.00     0.200 A 
ATOM     98  F   UNL A   1      47.561  28.411  35.023  1.00  0.00    -0.200 F 
ATOM     99  F   UNL A   1      47.063  26.030  36.258  1.00  0.00    -0.200 F 
ENDBRANCH  66  89
ENDBRANCH  40  41
ENDBRANCH  32  35
ENDBRANCH  30  31
ENDBRANCH  29  30
ENDBRANCH   1  29
TORSDOF 14
ENDMDL
MODEL 3
REMARK VINA RESULT:     -13.2      5.211     11.567
REMARK SMILES COc1cccc(/C=C2/C(=O)N(c3cccc(C(=O)NCCCCNC(=O)c4ccc(-c5c6nc(c(-c7c(F)c(F)c(F)c(F)c7F)c7ccc([nH]7)c(-c7c(F)c(F)c(F)c(F)c7F)c7nc(c(-c8c(F)c(F)c(F)c(F)c8F)c8ccc5[nH]8)C=C7)C=C6)cc4)c3)N=C2C)c1
REMARK SMILES IDX 22 1 21 2 20 3 18 4 19 5 17 7 13 8 14 9 91 10 15 11 16 12
REMARK SMILES IDX 12 13 8 14 9 15 10 16 93 17 11 18 92 19 94 20 7 21 3 22 4 23
REMARK SMILES IDX 95 24 5 25 6 26 2 27 1 28 23 29 24 30 25 31 26 32 27 34
REMARK SMILES IDX 28 35 29 36 90 37 30 38 89 39 31 40 32 41 33 42 83 43 34 44
REMARK SMILES IDX 88 45 82 46 84 47 35 48 87 49 81 50 80 51 36 53 68 54 48 55
REMARK SMILES IDX 67 56 49 57 52 58 66 59 85 60 50 61 51 62 65 64 86 65 53 66
REMARK SMILES IDX 37 67 38 68 46 69 39 70 40 71 44 72 47 73 41 74 42 75 45 76
REMARK SMILES IDX 43 77 69 78 70 79 78 80 71 81 72 82 76 83 79 84 73 85 74 86
REMARK SMILES IDX 77 87 75 88 54 89 55 90 63 91 56 92 57 93 61 94 64 95 58 96
REMARK SMILES IDX 59 97 62 98 60 99
REMARK H PARENT 20 6 25 33 84 52 52 63
REMARK Flexibility Score: inf
ROOT
ATOM      1  C   UNL A   1      37.794  33.368  29.708  1.00  0.00     0.023 C 
ENDROOT
BRANCH   1   2
ATOM      2  C   UNL A   1      38.211  34.369  30.779  1.00  0.00     0.116 C 
BRANCH   2   3
ATOM      3  N   UNL A   1      37.267  34.515  31.877  1.00  0.00    -0.352 N 
ATOM      4  C   UNL A   1      37.439  34.447  33.246  1.00  0.00     0.251 C 
ATOM      5  O   UNL A   1      36.457  34.604  33.970  1.00  0.00    -0.269 OA
ATOM      6  H   UNL A   1      36.340  34.696  31.594  1.00  0.00     0.163 HD
BRANCH   4   7
ATOM      7  C   UNL A   1      38.747  34.095  33.860  1.00  0.00     0.041 A 
ATOM      8  C   UNL A   1      40.281  32.405  34.658  1.00  0.00     0.069 A 
ATOM      9  C   UNL A   1      40.880  33.362  35.489  1.00  0.00     0.028 A 
ATOM     10  C   UNL A   1      39.305  32.821  33.749  1.00  0.00     0.042 A 
ATOM     11  C   UNL A   1      40.480  34.698  35.436  1.00  0.00     0.003 A 
ATOM     12  C   UNL A   1      39.386  35.057  34.652  1.00  0.00     0.014 A 
BRANCH   8  13
ATOM     13  N   UNL A   1      40.536  31.027  34.851  1.00  0.00    -0.196 N 
ATOM     14  C   UNL A   1      42.067  28.126  36.169  1.00  0.00     0.024 C 
ATOM     15  C   UNL A   1      41.477  29.053  35.403  1.00  0.00     0.065 C 
ATOM     16  C   UNL A   1      41.267  30.438  35.892  1.00  0.00     0.280 C 
ATOM     17  C   UNL A   1      40.900  29.052  34.047  1.00  0.00     0.071 C 
ATOM     18  O   UNL A   1      41.690  30.891  36.938  1.00  0.00    -0.267 OA
ATOM     19  N   UNL A   1      40.318  30.187  33.760  1.00  0.00    -0.169 NA
ATOM     20  C   UNL A   1      41.020  27.940  33.059  1.00  0.00     0.069 C 
BRANCH  14  21
ATOM     21  C   UNL A   1      42.295  26.735  35.788  1.00  0.00    -0.021 A 
ATOM     22  C   UNL A   1      43.641  25.060  34.666  1.00  0.00     0.119 A 
ATOM     23  C   UNL A   1      42.655  24.108  34.933  1.00  0.00     0.046 A 
ATOM     24  C   UNL A   1      43.465  26.372  35.107  1.00  0.00     0.054 A 
ATOM     25  C   UNL A   1      41.513  24.453  35.656  1.00  0.00     0.004 A 
ATOM     26  C   UNL A   1      41.330  25.767  36.082  1.00  0.00     0.008 A 
BRANCH  22  27
ATOM     27  O   UNL A   1      44.694  24.609  33.919  1.00  0.00    -0.497 OA
ATOM     28  C   UNL A   1      44.498  24.566  32.510  1.00  0.00     0.278 C 
ENDBRANCH  22  27
ENDBRANCH  14  21
ENDBRANCH   8  13
ENDBRANCH   4   7
ENDBRANCH   2   3
ENDBRANCH   1   2
BRANCH   1  29
ATOM     29  C   UNL A   1      36.361  33.475  29.204  1.00  0.00     0.023 C 
BRANCH  29  30
ATOM     30  C   UNL A   1      35.335  32.616  29.933  1.00  0.00     0.116 C 
BRANCH  30  31
ATOM     31  N   UNL A   1      34.497  31.822  29.044  1.00  0.00    -0.352 N 
ATOM     32  C   UNL A   1      34.804  30.682  28.337  1.00  0.00     0.251 C 
ATOM     33  H   UNL A   1      33.574  32.149  28.933  1.00  0.00     0.163 HD
ATOM     34  O   UNL A   1      33.995  30.206  27.546  1.00  0.00    -0.269 OA
BRANCH  32  35
ATOM     35  C   UNL A   1      36.132  30.054  28.502  1.00  0.00     0.039 A 
ATOM     36  C   UNL A   1      37.059  30.147  27.460  1.00  0.00     0.014 A 
ATOM     37  C   UNL A   1      36.478  29.418  29.695  1.00  0.00     0.014 A 
ATOM     38  C   UNL A   1      38.362  29.685  27.653  1.00  0.00     0.010 A 
ATOM     39  C   UNL A   1      37.800  29.045  29.919  1.00  0.00     0.010 A 
ATOM     40  C   UNL A   1      38.758  29.178  28.903  1.00  0.00    -0.014 A 
BRANCH  40  41
ATOM     41  C   UNL A   1      40.167  28.791  29.170  1.00  0.00     0.031 A 
ATOM     42  C   UNL A   1      41.095  29.747  29.866  1.00  0.00     0.074 A 
ATOM     43  C   UNL A   1      40.632  27.607  28.722  1.00  0.00     0.049 A 
ATOM     44  N   UNL A   1      42.372  29.623  30.126  1.00  0.00    -0.248 NA
ATOM     45  C   UNL A   1      40.516  31.027  30.304  1.00  0.00     0.031 C 
ATOM     46  C   UNL A   1      39.848  26.614  27.985  1.00  0.00     0.029 A 
ATOM     47  N   UNL A   1      41.881  27.043  28.808  1.00  0.00    -0.354 N 
ATOM     48  C   UNL A   1      42.749  30.809  30.742  1.00  0.00     0.074 A 
ATOM     49  C   UNL A   1      41.583  31.665  30.761  1.00  0.00     0.031 C 
ATOM     50  C   UNL A   1      40.624  25.554  27.713  1.00  0.00     0.029 A 
ATOM     51  C   UNL A   1      41.972  25.808  28.212  1.00  0.00     0.049 A 
ATOM     52  H   UNL A   1      42.641  27.482  29.256  1.00  0.00     0.167 HD
ATOM     53  C   UNL A   1      43.951  31.144  31.269  1.00  0.00     0.037 A 
ATOM     54  C   UNL A   1      43.026  24.980  28.073  1.00  0.00     0.037 A 
ATOM     55  C   UNL A   1      45.104  30.282  31.263  1.00  0.00     0.049 A 
ATOM     56  C   UNL A   1      44.358  25.386  28.647  1.00  0.00     0.074 A 
ATOM     57  C   UNL A   1      46.349  30.504  31.822  1.00  0.00     0.029 A 
ATOM     58  N   UNL A   1      45.154  29.034  30.658  1.00  0.00    -0.354 N 
ATOM     59  N   UNL A   1      44.682  26.478  29.298  1.00  0.00    -0.248 NA
ATOM     60  C   UNL A   1      45.469  24.440  28.475  1.00  0.00     0.031 C 
ATOM     61  C   UNL A   1      47.173  29.420  31.501  1.00  0.00     0.029 A 
ATOM     62  C   UNL A   1      46.419  28.489  30.804  1.00  0.00     0.049 A 
ATOM     63  H   UNL A   1      44.402  28.600  30.193  1.00  0.00     0.167 HD
ATOM     64  C   UNL A   1      46.020  26.336  29.639  1.00  0.00     0.074 A 
ATOM     65  C   UNL A   1      46.443  25.045  29.138  1.00  0.00     0.031 C 
ATOM     66  C   UNL A   1      46.826  27.198  30.307  1.00  0.00     0.037 A 
BRANCH  53  67
ATOM     67  C   UNL A   1      44.081  32.503  31.897  1.00  0.00     0.064 A 
ATOM     68  C   UNL A   1      43.954  32.692  33.282  1.00  0.00     0.173 A 
ATOM     69  C   UNL A   1      44.370  33.627  31.108  1.00  0.00     0.173 A 
ATOM     70  F   UNL A   1      43.668  31.654  34.083  1.00  0.00    -0.203 F 
ATOM     71  C   UNL A   1      44.076  33.958  33.849  1.00  0.00     0.198 A 
ATOM     72  C   UNL A   1      44.527  34.885  31.683  1.00  0.00     0.198 A 
ATOM     73  F   UNL A   1      44.509  33.505  29.780  1.00  0.00    -0.203 F 
ATOM     74  F   UNL A   1      43.893  34.122  35.167  1.00  0.00    -0.200 F 
ATOM     75  C   UNL A   1      44.371  35.052  33.050  1.00  0.00     0.200 A 
ATOM     76  F   UNL A   1      44.829  35.939  30.912  1.00  0.00    -0.200 F 
ATOM     77  F   UNL A   1      44.497  36.269  33.597  1.00  0.00    -0.200 F 
ENDBRANCH  53  67
BRANCH  54  78
ATOM     78  C   UNL A   1      42.864  23.677  27.374  1.00  0.00     0.064 A 
ATOM     79  C   UNL A   1      43.260  23.521  26.037  1.00  0.00     0.173 A 
ATOM     80  C   UNL A   1      42.301  22.566  28.018  1.00  0.00     0.173 A 
ATOM     81  F   UNL A   1      43.786  24.560  25.370  1.00  0.00    -0.203 F 
ATOM     82  C   UNL A   1      43.075  22.315  25.365  1.00  0.00     0.198 A 
ATOM     83  C   UNL A   1      42.147  21.349  27.355  1.00  0.00     0.198 A 
ATOM     84  F   UNL A   1      41.910  22.657  29.297  1.00  0.00    -0.203 F 
ATOM     85  F   UNL A   1      43.413  22.212  24.073  1.00  0.00    -0.200 F 
ATOM     86  C   UNL A   1      42.525  21.228  26.026  1.00  0.00     0.200 A 
ATOM     87  F   UNL A   1      41.631  20.296  28.003  1.00  0.00    -0.200 F 
ATOM     88  F   UNL A   1      42.351  20.066  25.382  1.00  0.00    -0.200 F 
ENDBRANCH  54  78
BRANCH  66  89
ATOM     89  C   UNL A   1      48.237  26.758  30.577  1.00  0.00     0.064 A 
ATOM     90  C   UNL A   1      48.574  25.990  31.701  1.00  0.00     0.173 A 
ATOM     91  C   UNL A   1      49.262  27.076  29.670  1.00  0.00     0.173 A 
ATOM     92  F   UNL A   1      47.636  25.671  32.606  1.00  0.00    -0.203 F 
ATOM     93  C   UNL A   1      49.887  25.582  31.922  1.00  0.00     0.198 A 
ATOM     94  C   UNL A   1      50.566  26.634  29.876  1.00  0.00     0.198 A 
ATOM     95  F   UNL A   1      48.994  27.801  28.573  1.00  0.00    -0.203 F 
ATOM     96  F   UNL A   1      50.194  24.895  33.032  1.00  0.00    -0.200 F 
ATOM     97  C   UNL A   1      50.879  25.895  31.006  1.00  0.00     0.200 A 
ATOM     98  F   UNL A   1      51.518  26.923  28.979  1.00  0.00    -0.200 F 
ATOM     99  F   UNL A   1      52.139  25.492  31.216  1.00  0.00    -0.200 F 
ENDBRANCH  66  89
ENDBRANCH  40  41
ENDBRANCH  32  35
ENDBRANCH  30  31
ENDBRANCH  29  30
ENDBRANCH   1  29
TORSDOF 14
ENDMDL
