MODEL 1
REMARK VINA RESULT:     -12.6      0.000      0.000
REMARK SMILES C[C@@H]1C[N@@H+]([C@@H]2CC[C@]([NH2+]C3CC3)(C(=O)NCCCCNC(=O)c3ccc(-c4c5nc(c(-c6c(F)c(F)c(F)c(F)c6F)c6ccc([nH]6)c(-c6c(F)c(F)c(F)c(F)c6F)c6nc(c(-c7c(F)c(F)c(F)c(F)c7F)c7ccc4[nH]7)C=C6)C=C5)cc3)C2)CC(C)(C)O1
REMARK SMILES IDX 17 1 16 2 15 3 13 4 14 5 8 7 5 8 6 9 86 10 7 11 4 12 1 13
REMARK SMILES IDX 2 14 3 15 91 16 88 17 87 18 89 20 90 21 9 22 10 25 11 26
REMARK SMILES IDX 12 27 18 28 19 29 20 30 21 31 22 33 23 34 24 35 85 36 25 37
REMARK SMILES IDX 84 38 26 39 27 40 28 41 78 42 29 43 83 44 77 45 79 46 30 47
REMARK SMILES IDX 82 48 76 49 75 50 31 52 63 53 43 54 62 55 44 56 47 57 61 58
REMARK SMILES IDX 80 59 45 60 46 61 60 63 81 64 48 65 32 66 33 67 41 68 34 69
REMARK SMILES IDX 35 70 39 71 42 72 36 73 37 74 40 75 38 76 64 77 65 78 73 79
REMARK SMILES IDX 66 80 67 81 71 82 74 83 68 84 69 85 72 86 70 87 49 88 50 89
REMARK SMILES IDX 58 90 51 91 52 92 56 93 59 94 53 95 54 96 57 97 55 98
REMARK H PARENT 15 6 4 19 9 23 9 24 20 32 79 51 47 62
REMARK Flexibility Score: inf
ROOT
ATOM      1  C   UNL A   1      37.125  21.319  24.405  1.00  0.00     0.023 C 
ENDROOT
BRANCH   1   2
ATOM      2  C   UNL A   1      36.706  22.423  25.368  1.00  0.00     0.116 C 
BRANCH   2   3
ATOM      3  N   UNL A   1      35.900  21.965  26.481  1.00  0.00    -0.351 N 
ATOM      4  C   UNL A   1      34.543  21.863  26.630  1.00  0.00     0.281 C 
ATOM      5  O   UNL A   1      34.155  21.414  27.716  1.00  0.00    -0.268 OA
ATOM      6  H   UNL A   1      36.418  21.678  27.268  1.00  0.00     0.163 HD
BRANCH   4   7
ATOM      7  C   UNL A   1      33.521  22.368  25.543  1.00  0.00     0.181 C 
ATOM      8  C   UNL A   1      32.577  24.507  24.851  1.00  0.00     0.191 C 
ATOM      9  C   UNL A   1      31.674  23.957  25.962  1.00  0.00     0.072 C 
ATOM     10  C   UNL A   1      33.906  23.747  24.972  1.00  0.00     0.144 C 
ATOM     11  C   UNL A   1      32.137  22.523  26.212  1.00  0.00     0.085 C 
BRANCH   8  12
ATOM     12  N   UNL A   1      32.728  25.964  24.747  1.00  0.00    -0.328 N 
ATOM     13  C   UNL A   1      32.408  28.526  22.881  1.00  0.00     0.045 C 
ATOM     14  C   UNL A   1      33.644  27.987  23.597  1.00  0.00     0.171 C 
ATOM     15  C   UNL A   1      33.645  26.449  23.702  1.00  0.00     0.294 C 
ATOM     16  O   UNL A   1      33.880  28.628  24.857  1.00  0.00    -0.361 OA
ATOM     17  C   UNL A   1      33.151  28.107  25.986  1.00  0.00     0.112 C 
ATOM     18  C   UNL A   1      33.168  26.556  26.026  1.00  0.00     0.297 C 
ATOM     19  H   UNL A   1      31.788  26.265  24.487  1.00  0.00     0.348 HD
ATOM     20  C   UNL A   1      31.720  28.660  26.020  1.00  0.00     0.048 C 
ATOM     21  C   UNL A   1      33.896  28.635  27.222  1.00  0.00     0.048 C 
ENDBRANCH   8  12
BRANCH   7  22
ATOM     22  N   UNL A   1      33.517  21.364  24.440  1.00  0.00    -0.331 N 
ATOM     23  H   UNL A   1      34.491  21.166  24.209  1.00  0.00     0.347 HD
ATOM     24  H   UNL A   1      32.964  21.801  23.703  1.00  0.00     0.347 HD
BRANCH  22  25
ATOM     25  C   UNL A   1      32.856  20.077  24.675  1.00  0.00     0.183 C 
ATOM     26  C   UNL A   1      32.578  19.145  23.529  1.00  0.00     0.071 C 
ATOM     27  C   UNL A   1      33.661  18.817  24.509  1.00  0.00     0.071 C 
ENDBRANCH  22  25
ENDBRANCH   7  22
ENDBRANCH   4   7
ENDBRANCH   2   3
ENDBRANCH   1   2
BRANCH   1  28
ATOM     28  C   UNL A   1      37.816  20.126  25.051  1.00  0.00     0.023 C 
BRANCH  28  29
ATOM     29  C   UNL A   1      39.148  20.429  25.725  1.00  0.00     0.116 C 
BRANCH  29  30
ATOM     30  N   UNL A   1      40.043  19.282  25.798  1.00  0.00    -0.352 N 
ATOM     31  C   UNL A   1      41.392  19.251  26.063  1.00  0.00     0.251 C 
ATOM     32  H   UNL A   1      39.623  18.407  25.635  1.00  0.00     0.163 HD
ATOM     33  O   UNL A   1      42.013  18.195  25.993  1.00  0.00    -0.269 OA
BRANCH  31  34
ATOM     34  C   UNL A   1      42.103  20.505  26.390  1.00  0.00     0.039 A 
ATOM     35  C   UNL A   1      42.609  21.287  25.349  1.00  0.00     0.014 A 
ATOM     36  C   UNL A   1      42.223  20.933  27.714  1.00  0.00     0.014 A 
ATOM     37  C   UNL A   1      43.154  22.541  25.629  1.00  0.00     0.010 A 
ATOM     38  C   UNL A   1      42.687  22.216  27.983  1.00  0.00     0.010 A 
ATOM     39  C   UNL A   1      43.152  23.036  26.943  1.00  0.00    -0.014 A 
BRANCH  39  40
ATOM     40  C   UNL A   1      43.615  24.412  27.254  1.00  0.00     0.031 A 
ATOM     41  C   UNL A   1      42.642  25.438  27.761  1.00  0.00     0.074 A 
ATOM     42  C   UNL A   1      44.887  24.765  26.985  1.00  0.00     0.049 A 
ATOM     43  N   UNL A   1      42.828  26.713  27.993  1.00  0.00    -0.248 NA
ATOM     44  C   UNL A   1      41.267  24.978  28.004  1.00  0.00     0.031 C 
ATOM     45  C   UNL A   1      45.909  23.880  26.424  1.00  0.00     0.029 A 
ATOM     46  N   UNL A   1      45.531  25.968  27.127  1.00  0.00    -0.354 N 
ATOM     47  C   UNL A   1      41.591  27.209  28.383  1.00  0.00     0.074 A 
ATOM     48  C   UNL A   1      40.652  26.111  28.307  1.00  0.00     0.031 C 
ATOM     49  C   UNL A   1      47.054  24.567  26.280  1.00  0.00     0.029 A 
ATOM     50  C   UNL A   1      46.838  25.947  26.704  1.00  0.00     0.049 A 
ATOM     51  H   UNL A   1      45.098  26.771  27.497  1.00  0.00     0.167 HD
ATOM     52  C   UNL A   1      41.273  28.462  28.788  1.00  0.00     0.037 A 
ATOM     53  C   UNL A   1      47.755  26.931  26.654  1.00  0.00     0.037 A 
ATOM     54  C   UNL A   1      42.218  29.541  28.898  1.00  0.00     0.049 A 
ATOM     55  C   UNL A   1      47.389  28.306  27.140  1.00  0.00     0.074 A 
ATOM     56  C   UNL A   1      42.015  30.819  29.388  1.00  0.00     0.029 A 
ATOM     57  N   UNL A   1      43.547  29.468  28.507  1.00  0.00    -0.354 N 
ATOM     58  N   UNL A   1      46.238  28.741  27.593  1.00  0.00    -0.248 NA
ATOM     59  C   UNL A   1      48.449  29.322  27.120  1.00  0.00     0.031 C 
ATOM     60  C   UNL A   1      43.209  31.535  29.250  1.00  0.00     0.029 A 
ATOM     61  C   UNL A   1      44.170  30.688  28.721  1.00  0.00     0.049 A 
ATOM     62  H   UNL A   1      43.984  28.669  28.134  1.00  0.00     0.167 HD
ATOM     63  C   UNL A   1      46.440  30.073  27.930  1.00  0.00     0.074 A 
ATOM     64  C   UNL A   1      47.829  30.370  27.645  1.00  0.00     0.031 C 
ATOM     65  C   UNL A   1      45.554  30.968  28.431  1.00  0.00     0.037 A 
BRANCH  52  66
ATOM     66  C   UNL A   1      39.839  28.730  29.143  1.00  0.00     0.064 A 
ATOM     67  C   UNL A   1      39.342  28.499  30.436  1.00  0.00     0.173 A 
ATOM     68  C   UNL A   1      38.953  29.240  28.183  1.00  0.00     0.173 A 
ATOM     69  F   UNL A   1      40.144  27.999  31.388  1.00  0.00    -0.203 F 
ATOM     70  C   UNL A   1      38.005  28.735  30.742  1.00  0.00     0.198 A 
ATOM     71  C   UNL A   1      37.624  29.506  28.502  1.00  0.00     0.198 A 
ATOM     72  F   UNL A   1      39.376  29.485  26.933  1.00  0.00    -0.203 F 
ATOM     73  F   UNL A   1      37.540  28.451  31.967  1.00  0.00    -0.200 F 
ATOM     74  C   UNL A   1      37.149  29.243  29.777  1.00  0.00     0.200 A 
ATOM     75  F   UNL A   1      36.800  30.009  27.571  1.00  0.00    -0.200 F 
ATOM     76  F   UNL A   1      35.862  29.471  30.074  1.00  0.00    -0.200 F 
ENDBRANCH  52  66
BRANCH  53  77
ATOM     77  C   UNL A   1      49.119  26.640  26.139  1.00  0.00     0.064 A 
ATOM     78  C   UNL A   1      49.475  26.959  24.821  1.00  0.00     0.173 A 
ATOM     79  C   UNL A   1      50.097  26.056  26.957  1.00  0.00     0.173 A 
ATOM     80  F   UNL A   1      48.567  27.501  23.995  1.00  0.00    -0.203 F 
ATOM     81  C   UNL A   1      50.753  26.693  24.337  1.00  0.00     0.198 A 
ATOM     82  C   UNL A   1      51.383  25.814  26.479  1.00  0.00     0.198 A 
ATOM     83  F   UNL A   1      49.808  25.738  28.227  1.00  0.00    -0.203 F 
ATOM     84  F   UNL A   1      51.056  26.976  23.063  1.00  0.00    -0.200 F 
ATOM     85  C   UNL A   1      51.709  26.127  25.168  1.00  0.00     0.200 A 
ATOM     86  F   UNL A   1      52.308  25.282  27.290  1.00  0.00    -0.200 F 
ATOM     87  F   UNL A   1      52.942  25.881  24.705  1.00  0.00    -0.200 F 
ENDBRANCH  53  77
BRANCH  65  88
ATOM     88  C   UNL A   1      46.062  32.349  28.725  1.00  0.00     0.064 A 
ATOM     89  C   UNL A   1      46.004  33.373  27.768  1.00  0.00     0.173 A 
ATOM     90  C   UNL A   1      46.574  32.662  29.993  1.00  0.00     0.173 A 
ATOM     91  F   UNL A   1      45.537  33.120  26.535  1.00  0.00    -0.203 F 
ATOM     92  C   UNL A   1      46.458  34.655  28.064  1.00  0.00     0.198 A 
ATOM     93  C   UNL A   1      47.002  33.952  30.294  1.00  0.00     0.198 A 
ATOM     94  F   UNL A   1      46.647  31.720  30.944  1.00  0.00    -0.203 F 
ATOM     95  F   UNL A   1      46.434  35.607  27.120  1.00  0.00    -0.200 F 
ATOM     96  C   UNL A   1      46.950  34.946  29.328  1.00  0.00     0.200 A 
ATOM     97  F   UNL A   1      47.465  34.234  31.520  1.00  0.00    -0.200 F 
ATOM     98  F   UNL A   1      47.381  36.182  29.613  1.00  0.00    -0.200 F 
ENDBRANCH  65  88
ENDBRANCH  39  40
ENDBRANCH  31  34
ENDBRANCH  29  30
ENDBRANCH  28  29
ENDBRANCH   1  28
TORSDOF 14
ENDMDL
MODEL 2
REMARK VINA RESULT:     -12.5      0.121      1.121
REMARK SMILES C[C@@H]1C[N@@H+]([C@@H]2CC[C@]([NH2+]C3CC3)(C(=O)NCCCCNC(=O)c3ccc(-c4c5nc(c(-c6c(F)c(F)c(F)c(F)c6F)c6ccc([nH]6)c(-c6c(F)c(F)c(F)c(F)c6F)c6nc(c(-c7c(F)c(F)c(F)c(F)c7F)c7ccc4[nH]7)C=C6)C=C5)cc3)C2)CC(C)(C)O1
REMARK SMILES IDX 17 1 16 2 15 3 13 4 14 5 8 7 5 8 6 9 86 10 7 11 4 12 1 13
REMARK SMILES IDX 2 14 3 15 91 16 88 17 87 18 89 20 90 21 9 22 10 25 11 26
REMARK SMILES IDX 12 27 18 28 19 29 20 30 21 31 22 33 23 34 24 35 85 36 25 37
REMARK SMILES IDX 84 38 26 39 27 40 28 41 78 42 29 43 83 44 77 45 79 46 30 47
REMARK SMILES IDX 82 48 76 49 75 50 31 52 63 53 43 54 62 55 44 56 47 57 61 58
REMARK SMILES IDX 80 59 45 60 46 61 60 63 81 64 48 65 32 66 33 67 41 68 34 69
REMARK SMILES IDX 35 70 39 71 42 72 36 73 37 74 40 75 38 76 64 77 65 78 73 79
REMARK SMILES IDX 66 80 67 81 71 82 74 83 68 84 69 85 72 86 70 87 49 88 50 89
REMARK SMILES IDX 58 90 51 91 52 92 56 93 59 94 53 95 54 96 57 97 55 98
REMARK H PARENT 15 6 4 19 9 23 9 24 20 32 79 51 47 62
REMARK Flexibility Score: inf
ROOT
ATOM      1  C   UNL A   1      37.102  21.409  24.462  1.00  0.00     0.023 C 
ENDROOT
BRANCH   1   2
ATOM      2  C   UNL A   1      36.738  22.513  25.446  1.00  0.00     0.116 C 
BRANCH   2   3
ATOM      3  N   UNL A   1      35.930  22.069  26.563  1.00  0.00    -0.351 N 
ATOM      4  C   UNL A   1      34.573  21.974  26.713  1.00  0.00     0.281 C 
ATOM      5  O   UNL A   1      34.183  21.539  27.803  1.00  0.00    -0.268 OA
ATOM      6  H   UNL A   1      36.447  21.789  27.354  1.00  0.00     0.163 HD
BRANCH   4   7
ATOM      7  C   UNL A   1      33.554  22.472  25.620  1.00  0.00     0.181 C 
ATOM      8  C   UNL A   1      32.617  24.607  24.906  1.00  0.00     0.191 C 
ATOM      9  C   UNL A   1      31.711  24.070  26.021  1.00  0.00     0.072 C 
ATOM     10  C   UNL A   1      33.943  23.844  25.035  1.00  0.00     0.144 C 
ATOM     11  C   UNL A   1      32.169  22.638  26.286  1.00  0.00     0.085 C 
BRANCH   8  12
ATOM     12  N   UNL A   1      32.772  26.062  24.787  1.00  0.00    -0.328 N 
ATOM     13  C   UNL A   1      32.469  28.604  22.892  1.00  0.00     0.045 C 
ATOM     14  C   UNL A   1      33.700  28.070  23.620  1.00  0.00     0.171 C 
ATOM     15  C   UNL A   1      33.696  26.533  23.741  1.00  0.00     0.294 C 
ATOM     16  O   UNL A   1      33.931  28.724  24.875  1.00  0.00    -0.361 OA
ATOM     17  C   UNL A   1      33.195  28.217  26.005  1.00  0.00     0.112 C 
ATOM     18  C   UNL A   1      33.207  26.667  26.062  1.00  0.00     0.297 C 
ATOM     19  H   UNL A   1      31.834  26.362  24.519  1.00  0.00     0.348 HD
ATOM     20  C   UNL A   1      31.765  28.774  26.026  1.00  0.00     0.048 C 
ATOM     21  C   UNL A   1      33.935  28.755  27.240  1.00  0.00     0.048 C 
ENDBRANCH   8  12
BRANCH   7  22
ATOM     22  N   UNL A   1      33.548  21.457  24.527  1.00  0.00    -0.331 N 
ATOM     23  H   UNL A   1      34.510  21.354  24.205  1.00  0.00     0.347 HD
ATOM     24  H   UNL A   1      32.886  21.825  23.844  1.00  0.00     0.347 HD
BRANCH  22  25
ATOM     25  C   UNL A   1      33.045  20.114  24.830  1.00  0.00     0.183 C 
ATOM     26  C   UNL A   1      32.629  19.189  23.720  1.00  0.00     0.071 C 
ATOM     27  C   UNL A   1      33.900  18.930  24.468  1.00  0.00     0.071 C 
ENDBRANCH  22  25
ENDBRANCH   7  22
ENDBRANCH   4   7
ENDBRANCH   2   3
ENDBRANCH   1   2
BRANCH   1  28
ATOM     28  C   UNL A   1      37.812  20.207  25.072  1.00  0.00     0.023 C 
BRANCH  28  29
ATOM     29  C   UNL A   1      39.141  20.511  25.752  1.00  0.00     0.116 C 
BRANCH  29  30
ATOM     30  N   UNL A   1      40.034  19.363  25.834  1.00  0.00    -0.352 N 
ATOM     31  C   UNL A   1      41.385  19.332  26.089  1.00  0.00     0.251 C 
ATOM     32  H   UNL A   1      39.611  18.487  25.686  1.00  0.00     0.163 HD
ATOM     33  O   UNL A   1      42.003  18.273  26.028  1.00  0.00    -0.269 OA
BRANCH  31  34
ATOM     34  C   UNL A   1      42.101  20.589  26.394  1.00  0.00     0.039 A 
ATOM     35  C   UNL A   1      42.464  21.432  25.342  1.00  0.00     0.014 A 
ATOM     36  C   UNL A   1      42.367  20.956  27.715  1.00  0.00     0.014 A 
ATOM     37  C   UNL A   1      43.010  22.687  25.619  1.00  0.00     0.010 A 
ATOM     38  C   UNL A   1      42.831  22.237  27.992  1.00  0.00     0.010 A 
ATOM     39  C   UNL A   1      43.152  23.119  26.948  1.00  0.00    -0.014 A 
BRANCH  39  40
ATOM     40  C   UNL A   1      43.617  24.490  27.272  1.00  0.00     0.031 A 
ATOM     41  C   UNL A   1      42.643  25.519  27.774  1.00  0.00     0.074 A 
ATOM     42  C   UNL A   1      44.894  24.839  27.020  1.00  0.00     0.049 A 
ATOM     43  N   UNL A   1      42.832  26.791  28.015  1.00  0.00    -0.248 NA
ATOM     44  C   UNL A   1      41.263  25.063  27.998  1.00  0.00     0.031 C 
ATOM     45  C   UNL A   1      45.918  23.953  26.466  1.00  0.00     0.029 A 
ATOM     46  N   UNL A   1      45.542  26.039  27.177  1.00  0.00    -0.354 N 
ATOM     47  C   UNL A   1      41.593  27.291  28.393  1.00  0.00     0.074 A 
ATOM     48  C   UNL A   1      40.650  26.198  28.300  1.00  0.00     0.031 C 
ATOM     49  C   UNL A   1      47.068  24.636  26.339  1.00  0.00     0.029 A 
ATOM     50  C   UNL A   1      46.853  26.014  26.768  1.00  0.00     0.049 A 
ATOM     51  H   UNL A   1      45.108  26.841  27.546  1.00  0.00     0.167 HD
ATOM     52  C   UNL A   1      41.275  28.542  28.802  1.00  0.00     0.037 A 
ATOM     53  C   UNL A   1      47.776  26.994  26.734  1.00  0.00     0.037 A 
ATOM     54  C   UNL A   1      42.224  29.617  28.929  1.00  0.00     0.049 A 
ATOM     55  C   UNL A   1      47.410  28.367  27.224  1.00  0.00     0.074 A 
ATOM     56  C   UNL A   1      42.021  30.893  29.423  1.00  0.00     0.029 A 
ATOM     57  N   UNL A   1      43.558  29.540  28.553  1.00  0.00    -0.354 N 
ATOM     58  N   UNL A   1      46.256  28.806  27.666  1.00  0.00    -0.248 NA
ATOM     59  C   UNL A   1      48.475  29.379  27.222  1.00  0.00     0.031 C 
ATOM     60  C   UNL A   1      43.220  31.604  29.304  1.00  0.00     0.029 A 
ATOM     61  C   UNL A   1      44.183  30.756  28.781  1.00  0.00     0.049 A 
ATOM     62  H   UNL A   1      43.995  28.741  28.181  1.00  0.00     0.167 HD
ATOM     63  C   UNL A   1      46.459  30.135  28.013  1.00  0.00     0.074 A 
ATOM     64  C   UNL A   1      47.853  30.427  27.745  1.00  0.00     0.031 C 
ATOM     65  C   UNL A   1      45.572  31.032  28.509  1.00  0.00     0.037 A 
BRANCH  52  66
ATOM     66  C   UNL A   1      39.839  28.815  29.142  1.00  0.00     0.064 A 
ATOM     67  C   UNL A   1      38.936  29.312  28.188  1.00  0.00     0.173 A 
ATOM     68  C   UNL A   1      39.354  28.561  30.433  1.00  0.00     0.173 A 
ATOM     69  F   UNL A   1      39.351  29.584  26.942  1.00  0.00    -0.203 F 
ATOM     70  C   UNL A   1      37.611  29.577  28.526  1.00  0.00     0.198 A 
ATOM     71  C   UNL A   1      38.021  28.797  30.758  1.00  0.00     0.198 A 
ATOM     72  F   UNL A   1      40.172  28.080  31.381  1.00  0.00    -0.203 F 
ATOM     73  F   UNL A   1      36.783  30.107  27.614  1.00  0.00    -0.200 F 
ATOM     74  C   UNL A   1      37.154  29.315  29.808  1.00  0.00     0.200 A 
ATOM     75  F   UNL A   1      37.577  28.531  31.995  1.00  0.00    -0.200 F 
ATOM     76  F   UNL A   1      35.878  29.570  30.132  1.00  0.00    -0.200 F 
ENDBRANCH  52  66
BRANCH  53  77
ATOM     77  C   UNL A   1      49.143  26.699  26.234  1.00  0.00     0.064 A 
ATOM     78  C   UNL A   1      49.499  26.974  24.906  1.00  0.00     0.173 A 
ATOM     79  C   UNL A   1      50.125  26.157  27.075  1.00  0.00     0.173 A 
ATOM     80  F   UNL A   1      48.588  27.476  24.059  1.00  0.00    -0.203 F 
ATOM     81  C   UNL A   1      50.782  26.705  24.435  1.00  0.00     0.198 A 
ATOM     82  C   UNL A   1      51.416  25.912  26.609  1.00  0.00     0.198 A 
ATOM     83  F   UNL A   1      49.837  25.882  28.355  1.00  0.00    -0.203 F 
ATOM     84  F   UNL A   1      51.086  26.944  23.152  1.00  0.00    -0.200 F 
ATOM     85  C   UNL A   1      51.742  26.181  25.289  1.00  0.00     0.200 A 
ATOM     86  F   UNL A   1      52.344  25.421  27.441  1.00  0.00    -0.200 F 
ATOM     87  F   UNL A   1      52.979  25.931  24.838  1.00  0.00    -0.200 F 
ENDBRANCH  53  77
BRANCH  65  88
ATOM     88  C   UNL A   1      46.083  32.408  28.816  1.00  0.00     0.064 A 
ATOM     89  C   UNL A   1      46.032  33.440  27.867  1.00  0.00     0.173 A 
ATOM     90  C   UNL A   1      46.590  32.709  30.089  1.00  0.00     0.173 A 
ATOM     91  F   UNL A   1      45.569  33.199  26.631  1.00  0.00    -0.203 F 
ATOM     92  C   UNL A   1      46.489  34.719  28.176  1.00  0.00     0.198 A 
ATOM     93  C   UNL A   1      47.021  33.995  30.403  1.00  0.00     0.198 A 
ATOM     94  F   UNL A   1      46.656  31.759  31.033  1.00  0.00    -0.203 F 
ATOM     95  F   UNL A   1      46.471  35.678  27.240  1.00  0.00    -0.200 F 
ATOM     96  C   UNL A   1      46.976  34.998  29.445  1.00  0.00     0.200 A 
ATOM     97  F   UNL A   1      47.478  34.265  31.633  1.00  0.00    -0.200 F 
ATOM     98  F   UNL A   1      47.409  36.230  29.741  1.00  0.00    -0.200 F 
ENDBRANCH  65  88
ENDBRANCH  39  40
ENDBRANCH  31  34
ENDBRANCH  29  30
ENDBRANCH  28  29
ENDBRANCH   1  28
TORSDOF 14
ENDMDL
MODEL 3
REMARK VINA RESULT:     -12.5      5.380     11.142
REMARK SMILES C[C@@H]1C[N@@H+]([C@@H]2CC[C@]([NH2+]C3CC3)(C(=O)NCCCCNC(=O)c3ccc(-c4c5nc(c(-c6c(F)c(F)c(F)c(F)c6F)c6ccc([nH]6)c(-c6c(F)c(F)c(F)c(F)c6F)c6nc(c(-c7c(F)c(F)c(F)c(F)c7F)c7ccc4[nH]7)C=C6)C=C5)cc3)C2)CC(C)(C)O1
REMARK SMILES IDX 17 1 16 2 15 3 13 4 14 5 8 7 5 8 6 9 86 10 7 11 4 12 1 13
REMARK SMILES IDX 2 14 3 15 91 16 88 17 87 18 89 20 90 21 9 22 10 25 11 26
REMARK SMILES IDX 12 27 18 28 19 29 20 30 21 31 22 33 23 34 24 35 85 36 25 37
REMARK SMILES IDX 84 38 26 39 27 40 28 41 78 42 29 43 83 44 77 45 79 46 30 47
REMARK SMILES IDX 82 48 76 49 75 50 31 52 63 53 43 54 62 55 44 56 47 57 61 58
REMARK SMILES IDX 80 59 45 60 46 61 60 63 81 64 48 65 32 66 33 67 41 68 34 69
REMARK SMILES IDX 35 70 39 71 42 72 36 73 37 74 40 75 38 76 64 77 65 78 73 79
REMARK SMILES IDX 66 80 67 81 71 82 74 83 68 84 69 85 72 86 70 87 49 88 50 89
REMARK SMILES IDX 58 90 51 91 52 92 56 93 59 94 53 95 54 96 57 97 55 98
REMARK H PARENT 15 6 4 19 9 23 9 24 20 32 79 51 47 62
REMARK Flexibility Score: inf
ROOT
ATOM      1  C   UNL A   1      31.780  30.114  26.761  1.00  0.00     0.023 C 
ENDROOT
BRANCH   1   2
ATOM      2  C   UNL A   1      33.051  29.366  26.381  1.00  0.00     0.116 C 
BRANCH   2   3
ATOM      3  N   UNL A   1      33.489  29.593  25.019  1.00  0.00    -0.351 N 
ATOM      4  C   UNL A   1      33.216  28.918  23.860  1.00  0.00     0.281 C 
ATOM      5  O   UNL A   1      33.741  29.376  22.837  1.00  0.00    -0.268 OA
ATOM      6  H   UNL A   1      34.087  30.367  24.908  1.00  0.00     0.163 HD
BRANCH   4   7
ATOM      7  C   UNL A   1      32.373  27.588  23.821  1.00  0.00     0.181 C 
ATOM      8  C   UNL A   1      32.781  25.215  24.206  1.00  0.00     0.191 C 
ATOM      9  C   UNL A   1      33.087  25.488  22.728  1.00  0.00     0.072 C 
ATOM     10  C   UNL A   1      32.813  26.582  24.903  1.00  0.00     0.144 C 
ATOM     11  C   UNL A   1      32.600  26.909  22.451  1.00  0.00     0.085 C 
BRANCH   8  12
ATOM     12  N   UNL A   1      33.563  24.176  24.888  1.00  0.00    -0.328 N 
ATOM     13  C   UNL A   1      33.467  21.445  26.525  1.00  0.00     0.045 C 
ATOM     14  C   UNL A   1      34.062  22.797  26.914  1.00  0.00     0.171 C 
ATOM     15  C   UNL A   1      33.276  23.983  26.320  1.00  0.00     0.294 C 
ATOM     16  O   UNL A   1      35.469  22.879  26.655  1.00  0.00    -0.361 OA
ATOM     17  C   UNL A   1      35.853  23.236  25.313  1.00  0.00     0.112 C 
ATOM     18  C   UNL A   1      35.014  24.419  24.761  1.00  0.00     0.297 C 
ATOM     19  H   UNL A   1      33.271  23.327  24.404  1.00  0.00     0.348 HD
ATOM     20  C   UNL A   1      35.796  22.018  24.382  1.00  0.00     0.048 C 
ATOM     21  C   UNL A   1      37.318  23.686  25.420  1.00  0.00     0.048 C 
ENDBRANCH   8  12
BRANCH   7  22
ATOM     22  N   UNL A   1      30.947  27.962  24.048  1.00  0.00    -0.331 N 
ATOM     23  H   UNL A   1      30.911  28.500  24.914  1.00  0.00     0.347 HD
ATOM     24  H   UNL A   1      30.451  27.071  24.056  1.00  0.00     0.347 HD
BRANCH  22  25
ATOM     25  C   UNL A   1      30.264  28.749  23.018  1.00  0.00     0.183 C 
ATOM     26  C   UNL A   1      28.764  28.854  23.013  1.00  0.00     0.071 C 
ATOM     27  C   UNL A   1      29.591  30.031  23.425  1.00  0.00     0.071 C 
ENDBRANCH  22  25
ENDBRANCH   7  22
ENDBRANCH   4   7
ENDBRANCH   2   3
ENDBRANCH   1   2
BRANCH   1  28
ATOM     28  C   UNL A   1      31.811  31.614  26.501  1.00  0.00     0.023 C 
BRANCH  28  29
ATOM     29  C   UNL A   1      32.837  32.396  27.310  1.00  0.00     0.116 C 
BRANCH  29  30
ATOM     30  N   UNL A   1      32.451  33.777  27.569  1.00  0.00    -0.352 N 
ATOM     31  C   UNL A   1      32.990  34.676  28.460  1.00  0.00     0.251 C 
ATOM     32  H   UNL A   1      31.700  34.114  27.030  1.00  0.00     0.163 HD
ATOM     33  O   UNL A   1      32.476  35.779  28.615  1.00  0.00    -0.269 OA
BRANCH  31  34
ATOM     34  C   UNL A   1      34.167  34.289  29.266  1.00  0.00     0.039 A 
ATOM     35  C   UNL A   1      33.968  33.628  30.480  1.00  0.00     0.014 A 
ATOM     36  C   UNL A   1      35.462  34.533  28.802  1.00  0.00     0.014 A 
ATOM     37  C   UNL A   1      35.066  33.129  31.183  1.00  0.00     0.010 A 
ATOM     38  C   UNL A   1      36.547  33.962  29.458  1.00  0.00     0.010 A 
ATOM     39  C   UNL A   1      36.361  33.249  30.652  1.00  0.00    -0.014 A 
BRANCH  39  40
ATOM     40  C   UNL A   1      37.532  32.626  31.317  1.00  0.00     0.031 A 
ATOM     41  C   UNL A   1      38.228  31.457  30.678  1.00  0.00     0.074 A 
ATOM     42  C   UNL A   1      37.908  33.046  32.541  1.00  0.00     0.049 A 
ATOM     43  N   UNL A   1      39.200  30.715  31.146  1.00  0.00    -0.248 NA
ATOM     44  C   UNL A   1      37.741  31.045  29.354  1.00  0.00     0.031 C 
ATOM     45  C   UNL A   1      37.268  34.123  33.297  1.00  0.00     0.029 A 
ATOM     46  N   UNL A   1      38.905  32.602  33.373  1.00  0.00    -0.354 N 
ATOM     47  C   UNL A   1      39.421  29.736  30.185  1.00  0.00     0.074 A 
ATOM     48  C   UNL A   1      38.449  29.947  29.135  1.00  0.00     0.031 C 
ATOM     49  C   UNL A   1      37.894  34.264  34.477  1.00  0.00     0.029 A 
ATOM     50  C   UNL A   1      38.955  33.266  34.575  1.00  0.00     0.049 A 
ATOM     51  H   UNL A   1      39.524  31.877  33.132  1.00  0.00     0.167 HD
ATOM     52  C   UNL A   1      40.362  28.763  30.172  1.00  0.00     0.037 A 
ATOM     53  C   UNL A   1      39.758  33.084  35.640  1.00  0.00     0.037 A 
ATOM     54  C   UNL A   1      41.352  28.580  31.202  1.00  0.00     0.049 A 
ATOM     55  C   UNL A   1      40.819  32.019  35.589  1.00  0.00     0.074 A 
ATOM     56  C   UNL A   1      42.406  27.686  31.235  1.00  0.00     0.029 A 
ATOM     57  N   UNL A   1      41.403  29.306  32.383  1.00  0.00    -0.354 N 
ATOM     58  N   UNL A   1      41.078  31.157  34.636  1.00  0.00    -0.248 NA
ATOM     59  C   UNL A   1      41.706  31.909  36.754  1.00  0.00     0.031 C 
ATOM     60  C   UNL A   1      43.069  27.837  32.458  1.00  0.00     0.029 A 
ATOM     61  C   UNL A   1      42.458  28.861  33.165  1.00  0.00     0.049 A 
ATOM     62  H   UNL A   1      40.784  30.030  32.630  1.00  0.00     0.167 HD
ATOM     63  C   UNL A   1      42.167  30.417  35.075  1.00  0.00     0.074 A 
ATOM     64  C   UNL A   1      42.531  30.943  36.375  1.00  0.00     0.031 C 
ATOM     65  C   UNL A   1      42.807  29.394  34.458  1.00  0.00     0.037 A 
BRANCH  52  66
ATOM     66  C   UNL A   1      40.366  27.820  29.004  1.00  0.00     0.064 A 
ATOM     67  C   UNL A   1      41.105  28.090  27.840  1.00  0.00     0.173 A 
ATOM     68  C   UNL A   1      39.636  26.624  29.054  1.00  0.00     0.173 A 
ATOM     69  F   UNL A   1      41.810  29.226  27.736  1.00  0.00    -0.203 F 
ATOM     70  C   UNL A   1      41.082  27.214  26.758  1.00  0.00     0.198 A 
ATOM     71  C   UNL A   1      39.641  25.734  27.983  1.00  0.00     0.198 A 
ATOM     72  F   UNL A   1      38.918  26.314  30.144  1.00  0.00    -0.203 F 
ATOM     73  F   UNL A   1      41.747  27.521  25.636  1.00  0.00    -0.200 F 
ATOM     74  C   UNL A   1      40.355  26.035  26.832  1.00  0.00     0.200 A 
ATOM     75  F   UNL A   1      38.949  24.589  28.061  1.00  0.00    -0.200 F 
ATOM     76  F   UNL A   1      40.334  25.192  25.791  1.00  0.00    -0.200 F 
ENDBRANCH  52  66
BRANCH  53  77
ATOM     77  C   UNL A   1      39.599  33.949  36.837  1.00  0.00     0.064 A 
ATOM     78  C   UNL A   1      38.835  33.526  37.934  1.00  0.00     0.173 A 
ATOM     79  C   UNL A   1      40.221  35.203  36.918  1.00  0.00     0.173 A 
ATOM     80  F   UNL A   1      38.205  32.343  37.895  1.00  0.00    -0.203 F 
ATOM     81  C   UNL A   1      38.689  34.331  39.062  1.00  0.00     0.198 A 
ATOM     82  C   UNL A   1      40.095  35.996  38.057  1.00  0.00     0.198 A 
ATOM     83  F   UNL A   1      40.968  35.649  35.898  1.00  0.00    -0.203 F 
ATOM     84  F   UNL A   1      37.923  33.919  40.081  1.00  0.00    -0.200 F 
ATOM     85  C   UNL A   1      39.324  35.563  39.125  1.00  0.00     0.200 A 
ATOM     86  F   UNL A   1      40.724  37.178  38.120  1.00  0.00    -0.200 F 
ATOM     87  F   UNL A   1      39.191  36.333  40.213  1.00  0.00    -0.200 F 
ENDBRANCH  53  77
BRANCH  65  88
ATOM     88  C   UNL A   1      43.982  28.788  35.168  1.00  0.00     0.064 A 
ATOM     89  C   UNL A   1      43.834  27.700  36.039  1.00  0.00     0.173 A 
ATOM     90  C   UNL A   1      45.278  29.277  34.940  1.00  0.00     0.173 A 
ATOM     91  F   UNL A   1      42.613  27.207  36.302  1.00  0.00    -0.203 F 
ATOM     92  C   UNL A   1      44.937  27.135  36.673  1.00  0.00     0.198 A 
ATOM     93  C   UNL A   1      46.382  28.691  35.553  1.00  0.00     0.198 A 
ATOM     94  F   UNL A   1      45.474  30.312  34.111  1.00  0.00    -0.203 F 
ATOM     95  F   UNL A   1      44.766  26.123  37.535  1.00  0.00    -0.200 F 
ATOM     96  C   UNL A   1      46.211  27.625  36.424  1.00  0.00     0.200 A 
ATOM     97  F   UNL A   1      47.612  29.159  35.301  1.00  0.00    -0.200 F 
ATOM     98  F   UNL A   1      47.272  27.075  37.029  1.00  0.00    -0.200 F 
ENDBRANCH  65  88
ENDBRANCH  39  40
ENDBRANCH  31  34
ENDBRANCH  29  30
ENDBRANCH  28  29
ENDBRANCH   1  28
TORSDOF 14
ENDMDL
