MODEL 1
REMARK VINA RESULT:     -12.8      0.000      0.000
REMARK SMILES CC[NH2+][C@]1(C(=O)NCCCCNC(=O)c2ccc(-c3c4nc(c(-c5c(F)c(F)c(F)c(F)c5F)c5ccc([nH]5)c(-c5c(F)c(F)c(F)c(F)c5F)c5nc(c(-c6c(F)c(F)c(F)c(F)c6F)c6ccc3[nH]6)C=C5)C=C4)cc2)CCC[C@@H]1CCSc1ccc(C)cc1
REMARK SMILES IDX 8 1 7 2 5 3 6 4 4 6 78 7 81 8 79 9 80 10 3 11 2 14 1 15
REMARK SMILES IDX 82 16 83 17 84 18 85 19 86 20 91 21 87 22 90 23 88 24 89 25
REMARK SMILES IDX 9 26 10 27 11 28 12 29 13 30 14 32 15 33 16 34 77 35 17 36
REMARK SMILES IDX 76 37 18 38 19 39 20 40 70 41 21 42 75 43 69 44 71 45 22 46
REMARK SMILES IDX 74 47 68 48 67 49 23 51 55 52 35 53 54 54 36 55 39 56 53 57
REMARK SMILES IDX 72 58 37 59 38 60 52 62 73 63 40 64 24 65 25 66 33 67 26 68
REMARK SMILES IDX 27 69 31 70 34 71 28 72 29 73 32 74 30 75 56 76 57 77 65 78
REMARK SMILES IDX 58 79 59 80 63 81 66 82 60 83 61 84 64 85 62 86 41 87 42 88
REMARK SMILES IDX 50 89 43 90 44 91 48 92 51 93 45 94 46 95 49 96 47 97
REMARK H PARENT 7 5 3 12 3 13 12 31 71 50 39 61
REMARK Flexibility Score: inf
ROOT
ATOM      1  C   UNL A   1      32.399  30.301  27.000  1.00  0.00     0.116 C 
ENDROOT
BRANCH   1   2
ATOM      2  N   UNL A   1      31.842  28.988  27.144  1.00  0.00    -0.351 N 
ATOM      3  C   UNL A   1      31.439  27.945  26.399  1.00  0.00     0.281 C 
ATOM      4  O   UNL A   1      31.010  27.138  27.232  1.00  0.00    -0.268 OA
ATOM      5  H   UNL A   1      31.713  28.784  28.099  1.00  0.00     0.163 HD
BRANCH   3   6
ATOM      6  C   UNL A   1      31.868  27.587  24.912  1.00  0.00     0.178 C 
ATOM      7  C   UNL A   1      31.649  28.721  23.924  1.00  0.00     0.079 C 
ATOM      8  C   UNL A   1      33.348  27.464  25.183  1.00  0.00     0.061 C 
ATOM      9  C   UNL A   1      32.933  28.777  23.118  1.00  0.00     0.008 C 
ATOM     10  C   UNL A   1      33.996  27.928  23.863  1.00  0.00     0.011 C 
BRANCH   6  11
ATOM     11  N   UNL A   1      31.357  26.361  24.192  1.00  0.00    -0.334 N 
ATOM     12  H   UNL A   1      31.379  26.602  23.200  1.00  0.00     0.347 HD
ATOM     13  H   UNL A   1      31.970  25.650  24.591  1.00  0.00     0.347 HD
BRANCH  11  14
ATOM     14  C   UNL A   1      30.046  25.724  24.410  1.00  0.00     0.257 C 
ATOM     15  C   UNL A   1      28.822  26.483  23.884  1.00  0.00     0.071 C 
ENDBRANCH  11  14
ENDBRANCH   6  11
BRANCH   8  16
ATOM     16  C   UNL A   1      33.680  26.099  25.899  1.00  0.00     0.022 C 
BRANCH  16  17
ATOM     17  C   UNL A   1      34.580  24.864  25.243  1.00  0.00     0.075 C 
BRANCH  17  18
ATOM     18  S   UNL A   1      35.461  23.065  25.805  1.00  0.00    -0.126 SA
BRANCH  18  19
ATOM     19  C   UNL A   1      34.656  21.535  25.149  1.00  0.00     0.007 A 
ATOM     20  C   UNL A   1      35.304  20.325  24.875  1.00  0.00     0.015 A 
ATOM     21  C   UNL A   1      33.277  21.545  24.874  1.00  0.00     0.015 A 
ATOM     22  C   UNL A   1      34.569  19.127  24.690  1.00  0.00     0.004 A 
ATOM     23  C   UNL A   1      32.532  20.358  24.724  1.00  0.00     0.004 A 
ATOM     24  C   UNL A   1      33.171  19.123  24.698  1.00  0.00    -0.051 A 
ATOM     25  C   UNL A   1      32.378  17.848  24.770  1.00  0.00     0.044 C 
ENDBRANCH  18  19
ENDBRANCH  17  18
ENDBRANCH  16  17
ENDBRANCH   8  16
ENDBRANCH   3   6
ENDBRANCH   1   2
BRANCH   1  26
ATOM     26  C   UNL A   1      31.438  31.134  26.159  1.00  0.00     0.023 C 
BRANCH  26  27
ATOM     27  C   UNL A   1      31.389  32.626  26.544  1.00  0.00     0.023 C 
BRANCH  27  28
ATOM     28  C   UNL A   1      32.551  33.136  27.391  1.00  0.00     0.116 C 
BRANCH  28  29
ATOM     29  N   UNL A   1      32.370  34.514  27.806  1.00  0.00    -0.352 N 
ATOM     30  C   UNL A   1      33.016  35.229  28.782  1.00  0.00     0.251 C 
ATOM     31  H   UNL A   1      31.678  35.011  27.312  1.00  0.00     0.163 HD
ATOM     32  O   UNL A   1      32.617  36.340  29.090  1.00  0.00    -0.269 OA
BRANCH  30  33
ATOM     33  C   UNL A   1      34.176  34.636  29.477  1.00  0.00     0.039 A 
ATOM     34  C   UNL A   1      33.968  34.050  30.727  1.00  0.00     0.014 A 
ATOM     35  C   UNL A   1      35.454  34.664  28.911  1.00  0.00     0.014 A 
ATOM     36  C   UNL A   1      35.036  33.450  31.393  1.00  0.00     0.010 A 
ATOM     37  C   UNL A   1      36.501  33.997  29.542  1.00  0.00     0.010 A 
ATOM     38  C   UNL A   1      36.304  33.393  30.792  1.00  0.00    -0.014 A 
BRANCH  38  39
ATOM     39  C   UNL A   1      37.434  32.712  31.469  1.00  0.00     0.031 A 
ATOM     40  C   UNL A   1      38.123  31.553  30.806  1.00  0.00     0.074 A 
ATOM     41  C   UNL A   1      37.808  33.112  32.700  1.00  0.00     0.049 A 
ATOM     42  N   UNL A   1      39.097  30.802  31.253  1.00  0.00    -0.248 NA
ATOM     43  C   UNL A   1      37.635  31.169  29.471  1.00  0.00     0.031 C 
ATOM     44  C   UNL A   1      37.184  34.195  33.461  1.00  0.00     0.029 A 
ATOM     45  N   UNL A   1      38.797  32.649  33.531  1.00  0.00    -0.354 N 
ATOM     46  C   UNL A   1      39.330  29.856  30.264  1.00  0.00     0.074 A 
ATOM     47  C   UNL A   1      38.355  30.087  29.220  1.00  0.00     0.031 C 
ATOM     48  C   UNL A   1      37.820  34.331  34.636  1.00  0.00     0.029 A 
ATOM     49  C   UNL A   1      38.867  33.317  34.728  1.00  0.00     0.049 A 
ATOM     50  H   UNL A   1      39.398  31.907  33.292  1.00  0.00     0.167 HD
ATOM     51  C   UNL A   1      40.286  28.897  30.219  1.00  0.00     0.037 A 
ATOM     52  C   UNL A   1      39.679  33.128  35.785  1.00  0.00     0.037 A 
ATOM     53  C   UNL A   1      41.260  28.684  31.257  1.00  0.00     0.049 A 
ATOM     54  C   UNL A   1      40.721  32.043  35.718  1.00  0.00     0.074 A 
ATOM     55  C   UNL A   1      42.303  27.776  31.288  1.00  0.00     0.029 A 
ATOM     56  N   UNL A   1      41.306  29.387  32.453  1.00  0.00    -0.354 N 
ATOM     57  N   UNL A   1      40.979  31.201  34.747  1.00  0.00    -0.248 NA
ATOM     58  C   UNL A   1      41.589  31.886  36.893  1.00  0.00     0.031 C 
ATOM     59  C   UNL A   1      42.944  27.889  32.526  1.00  0.00     0.029 A 
ATOM     60  C   UNL A   1      42.343  28.914  33.241  1.00  0.00     0.049 A 
ATOM     61  H   UNL A   1      40.692  30.115  32.705  1.00  0.00     0.167 HD
ATOM     62  C   UNL A   1      42.055  30.437  35.178  1.00  0.00     0.074 A 
ATOM     63  C   UNL A   1      42.413  30.929  36.493  1.00  0.00     0.031 C 
ATOM     64  C   UNL A   1      42.690  29.421  34.545  1.00  0.00     0.037 A 
BRANCH  51  65
ATOM     65  C   UNL A   1      40.322  28.006  29.011  1.00  0.00     0.064 A 
ATOM     66  C   UNL A   1      41.086  28.328  27.878  1.00  0.00     0.173 A 
ATOM     67  C   UNL A   1      39.610  26.797  28.995  1.00  0.00     0.173 A 
ATOM     68  F   UNL A   1      41.778  29.477  27.836  1.00  0.00    -0.203 F 
ATOM     69  C   UNL A   1      41.110  27.493  26.765  1.00  0.00     0.198 A 
ATOM     70  C   UNL A   1      39.664  25.946  27.893  1.00  0.00     0.198 A 
ATOM     71  F   UNL A   1      38.868  26.434  30.051  1.00  0.00    -0.203 F 
ATOM     72  F   UNL A   1      41.802  27.851  25.675  1.00  0.00    -0.200 F 
ATOM     73  C   UNL A   1      40.405  26.299  26.776  1.00  0.00     0.200 A 
ATOM     74  F   UNL A   1      38.994  24.785  27.912  1.00  0.00    -0.200 F 
ATOM     75  F   UNL A   1      40.435  25.491  25.707  1.00  0.00    -0.200 F 
ENDBRANCH  51  65
BRANCH  52  76
ATOM     76  C   UNL A   1      39.553  33.995  36.987  1.00  0.00     0.064 A 
ATOM     77  C   UNL A   1      40.194  35.240  37.050  1.00  0.00     0.173 A 
ATOM     78  C   UNL A   1      38.797  33.595  38.099  1.00  0.00     0.173 A 
ATOM     79  F   UNL A   1      40.944  35.660  36.020  1.00  0.00    -0.203 F 
ATOM     80  C   UNL A   1      40.106  36.040  38.188  1.00  0.00     0.198 A 
ATOM     81  C   UNL A   1      38.683  34.410  39.223  1.00  0.00     0.198 A 
ATOM     82  F   UNL A   1      38.158  32.416  38.089  1.00  0.00    -0.203 F 
ATOM     83  F   UNL A   1      40.771  37.201  38.240  1.00  0.00    -0.200 F 
ATOM     84  C   UNL A   1      39.345  35.628  39.271  1.00  0.00     0.200 A 
ATOM     85  F   UNL A   1      37.931  34.016  40.260  1.00  0.00    -0.200 F 
ATOM     86  F   UNL A   1      39.256  36.399  40.362  1.00  0.00    -0.200 F 
ENDBRANCH  52  76
BRANCH  64  87
ATOM     87  C   UNL A   1      43.864  28.798  35.245  1.00  0.00     0.064 A 
ATOM     88  C   UNL A   1      45.173  29.264  35.053  1.00  0.00     0.173 A 
ATOM     89  C   UNL A   1      43.670  27.746  36.153  1.00  0.00     0.173 A 
ATOM     90  F   UNL A   1      45.415  30.259  34.185  1.00  0.00    -0.203 F 
ATOM     91  C   UNL A   1      46.246  28.679  35.720  1.00  0.00     0.198 A 
ATOM     92  C   UNL A   1      44.740  27.188  36.846  1.00  0.00     0.198 A 
ATOM     93  F   UNL A   1      42.437  27.267  36.381  1.00  0.00    -0.203 F 
ATOM     94  F   UNL A   1      47.494  29.104  35.480  1.00  0.00    -0.200 F 
ATOM     95  C   UNL A   1      46.028  27.649  36.622  1.00  0.00     0.200 A 
ATOM     96  F   UNL A   1      44.524  26.204  37.731  1.00  0.00    -0.200 F 
ATOM     97  F   UNL A   1      47.062  27.094  37.270  1.00  0.00    -0.200 F 
ENDBRANCH  64  87
ENDBRANCH  38  39
ENDBRANCH  30  33
ENDBRANCH  28  29
ENDBRANCH  27  28
ENDBRANCH  26  27
ENDBRANCH   1  26
TORSDOF 17
ENDMDL
MODEL 2
REMARK VINA RESULT:     -12.8      0.764      7.465
REMARK SMILES CC[NH2+][C@]1(C(=O)NCCCCNC(=O)c2ccc(-c3c4nc(c(-c5c(F)c(F)c(F)c(F)c5F)c5ccc([nH]5)c(-c5c(F)c(F)c(F)c(F)c5F)c5nc(c(-c6c(F)c(F)c(F)c(F)c6F)c6ccc3[nH]6)C=C5)C=C4)cc2)CCC[C@@H]1CCSc1ccc(C)cc1
REMARK SMILES IDX 8 1 7 2 5 3 6 4 4 6 78 7 81 8 79 9 80 10 3 11 2 14 1 15
REMARK SMILES IDX 82 16 83 17 84 18 85 19 86 20 91 21 87 22 90 23 88 24 89 25
REMARK SMILES IDX 9 26 10 27 11 28 12 29 13 30 14 32 15 33 16 34 77 35 17 36
REMARK SMILES IDX 76 37 18 38 19 39 20 40 70 41 21 42 75 43 69 44 71 45 22 46
REMARK SMILES IDX 74 47 68 48 67 49 23 51 55 52 35 53 54 54 36 55 39 56 53 57
REMARK SMILES IDX 72 58 37 59 38 60 52 62 73 63 40 64 24 65 25 66 33 67 26 68
REMARK SMILES IDX 27 69 31 70 34 71 28 72 29 73 32 74 30 75 56 76 57 77 65 78
REMARK SMILES IDX 58 79 59 80 63 81 66 82 60 83 61 84 64 85 62 86 41 87 42 88
REMARK SMILES IDX 50 89 43 90 44 91 48 92 51 93 45 94 46 95 49 96 47 97
REMARK H PARENT 7 5 3 12 3 13 12 31 71 50 39 61
REMARK Flexibility Score: inf
ROOT
ATOM      1  C   UNL A   1      32.329  30.333  26.842  1.00  0.00     0.116 C 
ENDROOT
BRANCH   1   2
ATOM      2  N   UNL A   1      31.842  28.993  26.993  1.00  0.00    -0.351 N 
ATOM      3  C   UNL A   1      31.480  27.932  26.252  1.00  0.00     0.281 C 
ATOM      4  O   UNL A   1      31.108  27.102  27.090  1.00  0.00    -0.268 OA
ATOM      5  H   UNL A   1      31.740  28.781  27.949  1.00  0.00     0.163 HD
BRANCH   3   6
ATOM      6  C   UNL A   1      31.901  27.599  24.757  1.00  0.00     0.178 C 
ATOM      7  C   UNL A   1      31.549  28.695  23.765  1.00  0.00     0.079 C 
ATOM      8  C   UNL A   1      33.393  27.620  24.988  1.00  0.00     0.061 C 
ATOM      9  C   UNL A   1      32.800  28.863  22.924  1.00  0.00     0.008 C 
ATOM     10  C   UNL A   1      33.959  28.128  23.647  1.00  0.00     0.011 C 
BRANCH   6  11
ATOM     11  N   UNL A   1      31.491  26.322  24.062  1.00  0.00    -0.334 N 
ATOM     12  H   UNL A   1      31.268  26.595  23.104  1.00  0.00     0.347 HD
ATOM     13  H   UNL A   1      32.291  25.730  24.287  1.00  0.00     0.347 HD
BRANCH  11  14
ATOM     14  C   UNL A   1      30.390  25.435  24.481  1.00  0.00     0.257 C 
ATOM     15  C   UNL A   1      30.789  24.157  25.228  1.00  0.00     0.071 C 
ENDBRANCH  11  14
ENDBRANCH   6  11
BRANCH   8  16
ATOM     16  C   UNL A   1      33.872  26.301  25.707  1.00  0.00     0.022 C 
BRANCH  16  17
ATOM     17  C   UNL A   1      34.684  25.048  24.974  1.00  0.00     0.075 C 
BRANCH  17  18
ATOM     18  S   UNL A   1      34.416  23.648  23.459  1.00  0.00    -0.126 SA
BRANCH  18  19
ATOM     19  C   UNL A   1      33.928  21.950  24.008  1.00  0.00     0.007 A 
ATOM     20  C   UNL A   1      32.687  21.344  23.781  1.00  0.00     0.015 A 
ATOM     21  C   UNL A   1      34.846  21.170  24.733  1.00  0.00     0.015 A 
ATOM     22  C   UNL A   1      32.514  19.947  23.946  1.00  0.00     0.004 A 
ATOM     23  C   UNL A   1      34.701  19.774  24.871  1.00  0.00     0.004 A 
ATOM     24  C   UNL A   1      33.553  19.136  24.414  1.00  0.00    -0.051 A 
ATOM     25  C   UNL A   1      33.485  17.635  24.347  1.00  0.00     0.044 C 
ENDBRANCH  18  19
ENDBRANCH  17  18
ENDBRANCH  16  17
ENDBRANCH   8  16
ENDBRANCH   3   6
ENDBRANCH   1   2
BRANCH   1  26
ATOM     26  C   UNL A   1      31.219  31.173  26.219  1.00  0.00     0.023 C 
BRANCH  26  27
ATOM     27  C   UNL A   1      31.347  32.687  26.481  1.00  0.00     0.023 C 
BRANCH  27  28
ATOM     28  C   UNL A   1      32.553  33.123  27.307  1.00  0.00     0.116 C 
BRANCH  28  29
ATOM     29  N   UNL A   1      32.437  34.489  27.777  1.00  0.00    -0.352 N 
ATOM     30  C   UNL A   1      33.143  35.146  28.752  1.00  0.00     0.251 C 
ATOM     31  H   UNL A   1      31.746  35.028  27.328  1.00  0.00     0.163 HD
ATOM     32  O   UNL A   1      32.797  36.258  29.114  1.00  0.00    -0.269 OA
BRANCH  30  33
ATOM     33  C   UNL A   1      34.307  34.488  29.382  1.00  0.00     0.039 A 
ATOM     34  C   UNL A   1      34.089  33.711  30.521  1.00  0.00     0.014 A 
ATOM     35  C   UNL A   1      35.596  34.641  28.864  1.00  0.00     0.014 A 
ATOM     36  C   UNL A   1      35.160  33.048  31.118  1.00  0.00     0.010 A 
ATOM     37  C   UNL A   1      36.650  33.917  29.415  1.00  0.00     0.010 A 
ATOM     38  C   UNL A   1      36.443  33.122  30.552  1.00  0.00    -0.014 A 
BRANCH  38  39
ATOM     39  C   UNL A   1      37.580  32.379  31.149  1.00  0.00     0.031 A 
ATOM     40  C   UNL A   1      38.081  32.740  32.518  1.00  0.00     0.074 A 
ATOM     41  C   UNL A   1      38.188  31.411  30.435  1.00  0.00     0.049 A 
ATOM     42  N   UNL A   1      39.087  32.240  33.191  1.00  0.00    -0.248 NA
ATOM     43  C   UNL A   1      37.373  33.825  33.217  1.00  0.00     0.031 C 
ATOM     44  C   UNL A   1      37.818  31.005  29.079  1.00  0.00     0.029 A 
ATOM     45  N   UNL A   1      39.248  30.598  30.748  1.00  0.00    -0.354 N 
ATOM     46  C   UNL A   1      39.138  32.954  34.381  1.00  0.00     0.074 A 
ATOM     47  C   UNL A   1      38.103  33.963  34.314  1.00  0.00     0.031 C 
ATOM     48  C   UNL A   1      38.621  30.004  28.685  1.00  0.00     0.029 A 
ATOM     49  C   UNL A   1      39.587  29.726  29.744  1.00  0.00     0.049 A 
ATOM     50  H   UNL A   1      39.721  30.637  31.611  1.00  0.00     0.167 HD
ATOM     51  C   UNL A   1      39.957  32.769  35.443  1.00  0.00     0.037 A 
ATOM     52  C   UNL A   1      40.574  28.813  29.680  1.00  0.00     0.037 A 
ATOM     53  C   UNL A   1      40.975  31.753  35.506  1.00  0.00     0.049 A 
ATOM     54  C   UNL A   1      41.484  28.639  30.867  1.00  0.00     0.074 A 
ATOM     55  C   UNL A   1      41.825  31.446  36.554  1.00  0.00     0.029 A 
ATOM     56  N   UNL A   1      41.286  30.882  34.472  1.00  0.00    -0.354 N 
ATOM     57  N   UNL A   1      41.477  29.271  32.016  1.00  0.00    -0.248 NA
ATOM     58  C   UNL A   1      42.536  27.620  30.751  1.00  0.00     0.031 C 
ATOM     59  C   UNL A   1      42.688  30.429  36.134  1.00  0.00     0.029 A 
ATOM     60  C   UNL A   1      42.333  30.055  34.847  1.00  0.00     0.049 A 
ATOM     61  H   UNL A   1      40.829  30.854  33.599  1.00  0.00     0.167 HD
ATOM     62  C   UNL A   1      42.498  28.708  32.769  1.00  0.00     0.074 A 
ATOM     63  C   UNL A   1      43.092  27.670  31.952  1.00  0.00     0.031 C 
ATOM     64  C   UNL A   1      42.907  29.021  34.023  1.00  0.00     0.037 A 
BRANCH  51  65
ATOM     65  C   UNL A   1      39.788  33.685  36.621  1.00  0.00     0.064 A 
ATOM     66  C   UNL A   1      38.912  33.379  37.675  1.00  0.00     0.173 A 
ATOM     67  C   UNL A   1      40.534  34.870  36.717  1.00  0.00     0.173 A 
ATOM     68  F   UNL A   1      38.166  32.264  37.630  1.00  0.00    -0.203 F 
ATOM     69  C   UNL A   1      38.765  34.238  38.760  1.00  0.00     0.198 A 
ATOM     70  C   UNL A   1      40.410  35.710  37.822  1.00  0.00     0.198 A 
ATOM     71  F   UNL A   1      41.391  35.211  35.743  1.00  0.00    -0.203 F 
ATOM     72  F   UNL A   1      37.880  33.950  39.725  1.00  0.00    -0.200 F 
ATOM     73  C   UNL A   1      39.520  35.398  38.837  1.00  0.00     0.200 A 
ATOM     74  F   UNL A   1      41.153  36.823  37.901  1.00  0.00    -0.200 F 
ATOM     75  F   UNL A   1      39.383  36.220  39.886  1.00  0.00    -0.200 F 
ENDBRANCH  51  65
BRANCH  52  76
ATOM     76  C   UNL A   1      40.742  27.979  28.460  1.00  0.00     0.064 A 
ATOM     77  C   UNL A   1      40.119  26.728  28.348  1.00  0.00     0.173 A 
ATOM     78  C   UNL A   1      41.531  28.412  27.384  1.00  0.00     0.173 A 
ATOM     79  F   UNL A   1      39.368  26.262  29.357  1.00  0.00    -0.203 F 
ATOM     80  C   UNL A   1      40.301  25.930  27.220  1.00  0.00     0.198 A 
ATOM     81  C   UNL A   1      41.686  27.627  26.243  1.00  0.00     0.198 A 
ATOM     82  F   UNL A   1      42.144  29.603  27.435  1.00  0.00    -0.203 F 
ATOM     83  F   UNL A   1      39.736  24.717  27.163  1.00  0.00    -0.200 F 
ATOM     84  C   UNL A   1      41.078  26.383  26.165  1.00  0.00     0.200 A 
ATOM     85  F   UNL A   1      42.423  28.077  25.218  1.00  0.00    -0.200 F 
ATOM     86  F   UNL A   1      41.250  25.618  25.079  1.00  0.00    -0.200 F 
ENDBRANCH  52  76
BRANCH  64  87
ATOM     87  C   UNL A   1      44.025  28.205  34.607  1.00  0.00     0.064 A 
ATOM     88  C   UNL A   1      43.787  26.998  35.281  1.00  0.00     0.173 A 
ATOM     89  C   UNL A   1      45.358  28.619  34.454  1.00  0.00     0.173 A 
ATOM     90  F   UNL A   1      42.531  26.564  35.465  1.00  0.00    -0.203 F 
ATOM     91  C   UNL A   1      44.839  26.251  35.805  1.00  0.00     0.198 A 
ATOM     92  C   UNL A   1      46.409  27.852  34.948  1.00  0.00     0.198 A 
ATOM     93  F   UNL A   1      45.643  29.762  33.812  1.00  0.00    -0.203 F 
ATOM     94  F   UNL A   1      44.585  25.129  36.491  1.00  0.00    -0.200 F 
ATOM     95  C   UNL A   1      46.148  26.674  35.631  1.00  0.00     0.200 A 
ATOM     96  F   UNL A   1      47.674  28.254  34.763  1.00  0.00    -0.200 F 
ATOM     97  F   UNL A   1      47.160  25.949  36.128  1.00  0.00    -0.200 F 
ENDBRANCH  64  87
ENDBRANCH  38  39
ENDBRANCH  30  33
ENDBRANCH  28  29
ENDBRANCH  27  28
ENDBRANCH  26  27
ENDBRANCH   1  26
TORSDOF 17
ENDMDL
MODEL 3
REMARK VINA RESULT:     -12.6      5.656     11.191
REMARK SMILES CC[NH2+][C@]1(C(=O)NCCCCNC(=O)c2ccc(-c3c4nc(c(-c5c(F)c(F)c(F)c(F)c5F)c5ccc([nH]5)c(-c5c(F)c(F)c(F)c(F)c5F)c5nc(c(-c6c(F)c(F)c(F)c(F)c6F)c6ccc3[nH]6)C=C5)C=C4)cc2)CCC[C@@H]1CCSc1ccc(C)cc1
REMARK SMILES IDX 8 1 7 2 5 3 6 4 4 6 78 7 81 8 79 9 80 10 3 11 2 14 1 15
REMARK SMILES IDX 82 16 83 17 84 18 85 19 86 20 91 21 87 22 90 23 88 24 89 25
REMARK SMILES IDX 9 26 10 27 11 28 12 29 13 30 14 32 15 33 16 34 77 35 17 36
REMARK SMILES IDX 76 37 18 38 19 39 20 40 70 41 21 42 75 43 69 44 71 45 22 46
REMARK SMILES IDX 74 47 68 48 67 49 23 51 55 52 35 53 54 54 36 55 39 56 53 57
REMARK SMILES IDX 72 58 37 59 38 60 52 62 73 63 40 64 24 65 25 66 33 67 26 68
REMARK SMILES IDX 27 69 31 70 34 71 28 72 29 73 32 74 30 75 56 76 57 77 65 78
REMARK SMILES IDX 58 79 59 80 63 81 66 82 60 83 61 84 64 85 62 86 41 87 42 88
REMARK SMILES IDX 50 89 43 90 44 91 48 92 51 93 45 94 46 95 49 96 47 97
REMARK H PARENT 7 5 3 12 3 13 12 31 71 50 39 61
REMARK Flexibility Score: inf
ROOT
ATOM      1  C   UNL A   1      36.546  21.997  25.531  1.00  0.00     0.116 C 
ENDROOT
BRANCH   1   2
ATOM      2  N   UNL A   1      35.597  22.193  26.588  1.00  0.00    -0.351 N 
ATOM      3  C   UNL A   1      34.375  22.709  26.801  1.00  0.00     0.281 C 
ATOM      4  O   UNL A   1      34.204  22.564  28.017  1.00  0.00    -0.268 OA
ATOM      5  H   UNL A   1      35.958  21.833  27.430  1.00  0.00     0.163 HD
BRANCH   3   6
ATOM      6  C   UNL A   1      33.223  22.956  25.736  1.00  0.00     0.178 C 
ATOM      7  C   UNL A   1      32.091  21.945  25.815  1.00  0.00     0.079 C 
ATOM      8  C   UNL A   1      32.737  24.267  26.306  1.00  0.00     0.061 C 
ATOM      9  C   UNL A   1      30.827  22.782  25.754  1.00  0.00     0.008 C 
ATOM     10  C   UNL A   1      31.228  24.262  25.991  1.00  0.00     0.011 C 
BRANCH   6  11
ATOM     11  N   UNL A   1      33.498  23.092  24.257  1.00  0.00    -0.334 N 
ATOM     12  H   UNL A   1      32.837  23.794  23.923  1.00  0.00     0.347 HD
ATOM     13  H   UNL A   1      34.505  23.259  24.277  1.00  0.00     0.347 HD
BRANCH  11  14
ATOM     14  C   UNL A   1      33.438  21.998  23.271  1.00  0.00     0.257 C 
ATOM     15  C   UNL A   1      32.347  22.105  22.198  1.00  0.00     0.071 C 
ENDBRANCH  11  14
ENDBRANCH   6  11
BRANCH   8  16
ATOM     16  C   UNL A   1      33.716  25.444  25.929  1.00  0.00     0.022 C 
BRANCH  16  17
ATOM     17  C   UNL A   1      33.523  26.478  24.640  1.00  0.00     0.075 C 
BRANCH  17  18
ATOM     18  S   UNL A   1      32.600  26.544  22.777  1.00  0.00    -0.126 SA
BRANCH  18  19
ATOM     19  C   UNL A   1      31.027  27.512  22.691  1.00  0.00     0.007 A 
ATOM     20  C   UNL A   1      29.777  27.080  23.147  1.00  0.00     0.015 A 
ATOM     21  C   UNL A   1      31.037  28.793  22.111  1.00  0.00     0.015 A 
ATOM     22  C   UNL A   1      28.711  27.995  23.337  1.00  0.00     0.004 A 
ATOM     23  C   UNL A   1      29.998  29.723  22.324  1.00  0.00     0.004 A 
ATOM     24  C   UNL A   1      28.845  29.346  23.004  1.00  0.00    -0.051 A 
ATOM     25  C   UNL A   1      27.839  30.378  23.435  1.00  0.00     0.044 C 
ENDBRANCH  18  19
ENDBRANCH  17  18
ENDBRANCH  16  17
ENDBRANCH   8  16
ENDBRANCH   3   6
ENDBRANCH   1   2
BRANCH   1  26
ATOM     26  C   UNL A   1      36.458  20.544  25.078  1.00  0.00     0.023 C 
BRANCH  26  27
ATOM     27  C   UNL A   1      37.823  19.880  24.808  1.00  0.00     0.023 C 
BRANCH  27  28
ATOM     28  C   UNL A   1      38.963  20.296  25.733  1.00  0.00     0.116 C 
BRANCH  28  29
ATOM     29  N   UNL A   1      39.981  19.271  25.852  1.00  0.00    -0.352 N 
ATOM     30  C   UNL A   1      41.327  19.392  26.085  1.00  0.00     0.251 C 
ATOM     31  H   UNL A   1      39.657  18.347  25.751  1.00  0.00     0.163 HD
ATOM     32  O   UNL A   1      42.053  18.415  26.000  1.00  0.00    -0.269 OA
BRANCH  30  33
ATOM     33  C   UNL A   1      41.897  20.716  26.410  1.00  0.00     0.039 A 
ATOM     34  C   UNL A   1      42.173  21.592  25.358  1.00  0.00     0.014 A 
ATOM     35  C   UNL A   1      42.166  21.087  27.730  1.00  0.00     0.014 A 
ATOM     36  C   UNL A   1      42.678  22.862  25.633  1.00  0.00     0.010 A 
ATOM     37  C   UNL A   1      42.597  22.382  28.007  1.00  0.00     0.010 A 
ATOM     38  C   UNL A   1      42.866  23.276  26.962  1.00  0.00    -0.014 A 
BRANCH  38  39
ATOM     39  C   UNL A   1      43.354  24.644  27.268  1.00  0.00     0.031 A 
ATOM     40  C   UNL A   1      42.418  25.666  27.847  1.00  0.00     0.074 A 
ATOM     41  C   UNL A   1      44.629  24.973  26.980  1.00  0.00     0.049 A 
ATOM     42  N   UNL A   1      42.643  26.922  28.140  1.00  0.00    -0.248 NA
ATOM     43  C   UNL A   1      41.038  25.228  28.108  1.00  0.00     0.031 C 
ATOM     44  C   UNL A   1      45.615  24.077  26.375  1.00  0.00     0.029 A 
ATOM     45  N   UNL A   1      45.310  26.151  27.152  1.00  0.00    -0.354 N 
ATOM     46  C   UNL A   1      41.435  27.423  28.608  1.00  0.00     0.074 A 
ATOM     47  C   UNL A   1      40.464  26.355  28.502  1.00  0.00     0.031 C 
ATOM     48  C   UNL A   1      46.782  24.728  26.248  1.00  0.00     0.029 A 
ATOM     49  C   UNL A   1      46.614  26.099  26.724  1.00  0.00     0.049 A 
ATOM     50  H   UNL A   1      44.903  26.957  27.543  1.00  0.00     0.167 HD
ATOM     51  C   UNL A   1      41.165  28.654  29.105  1.00  0.00     0.037 A 
ATOM     52  C   UNL A   1      47.564  27.053  26.708  1.00  0.00     0.037 A 
ATOM     53  C   UNL A   1      42.141  29.706  29.219  1.00  0.00     0.049 A 
ATOM     54  C   UNL A   1      47.234  28.419  27.248  1.00  0.00     0.074 A 
ATOM     55  C   UNL A   1      41.987  30.972  29.755  1.00  0.00     0.029 A 
ATOM     56  N   UNL A   1      43.455  29.614  28.783  1.00  0.00    -0.354 N 
ATOM     57  N   UNL A   1      46.108  28.859  27.755  1.00  0.00    -0.248 NA
ATOM     58  C   UNL A   1      48.309  29.419  27.219  1.00  0.00     0.031 C 
ATOM     59  C   UNL A   1      43.190  31.666  29.591  1.00  0.00     0.029 A 
ATOM     60  C   UNL A   1      44.115  30.811  29.012  1.00  0.00     0.049 A 
ATOM     61  H   UNL A   1      43.860  28.817  28.371  1.00  0.00     0.167 HD
ATOM     62  C   UNL A   1      46.347  30.174  28.133  1.00  0.00     0.074 A 
ATOM     63  C   UNL A   1      47.731  30.453  27.813  1.00  0.00     0.031 C 
ATOM     64  C   UNL A   1      45.497  31.069  28.694  1.00  0.00     0.037 A 
BRANCH  51  65
ATOM     65  C   UNL A   1      39.760  28.929  29.558  1.00  0.00     0.064 A 
ATOM     66  C   UNL A   1      38.793  29.455  28.687  1.00  0.00     0.173 A 
ATOM     67  C   UNL A   1      39.365  28.635  30.872  1.00  0.00     0.173 A 
ATOM     68  F   UNL A   1      39.120  29.765  27.423  1.00  0.00    -0.203 F 
ATOM     69  C   UNL A   1      37.495  29.706  29.122  1.00  0.00     0.198 A 
ATOM     70  C   UNL A   1      38.054  28.854  31.294  1.00  0.00     0.198 A 
ATOM     71  F   UNL A   1      40.244  28.125  31.746  1.00  0.00    -0.203 F 
ATOM     72  F   UNL A   1      36.605  30.261  28.287  1.00  0.00    -0.200 F 
ATOM     73  C   UNL A   1      37.125  29.398  30.422  1.00  0.00     0.200 A 
ATOM     74  F   UNL A   1      37.695  28.541  32.547  1.00  0.00    -0.200 F 
ATOM     75  F   UNL A   1      35.872  29.633  30.837  1.00  0.00    -0.200 F 
ENDBRANCH  51  65
BRANCH  52  76
ATOM     76  C   UNL A   1      48.921  26.746  26.181  1.00  0.00     0.064 A 
ATOM     77  C   UNL A   1      49.891  26.141  26.993  1.00  0.00     0.173 A 
ATOM     78  C   UNL A   1      49.277  27.055  24.861  1.00  0.00     0.173 A 
ATOM     79  F   UNL A   1      49.604  25.842  28.269  1.00  0.00    -0.203 F 
ATOM     80  C   UNL A   1      51.173  25.883  26.513  1.00  0.00     0.198 A 
ATOM     81  C   UNL A   1      50.550  26.766  24.372  1.00  0.00     0.198 A 
ATOM     82  F   UNL A   1      48.385  27.627  24.039  1.00  0.00    -0.203 F 
ATOM     83  F   UNL A   1      52.096  25.352  27.326  1.00  0.00    -0.200 F 
ATOM     84  C   UNL A   1      51.500  26.189  25.201  1.00  0.00     0.200 A 
ATOM     85  F   UNL A   1      50.855  27.046  23.097  1.00  0.00    -0.200 F 
ATOM     86  F   UNL A   1      52.731  25.936  24.738  1.00  0.00    -0.200 F 
ENDBRANCH  52  76
BRANCH  64  87
ATOM     87  C   UNL A   1      46.051  32.423  29.038  1.00  0.00     0.064 A 
ATOM     88  C   UNL A   1      45.989  33.498  28.139  1.00  0.00     0.173 A 
ATOM     89  C   UNL A   1      46.616  32.656  30.301  1.00  0.00     0.173 A 
ATOM     90  F   UNL A   1      45.471  33.324  26.913  1.00  0.00    -0.203 F 
ATOM     91  C   UNL A   1      46.499  34.748  28.481  1.00  0.00     0.198 A 
ATOM     92  C   UNL A   1      47.092  33.916  30.653  1.00  0.00     0.198 A 
ATOM     93  F   UNL A   1      46.693  31.665  31.202  1.00  0.00    -0.203 F 
ATOM     94  F   UNL A   1      46.478  35.746  27.587  1.00  0.00    -0.200 F 
ATOM     95  C   UNL A   1      47.041  34.958  29.740  1.00  0.00     0.200 A 
ATOM     96  F   UNL A   1      47.599  34.121  31.877  1.00  0.00    -0.200 F 
ATOM     97  F   UNL A   1      47.523  36.164  30.071  1.00  0.00    -0.200 F 
ENDBRANCH  64  87
ENDBRANCH  38  39
ENDBRANCH  30  33
ENDBRANCH  28  29
ENDBRANCH  27  28
ENDBRANCH  26  27
ENDBRANCH   1  26
TORSDOF 17
ENDMDL
