MODEL 1
REMARK VINA RESULT:     -11.4      0.000      0.000
REMARK SMILES C[NH2+]C[C@H](C)C(=O)N[C@H](Cc1ccccc1)C(=O)NCCCCNC(=O)c1ccc(-c2c3nc(c(-c4c(F)c(F)c(F)c(F)c4F)c4ccc([nH]4)c(-c4c(F)c(F)c(F)c(F)c4F)c4nc(c(-c5c(F)c(F)c(F)c(F)c5F)c5ccc2[nH]5)C=C4)C=C3)cc1
REMARK SMILES IDX 20 1 19 2 17 3 18 4 9 6 8 7 6 8 7 9 4 11 5 12 3 13 2 14 1 15
REMARK SMILES IDX 10 18 11 19 12 20 16 21 13 22 15 23 14 24 21 25 22 26 23 27
REMARK SMILES IDX 24 28 25 29 26 31 27 32 28 33 89 34 29 35 88 36 30 37 31 38
REMARK SMILES IDX 32 39 82 40 33 41 87 42 81 43 83 44 34 45 86 46 80 47 79 48
REMARK SMILES IDX 35 50 67 51 47 52 66 53 48 54 51 55 65 56 84 57 49 58 50 59
REMARK SMILES IDX 64 61 85 62 52 63 36 64 37 65 45 66 38 67 39 68 43 69 46 70
REMARK SMILES IDX 40 71 41 72 44 73 42 74 68 75 69 76 77 77 70 78 71 79 75 80
REMARK SMILES IDX 78 81 72 82 73 83 76 84 74 85 53 86 54 87 62 88 55 89 56 90
REMARK SMILES IDX 60 91 63 92 57 93 58 94 61 95 59 96
REMARK H PARENT 19 5 8 10 2 16 2 17 24 30 83 49 51 60
REMARK Flexibility Score: inf
ROOT
ATOM      1  C   UNL A   1      31.768  29.406  27.265  1.00  0.00     0.116 C 
ENDROOT
BRANCH   1   2
ATOM      2  N   UNL A   1      32.967  28.654  27.633  1.00  0.00    -0.354 N 
ATOM      3  C   UNL A   1      34.082  28.410  26.884  1.00  0.00     0.242 C 
ATOM      4  O   UNL A   1      35.126  28.963  27.250  1.00  0.00    -0.273 OA
ATOM      5  H   UNL A   1      32.970  28.274  28.541  1.00  0.00     0.163 HD
BRANCH   3   6
ATOM      6  C   UNL A   1      34.106  27.491  25.637  1.00  0.00     0.175 C 
BRANCH   6   7
ATOM      7  N   UNL A   1      33.849  28.234  24.392  1.00  0.00    -0.344 N 
ATOM      8  C   UNL A   1      33.276  27.950  23.196  1.00  0.00     0.229 C 
ATOM      9  O   UNL A   1      33.886  28.354  22.198  1.00  0.00    -0.275 OA
ATOM     10  H   UNL A   1      34.171  29.162  24.440  1.00  0.00     0.164 HD
BRANCH   8  11
ATOM     11  C   UNL A   1      31.888  27.344  23.014  1.00  0.00     0.130 C 
ATOM     12  C   UNL A   1      30.727  28.240  23.436  1.00  0.00     0.024 C 
BRANCH  11  13
ATOM     13  C   UNL A   1      31.618  26.614  21.688  1.00  0.00     0.273 C 
BRANCH  13  14
ATOM     14  N   UNL A   1      32.759  26.097  20.934  1.00  0.00    -0.348 N 
ATOM     15  C   UNL A   1      32.409  25.433  19.684  1.00  0.00     0.330 C 
ATOM     16  H   UNL A   1      33.378  26.878  20.719  1.00  0.00     0.346 HD
ATOM     17  H   UNL A   1      33.199  25.390  21.525  1.00  0.00     0.346 HD
ENDBRANCH  13  14
ENDBRANCH  11  13
ENDBRANCH   8  11
ENDBRANCH   6   7
BRANCH   6  18
ATOM     18  C   UNL A   1      33.594  26.067  25.812  1.00  0.00     0.070 C 
BRANCH  18  19
ATOM     19  C   UNL A   1      34.383  24.949  25.144  1.00  0.00    -0.045 A 
ATOM     20  C   UNL A   1      35.646  24.516  25.585  1.00  0.00     0.004 A 
ATOM     21  C   UNL A   1      33.885  24.409  23.948  1.00  0.00     0.004 A 
ATOM     22  C   UNL A   1      36.375  23.565  24.864  1.00  0.00     0.000 A 
ATOM     23  C   UNL A   1      34.616  23.460  23.227  1.00  0.00     0.000 A 
ATOM     24  C   UNL A   1      35.860  23.037  23.685  1.00  0.00     0.000 A 
ENDBRANCH  18  19
ENDBRANCH   6  18
ENDBRANCH   3   6
ENDBRANCH   1   2
BRANCH   1  25
ATOM     25  C   UNL A   1      31.999  30.549  26.277  1.00  0.00     0.023 C 
BRANCH  25  26
ATOM     26  C   UNL A   1      31.632  31.934  26.831  1.00  0.00     0.023 C 
BRANCH  26  27
ATOM     27  C   UNL A   1      32.770  32.779  27.406  1.00  0.00     0.116 C 
BRANCH  27  28
ATOM     28  N   UNL A   1      32.411  34.163  27.677  1.00  0.00    -0.352 N 
ATOM     29  C   UNL A   1      32.966  35.028  28.605  1.00  0.00     0.251 C 
ATOM     30  H   UNL A   1      31.679  34.531  27.131  1.00  0.00     0.163 HD
ATOM     31  O   UNL A   1      32.495  36.140  28.794  1.00  0.00    -0.269 OA
BRANCH  29  32
ATOM     32  C   UNL A   1      34.130  34.576  29.409  1.00  0.00     0.039 A 
ATOM     33  C   UNL A   1      33.923  34.050  30.687  1.00  0.00     0.014 A 
ATOM     34  C   UNL A   1      35.417  34.611  28.867  1.00  0.00     0.014 A 
ATOM     35  C   UNL A   1      34.987  33.451  31.371  1.00  0.00     0.010 A 
ATOM     36  C   UNL A   1      36.460  33.952  29.518  1.00  0.00     0.010 A 
ATOM     37  C   UNL A   1      36.251  33.340  30.764  1.00  0.00    -0.014 A 
BRANCH  37  38
ATOM     38  C   UNL A   1      37.349  32.545  31.383  1.00  0.00     0.031 A 
ATOM     39  C   UNL A   1      37.872  32.897  32.747  1.00  0.00     0.074 A 
ATOM     40  C   UNL A   1      37.950  31.569  30.672  1.00  0.00     0.049 A 
ATOM     41  N   UNL A   1      38.893  32.398  33.399  1.00  0.00    -0.248 NA
ATOM     42  C   UNL A   1      37.175  33.977  33.461  1.00  0.00     0.031 C 
ATOM     43  C   UNL A   1      37.589  31.167  29.311  1.00  0.00     0.029 A 
ATOM     44  N   UNL A   1      39.006  30.748  30.988  1.00  0.00    -0.354 N 
ATOM     45  C   UNL A   1      38.976  33.118  34.584  1.00  0.00     0.074 A 
ATOM     46  C   UNL A   1      37.931  34.121  34.540  1.00  0.00     0.031 C 
ATOM     47  C   UNL A   1      38.392  30.164  28.919  1.00  0.00     0.029 A 
ATOM     48  C   UNL A   1      39.348  29.874  29.983  1.00  0.00     0.049 A 
ATOM     49  H   UNL A   1      39.474  30.783  31.853  1.00  0.00     0.167 HD
ATOM     50  C   UNL A   1      39.826  32.946  35.624  1.00  0.00     0.037 A 
ATOM     51  C   UNL A   1      40.324  28.947  29.922  1.00  0.00     0.037 A 
ATOM     52  C   UNL A   1      40.842  31.928  35.687  1.00  0.00     0.049 A 
ATOM     53  C   UNL A   1      41.239  28.759  31.101  1.00  0.00     0.074 A 
ATOM     54  C   UNL A   1      41.706  31.633  36.727  1.00  0.00     0.029 A 
ATOM     55  N   UNL A   1      41.125  31.033  34.666  1.00  0.00    -0.354 N 
ATOM     56  N   UNL A   1      41.261  29.401  32.243  1.00  0.00    -0.248 NA
ATOM     57  C   UNL A   1      42.263  27.709  30.985  1.00  0.00     0.031 C 
ATOM     58  C   UNL A   1      42.535  30.581  36.323  1.00  0.00     0.029 A 
ATOM     59  C   UNL A   1      42.160  30.193  35.048  1.00  0.00     0.049 A 
ATOM     60  H   UNL A   1      40.661  30.998  33.799  1.00  0.00     0.167 HD
ATOM     61  C   UNL A   1      42.277  28.820  32.989  1.00  0.00     0.074 A 
ATOM     62  C   UNL A   1      42.842  27.763  32.176  1.00  0.00     0.031 C 
ATOM     63  C   UNL A   1      42.704  29.136  34.235  1.00  0.00     0.037 A 
BRANCH  50  64
ATOM     64  C   UNL A   1      39.685  33.879  36.792  1.00  0.00     0.064 A 
ATOM     65  C   UNL A   1      40.320  35.130  36.812  1.00  0.00     0.173 A 
ATOM     66  C   UNL A   1      38.885  33.532  37.891  1.00  0.00     0.173 A 
ATOM     67  F   UNL A   1      41.103  35.504  35.789  1.00  0.00    -0.203 F 
ATOM     68  C   UNL A   1      40.189  35.984  37.902  1.00  0.00     0.198 A 
ATOM     69  C   UNL A   1      38.732  34.402  38.968  1.00  0.00     0.198 A 
ATOM     70  F   UNL A   1      38.248  32.351  37.919  1.00  0.00    -0.203 F 
ATOM     71  F   UNL A   1      40.847  37.151  37.921  1.00  0.00    -0.200 F 
ATOM     72  C   UNL A   1      39.390  35.622  38.977  1.00  0.00     0.200 A 
ATOM     73  F   UNL A   1      37.949  34.057  40.001  1.00  0.00    -0.200 F 
ATOM     74  F   UNL A   1      39.262  36.447  40.026  1.00  0.00    -0.200 F 
ENDBRANCH  50  64
BRANCH  51  75
ATOM     75  C   UNL A   1      40.467  28.098  28.712  1.00  0.00     0.064 A 
ATOM     76  C   UNL A   1      41.251  28.521  27.629  1.00  0.00     0.173 A 
ATOM     77  C   UNL A   1      39.822  26.857  28.606  1.00  0.00     0.173 A 
ATOM     78  F   UNL A   1      41.868  29.711  27.675  1.00  0.00    -0.203 F 
ATOM     79  C   UNL A   1      41.370  27.744  26.479  1.00  0.00     0.198 A 
ATOM     80  C   UNL A   1      39.963  26.069  27.465  1.00  0.00     0.198 A 
ATOM     81  F   UNL A   1      39.064  26.405  29.615  1.00  0.00    -0.203 F 
ATOM     82  F   UNL A   1      42.091  28.192  25.442  1.00  0.00    -0.200 F 
ATOM     83  C   UNL A   1      40.730  26.516  26.399  1.00  0.00     0.200 A 
ATOM     84  F   UNL A   1      39.353  24.878  27.397  1.00  0.00    -0.200 F 
ATOM     85  F   UNL A   1      40.847  25.767  25.294  1.00  0.00    -0.200 F 
ENDBRANCH  51  75
BRANCH  63  86
ATOM     86  C   UNL A   1      43.813  28.309  34.815  1.00  0.00     0.064 A 
ATOM     87  C   UNL A   1      43.556  27.117  35.508  1.00  0.00     0.173 A 
ATOM     88  C   UNL A   1      45.151  28.690  34.632  1.00  0.00     0.173 A 
ATOM     89  F   UNL A   1      42.294  26.720  35.723  1.00  0.00    -0.203 F 
ATOM     90  C   UNL A   1      44.600  26.346  36.015  1.00  0.00     0.198 A 
ATOM     91  C   UNL A   1      46.192  27.903  35.117  1.00  0.00     0.198 A 
ATOM     92  F   UNL A   1      45.448  29.819  33.972  1.00  0.00    -0.203 F 
ATOM     93  F   UNL A   1      44.332  25.232  36.708  1.00  0.00    -0.200 F 
ATOM     94  C   UNL A   1      45.916  26.735  35.812  1.00  0.00     0.200 A 
ATOM     95  F   UNL A   1      47.463  28.274  34.911  1.00  0.00    -0.200 F 
ATOM     96  F   UNL A   1      46.919  25.988  36.293  1.00  0.00    -0.200 F 
ENDBRANCH  63  86
ENDBRANCH  37  38
ENDBRANCH  29  32
ENDBRANCH  27  28
ENDBRANCH  26  27
ENDBRANCH  25  26
ENDBRANCH   1  25
TORSDOF 17
ENDMDL
MODEL 2
REMARK VINA RESULT:     -11.4      4.063      5.974
REMARK SMILES C[NH2+]C[C@H](C)C(=O)N[C@H](Cc1ccccc1)C(=O)NCCCCNC(=O)c1ccc(-c2c3nc(c(-c4c(F)c(F)c(F)c(F)c4F)c4ccc([nH]4)c(-c4c(F)c(F)c(F)c(F)c4F)c4nc(c(-c5c(F)c(F)c(F)c(F)c5F)c5ccc2[nH]5)C=C4)C=C3)cc1
REMARK SMILES IDX 20 1 19 2 17 3 18 4 9 6 8 7 6 8 7 9 4 11 5 12 3 13 2 14 1 15
REMARK SMILES IDX 10 18 11 19 12 20 16 21 13 22 15 23 14 24 21 25 22 26 23 27
REMARK SMILES IDX 24 28 25 29 26 31 27 32 28 33 89 34 29 35 88 36 30 37 31 38
REMARK SMILES IDX 32 39 82 40 33 41 87 42 81 43 83 44 34 45 86 46 80 47 79 48
REMARK SMILES IDX 35 50 67 51 47 52 66 53 48 54 51 55 65 56 84 57 49 58 50 59
REMARK SMILES IDX 64 61 85 62 52 63 36 64 37 65 45 66 38 67 39 68 43 69 46 70
REMARK SMILES IDX 40 71 41 72 44 73 42 74 68 75 69 76 77 77 70 78 71 79 75 80
REMARK SMILES IDX 78 81 72 82 73 83 76 84 74 85 53 86 54 87 62 88 55 89 56 90
REMARK SMILES IDX 60 91 63 92 57 93 58 94 61 95 59 96
REMARK H PARENT 19 5 8 10 2 16 2 17 24 30 83 49 51 60
REMARK Flexibility Score: inf
ROOT
ATOM      1  C   UNL A   1      32.402  27.462  23.921  1.00  0.00     0.116 C 
ENDROOT
BRANCH   1   2
ATOM      2  N   UNL A   1      31.445  26.546  24.539  1.00  0.00    -0.354 N 
ATOM      3  C   UNL A   1      31.613  25.754  25.637  1.00  0.00     0.242 C 
ATOM      4  O   UNL A   1      30.958  26.056  26.643  1.00  0.00    -0.273 OA
ATOM      5  H   UNL A   1      30.562  26.494  24.105  1.00  0.00     0.163 HD
BRANCH   3   6
ATOM      6  C   UNL A   1      32.550  24.521  25.684  1.00  0.00     0.175 C 
BRANCH   6   7
ATOM      7  N   UNL A   1      31.876  23.329  26.226  1.00  0.00    -0.344 N 
ATOM      8  C   UNL A   1      31.379  22.178  25.709  1.00  0.00     0.229 C 
ATOM      9  O   UNL A   1      30.266  21.835  26.128  1.00  0.00    -0.275 OA
ATOM     10  H   UNL A   1      31.757  23.381  27.202  1.00  0.00     0.164 HD
BRANCH   8  11
ATOM     11  C   UNL A   1      32.154  21.220  24.810  1.00  0.00     0.130 C 
ATOM     12  C   UNL A   1      32.369  21.702  23.378  1.00  0.00     0.024 C 
BRANCH  11  13
ATOM     13  C   UNL A   1      33.414  20.572  25.408  1.00  0.00     0.273 C 
BRANCH  13  14
ATOM     14  N   UNL A   1      33.271  19.304  26.122  1.00  0.00    -0.348 N 
ATOM     15  C   UNL A   1      32.537  18.276  25.392  1.00  0.00     0.330 C 
ATOM     16  H   UNL A   1      34.204  18.946  26.326  1.00  0.00     0.346 HD
ATOM     17  H   UNL A   1      32.728  19.505  26.963  1.00  0.00     0.346 HD
ENDBRANCH  13  14
ENDBRANCH  11  13
ENDBRANCH   8  11
ENDBRANCH   6   7
BRANCH   6  18
ATOM     18  C   UNL A   1      34.024  24.777  25.970  1.00  0.00     0.070 C 
BRANCH  18  19
ATOM     19  C   UNL A   1      35.036  23.817  25.360  1.00  0.00    -0.045 A 
ATOM     20  C   UNL A   1      35.992  23.111  26.112  1.00  0.00     0.004 A 
ATOM     21  C   UNL A   1      35.107  23.731  23.961  1.00  0.00     0.004 A 
ATOM     22  C   UNL A   1      36.970  22.333  25.486  1.00  0.00     0.000 A 
ATOM     23  C   UNL A   1      36.088  22.954  23.336  1.00  0.00     0.000 A 
ATOM     24  C   UNL A   1      37.019  22.255  24.098  1.00  0.00     0.000 A 
ENDBRANCH  18  19
ENDBRANCH   6  18
ENDBRANCH   3   6
ENDBRANCH   1   2
BRANCH   1  25
ATOM     25  C   UNL A   1      32.722  28.713  24.739  1.00  0.00     0.023 C 
BRANCH  25  26
ATOM     26  C   UNL A   1      33.879  28.528  25.733  1.00  0.00     0.023 C 
BRANCH  26  27
ATOM     27  C   UNL A   1      33.559  28.711  27.217  1.00  0.00     0.116 C 
BRANCH  27  28
ATOM     28  N   UNL A   1      33.619  30.089  27.678  1.00  0.00    -0.352 N 
ATOM     29  C   UNL A   1      34.683  30.753  28.266  1.00  0.00     0.251 C 
ATOM     30  H   UNL A   1      32.798  30.619  27.556  1.00  0.00     0.163 HD
ATOM     31  O   UNL A   1      34.560  31.890  28.697  1.00  0.00    -0.269 OA
BRANCH  29  32
ATOM     32  C   UNL A   1      35.984  30.050  28.406  1.00  0.00     0.039 A 
ATOM     33  C   UNL A   1      36.915  30.111  27.366  1.00  0.00     0.014 A 
ATOM     34  C   UNL A   1      36.305  29.390  29.595  1.00  0.00     0.014 A 
ATOM     35  C   UNL A   1      38.210  29.615  27.563  1.00  0.00     0.010 A 
ATOM     36  C   UNL A   1      37.614  28.961  29.815  1.00  0.00     0.010 A 
ATOM     37  C   UNL A   1      38.588  29.093  28.813  1.00  0.00    -0.014 A 
BRANCH  37  38
ATOM     38  C   UNL A   1      40.002  28.733  29.115  1.00  0.00     0.031 A 
ATOM     39  C   UNL A   1      40.907  29.709  29.814  1.00  0.00     0.074 A 
ATOM     40  C   UNL A   1      40.505  27.565  28.665  1.00  0.00     0.049 A 
ATOM     41  N   UNL A   1      42.191  29.622  30.058  1.00  0.00    -0.248 NA
ATOM     42  C   UNL A   1      40.294  30.966  30.269  1.00  0.00     0.031 C 
ATOM     43  C   UNL A   1      39.758  26.554  27.915  1.00  0.00     0.029 A 
ATOM     44  N   UNL A   1      41.771  27.037  28.756  1.00  0.00    -0.354 N 
ATOM     45  C   UNL A   1      42.543  30.818  30.671  1.00  0.00     0.074 A 
ATOM     46  C   UNL A   1      41.347  31.634  30.717  1.00  0.00     0.031 C 
ATOM     47  C   UNL A   1      40.570  25.522  27.635  1.00  0.00     0.029 A 
ATOM     48  C   UNL A   1      41.905  25.810  28.152  1.00  0.00     0.049 A 
ATOM     49  H   UNL A   1      42.513  27.497  29.212  1.00  0.00     0.167 HD
ATOM     50  C   UNL A   1      43.744  31.194  31.171  1.00  0.00     0.037 A 
ATOM     51  C   UNL A   1      42.980  25.008  28.024  1.00  0.00     0.037 A 
ATOM     52  C   UNL A   1      44.926  30.371  31.160  1.00  0.00     0.049 A 
ATOM     53  C   UNL A   1      44.297  25.438  28.611  1.00  0.00     0.074 A 
ATOM     54  C   UNL A   1      46.170  30.640  31.703  1.00  0.00     0.029 A 
ATOM     55  N   UNL A   1      45.006  29.115  30.578  1.00  0.00    -0.354 N 
ATOM     56  N   UNL A   1      44.598  26.543  29.249  1.00  0.00    -0.248 NA
ATOM     57  C   UNL A   1      45.424  24.505  28.467  1.00  0.00     0.031 C 
ATOM     58  C   UNL A   1      47.014  29.560  31.421  1.00  0.00     0.029 A 
ATOM     59  C   UNL A   1      46.284  28.601  30.740  1.00  0.00     0.049 A 
ATOM     60  H   UNL A   1      44.266  28.656  30.120  1.00  0.00     0.167 HD
ATOM     61  C   UNL A   1      45.934  26.427  29.603  1.00  0.00     0.074 A 
ATOM     62  C   UNL A   1      46.386  25.139  29.122  1.00  0.00     0.031 C 
ATOM     63  C   UNL A   1      46.717  27.311  30.267  1.00  0.00     0.037 A 
BRANCH  50  64
ATOM     64  C   UNL A   1      43.837  32.560  31.789  1.00  0.00     0.064 A 
ATOM     65  C   UNL A   1      43.582  32.766  33.153  1.00  0.00     0.173 A 
ATOM     66  C   UNL A   1      44.212  33.669  31.016  1.00  0.00     0.173 A 
ATOM     67  F   UNL A   1      43.213  31.738  33.932  1.00  0.00    -0.203 F 
ATOM     68  C   UNL A   1      43.665  34.036  33.714  1.00  0.00     0.198 A 
ATOM     69  C   UNL A   1      44.321  34.935  31.587  1.00  0.00     0.198 A 
ATOM     70  F   UNL A   1      44.474  33.526  29.708  1.00  0.00    -0.203 F 
ATOM     71  F   UNL A   1      43.366  34.216  35.008  1.00  0.00    -0.200 F 
ATOM     72  C   UNL A   1      44.039  35.119  32.932  1.00  0.00     0.200 A 
ATOM     73  F   UNL A   1      44.697  35.979  30.834  1.00  0.00    -0.200 F 
ATOM     74  F   UNL A   1      44.121  36.342  33.475  1.00  0.00    -0.200 F 
ENDBRANCH  50  64
BRANCH  51  75
ATOM     75  C   UNL A   1      42.850  23.696  27.339  1.00  0.00     0.064 A 
ATOM     76  C   UNL A   1      43.263  23.541  26.008  1.00  0.00     0.173 A 
ATOM     77  C   UNL A   1      42.310  22.579  27.991  1.00  0.00     0.173 A 
ATOM     78  F   UNL A   1      43.765  24.587  25.337  1.00  0.00    -0.203 F 
ATOM     79  C   UNL A   1      43.122  22.322  25.349  1.00  0.00     0.198 A 
ATOM     80  C   UNL A   1      42.193  21.353  27.337  1.00  0.00     0.198 A 
ATOM     81  F   UNL A   1      41.905  22.675  29.266  1.00  0.00    -0.203 F 
ATOM     82  F   UNL A   1      43.484  22.212  24.063  1.00  0.00    -0.200 F 
ATOM     83  C   UNL A   1      42.591  21.227  26.015  1.00  0.00     0.200 A 
ATOM     84  F   UNL A   1      41.691  20.294  27.989  1.00  0.00    -0.200 F 
ATOM     85  F   UNL A   1      42.458  20.054  25.381  1.00  0.00    -0.200 F 
ENDBRANCH  51  75
BRANCH  63  86
ATOM     86  C   UNL A   1      48.134  26.905  30.546  1.00  0.00     0.064 A 
ATOM     87  C   UNL A   1      49.189  27.301  29.712  1.00  0.00     0.173 A 
ATOM     88  C   UNL A   1      48.443  26.151  31.689  1.00  0.00     0.173 A 
ATOM     89  F   UNL A   1      48.942  28.007  28.600  1.00  0.00    -0.203 F 
ATOM     90  C   UNL A   1      50.503  26.940  30.002  1.00  0.00     0.198 A 
ATOM     91  C   UNL A   1      49.761  25.815  31.989  1.00  0.00     0.198 A 
ATOM     92  F   UNL A   1      47.469  25.753  32.520  1.00  0.00    -0.203 F 
ATOM     93  F   UNL A   1      51.492  27.295  29.172  1.00  0.00    -0.200 F 
ATOM     94  C   UNL A   1      50.788  26.205  31.143  1.00  0.00     0.200 A 
ATOM     95  F   UNL A   1      50.035  25.114  33.098  1.00  0.00    -0.200 F 
ATOM     96  F   UNL A   1      52.053  25.866  31.425  1.00  0.00    -0.200 F 
ENDBRANCH  63  86
ENDBRANCH  37  38
ENDBRANCH  29  32
ENDBRANCH  27  28
ENDBRANCH  26  27
ENDBRANCH  25  26
ENDBRANCH   1  25
TORSDOF 17
ENDMDL
MODEL 3
REMARK VINA RESULT:     -11.3      1.199      2.887
REMARK SMILES C[NH2+]C[C@H](C)C(=O)N[C@H](Cc1ccccc1)C(=O)NCCCCNC(=O)c1ccc(-c2c3nc(c(-c4c(F)c(F)c(F)c(F)c4F)c4ccc([nH]4)c(-c4c(F)c(F)c(F)c(F)c4F)c4nc(c(-c5c(F)c(F)c(F)c(F)c5F)c5ccc2[nH]5)C=C4)C=C3)cc1
REMARK SMILES IDX 20 1 19 2 17 3 18 4 9 6 8 7 6 8 7 9 4 11 5 12 3 13 2 14 1 15
REMARK SMILES IDX 10 18 11 19 12 20 16 21 13 22 15 23 14 24 21 25 22 26 23 27
REMARK SMILES IDX 24 28 25 29 26 31 27 32 28 33 89 34 29 35 88 36 30 37 31 38
REMARK SMILES IDX 32 39 82 40 33 41 87 42 81 43 83 44 34 45 86 46 80 47 79 48
REMARK SMILES IDX 35 50 67 51 47 52 66 53 48 54 51 55 65 56 84 57 49 58 50 59
REMARK SMILES IDX 64 61 85 62 52 63 36 64 37 65 45 66 38 67 39 68 43 69 46 70
REMARK SMILES IDX 40 71 41 72 44 73 42 74 68 75 69 76 77 77 70 78 71 79 75 80
REMARK SMILES IDX 78 81 72 82 73 83 76 84 74 85 53 86 54 87 62 88 55 89 56 90
REMARK SMILES IDX 60 91 63 92 57 93 58 94 61 95 59 96
REMARK H PARENT 19 5 8 10 2 16 2 17 24 30 83 49 51 60
REMARK Flexibility Score: inf
ROOT
ATOM      1  C   UNL A   1      33.095  29.822  26.326  1.00  0.00     0.116 C 
ENDROOT
BRANCH   1   2
ATOM      2  N   UNL A   1      33.762  29.114  25.234  1.00  0.00    -0.354 N 
ATOM      3  C   UNL A   1      33.251  28.743  24.023  1.00  0.00     0.242 C 
ATOM      4  O   UNL A   1      33.702  29.328  23.030  1.00  0.00    -0.273 OA
ATOM      5  H   UNL A   1      34.704  28.873  25.393  1.00  0.00     0.163 HD
BRANCH   3   6
ATOM      6  C   UNL A   1      32.171  27.648  23.835  1.00  0.00     0.175 C 
BRANCH   6   7
ATOM      7  N   UNL A   1      32.382  26.863  22.607  1.00  0.00    -0.344 N 
ATOM      8  C   UNL A   1      32.872  25.633  22.316  1.00  0.00     0.229 C 
ATOM      9  O   UNL A   1      33.653  25.577  21.358  1.00  0.00    -0.275 OA
ATOM     10  H   UNL A   1      32.098  27.351  21.801  1.00  0.00     0.164 HD
BRANCH   8  11
ATOM     11  C   UNL A   1      32.402  24.332  22.959  1.00  0.00     0.130 C 
ATOM     12  C   UNL A   1      30.904  24.249  23.239  1.00  0.00     0.024 C 
BRANCH  11  13
ATOM     13  C   UNL A   1      32.965  23.026  22.374  1.00  0.00     0.273 C 
BRANCH  13  14
ATOM     14  N   UNL A   1      32.069  21.877  22.251  1.00  0.00    -0.348 N 
ATOM     15  C   UNL A   1      32.262  20.845  23.264  1.00  0.00     0.330 C 
ATOM     16  H   UNL A   1      31.108  22.214  22.318  1.00  0.00     0.346 HD
ATOM     17  H   UNL A   1      32.277  21.443  21.352  1.00  0.00     0.346 HD
ENDBRANCH  13  14
ENDBRANCH  11  13
ENDBRANCH   8  11
ENDBRANCH   6   7
BRANCH   6  18
ATOM     18  C   UNL A   1      30.764  27.968  24.321  1.00  0.00     0.070 C 
BRANCH  18  19
ATOM     19  C   UNL A   1      29.822  28.659  23.343  1.00  0.00    -0.045 A 
ATOM     20  C   UNL A   1      30.234  29.646  22.430  1.00  0.00     0.004 A 
ATOM     21  C   UNL A   1      28.449  28.392  23.445  1.00  0.00     0.004 A 
ATOM     22  C   UNL A   1      29.306  30.327  21.637  1.00  0.00     0.000 A 
ATOM     23  C   UNL A   1      27.521  29.076  22.654  1.00  0.00     0.000 A 
ATOM     24  C   UNL A   1      27.949  30.043  21.749  1.00  0.00     0.000 A 
ENDBRANCH  18  19
ENDBRANCH   6  18
ENDBRANCH   3   6
ENDBRANCH   1   2
BRANCH   1  25
ATOM     25  C   UNL A   1      31.917  30.699  25.904  1.00  0.00     0.023 C 
BRANCH  25  26
ATOM     26  C   UNL A   1      31.592  31.824  26.899  1.00  0.00     0.023 C 
BRANCH  26  27
ATOM     27  C   UNL A   1      32.756  32.701  27.364  1.00  0.00     0.116 C 
BRANCH  27  28
ATOM     28  N   UNL A   1      32.396  34.086  27.627  1.00  0.00    -0.352 N 
ATOM     29  C   UNL A   1      32.950  34.959  28.547  1.00  0.00     0.251 C 
ATOM     30  H   UNL A   1      31.662  34.449  27.079  1.00  0.00     0.163 HD
ATOM     31  O   UNL A   1      32.478  36.072  28.729  1.00  0.00    -0.269 OA
BRANCH  29  32
ATOM     32  C   UNL A   1      34.117  34.514  29.352  1.00  0.00     0.039 A 
ATOM     33  C   UNL A   1      33.912  33.992  30.632  1.00  0.00     0.014 A 
ATOM     34  C   UNL A   1      35.404  34.552  28.809  1.00  0.00     0.014 A 
ATOM     35  C   UNL A   1      34.980  33.400  31.318  1.00  0.00     0.010 A 
ATOM     36  C   UNL A   1      36.449  33.899  29.462  1.00  0.00     0.010 A 
ATOM     37  C   UNL A   1      36.243  33.291  30.711  1.00  0.00    -0.014 A 
BRANCH  37  38
ATOM     38  C   UNL A   1      37.344  32.503  31.331  1.00  0.00     0.031 A 
ATOM     39  C   UNL A   1      37.863  32.859  32.697  1.00  0.00     0.074 A 
ATOM     40  C   UNL A   1      37.952  31.530  30.622  1.00  0.00     0.049 A 
ATOM     41  N   UNL A   1      38.887  32.366  33.350  1.00  0.00    -0.248 NA
ATOM     42  C   UNL A   1      37.160  33.935  33.409  1.00  0.00     0.031 C 
ATOM     43  C   UNL A   1      37.595  31.124  29.262  1.00  0.00     0.029 A 
ATOM     44  N   UNL A   1      39.012  30.714  30.940  1.00  0.00    -0.354 N 
ATOM     45  C   UNL A   1      38.963  33.087  34.535  1.00  0.00     0.074 A 
ATOM     46  C   UNL A   1      37.913  34.083  34.489  1.00  0.00     0.031 C 
ATOM     47  C   UNL A   1      38.405  30.126  28.871  1.00  0.00     0.029 A 
ATOM     48  C   UNL A   1      39.361  29.842  29.937  1.00  0.00     0.049 A 
ATOM     49  H   UNL A   1      39.479  30.753  31.807  1.00  0.00     0.167 HD
ATOM     50  C   UNL A   1      39.812  32.920  35.576  1.00  0.00     0.037 A 
ATOM     51  C   UNL A   1      40.342  28.921  29.878  1.00  0.00     0.037 A 
ATOM     52  C   UNL A   1      40.834  31.907  35.642  1.00  0.00     0.049 A 
ATOM     53  C   UNL A   1      41.256  28.738  31.059  1.00  0.00     0.074 A 
ATOM     54  C   UNL A   1      41.698  31.618  36.684  1.00  0.00     0.029 A 
ATOM     55  N   UNL A   1      41.124  31.013  34.622  1.00  0.00    -0.354 N 
ATOM     56  N   UNL A   1      41.273  29.381  32.200  1.00  0.00    -0.248 NA
ATOM     57  C   UNL A   1      42.286  27.694  30.945  1.00  0.00     0.031 C 
ATOM     58  C   UNL A   1      42.534  30.570  36.282  1.00  0.00     0.029 A 
ATOM     59  C   UNL A   1      42.162  30.180  35.007  1.00  0.00     0.049 A 
ATOM     60  H   UNL A   1      40.661  30.976  33.754  1.00  0.00     0.167 HD
ATOM     61  C   UNL A   1      42.291  28.806  32.948  1.00  0.00     0.074 A 
ATOM     62  C   UNL A   1      42.863  27.752  32.138  1.00  0.00     0.031 C 
ATOM     63  C   UNL A   1      42.714  29.125  34.195  1.00  0.00     0.037 A 
BRANCH  50  64
ATOM     64  C   UNL A   1      39.664  33.853  36.744  1.00  0.00     0.064 A 
ATOM     65  C   UNL A   1      40.298  35.104  36.767  1.00  0.00     0.173 A 
ATOM     66  C   UNL A   1      38.858  33.505  37.838  1.00  0.00     0.173 A 
ATOM     67  F   UNL A   1      41.086  35.479  35.749  1.00  0.00    -0.203 F 
ATOM     68  C   UNL A   1      40.160  35.958  37.857  1.00  0.00     0.198 A 
ATOM     69  C   UNL A   1      38.698  34.375  38.915  1.00  0.00     0.198 A 
ATOM     70  F   UNL A   1      38.222  32.324  37.863  1.00  0.00    -0.203 F 
ATOM     71  F   UNL A   1      40.818  37.126  37.879  1.00  0.00    -0.200 F 
ATOM     72  C   UNL A   1      39.356  35.595  38.928  1.00  0.00     0.200 A 
ATOM     73  F   UNL A   1      37.910  34.030  39.943  1.00  0.00    -0.200 F 
ATOM     74  F   UNL A   1      39.222  36.421  39.975  1.00  0.00    -0.200 F 
ENDBRANCH  50  64
BRANCH  51  75
ATOM     75  C   UNL A   1      40.491  28.071  28.668  1.00  0.00     0.064 A 
ATOM     76  C   UNL A   1      41.272  28.500  27.586  1.00  0.00     0.173 A 
ATOM     77  C   UNL A   1      39.857  26.825  28.564  1.00  0.00     0.173 A 
ATOM     78  F   UNL A   1      41.880  29.694  27.631  1.00  0.00    -0.203 F 
ATOM     79  C   UNL A   1      41.398  27.722  26.436  1.00  0.00     0.198 A 
ATOM     80  C   UNL A   1      40.004  26.038  27.423  1.00  0.00     0.198 A 
ATOM     81  F   UNL A   1      39.102  26.368  29.574  1.00  0.00    -0.203 F 
ATOM     82  F   UNL A   1      42.115  28.176  25.399  1.00  0.00    -0.200 F 
ATOM     83  C   UNL A   1      40.767  26.490  26.358  1.00  0.00     0.200 A 
ATOM     84  F   UNL A   1      39.403  24.841  27.356  1.00  0.00    -0.200 F 
ATOM     85  F   UNL A   1      40.891  25.741  25.253  1.00  0.00    -0.200 F 
ENDBRANCH  51  75
BRANCH  63  86
ATOM     86  C   UNL A   1      43.827  28.304  34.778  1.00  0.00     0.064 A 
ATOM     87  C   UNL A   1      45.168  28.693  34.655  1.00  0.00     0.173 A 
ATOM     88  C   UNL A   1      43.541  27.141  35.508  1.00  0.00     0.173 A 
ATOM     89  F   UNL A   1      45.492  29.787  33.952  1.00  0.00    -0.203 F 
ATOM     90  C   UNL A   1      46.186  27.934  35.228  1.00  0.00     0.198 A 
ATOM     91  C   UNL A   1      44.560  26.400  36.102  1.00  0.00     0.198 A 
ATOM     92  F   UNL A   1      42.273  26.730  35.658  1.00  0.00    -0.203 F 
ATOM     93  F   UNL A   1      47.464  28.302  35.066  1.00  0.00    -0.200 F 
ATOM     94  C   UNL A   1      45.881  26.795  35.957  1.00  0.00     0.200 A 
ATOM     95  F   UNL A   1      44.262  25.305  36.814  1.00  0.00    -0.200 F 
ATOM     96  F   UNL A   1      46.862  26.071  36.514  1.00  0.00    -0.200 F 
ENDBRANCH  63  86
ENDBRANCH  37  38
ENDBRANCH  29  32
ENDBRANCH  27  28
ENDBRANCH  26  27
ENDBRANCH  25  26
ENDBRANCH   1  25
TORSDOF 17
ENDMDL
