MODEL 1
REMARK VINA RESULT:     -12.3      0.000      0.000
REMARK SMILES [NH3+][C@H](Cc1cc(F)c(F)c(F)c1)C(=O)NCCCCNC(=O)c1ccc(-c2c3nc(c(-c4c(F)c(F)c(F)c(F)c4F)c4ccc([nH]4)c(-c4c(F)c(F)c(F)c(F)c4F)c4nc(c(-c5c(F)c(F)c(F)c(F)c5F)c5ccc2[nH]5)C=C4)C=C3)cc1
REMARK SMILES IDX 17 1 16 2 15 3 13 4 14 5 2 7 1 8 3 12 4 13 5 14 12 15 6 16
REMARK SMILES IDX 10 17 7 18 8 19 11 20 9 21 18 22 19 23 20 24 21 25 22 27
REMARK SMILES IDX 23 28 24 29 85 30 25 31 84 32 26 33 27 34 28 35 78 36 29 37
REMARK SMILES IDX 83 38 77 39 79 40 30 41 82 42 76 43 75 44 31 46 63 47 43 48
REMARK SMILES IDX 62 49 44 50 47 51 61 52 80 53 45 54 46 55 60 57 81 58 48 59
REMARK SMILES IDX 32 60 33 61 41 62 34 63 35 64 39 65 42 66 36 67 37 68 40 69
REMARK SMILES IDX 38 70 64 71 65 72 73 73 66 74 67 75 71 76 74 77 68 78 69 79
REMARK SMILES IDX 72 80 70 81 49 82 50 83 58 84 51 85 52 86 56 87 59 88 53 89
REMARK SMILES IDX 54 90 57 91 55 92
REMARK H PARENT 15 6 1 9 1 10 1 11 20 26 79 45 47 56
REMARK Flexibility Score: inf
ROOT
ATOM      1  C   UNL A   1      31.808  30.434  26.733  1.00  0.00     0.023 C 
ENDROOT
BRANCH   1   2
ATOM      2  C   UNL A   1      32.569  30.046  25.467  1.00  0.00     0.116 C 
BRANCH   2   3
ATOM      3  N   UNL A   1      32.570  28.617  25.261  1.00  0.00    -0.351 N 
ATOM      4  C   UNL A   1      31.908  27.861  24.332  1.00  0.00     0.278 C 
ATOM      5  O   UNL A   1      32.025  26.636  24.416  1.00  0.00    -0.268 OA
ATOM      6  H   UNL A   1      33.134  28.106  25.886  1.00  0.00     0.163 HD
BRANCH   4   7
ATOM      7  C   UNL A   1      31.063  28.510  23.205  1.00  0.00     0.275 C 
BRANCH   7   8
ATOM      8  N   UNL A   1      31.932  29.369  22.372  1.00  0.00    -0.347 N 
ATOM      9  H   UNL A   1      31.523  29.466  21.442  1.00  0.00     0.345 HD
ATOM     10  H   UNL A   1      32.855  28.942  22.294  1.00  0.00     0.345 HD
ATOM     11  H   UNL A   1      32.017  30.288  22.805  1.00  0.00     0.345 HD
ENDBRANCH   7   8
BRANCH   7  12
ATOM     12  C   UNL A   1      29.734  29.122  23.724  1.00  0.00     0.111 C 
BRANCH  12  13
ATOM     13  C   UNL A   1      29.160  30.291  22.944  1.00  0.00    -0.036 A 
ATOM     14  C   UNL A   1      29.179  31.598  23.462  1.00  0.00     0.046 A 
ATOM     15  C   UNL A   1      28.573  30.092  21.686  1.00  0.00     0.046 A 
ATOM     16  C   UNL A   1      28.660  32.667  22.734  1.00  0.00     0.162 A 
ATOM     17  C   UNL A   1      28.040  31.171  20.976  1.00  0.00     0.162 A 
ATOM     18  F   UNL A   1      28.725  33.899  23.257  1.00  0.00    -0.204 F 
ATOM     19  C   UNL A   1      28.089  32.460  21.492  1.00  0.00     0.194 A 
ATOM     20  F   UNL A   1      27.474  30.951  19.782  1.00  0.00    -0.204 F 
ATOM     21  F   UNL A   1      27.588  33.491  20.799  1.00  0.00    -0.200 F 
ENDBRANCH  12  13
ENDBRANCH   7  12
ENDBRANCH   4   7
ENDBRANCH   2   3
ENDBRANCH   1   2
BRANCH   1  22
ATOM     22  C   UNL A   1      31.532  31.931  26.851  1.00  0.00     0.023 C 
BRANCH  22  23
ATOM     23  C   UNL A   1      32.726  32.765  27.304  1.00  0.00     0.116 C 
BRANCH  23  24
ATOM     24  N   UNL A   1      32.384  34.142  27.629  1.00  0.00    -0.352 N 
ATOM     25  C   UNL A   1      32.957  34.962  28.576  1.00  0.00     0.251 C 
ATOM     26  H   UNL A   1      31.651  34.537  27.106  1.00  0.00     0.163 HD
ATOM     27  O   UNL A   1      32.493  36.068  28.811  1.00  0.00    -0.269 OA
BRANCH  25  28
ATOM     28  C   UNL A   1      34.117  34.460  29.340  1.00  0.00     0.039 A 
ATOM     29  C   UNL A   1      33.892  33.782  30.540  1.00  0.00     0.014 A 
ATOM     30  C   UNL A   1      35.410  34.597  28.831  1.00  0.00     0.014 A 
ATOM     31  C   UNL A   1      34.962  33.166  31.189  1.00  0.00     0.010 A 
ATOM     32  C   UNL A   1      36.461  33.918  29.437  1.00  0.00     0.010 A 
ATOM     33  C   UNL A   1      36.245  33.191  30.618  1.00  0.00    -0.014 A 
BRANCH  33  34
ATOM     34  C   UNL A   1      37.377  32.452  31.231  1.00  0.00     0.031 A 
ATOM     35  C   UNL A   1      37.871  32.834  32.597  1.00  0.00     0.074 A 
ATOM     36  C   UNL A   1      38.002  31.486  30.530  1.00  0.00     0.049 A 
ATOM     37  N   UNL A   1      38.895  32.368  33.266  1.00  0.00    -0.248 NA
ATOM     38  C   UNL A   1      37.136  33.902  33.294  1.00  0.00     0.031 C 
ATOM     39  C   UNL A   1      37.644  31.057  29.178  1.00  0.00     0.029 A 
ATOM     40  N   UNL A   1      39.075  30.693  30.856  1.00  0.00    -0.354 N 
ATOM     41  C   UNL A   1      38.935  33.094  34.447  1.00  0.00     0.074 A 
ATOM     42  C   UNL A   1      37.866  34.067  34.386  1.00  0.00     0.031 C 
ATOM     43  C   UNL A   1      38.457  30.055  28.803  1.00  0.00     0.029 A 
ATOM     44  C   UNL A   1      39.420  29.800  29.870  1.00  0.00     0.049 A 
ATOM     45  H   UNL A   1      39.551  30.759  31.714  1.00  0.00     0.167 HD
ATOM     46  C   UNL A   1      39.771  32.943  35.500  1.00  0.00     0.037 A 
ATOM     47  C   UNL A   1      40.403  28.880  29.832  1.00  0.00     0.037 A 
ATOM     48  C   UNL A   1      40.804  31.947  35.575  1.00  0.00     0.049 A 
ATOM     49  C   UNL A   1      41.319  28.733  31.016  1.00  0.00     0.074 A 
ATOM     50  C   UNL A   1      41.659  31.672  36.628  1.00  0.00     0.029 A 
ATOM     51  N   UNL A   1      41.119  31.057  34.559  1.00  0.00    -0.354 N 
ATOM     52  N   UNL A   1      41.314  29.390  32.151  1.00  0.00    -0.248 NA
ATOM     53  C   UNL A   1      42.379  27.720  30.916  1.00  0.00     0.031 C 
ATOM     54  C   UNL A   1      42.519  30.643  36.234  1.00  0.00     0.029 A 
ATOM     55  C   UNL A   1      42.169  30.244  34.954  1.00  0.00     0.049 A 
ATOM     56  H   UNL A   1      40.665  31.009  33.687  1.00  0.00     0.167 HD
ATOM     57  C   UNL A   1      42.347  28.856  32.906  1.00  0.00     0.074 A 
ATOM     58  C   UNL A   1      42.954  27.812  32.107  1.00  0.00     0.031 C 
ATOM     59  C   UNL A   1      42.756  29.202  34.151  1.00  0.00     0.037 A 
BRANCH  46  60
ATOM     60  C   UNL A   1      39.594  33.861  36.672  1.00  0.00     0.064 A 
ATOM     61  C   UNL A   1      40.272  35.088  36.725  1.00  0.00     0.173 A 
ATOM     62  C   UNL A   1      38.813  33.493  37.779  1.00  0.00     0.173 A 
ATOM     63  F   UNL A   1      41.035  35.483  35.696  1.00  0.00    -0.203 F 
ATOM     64  C   UNL A   1      40.184  35.907  37.847  1.00  0.00     0.198 A 
ATOM     65  C   UNL A   1      38.705  34.327  38.888  1.00  0.00     0.198 A 
ATOM     66  F   UNL A   1      38.136  32.335  37.771  1.00  0.00    -0.203 F 
ATOM     67  F   UNL A   1      40.865  37.060  37.889  1.00  0.00    -0.200 F 
ATOM     68  C   UNL A   1      39.399  35.528  38.926  1.00  0.00     0.200 A 
ATOM     69  F   UNL A   1      37.926  33.971  39.918  1.00  0.00    -0.200 F 
ATOM     70  F   UNL A   1      39.309  36.321  40.002  1.00  0.00    -0.200 F 
ENDBRANCH  46  60
BRANCH  47  71
ATOM     71  C   UNL A   1      40.539  27.996  28.645  1.00  0.00     0.064 A 
ATOM     72  C   UNL A   1      41.298  28.375  27.529  1.00  0.00     0.173 A 
ATOM     73  C   UNL A   1      39.882  26.758  28.599  1.00  0.00     0.173 A 
ATOM     74  F   UNL A   1      41.942  29.551  27.523  1.00  0.00    -0.203 F 
ATOM     75  C   UNL A   1      41.381  27.557  26.404  1.00  0.00     0.198 A 
ATOM     76  C   UNL A   1      39.985  25.929  27.484  1.00  0.00     0.198 A 
ATOM     77  F   UNL A   1      39.161  26.344  29.650  1.00  0.00    -0.203 F 
ATOM     78  F   UNL A   1      42.086  27.955  25.337  1.00  0.00    -0.200 F 
ATOM     79  C   UNL A   1      40.727  26.333  26.384  1.00  0.00     0.200 A 
ATOM     80  F   UNL A   1      39.371  24.739  27.477  1.00  0.00    -0.200 F 
ATOM     81  F   UNL A   1      40.815  25.542  25.307  1.00  0.00    -0.200 F 
ENDBRANCH  47  71
BRANCH  59  82
ATOM     82  C   UNL A   1      43.899  28.438  34.748  1.00  0.00     0.064 A 
ATOM     83  C   UNL A   1      45.223  28.830  34.496  1.00  0.00     0.173 A 
ATOM     84  C   UNL A   1      43.689  27.265  35.486  1.00  0.00     0.173 A 
ATOM     85  F   UNL A   1      45.477  29.939  33.786  1.00  0.00    -0.203 F 
ATOM     86  C   UNL A   1      46.295  28.063  34.947  1.00  0.00     0.198 A 
ATOM     87  C   UNL A   1      44.762  26.515  35.959  1.00  0.00     0.198 A 
ATOM     88  F   UNL A   1      42.440  26.857  35.762  1.00  0.00    -0.203 F 
ATOM     89  F   UNL A   1      47.550  28.436  34.661  1.00  0.00    -0.200 F 
ATOM     90  C   UNL A   1      46.063  26.909  35.678  1.00  0.00     0.200 A 
ATOM     91  F   UNL A   1      44.538  25.411  36.684  1.00  0.00    -0.200 F 
ATOM     92  F   UNL A   1      47.094  26.174  36.115  1.00  0.00    -0.200 F 
ENDBRANCH  59  82
ENDBRANCH  33  34
ENDBRANCH  25  28
ENDBRANCH  23  24
ENDBRANCH  22  23
ENDBRANCH   1  22
TORSDOF 14
ENDMDL
MODEL 2
REMARK VINA RESULT:     -12.3      4.730      7.744
REMARK SMILES [NH3+][C@H](Cc1cc(F)c(F)c(F)c1)C(=O)NCCCCNC(=O)c1ccc(-c2c3nc(c(-c4c(F)c(F)c(F)c(F)c4F)c4ccc([nH]4)c(-c4c(F)c(F)c(F)c(F)c4F)c4nc(c(-c5c(F)c(F)c(F)c(F)c5F)c5ccc2[nH]5)C=C4)C=C3)cc1
REMARK SMILES IDX 17 1 16 2 15 3 13 4 14 5 2 7 1 8 3 12 4 13 5 14 12 15 6 16
REMARK SMILES IDX 10 17 7 18 8 19 11 20 9 21 18 22 19 23 20 24 21 25 22 27
REMARK SMILES IDX 23 28 24 29 85 30 25 31 84 32 26 33 27 34 28 35 78 36 29 37
REMARK SMILES IDX 83 38 77 39 79 40 30 41 82 42 76 43 75 44 31 46 63 47 43 48
REMARK SMILES IDX 62 49 44 50 47 51 61 52 80 53 45 54 46 55 60 57 81 58 48 59
REMARK SMILES IDX 32 60 33 61 41 62 34 63 35 64 39 65 42 66 36 67 37 68 40 69
REMARK SMILES IDX 38 70 64 71 65 72 73 73 66 74 67 75 71 76 74 77 68 78 69 79
REMARK SMILES IDX 72 80 70 81 49 82 50 83 58 84 51 85 52 86 56 87 59 88 53 89
REMARK SMILES IDX 54 90 57 91 55 92
REMARK H PARENT 15 6 1 9 1 10 1 11 20 26 79 45 47 56
REMARK Flexibility Score: inf
ROOT
ATOM      1  C   UNL A   1      34.438  34.768  28.167  1.00  0.00     0.023 C 
ENDROOT
BRANCH   1   2
ATOM      2  C   UNL A   1      33.277  34.834  29.158  1.00  0.00     0.116 C 
BRANCH   2   3
ATOM      3  N   UNL A   1      33.169  36.139  29.767  1.00  0.00    -0.351 N 
ATOM      4  C   UNL A   1      33.052  36.488  31.084  1.00  0.00     0.278 C 
ATOM      5  O   UNL A   1      32.903  37.686  31.338  1.00  0.00    -0.268 OA
ATOM      6  H   UNL A   1      33.182  36.895  29.137  1.00  0.00     0.163 HD
BRANCH   4   7
ATOM      7  C   UNL A   1      33.124  35.432  32.218  1.00  0.00     0.275 C 
BRANCH   7   8
ATOM      8  N   UNL A   1      31.805  35.328  32.877  1.00  0.00    -0.347 N 
ATOM      9  H   UNL A   1      31.311  34.509  32.522  1.00  0.00     0.345 HD
ATOM     10  H   UNL A   1      31.259  36.167  32.678  1.00  0.00     0.345 HD
ATOM     11  H   UNL A   1      31.933  35.237  33.884  1.00  0.00     0.345 HD
ENDBRANCH   7   8
BRANCH   7  12
ATOM     12  C   UNL A   1      34.369  35.610  33.128  1.00  0.00     0.111 C 
BRANCH  12  13
ATOM     13  C   UNL A   1      35.388  34.484  33.134  1.00  0.00    -0.036 A 
ATOM     14  C   UNL A   1      35.815  33.876  31.940  1.00  0.00     0.046 A 
ATOM     15  C   UNL A   1      35.916  34.004  34.341  1.00  0.00     0.046 A 
ATOM     16  C   UNL A   1      36.759  32.851  31.955  1.00  0.00     0.162 A 
ATOM     17  C   UNL A   1      36.848  32.963  34.340  1.00  0.00     0.162 A 
ATOM     18  F   UNL A   1      37.156  32.320  30.791  1.00  0.00    -0.204 F 
ATOM     19  C   UNL A   1      37.277  32.390  33.151  1.00  0.00     0.194 A 
ATOM     20  F   UNL A   1      37.327  32.516  35.509  1.00  0.00    -0.204 F 
ATOM     21  F   UNL A   1      38.181  31.401  33.158  1.00  0.00    -0.200 F 
ENDBRANCH  12  13
ENDBRANCH   7  12
ENDBRANCH   4   7
ENDBRANCH   2   3
ENDBRANCH   1   2
BRANCH   1  22
ATOM     22  C   UNL A   1      34.940  33.351  27.901  1.00  0.00     0.023 C 
BRANCH  22  23
ATOM     23  C   UNL A   1      34.439  32.302  28.888  1.00  0.00     0.116 C 
BRANCH  23  24
ATOM     24  N   UNL A   1      33.917  31.103  28.248  1.00  0.00    -0.352 N 
ATOM     25  C   UNL A   1      34.589  29.942  27.938  1.00  0.00     0.251 C 
ATOM     26  H   UNL A   1      32.964  31.125  28.006  1.00  0.00     0.163 HD
ATOM     27  O   UNL A   1      34.043  29.053  27.302  1.00  0.00    -0.269 OA
BRANCH  25  28
ATOM     28  C   UNL A   1      36.002  29.808  28.348  1.00  0.00     0.039 A 
ATOM     29  C   UNL A   1      36.290  29.328  29.626  1.00  0.00     0.014 A 
ATOM     30  C   UNL A   1      37.028  30.085  27.442  1.00  0.00     0.014 A 
ATOM     31  C   UNL A   1      37.613  29.047  29.969  1.00  0.00     0.010 A 
ATOM     32  C   UNL A   1      38.335  29.730  27.757  1.00  0.00     0.010 A 
ATOM     33  C   UNL A   1      38.638  29.202  29.022  1.00  0.00    -0.014 A 
BRANCH  33  34
ATOM     34  C   UNL A   1      40.036  28.806  29.326  1.00  0.00     0.031 A 
ATOM     35  C   UNL A   1      40.918  29.720  30.127  1.00  0.00     0.074 A 
ATOM     36  C   UNL A   1      40.529  27.658  28.823  1.00  0.00     0.049 A 
ATOM     37  N   UNL A   1      42.186  29.593  30.426  1.00  0.00    -0.248 NA
ATOM     38  C   UNL A   1      40.303  30.956  30.637  1.00  0.00     0.031 C 
ATOM     39  C   UNL A   1      39.785  26.709  27.993  1.00  0.00     0.029 A 
ATOM     40  N   UNL A   1      41.777  27.095  28.930  1.00  0.00    -0.354 N 
ATOM     41  C   UNL A   1      42.520  30.735  31.139  1.00  0.00     0.074 A 
ATOM     42  C   UNL A   1      41.340  31.570  31.188  1.00  0.00     0.031 C 
ATOM     43  C   UNL A   1      40.577  25.666  27.697  1.00  0.00     0.029 A 
ATOM     44  C   UNL A   1      41.897  25.891  28.279  1.00  0.00     0.049 A 
ATOM     45  H   UNL A   1      42.516  27.515  29.426  1.00  0.00     0.167 HD
ATOM     46  C   UNL A   1      43.700  31.045  31.726  1.00  0.00     0.037 A 
ATOM     47  C   UNL A   1      42.953  25.062  28.165  1.00  0.00     0.037 A 
ATOM     48  C   UNL A   1      44.858  30.194  31.712  1.00  0.00     0.049 A 
ATOM     49  C   UNL A   1      44.253  25.432  28.826  1.00  0.00     0.074 A 
ATOM     50  C   UNL A   1      46.078  30.392  32.334  1.00  0.00     0.029 A 
ATOM     51  N   UNL A   1      44.939  28.979  31.046  1.00  0.00    -0.354 N 
ATOM     52  N   UNL A   1      44.542  26.490  29.543  1.00  0.00    -0.248 NA
ATOM     53  C   UNL A   1      45.373  24.495  28.661  1.00  0.00     0.031 C 
ATOM     54  C   UNL A   1      46.911  29.317  32.012  1.00  0.00     0.029 A 
ATOM     55  C   UNL A   1      46.195  28.426  31.228  1.00  0.00     0.049 A 
ATOM     56  H   UNL A   1      44.212  28.571  30.524  1.00  0.00     0.167 HD
ATOM     57  C   UNL A   1      45.864  26.336  29.935  1.00  0.00     0.074 A 
ATOM     58  C   UNL A   1      46.320  25.076  29.385  1.00  0.00     0.031 C 
ATOM     59  C   UNL A   1      46.631  27.166  30.683  1.00  0.00     0.037 A 
BRANCH  46  60
ATOM     60  C   UNL A   1      43.798  32.353  32.453  1.00  0.00     0.064 A 
ATOM     61  C   UNL A   1      44.256  33.503  31.794  1.00  0.00     0.173 A 
ATOM     62  C   UNL A   1      43.509  32.451  33.823  1.00  0.00     0.173 A 
ATOM     63  F   UNL A   1      44.549  33.461  30.486  1.00  0.00    -0.203 F 
ATOM     64  C   UNL A   1      44.434  34.700  32.482  1.00  0.00     0.198 A 
ATOM     65  C   UNL A   1      43.663  33.656  34.502  1.00  0.00     0.198 A 
ATOM     66  F   UNL A   1      43.057  31.381  34.496  1.00  0.00    -0.203 F 
ATOM     67  F   UNL A   1      44.903  35.778  31.840  1.00  0.00    -0.200 F 
ATOM     68  C   UNL A   1      44.135  34.776  33.834  1.00  0.00     0.200 A 
ATOM     69  F   UNL A   1      43.349  33.734  35.802  1.00  0.00    -0.200 F 
ATOM     70  F   UNL A   1      44.299  35.931  34.494  1.00  0.00    -0.200 F 
ENDBRANCH  46  60
BRANCH  47  71
ATOM     71  C   UNL A   1      42.806  23.779  27.430  1.00  0.00     0.064 A 
ATOM     72  C   UNL A   1      42.319  22.624  28.057  1.00  0.00     0.173 A 
ATOM     73  C   UNL A   1      43.181  23.681  26.083  1.00  0.00     0.173 A 
ATOM     74  F   UNL A   1      41.952  22.664  29.347  1.00  0.00    -0.203 F 
ATOM     75  C   UNL A   1      42.228  21.415  27.370  1.00  0.00     0.198 A 
ATOM     76  C   UNL A   1      43.067  22.479  25.388  1.00  0.00     0.198 A 
ATOM     77  F   UNL A   1      43.634  24.764  25.434  1.00  0.00    -0.203 F 
ATOM     78  F   UNL A   1      41.789  20.318  28.001  1.00  0.00    -0.200 F 
ATOM     79  C   UNL A   1      42.599  21.345  26.035  1.00  0.00     0.200 A 
ATOM     80  F   UNL A   1      43.405  22.420  24.093  1.00  0.00    -0.200 F 
ATOM     81  F   UNL A   1      42.502  20.185  25.371  1.00  0.00    -0.200 F 
ENDBRANCH  47  71
BRANCH  59  82
ATOM     82  C   UNL A   1      48.038  26.741  30.977  1.00  0.00     0.064 A 
ATOM     83  C   UNL A   1      48.320  25.957  32.107  1.00  0.00     0.173 A 
ATOM     84  C   UNL A   1      49.115  27.187  30.199  1.00  0.00     0.173 A 
ATOM     85  F   UNL A   1      47.324  25.515  32.889  1.00  0.00    -0.203 F 
ATOM     86  C   UNL A   1      49.632  25.653  32.457  1.00  0.00     0.198 A 
ATOM     87  C   UNL A   1      50.425  26.858  30.537  1.00  0.00     0.198 A 
ATOM     88  F   UNL A   1      48.893  27.929  29.103  1.00  0.00    -0.203 F 
ATOM     89  F   UNL A   1      49.881  24.936  33.562  1.00  0.00    -0.200 F 
ATOM     90  C   UNL A   1      50.683  26.101  31.671  1.00  0.00     0.200 A 
ATOM     91  F   UNL A   1      51.438  27.274  29.765  1.00  0.00    -0.200 F 
ATOM     92  F   UNL A   1      51.945  25.804  32.006  1.00  0.00    -0.200 F 
ENDBRANCH  59  82
ENDBRANCH  33  34
ENDBRANCH  25  28
ENDBRANCH  23  24
ENDBRANCH  22  23
ENDBRANCH   1  22
TORSDOF 14
ENDMDL
MODEL 3
REMARK VINA RESULT:     -12.3      4.363      7.310
REMARK SMILES [NH3+][C@H](Cc1cc(F)c(F)c(F)c1)C(=O)NCCCCNC(=O)c1ccc(-c2c3nc(c(-c4c(F)c(F)c(F)c(F)c4F)c4ccc([nH]4)c(-c4c(F)c(F)c(F)c(F)c4F)c4nc(c(-c5c(F)c(F)c(F)c(F)c5F)c5ccc2[nH]5)C=C4)C=C3)cc1
REMARK SMILES IDX 17 1 16 2 15 3 13 4 14 5 2 7 1 8 3 12 4 13 5 14 12 15 6 16
REMARK SMILES IDX 10 17 7 18 8 19 11 20 9 21 18 22 19 23 20 24 21 25 22 27
REMARK SMILES IDX 23 28 24 29 85 30 25 31 84 32 26 33 27 34 28 35 78 36 29 37
REMARK SMILES IDX 83 38 77 39 79 40 30 41 82 42 76 43 75 44 31 46 63 47 43 48
REMARK SMILES IDX 62 49 44 50 47 51 61 52 80 53 45 54 46 55 60 57 81 58 48 59
REMARK SMILES IDX 32 60 33 61 41 62 34 63 35 64 39 65 42 66 36 67 37 68 40 69
REMARK SMILES IDX 38 70 64 71 65 72 73 73 66 74 67 75 71 76 74 77 68 78 69 79
REMARK SMILES IDX 72 80 70 81 49 82 50 83 58 84 51 85 52 86 56 87 59 88 53 89
REMARK SMILES IDX 54 90 57 91 55 92
REMARK H PARENT 15 6 1 9 1 10 1 11 20 26 79 45 47 56
REMARK Flexibility Score: inf
ROOT
ATOM      1  C   UNL A   1      34.289  35.432  28.672  1.00  0.00     0.023 C 
ENDROOT
BRANCH   1   2
ATOM      2  C   UNL A   1      32.927  35.716  29.303  1.00  0.00     0.116 C 
BRANCH   2   3
ATOM      3  N   UNL A   1      32.985  36.833  30.217  1.00  0.00    -0.351 N 
ATOM      4  C   UNL A   1      33.110  36.849  31.579  1.00  0.00     0.278 C 
ATOM      5  O   UNL A   1      33.063  37.950  32.135  1.00  0.00    -0.268 OA
ATOM      6  H   UNL A   1      32.927  37.720  29.794  1.00  0.00     0.163 HD
BRANCH   4   7
ATOM      7  C   UNL A   1      33.326  35.548  32.395  1.00  0.00     0.275 C 
BRANCH   7   8
ATOM      8  N   UNL A   1      32.014  34.996  32.794  1.00  0.00    -0.347 N 
ATOM      9  H   UNL A   1      31.356  35.760  32.950  1.00  0.00     0.345 HD
ATOM     10  H   UNL A   1      32.119  34.458  33.654  1.00  0.00     0.345 HD
ATOM     11  H   UNL A   1      31.661  34.389  32.054  1.00  0.00     0.345 HD
ENDBRANCH   7   8
BRANCH   7  12
ATOM     12  C   UNL A   1      34.405  35.701  33.500  1.00  0.00     0.111 C 
BRANCH  12  13
ATOM     13  C   UNL A   1      35.315  34.511  33.748  1.00  0.00    -0.036 A 
ATOM     14  C   UNL A   1      35.309  33.393  32.895  1.00  0.00     0.046 A 
ATOM     15  C   UNL A   1      36.174  34.487  34.856  1.00  0.00     0.046 A 
ATOM     16  C   UNL A   1      36.155  32.310  33.125  1.00  0.00     0.162 A 
ATOM     17  C   UNL A   1      37.004  33.386  35.083  1.00  0.00     0.162 A 
ATOM     18  F   UNL A   1      36.134  31.279  32.270  1.00  0.00    -0.204 F 
ATOM     19  C   UNL A   1      37.003  32.300  34.217  1.00  0.00     0.194 A 
ATOM     20  F   UNL A   1      37.807  33.385  36.155  1.00  0.00    -0.204 F 
ATOM     21  F   UNL A   1      37.811  31.254  34.435  1.00  0.00    -0.200 F 
ENDBRANCH  12  13
ENDBRANCH   7  12
ENDBRANCH   4   7
ENDBRANCH   2   3
ENDBRANCH   1   2
BRANCH   1  22
ATOM     22  C   UNL A   1      34.998  34.214  29.261  1.00  0.00     0.023 C 
BRANCH  22  23
ATOM     23  C   UNL A   1      35.504  33.211  28.229  1.00  0.00     0.116 C 
BRANCH  23  24
ATOM     24  N   UNL A   1      34.472  32.308  27.740  1.00  0.00    -0.352 N 
ATOM     25  C   UNL A   1      34.530  30.939  27.607  1.00  0.00     0.251 C 
ATOM     26  H   UNL A   1      33.625  32.730  27.469  1.00  0.00     0.163 HD
ATOM     27  O   UNL A   1      33.617  30.321  27.079  1.00  0.00    -0.269 OA
BRANCH  25  28
ATOM     28  C   UNL A   1      35.741  30.232  28.070  1.00  0.00     0.039 A 
ATOM     29  C   UNL A   1      36.872  30.222  27.251  1.00  0.00     0.014 A 
ATOM     30  C   UNL A   1      35.777  29.651  29.340  1.00  0.00     0.014 A 
ATOM     31  C   UNL A   1      38.068  29.698  27.741  1.00  0.00     0.010 A 
ATOM     32  C   UNL A   1      36.988  29.201  29.854  1.00  0.00     0.010 A 
ATOM     33  C   UNL A   1      38.146  29.227  29.062  1.00  0.00    -0.014 A 
BRANCH  33  34
ATOM     34  C   UNL A   1      39.432  28.766  29.642  1.00  0.00     0.031 A 
ATOM     35  C   UNL A   1      40.048  29.513  30.789  1.00  0.00     0.074 A 
ATOM     36  C   UNL A   1      40.075  27.718  29.092  1.00  0.00     0.049 A 
ATOM     37  N   UNL A   1      41.201  29.319  31.378  1.00  0.00    -0.248 NA
ATOM     38  C   UNL A   1      39.283  30.648  31.330  1.00  0.00     0.031 C 
ATOM     39  C   UNL A   1      39.599  26.940  27.946  1.00  0.00     0.029 A 
ATOM     40  N   UNL A   1      41.272  27.129  29.417  1.00  0.00    -0.354 N 
ATOM     41  C   UNL A   1      41.304  30.313  32.340  1.00  0.00     0.074 A 
ATOM     42  C   UNL A   1      40.123  31.141  32.227  1.00  0.00     0.031 C 
ATOM     43  C   UNL A   1      40.475  25.955  27.689  1.00  0.00     0.029 A 
ATOM     44  C   UNL A   1      41.594  26.057  28.621  1.00  0.00     0.049 A 
ATOM     45  H   UNL A   1      41.845  27.445  30.153  1.00  0.00     0.167 HD
ATOM     46  C   UNL A   1      42.283  30.499  33.256  1.00  0.00     0.037 A 
ATOM     47  C   UNL A   1      42.671  25.247  28.641  1.00  0.00     0.037 A 
ATOM     48  C   UNL A   1      43.434  29.649  33.394  1.00  0.00     0.049 A 
ATOM     49  C   UNL A   1      43.745  25.478  29.668  1.00  0.00     0.074 A 
ATOM     50  C   UNL A   1      44.447  29.719  34.334  1.00  0.00     0.029 A 
ATOM     51  N   UNL A   1      43.722  28.570  32.571  1.00  0.00    -0.354 N 
ATOM     52  N   UNL A   1      43.806  26.389  30.608  1.00  0.00    -0.248 NA
ATOM     53  C   UNL A   1      44.901  24.571  29.637  1.00  0.00     0.031 C 
ATOM     54  C   UNL A   1      45.369  28.706  34.056  1.00  0.00     0.029 A 
ATOM     55  C   UNL A   1      44.908  27.977  32.972  1.00  0.00     0.049 A 
ATOM     56  H   UNL A   1      43.167  28.269  31.816  1.00  0.00     0.167 HD
ATOM     57  C   UNL A   1      44.988  26.152  31.294  1.00  0.00     0.074 A 
ATOM     58  C   UNL A   1      45.611  25.003  30.671  1.00  0.00     0.031 C 
ATOM     59  C   UNL A   1      45.510  26.828  32.347  1.00  0.00     0.037 A 
BRANCH  46  60
ATOM     60  C   UNL A   1      42.148  31.657  34.200  1.00  0.00     0.064 A 
ATOM     61  C   UNL A   1      41.394  31.533  35.376  1.00  0.00     0.173 A 
ATOM     62  C   UNL A   1      42.702  32.911  33.903  1.00  0.00     0.173 A 
ATOM     63  F   UNL A   1      40.839  30.357  35.702  1.00  0.00    -0.203 F 
ATOM     64  C   UNL A   1      41.188  32.626  36.213  1.00  0.00     0.198 A 
ATOM     65  C   UNL A   1      42.518  33.995  34.757  1.00  0.00     0.198 A 
ATOM     66  F   UNL A   1      43.442  33.077  32.796  1.00  0.00    -0.203 F 
ATOM     67  F   UNL A   1      40.438  32.493  37.315  1.00  0.00    -0.200 F 
ATOM     68  C   UNL A   1      41.753  33.855  35.905  1.00  0.00     0.200 A 
ATOM     69  F   UNL A   1      43.085  35.175  34.470  1.00  0.00    -0.200 F 
ATOM     70  F   UNL A   1      41.562  34.904  36.716  1.00  0.00    -0.200 F 
ENDBRANCH  46  60
BRANCH  47  71
ATOM     71  C   UNL A   1      42.760  24.116  27.681  1.00  0.00     0.064 A 
ATOM     72  C   UNL A   1      42.370  22.817  28.039  1.00  0.00     0.173 A 
ATOM     73  C   UNL A   1      43.267  24.313  26.390  1.00  0.00     0.173 A 
ATOM     74  F   UNL A   1      41.883  22.575  29.265  1.00  0.00    -0.203 F 
ATOM     75  C   UNL A   1      42.500  21.756  27.145  1.00  0.00     0.198 A 
ATOM     76  C   UNL A   1      43.374  23.256  25.488  1.00  0.00     0.198 A 
ATOM     77  F   UNL A   1      43.634  25.542  25.996  1.00  0.00    -0.203 F 
ATOM     78  F   UNL A   1      42.151  20.518  27.521  1.00  0.00    -0.200 F 
ATOM     79  C   UNL A   1      42.999  21.977  25.870  1.00  0.00     0.200 A 
ATOM     80  F   UNL A   1      43.834  23.478  24.250  1.00  0.00    -0.200 F 
ATOM     81  F   UNL A   1      43.114  20.959  25.007  1.00  0.00    -0.200 F 
ENDBRANCH  47  71
BRANCH  59  82
ATOM     82  C   UNL A   1      46.808  26.338  32.916  1.00  0.00     0.064 A 
ATOM     83  C   UNL A   1      48.027  26.850  32.444  1.00  0.00     0.173 A 
ATOM     84  C   UNL A   1      46.849  25.299  33.855  1.00  0.00     0.173 A 
ATOM     85  F   UNL A   1      48.040  27.838  31.537  1.00  0.00    -0.203 F 
ATOM     86  C   UNL A   1      49.240  26.323  32.879  1.00  0.00     0.198 A 
ATOM     87  C   UNL A   1      48.064  24.793  34.308  1.00  0.00     0.198 A 
ATOM     88  F   UNL A   1      45.709  24.786  34.344  1.00  0.00    -0.203 F 
ATOM     89  F   UNL A   1      50.391  26.800  32.386  1.00  0.00    -0.200 F 
ATOM     90  C   UNL A   1      49.257  25.297  33.811  1.00  0.00     0.200 A 
ATOM     91  F   UNL A   1      48.081  23.816  35.225  1.00  0.00    -0.200 F 
ATOM     92  F   UNL A   1      50.425  24.793  34.233  1.00  0.00    -0.200 F 
ENDBRANCH  59  82
ENDBRANCH  33  34
ENDBRANCH  25  28
ENDBRANCH  23  24
ENDBRANCH  22  23
ENDBRANCH   1  22
TORSDOF 14
ENDMDL
