MODEL 1
REMARK VINA RESULT:     -12.8      0.000      0.000
REMARK SMILES O=C(CNC(=O)[C@H]1CC[C@@H](Cn2cnc3ccccc3c2=O)CC1)NCCCCNC(=O)c1ccc(-c2c3nc(c(-c4c(F)c(F)c(F)c(F)c4F)c4ccc([nH]4)c(-c4c(F)c(F)c(F)c(F)c4F)c4nc(c(-c5c(F)c(F)c(F)c(F)c5F)c5ccc2[nH]5)C=C4)C=C3)cc1
REMARK SMILES IDX 26 1 25 2 1 3 2 4 3 6 4 7 5 8 6 10 7 11 24 12 8 13 23 14
REMARK SMILES IDX 9 15 10 16 11 17 12 18 13 19 21 20 14 21 20 22 22 23 15 24
REMARK SMILES IDX 19 25 16 26 18 27 17 28 27 29 28 30 29 31 30 32 31 33 32 35
REMARK SMILES IDX 33 36 34 37 95 38 35 39 94 40 36 41 37 42 38 43 88 44 39 45
REMARK SMILES IDX 93 46 87 47 89 48 40 49 92 50 86 51 85 52 41 54 73 55 53 56
REMARK SMILES IDX 72 57 54 58 57 59 71 60 90 61 55 62 56 63 70 65 91 66 58 67
REMARK SMILES IDX 42 68 43 69 51 70 44 71 45 72 49 73 52 74 46 75 47 76 50 77
REMARK SMILES IDX 48 78 74 79 75 80 83 81 76 82 77 83 81 84 84 85 78 86 79 87
REMARK SMILES IDX 82 88 80 89 59 90 60 91 68 92 61 93 62 94 66 95 69 96 63 97
REMARK SMILES IDX 64 98 67 99 65 100
REMARK H PARENT 25 5 4 9 30 34 89 53 57 64
REMARK Flexibility Score: inf
ROOT
ATOM      1  C   UNL A   1      41.377  21.840  25.987  1.00  0.00     0.116 C 
ENDROOT
BRANCH   1   2
ATOM      2  N   UNL A   1      39.966  22.109  25.778  1.00  0.00    -0.355 N 
ATOM      3  O   UNL A   1      39.699  23.591  27.513  1.00  0.00    -0.273 OA
ATOM      4  C   UNL A   1      39.229  22.976  26.560  1.00  0.00     0.239 C 
ATOM      5  H   UNL A   1      39.509  21.648  25.038  1.00  0.00     0.163 HD
BRANCH   4   6
ATOM      6  C   UNL A   1      37.761  23.154  26.124  1.00  0.00     0.216 C 
BRANCH   6   7
ATOM      7  N   UNL A   1      37.609  23.183  24.673  1.00  0.00    -0.347 N 
ATOM      8  C   UNL A   1      36.501  23.145  23.888  1.00  0.00     0.223 C 
ATOM      9  H   UNL A   1      38.457  23.239  24.176  1.00  0.00     0.164 HD
ATOM     10  O   UNL A   1      36.700  23.039  22.675  1.00  0.00    -0.275 OA
BRANCH   8  11
ATOM     11  C   UNL A   1      35.090  23.270  24.477  1.00  0.00     0.078 C 
ATOM     12  C   UNL A   1      34.806  24.756  24.797  1.00  0.00     0.014 C 
ATOM     13  C   UNL A   1      33.997  22.729  23.551  1.00  0.00     0.014 C 
ATOM     14  C   UNL A   1      33.384  25.023  25.294  1.00  0.00     0.006 C 
ATOM     15  C   UNL A   1      32.602  22.947  24.131  1.00  0.00     0.006 C 
ATOM     16  C   UNL A   1      32.291  24.427  24.391  1.00  0.00     0.009 C 
BRANCH  16  17
ATOM     17  C   UNL A   1      32.092  25.262  23.098  1.00  0.00     0.130 C 
BRANCH  17  18
ATOM     18  N   UNL A   1      31.001  26.236  23.185  1.00  0.00    -0.298 N 
ATOM     19  C   UNL A   1      29.805  25.885  23.767  1.00  0.00     0.203 A 
ATOM     20  C   UNL A   1      31.216  27.541  22.763  1.00  0.00     0.261 A 
ATOM     21  N   UNL A   1      28.756  26.636  23.823  1.00  0.00    -0.238 NA
ATOM     22  C   UNL A   1      30.019  28.410  22.710  1.00  0.00     0.066 A 
ATOM     23  O   UNL A   1      32.315  27.991  22.454  1.00  0.00    -0.269 OA
ATOM     24  C   UNL A   1      28.828  27.898  23.217  1.00  0.00     0.077 A 
ATOM     25  C   UNL A   1      30.062  29.684  22.129  1.00  0.00     0.016 A 
ATOM     26  C   UNL A   1      27.667  28.668  23.115  1.00  0.00     0.029 A 
ATOM     27  C   UNL A   1      28.894  30.436  22.014  1.00  0.00     0.001 A 
ATOM     28  C   UNL A   1      27.694  29.927  22.505  1.00  0.00     0.002 A 
ENDBRANCH  17  18
ENDBRANCH  16  17
ENDBRANCH   8  11
ENDBRANCH   6   7
ENDBRANCH   4   6
ENDBRANCH   1   2
BRANCH   1  29
ATOM     29  C   UNL A   1      41.631  20.500  26.673  1.00  0.00     0.023 C 
BRANCH  29  30
ATOM     30  C   UNL A   1      41.953  19.358  25.711  1.00  0.00     0.023 C 
BRANCH  30  31
ATOM     31  C   UNL A   1      43.181  18.516  26.044  1.00  0.00     0.116 C 
BRANCH  31  32
ATOM     32  N   UNL A   1      44.174  18.481  24.978  1.00  0.00    -0.352 N 
ATOM     33  C   UNL A   1      44.946  19.444  24.366  1.00  0.00     0.251 C 
ATOM     34  H   UNL A   1      44.327  17.577  24.620  1.00  0.00     0.163 HD
ATOM     35  O   UNL A   1      45.634  19.092  23.406  1.00  0.00    -0.269 OA
BRANCH  33  36
ATOM     36  C   UNL A   1      44.956  20.883  24.757  1.00  0.00     0.039 A 
ATOM     37  C   UNL A   1      44.582  21.920  23.907  1.00  0.00     0.014 A 
ATOM     38  C   UNL A   1      45.321  21.208  26.075  1.00  0.00     0.014 A 
ATOM     39  C   UNL A   1      44.772  23.251  24.288  1.00  0.00     0.010 A 
ATOM     40  C   UNL A   1      45.399  22.545  26.497  1.00  0.00     0.010 A 
ATOM     41  C   UNL A   1      45.190  23.587  25.585  1.00  0.00    -0.014 A 
BRANCH  41  42
ATOM     42  C   UNL A   1      45.413  25.019  25.945  1.00  0.00     0.031 A 
ATOM     43  C   UNL A   1      44.316  25.838  26.578  1.00  0.00     0.074 A 
ATOM     44  C   UNL A   1      46.632  25.573  25.776  1.00  0.00     0.049 A 
ATOM     45  N   UNL A   1      44.354  27.076  27.012  1.00  0.00    -0.248 NA
ATOM     46  C   UNL A   1      43.006  25.191  26.739  1.00  0.00     0.031 C 
ATOM     47  C   UNL A   1      47.785  24.901  25.180  1.00  0.00     0.029 A 
ATOM     48  N   UNL A   1      47.115  26.812  26.128  1.00  0.00    -0.354 N 
ATOM     49  C   UNL A   1      43.075  27.358  27.474  1.00  0.00     0.074 A 
ATOM     50  C   UNL A   1      42.272  26.179  27.233  1.00  0.00     0.031 C 
ATOM     51  C   UNL A   1      48.860  25.696  25.283  1.00  0.00     0.029 A 
ATOM     52  C   UNL A   1      48.461  26.962  25.894  1.00  0.00     0.049 A 
ATOM     53  H   UNL A   1      46.552  27.522  26.511  1.00  0.00     0.167 HD
ATOM     54  C   UNL A   1      42.614  28.487  28.067  1.00  0.00     0.037 A 
ATOM     55  C   UNL A   1      49.289  27.995  26.142  1.00  0.00     0.037 A 
ATOM     56  C   UNL A   1      43.411  29.656  28.339  1.00  0.00     0.049 A 
ATOM     57  C   UNL A   1      48.747  29.249  26.766  1.00  0.00     0.074 A 
ATOM     58  C   UNL A   1      43.031  30.834  28.959  1.00  0.00     0.029 A 
ATOM     59  N   UNL A   1      44.751  29.795  28.012  1.00  0.00    -0.354 N 
ATOM     60  N   UNL A   1      47.537  29.499  27.201  1.00  0.00    -0.248 NA
ATOM     61  C   UNL A   1      49.684  30.371  26.921  1.00  0.00     0.031 C 
ATOM     62  C   UNL A   1      44.128  31.700  28.973  1.00  0.00     0.029 A 
ATOM     63  C   UNL A   1      45.207  31.046  28.401  1.00  0.00     0.049 A 
ATOM     64  H   UNL A   1      45.299  29.106  27.570  1.00  0.00     0.167 HD
ATOM     65  C   UNL A   1      47.565  30.800  27.684  1.00  0.00     0.074 A 
ATOM     66  C   UNL A   1      48.921  31.282  27.511  1.00  0.00     0.031 C 
ATOM     67  C   UNL A   1      46.553  31.526  28.217  1.00  0.00     0.037 A 
BRANCH  54  68
ATOM     68  C   UNL A   1      41.166  28.515  28.466  1.00  0.00     0.064 A 
ATOM     69  C   UNL A   1      40.743  28.089  29.734  1.00  0.00     0.173 A 
ATOM     70  C   UNL A   1      40.193  29.012  27.583  1.00  0.00     0.173 A 
ATOM     71  F   UNL A   1      41.631  27.598  30.612  1.00  0.00    -0.203 F 
ATOM     72  C   UNL A   1      39.399  28.135  30.094  1.00  0.00     0.198 A 
ATOM     73  C   UNL A   1      38.853  29.082  27.957  1.00  0.00     0.198 A 
ATOM     74  F   UNL A   1      40.545  29.444  26.363  1.00  0.00    -0.203 F 
ATOM     75  F   UNL A   1      39.016  27.686  31.299  1.00  0.00    -0.200 F 
ATOM     76  C   UNL A   1      38.457  28.636  29.209  1.00  0.00     0.200 A 
ATOM     77  F   UNL A   1      37.947  29.583  27.107  1.00  0.00    -0.200 F 
ATOM     78  F   UNL A   1      37.164  28.688  29.562  1.00  0.00    -0.200 F 
ENDBRANCH  54  68
BRANCH  55  79
ATOM     79  C   UNL A   1      50.733  27.865  25.818  1.00  0.00     0.064 A 
ATOM     80  C   UNL A   1      51.663  27.543  26.815  1.00  0.00     0.173 A 
ATOM     81  C   UNL A   1      51.204  28.008  24.504  1.00  0.00     0.173 A 
ATOM     82  F   UNL A   1      51.264  27.421  28.090  1.00  0.00    -0.203 F 
ATOM     83  C   UNL A   1      53.010  27.359  26.509  1.00  0.00     0.198 A 
ATOM     84  C   UNL A   1      52.547  27.798  24.196  1.00  0.00     0.198 A 
ATOM     85  F   UNL A   1      50.353  28.317  23.516  1.00  0.00    -0.203 F 
ATOM     86  F   UNL A   1      53.883  27.069  27.484  1.00  0.00    -0.200 F 
ATOM     87  C   UNL A   1      53.449  27.476  25.198  1.00  0.00     0.200 A 
ATOM     88  F   UNL A   1      52.963  27.897  22.927  1.00  0.00    -0.200 F 
ATOM     89  F   UNL A   1      54.740  27.276  24.901  1.00  0.00    -0.200 F 
ENDBRANCH  55  79
BRANCH  67  90
ATOM     90  C   UNL A   1      46.863  32.927  28.657  1.00  0.00     0.064 A 
ATOM     91  C   UNL A   1      47.296  33.204  29.962  1.00  0.00     0.173 A 
ATOM     92  C   UNL A   1      46.787  33.995  27.750  1.00  0.00     0.173 A 
ATOM     93  F   UNL A   1      47.371  32.220  30.870  1.00  0.00    -0.203 F 
ATOM     94  C   UNL A   1      47.630  34.500  30.346  1.00  0.00     0.198 A 
ATOM     95  C   UNL A   1      47.145  35.285  28.130  1.00  0.00     0.198 A 
ATOM     96  F   UNL A   1      46.382  33.782  26.488  1.00  0.00    -0.203 F 
ATOM     97  F   UNL A   1      48.011  34.747  31.607  1.00  0.00    -0.200 F 
ATOM     98  C   UNL A   1      47.562  35.538  29.428  1.00  0.00     0.200 A 
ATOM     99  F   UNL A   1      47.091  36.285  27.239  1.00  0.00    -0.200 F 
ATOM    100  F   UNL A   1      47.897  36.782  29.796  1.00  0.00    -0.200 F 
ENDBRANCH  67  90
ENDBRANCH  41  42
ENDBRANCH  33  36
ENDBRANCH  31  32
ENDBRANCH  30  31
ENDBRANCH  29  30
ENDBRANCH   1  29
TORSDOF 15
ENDMDL
MODEL 2
REMARK VINA RESULT:     -12.5      1.388      7.362
REMARK SMILES O=C(CNC(=O)[C@H]1CC[C@@H](Cn2cnc3ccccc3c2=O)CC1)NCCCCNC(=O)c1ccc(-c2c3nc(c(-c4c(F)c(F)c(F)c(F)c4F)c4ccc([nH]4)c(-c4c(F)c(F)c(F)c(F)c4F)c4nc(c(-c5c(F)c(F)c(F)c(F)c5F)c5ccc2[nH]5)C=C4)C=C3)cc1
REMARK SMILES IDX 26 1 25 2 1 3 2 4 3 6 4 7 5 8 6 10 7 11 24 12 8 13 23 14
REMARK SMILES IDX 9 15 10 16 11 17 12 18 13 19 21 20 14 21 20 22 22 23 15 24
REMARK SMILES IDX 19 25 16 26 18 27 17 28 27 29 28 30 29 31 30 32 31 33 32 35
REMARK SMILES IDX 33 36 34 37 95 38 35 39 94 40 36 41 37 42 38 43 88 44 39 45
REMARK SMILES IDX 93 46 87 47 89 48 40 49 92 50 86 51 85 52 41 54 73 55 53 56
REMARK SMILES IDX 72 57 54 58 57 59 71 60 90 61 55 62 56 63 70 65 91 66 58 67
REMARK SMILES IDX 42 68 43 69 51 70 44 71 45 72 49 73 52 74 46 75 47 76 50 77
REMARK SMILES IDX 48 78 74 79 75 80 83 81 76 82 77 83 81 84 84 85 78 86 79 87
REMARK SMILES IDX 82 88 80 89 59 90 60 91 68 92 61 93 62 94 66 95 69 96 63 97
REMARK SMILES IDX 64 98 67 99 65 100
REMARK H PARENT 25 5 4 9 30 34 89 53 57 64
REMARK Flexibility Score: inf
ROOT
ATOM      1  C   UNL A   1      41.213  22.094  26.534  1.00  0.00     0.116 C 
ENDROOT
BRANCH   1   2
ATOM      2  N   UNL A   1      39.928  21.839  25.909  1.00  0.00    -0.355 N 
ATOM      3  O   UNL A   1      38.801  23.609  26.844  1.00  0.00    -0.273 OA
ATOM      4  C   UNL A   1      38.811  22.626  26.108  1.00  0.00     0.239 C 
ATOM      5  H   UNL A   1      39.848  21.062  25.310  1.00  0.00     0.163 HD
BRANCH   4   6
ATOM      6  C   UNL A   1      37.569  22.204  25.299  1.00  0.00     0.216 C 
BRANCH   6   7
ATOM      7  N   UNL A   1      36.489  21.713  26.147  1.00  0.00    -0.347 N 
ATOM      8  C   UNL A   1      35.139  21.770  26.002  1.00  0.00     0.223 C 
ATOM      9  H   UNL A   1      36.790  21.262  26.969  1.00  0.00     0.164 HD
ATOM     10  O   UNL A   1      34.474  21.389  26.968  1.00  0.00    -0.275 OA
BRANCH   8  11
ATOM     11  C   UNL A   1      34.487  22.240  24.695  1.00  0.00     0.078 C 
ATOM     12  C   UNL A   1      33.175  21.453  24.474  1.00  0.00     0.014 C 
ATOM     13  C   UNL A   1      34.193  23.742  24.672  1.00  0.00     0.014 C 
ATOM     14  C   UNL A   1      32.376  21.910  23.251  1.00  0.00     0.006 C 
ATOM     15  C   UNL A   1      33.468  24.160  23.395  1.00  0.00     0.006 C 
ATOM     16  C   UNL A   1      32.133  23.428  23.203  1.00  0.00     0.009 C 
BRANCH  16  17
ATOM     17  C   UNL A   1      31.029  23.868  24.200  1.00  0.00     0.130 C 
BRANCH  17  18
ATOM     18  N   UNL A   1      31.005  25.311  24.457  1.00  0.00    -0.298 N 
ATOM     19  C   UNL A   1      30.684  26.188  23.447  1.00  0.00     0.203 A 
ATOM     20  C   UNL A   1      31.213  25.778  25.748  1.00  0.00     0.261 A 
ATOM     21  N   UNL A   1      30.711  27.475  23.543  1.00  0.00    -0.238 NA
ATOM     22  C   UNL A   1      31.357  27.244  25.891  1.00  0.00     0.066 A 
ATOM     23  O   UNL A   1      31.270  25.056  26.739  1.00  0.00    -0.269 OA
ATOM     24  C   UNL A   1      31.129  28.027  24.762  1.00  0.00     0.077 A 
ATOM     25  C   UNL A   1      31.754  27.829  27.100  1.00  0.00     0.016 A 
ATOM     26  C   UNL A   1      31.328  29.407  24.849  1.00  0.00     0.029 A 
ATOM     27  C   UNL A   1      31.969  29.204  27.172  1.00  0.00     0.001 A 
ATOM     28  C   UNL A   1      31.757  29.994  26.044  1.00  0.00     0.002 A 
ENDBRANCH  17  18
ENDBRANCH  16  17
ENDBRANCH   8  11
ENDBRANCH   6   7
ENDBRANCH   4   6
ENDBRANCH   1   2
BRANCH   1  29
ATOM     29  C   UNL A   1      41.845  20.836  27.126  1.00  0.00     0.023 C 
BRANCH  29  30
ATOM     30  C   UNL A   1      41.795  19.620  26.203  1.00  0.00     0.023 C 
BRANCH  30  31
ATOM     31  C   UNL A   1      43.060  18.771  26.129  1.00  0.00     0.116 C 
BRANCH  31  32
ATOM     32  N   UNL A   1      43.687  18.764  24.814  1.00  0.00    -0.352 N 
ATOM     33  C   UNL A   1      44.420  19.692  24.107  1.00  0.00     0.251 C 
ATOM     34  H   UNL A   1      43.561  17.918  24.328  1.00  0.00     0.163 HD
ATOM     35  O   UNL A   1      44.731  19.403  22.949  1.00  0.00    -0.269 OA
BRANCH  33  36
ATOM     36  C   UNL A   1      44.808  21.032  24.634  1.00  0.00     0.039 A 
ATOM     37  C   UNL A   1      45.553  21.223  25.793  1.00  0.00     0.014 A 
ATOM     38  C   UNL A   1      44.439  22.166  23.890  1.00  0.00     0.014 A 
ATOM     39  C   UNL A   1      45.739  22.507  26.312  1.00  0.00     0.010 A 
ATOM     40  C   UNL A   1      44.729  23.460  24.351  1.00  0.00     0.010 A 
ATOM     41  C   UNL A   1      45.325  23.647  25.605  1.00  0.00    -0.014 A 
BRANCH  41  42
ATOM     42  C   UNL A   1      45.512  25.001  26.205  1.00  0.00     0.031 A 
ATOM     43  C   UNL A   1      46.833  25.722  26.096  1.00  0.00     0.074 A 
ATOM     44  C   UNL A   1      44.469  25.628  26.788  1.00  0.00     0.049 A 
ATOM     45  N   UNL A   1      47.154  26.927  26.504  1.00  0.00    -0.248 NA
ATOM     46  C   UNL A   1      47.939  24.997  25.454  1.00  0.00     0.031 C 
ATOM     47  C   UNL A   1      43.135  25.056  26.963  1.00  0.00     0.029 A 
ATOM     48  N   UNL A   1      44.355  26.899  27.303  1.00  0.00    -0.354 N 
ATOM     49  C   UNL A   1      48.496  27.092  26.187  1.00  0.00     0.074 A 
ATOM     50  C   UNL A   1      48.943  25.852  25.591  1.00  0.00     0.031 C 
ATOM     51  C   UNL A   1      42.316  25.992  27.463  1.00  0.00     0.029 A 
ATOM     52  C   UNL A   1      43.079  27.214  27.706  1.00  0.00     0.049 A 
ATOM     53  H   UNL A   1      45.113  27.522  27.376  1.00  0.00     0.167 HD
ATOM     54  C   UNL A   1      49.282  28.184  26.356  1.00  0.00     0.037 A 
ATOM     55  C   UNL A   1      42.572  28.355  28.212  1.00  0.00     0.037 A 
ATOM     56  C   UNL A   1      48.841  29.434  26.922  1.00  0.00     0.049 A 
ATOM     57  C   UNL A   1      43.470  29.540  28.423  1.00  0.00     0.074 A 
ATOM     58  C   UNL A   1      49.565  30.600  27.107  1.00  0.00     0.029 A 
ATOM     59  N   UNL A   1      47.561  29.683  27.391  1.00  0.00    -0.354 N 
ATOM     60  N   UNL A   1      44.735  29.682  28.116  1.00  0.00    -0.248 NA
ATOM     61  C   UNL A   1      42.872  30.718  29.067  1.00  0.00     0.031 C 
ATOM     62  C   UNL A   1      48.734  31.542  27.722  1.00  0.00     0.029 A 
ATOM     63  C   UNL A   1      47.479  30.978  27.882  1.00  0.00     0.049 A 
ATOM     64  H   UNL A   1      46.818  29.037  27.377  1.00  0.00     0.167 HD
ATOM     65  C   UNL A   1      45.086  30.962  28.522  1.00  0.00     0.074 A 
ATOM     66  C   UNL A   1      43.892  31.566  29.078  1.00  0.00     0.031 C 
ATOM     67  C   UNL A   1      46.292  31.573  28.444  1.00  0.00     0.037 A 
BRANCH  54  68
ATOM     68  C   UNL A   1      50.716  28.076  25.921  1.00  0.00     0.064 A 
ATOM     69  C   UNL A   1      51.089  28.213  24.576  1.00  0.00     0.173 A 
ATOM     70  C   UNL A   1      51.734  27.873  26.867  1.00  0.00     0.173 A 
ATOM     71  F   UNL A   1      50.154  28.401  23.632  1.00  0.00    -0.203 F 
ATOM     72  C   UNL A   1      52.424  28.125  24.190  1.00  0.00     0.198 A 
ATOM     73  C   UNL A   1      53.071  27.814  26.481  1.00  0.00     0.198 A 
ATOM     74  F   UNL A   1      51.434  27.749  28.168  1.00  0.00    -0.203 F 
ATOM     75  F   UNL A   1      52.751  28.222  22.893  1.00  0.00    -0.200 F 
ATOM     76  C   UNL A   1      53.414  27.932  25.142  1.00  0.00     0.200 A 
ATOM     77  F   UNL A   1      54.027  27.645  27.404  1.00  0.00    -0.200 F 
ATOM     78  F   UNL A   1      54.699  27.858  24.769  1.00  0.00    -0.200 F 
ENDBRANCH  54  68
BRANCH  55  79
ATOM     79  C   UNL A   1      41.121  28.430  28.525  1.00  0.00     0.064 A 
ATOM     80  C   UNL A   1      40.638  28.027  29.776  1.00  0.00     0.173 A 
ATOM     81  C   UNL A   1      40.200  28.951  27.604  1.00  0.00     0.173 A 
ATOM     82  F   UNL A   1      41.476  27.499  30.681  1.00  0.00    -0.203 F 
ATOM     83  C   UNL A   1      39.287  28.151  30.100  1.00  0.00     0.198 A 
ATOM     84  C   UNL A   1      38.855  29.098  27.937  1.00  0.00     0.198 A 
ATOM     85  F   UNL A   1      40.614  29.348  26.392  1.00  0.00    -0.203 F 
ATOM     86  F   UNL A   1      38.847  27.742  31.297  1.00  0.00    -0.200 F 
ATOM     87  C   UNL A   1      38.400  28.697  29.184  1.00  0.00     0.200 A 
ATOM     88  F   UNL A   1      38.004  29.639  27.056  1.00  0.00    -0.200 F 
ATOM     89  F   UNL A   1      37.106  28.837  29.503  1.00  0.00    -0.200 F 
ENDBRANCH  55  79
BRANCH  67  90
ATOM     90  C   UNL A   1      46.395  32.975  28.970  1.00  0.00     0.064 A 
ATOM     91  C   UNL A   1      46.133  34.084  28.153  1.00  0.00     0.173 A 
ATOM     92  C   UNL A   1      46.696  33.211  30.321  1.00  0.00     0.173 A 
ATOM     93  F   UNL A   1      45.855  33.910  26.852  1.00  0.00    -0.203 F 
ATOM     94  C   UNL A   1      46.180  35.377  28.664  1.00  0.00     0.198 A 
ATOM     95  C   UNL A   1      46.718  34.505  30.834  1.00  0.00     0.198 A 
ATOM     96  F   UNL A   1      46.951  32.184  31.146  1.00  0.00    -0.203 F 
ATOM     97  F   UNL A   1      45.958  36.424  27.857  1.00  0.00    -0.200 F 
ATOM     98  C   UNL A   1      46.464  35.587  30.005  1.00  0.00     0.200 A 
ATOM     99  F   UNL A   1      46.981  34.704  32.134  1.00  0.00    -0.200 F 
ATOM    100  F   UNL A   1      46.496  36.833  30.498  1.00  0.00    -0.200 F 
ENDBRANCH  67  90
ENDBRANCH  41  42
ENDBRANCH  33  36
ENDBRANCH  31  32
ENDBRANCH  30  31
ENDBRANCH  29  30
ENDBRANCH   1  29
TORSDOF 15
ENDMDL
MODEL 3
REMARK VINA RESULT:     -12.5      7.032     12.666
REMARK SMILES O=C(CNC(=O)[C@H]1CC[C@@H](Cn2cnc3ccccc3c2=O)CC1)NCCCCNC(=O)c1ccc(-c2c3nc(c(-c4c(F)c(F)c(F)c(F)c4F)c4ccc([nH]4)c(-c4c(F)c(F)c(F)c(F)c4F)c4nc(c(-c5c(F)c(F)c(F)c(F)c5F)c5ccc2[nH]5)C=C4)C=C3)cc1
REMARK SMILES IDX 26 1 25 2 1 3 2 4 3 6 4 7 5 8 6 10 7 11 24 12 8 13 23 14
REMARK SMILES IDX 9 15 10 16 11 17 12 18 13 19 21 20 14 21 20 22 22 23 15 24
REMARK SMILES IDX 19 25 16 26 18 27 17 28 27 29 28 30 29 31 30 32 31 33 32 35
REMARK SMILES IDX 33 36 34 37 95 38 35 39 94 40 36 41 37 42 38 43 88 44 39 45
REMARK SMILES IDX 93 46 87 47 89 48 40 49 92 50 86 51 85 52 41 54 73 55 53 56
REMARK SMILES IDX 72 57 54 58 57 59 71 60 90 61 55 62 56 63 70 65 91 66 58 67
REMARK SMILES IDX 42 68 43 69 51 70 44 71 45 72 49 73 52 74 46 75 47 76 50 77
REMARK SMILES IDX 48 78 74 79 75 80 83 81 76 82 77 83 81 84 84 85 78 86 79 87
REMARK SMILES IDX 82 88 80 89 59 90 60 91 68 92 61 93 62 94 66 95 69 96 63 97
REMARK SMILES IDX 64 98 67 99 65 100
REMARK H PARENT 25 5 4 9 30 34 89 53 57 64
REMARK Flexibility Score: inf
ROOT
ATOM      1  C   UNL A   1      35.797  33.036  28.248  1.00  0.00     0.116 C 
ENDROOT
BRANCH   1   2
ATOM      2  N   UNL A   1      34.903  32.173  27.499  1.00  0.00    -0.355 N 
ATOM      3  O   UNL A   1      35.470  30.205  28.538  1.00  0.00    -0.273 OA
ATOM      4  C   UNL A   1      34.802  30.812  27.706  1.00  0.00     0.239 C 
ATOM      5  H   UNL A   1      34.337  32.580  26.803  1.00  0.00     0.163 HD
BRANCH   4   6
ATOM      6  C   UNL A   1      33.746  30.100  26.837  1.00  0.00     0.216 C 
BRANCH   6   7
ATOM      7  N   UNL A   1      32.729  29.424  27.634  1.00  0.00    -0.347 N 
ATOM      8  C   UNL A   1      31.954  28.340  27.366  1.00  0.00     0.223 C 
ATOM      9  H   UNL A   1      32.576  29.823  28.521  1.00  0.00     0.164 HD
ATOM     10  O   UNL A   1      31.073  28.087  28.190  1.00  0.00    -0.275 OA
BRANCH   8  11
ATOM     11  C   UNL A   1      32.195  27.463  26.130  1.00  0.00     0.078 C 
ATOM     12  C   UNL A   1      33.585  26.796  26.247  1.00  0.00     0.014 C 
ATOM     13  C   UNL A   1      31.125  26.385  25.936  1.00  0.00     0.014 C 
ATOM     14  C   UNL A   1      33.896  25.810  25.120  1.00  0.00     0.006 C 
ATOM     15  C   UNL A   1      31.441  25.478  24.749  1.00  0.00     0.006 C 
ATOM     16  C   UNL A   1      32.792  24.764  24.890  1.00  0.00     0.009 C 
BRANCH  16  17
ATOM     17  C   UNL A   1      32.806  23.661  25.982  1.00  0.00     0.130 C 
BRANCH  17  18
ATOM     18  N   UNL A   1      33.047  22.313  25.457  1.00  0.00    -0.298 N 
ATOM     19  C   UNL A   1      31.992  21.530  25.052  1.00  0.00     0.203 A 
ATOM     20  C   UNL A   1      34.352  21.872  25.283  1.00  0.00     0.261 A 
ATOM     21  N   UNL A   1      32.085  20.306  24.652  1.00  0.00    -0.238 NA
ATOM     22  C   UNL A   1      34.511  20.445  24.928  1.00  0.00     0.066 A 
ATOM     23  O   UNL A   1      35.341  22.591  25.397  1.00  0.00    -0.269 OA
ATOM     24  C   UNL A   1      33.356  19.715  24.659  1.00  0.00     0.077 A 
ATOM     25  C   UNL A   1      35.769  19.829  24.906  1.00  0.00     0.016 A 
ATOM     26  C   UNL A   1      33.470  18.349  24.391  1.00  0.00     0.029 A 
ATOM     27  C   UNL A   1      35.871  18.462  24.658  1.00  0.00     0.001 A 
ATOM     28  C   UNL A   1      34.719  17.719  24.402  1.00  0.00     0.002 A 
ENDBRANCH  17  18
ENDBRANCH  16  17
ENDBRANCH   8  11
ENDBRANCH   6   7
ENDBRANCH   4   6
ENDBRANCH   1   2
BRANCH   1  29
ATOM     29  C   UNL A   1      35.102  33.750  29.405  1.00  0.00     0.023 C 
BRANCH  29  30
ATOM     30  C   UNL A   1      33.679  34.210  29.089  1.00  0.00     0.023 C 
BRANCH  30  31
ATOM     31  C   UNL A   1      33.394  35.698  29.255  1.00  0.00     0.116 C 
BRANCH  31  32
ATOM     32  N   UNL A   1      32.575  36.013  30.419  1.00  0.00    -0.352 N 
ATOM     33  C   UNL A   1      32.714  35.780  31.769  1.00  0.00     0.251 C 
ATOM     34  H   UNL A   1      31.747  36.494  30.192  1.00  0.00     0.163 HD
ATOM     35  O   UNL A   1      31.771  36.096  32.498  1.00  0.00    -0.269 OA
BRANCH  33  36
ATOM     36  C   UNL A   1      33.901  35.125  32.389  1.00  0.00     0.039 A 
ATOM     37  C   UNL A   1      35.146  35.734  32.514  1.00  0.00     0.014 A 
ATOM     38  C   UNL A   1      33.741  33.833  32.919  1.00  0.00     0.014 A 
ATOM     39  C   UNL A   1      36.251  35.003  32.956  1.00  0.00     0.010 A 
ATOM     40  C   UNL A   1      34.828  33.138  33.474  1.00  0.00     0.010 A 
ATOM     41  C   UNL A   1      36.114  33.691  33.437  1.00  0.00    -0.014 A 
BRANCH  41  42
ATOM     42  C   UNL A   1      37.323  32.930  33.871  1.00  0.00     0.031 A 
ATOM     43  C   UNL A   1      37.988  31.941  32.947  1.00  0.00     0.074 A 
ATOM     44  C   UNL A   1      37.879  33.179  35.074  1.00  0.00     0.049 A 
ATOM     45  N   UNL A   1      39.080  31.238  33.135  1.00  0.00    -0.248 NA
ATOM     46  C   UNL A   1      37.343  31.701  31.647  1.00  0.00     0.031 C 
ATOM     47  C   UNL A   1      37.347  34.109  36.070  1.00  0.00     0.029 A 
ATOM     48  N   UNL A   1      39.036  32.705  35.649  1.00  0.00    -0.354 N 
ATOM     49  C   UNL A   1      39.238  30.464  31.992  1.00  0.00     0.074 A 
ATOM     50  C   UNL A   1      38.110  30.750  31.132  1.00  0.00     0.031 C 
ATOM     51  C   UNL A   1      38.212  34.204  37.090  1.00  0.00     0.029 A 
ATOM     52  C   UNL A   1      39.331  33.294  36.855  1.00  0.00     0.049 A 
ATOM     53  H   UNL A   1      39.599  32.011  35.236  1.00  0.00     0.167 HD
ATOM     54  C   UNL A   1      40.241  29.609  31.675  1.00  0.00     0.037 A 
ATOM     55  C   UNL A   1      40.380  33.129  37.683  1.00  0.00     0.037 A 
ATOM     56  C   UNL A   1      41.384  29.337  32.510  1.00  0.00     0.049 A 
ATOM     57  C   UNL A   1      41.462  32.149  37.328  1.00  0.00     0.074 A 
ATOM     58  C   UNL A   1      42.460  28.504  32.256  1.00  0.00     0.029 A 
ATOM     59  N   UNL A   1      41.602  29.896  33.760  1.00  0.00    -0.354 N 
ATOM     60  N   UNL A   1      41.599  31.428  36.243  1.00  0.00    -0.248 NA
ATOM     61  C   UNL A   1      42.527  31.948  38.320  1.00  0.00     0.031 C 
ATOM     62  C   UNL A   1      43.309  28.528  33.367  1.00  0.00     0.029 A 
ATOM     63  C   UNL A   1      42.785  29.411  34.297  1.00  0.00     0.049 A 
ATOM     64  H   UNL A   1      41.004  30.543  34.202  1.00  0.00     0.167 HD
ATOM     65  C   UNL A   1      42.763  30.693  36.416  1.00  0.00     0.074 A 
ATOM     66  C   UNL A   1      43.309  31.072  37.704  1.00  0.00     0.031 C 
ATOM     67  C   UNL A   1      43.320  29.782  35.582  1.00  0.00     0.037 A 
BRANCH  54  68
ATOM     68  C   UNL A   1      40.148  28.894  30.357  1.00  0.00     0.064 A 
ATOM     69  C   UNL A   1      40.730  29.418  29.193  1.00  0.00     0.173 A 
ATOM     70  C   UNL A   1      39.504  27.650  30.264  1.00  0.00     0.173 A 
ATOM     71  F   UNL A   1      41.352  30.607  29.225  1.00  0.00    -0.203 F 
ATOM     72  C   UNL A   1      40.649  28.737  27.981  1.00  0.00     0.198 A 
ATOM     73  C   UNL A   1      39.448  26.959  29.057  1.00  0.00     0.198 A 
ATOM     74  F   UNL A   1      38.941  27.097  31.350  1.00  0.00    -0.203 F 
ATOM     75  F   UNL A   1      41.181  29.277  26.876  1.00  0.00    -0.200 F 
ATOM     76  C   UNL A   1      40.014  27.506  27.915  1.00  0.00     0.200 A 
ATOM     77  F   UNL A   1      38.850  25.761  28.999  1.00  0.00    -0.200 F 
ATOM     78  F   UNL A   1      39.945  26.848  26.750  1.00  0.00    -0.200 F 
ENDBRANCH  54  68
BRANCH  55  79
ATOM     79  C   UNL A   1      40.464  33.943  38.923  1.00  0.00     0.064 A 
ATOM     80  C   UNL A   1      41.141  35.170  38.929  1.00  0.00     0.173 A 
ATOM     81  C   UNL A   1      39.831  33.538  40.108  1.00  0.00     0.173 A 
ATOM     82  F   UNL A   1      41.782  35.587  37.827  1.00  0.00    -0.203 F 
ATOM     83  C   UNL A   1      41.172  35.968  40.071  1.00  0.00     0.198 A 
ATOM     84  C   UNL A   1      39.842  34.349  41.241  1.00  0.00     0.198 A 
ATOM     85  F   UNL A   1      39.173  32.372  40.153  1.00  0.00    -0.203 F 
ATOM     86  F   UNL A   1      41.841  37.129  40.055  1.00  0.00    -0.200 F 
ATOM     87  C   UNL A   1      40.513  35.563  41.222  1.00  0.00     0.200 A 
ATOM     88  F   UNL A   1      39.192  33.961  42.346  1.00  0.00    -0.200 F 
ATOM     89  F   UNL A   1      40.525  36.341  42.313  1.00  0.00    -0.200 F 
ENDBRANCH  55  79
BRANCH  67  90
ATOM     90  C   UNL A   1      44.594  29.124  36.027  1.00  0.00     0.064 A 
ATOM     91  C   UNL A   1      45.844  29.709  35.781  1.00  0.00     0.173 A 
ATOM     92  C   UNL A   1      44.561  27.928  36.760  1.00  0.00     0.173 A 
ATOM     93  F   UNL A   1      45.928  30.844  35.071  1.00  0.00    -0.203 F 
ATOM     94  C   UNL A   1      47.016  29.116  36.243  1.00  0.00     0.198 A 
ATOM     95  C   UNL A   1      45.733  27.350  37.242  1.00  0.00     0.198 A 
ATOM     96  F   UNL A   1      43.390  27.329  37.027  1.00  0.00    -0.203 F 
ATOM     97  F   UNL A   1      48.202  29.676  35.969  1.00  0.00    -0.200 F 
ATOM     98  C   UNL A   1      46.960  27.942  36.979  1.00  0.00     0.200 A 
ATOM     99  F   UNL A   1      45.676  26.222  37.964  1.00  0.00    -0.200 F 
ATOM    100  F   UNL A   1      48.088  27.380  37.434  1.00  0.00    -0.200 F 
ENDBRANCH  67  90
ENDBRANCH  41  42
ENDBRANCH  33  36
ENDBRANCH  31  32
ENDBRANCH  30  31
ENDBRANCH  29  30
ENDBRANCH   1  29
TORSDOF 15
ENDMDL
