MODEL 1
REMARK VINA RESULT:     -12.8      0.000      0.000
REMARK SMILES O=C(NCCCCNC(=O)c1ccccc1[C@@H]1SCC(=O)N1NC(=S)Nc1ccccc1)c1ccc(-c2c3nc(c(-c4c(F)c(F)c(F)c(F)c4F)c4ccc([nH]4)c(-c4c(F)c(F)c(F)c(F)c4F)c4nc(c(-c5c(F)c(F)c(F)c(F)c5F)c5ccc2[nH]5)C=C4)C=C3)cc1
REMARK SMILES IDX 7 1 6 2 5 3 4 4 3 5 1 6 2 7 33 9 34 10 95 11 35 12 94 13
REMARK SMILES IDX 36 14 37 15 38 16 88 17 39 18 93 19 87 20 89 21 40 22 92 23
REMARK SMILES IDX 86 24 85 25 41 27 73 28 53 29 72 30 54 31 57 32 71 33 90 34
REMARK SMILES IDX 55 35 56 36 70 38 91 39 58 40 42 41 43 42 51 43 44 44 45 45
REMARK SMILES IDX 49 46 52 47 46 48 47 49 50 50 48 51 74 52 75 53 83 54 76 55
REMARK SMILES IDX 77 56 81 57 84 58 78 59 79 60 82 61 80 62 59 63 60 64 68 65
REMARK SMILES IDX 61 66 62 67 66 68 69 69 63 70 64 71 67 72 65 73 8 74 9 75
REMARK SMILES IDX 10 77 11 78 12 79 16 80 13 81 15 82 14 83 17 84 18 85 22 86
REMARK SMILES IDX 19 87 20 88 21 89 23 90 24 92 25 93 26 94 27 96 28 97 32 98
REMARK SMILES IDX 29 99 31 100 30 101
REMARK H PARENT 3 8 89 26 57 37 8 76 23 91 26 95
REMARK Flexibility Score: inf
ROOT
ATOM      1  C   UNL A   1      35.687  24.276  25.642  1.00  0.00     0.116 C 
ENDROOT
BRANCH   1   2
ATOM      2  C   UNL A   1      35.508  22.936  26.380  1.00  0.00     0.023 C 
BRANCH   2   3
ATOM      3  C   UNL A   1      36.060  21.699  25.649  1.00  0.00     0.023 C 
BRANCH   3   4
ATOM      4  C   UNL A   1      37.527  21.590  25.161  1.00  0.00     0.116 C 
BRANCH   4   5
ATOM      5  N   UNL A   1      38.371  20.480  25.566  1.00  0.00    -0.352 N 
ATOM      6  O   UNL A   1      40.377  19.626  26.208  1.00  0.00    -0.269 OA
ATOM      7  C   UNL A   1      39.636  20.593  26.151  1.00  0.00     0.251 C 
ATOM      8  H   UNL A   1      38.023  19.571  25.417  1.00  0.00     0.163 HD
BRANCH   7   9
ATOM      9  C   UNL A   1      40.090  21.899  26.704  1.00  0.00     0.039 A 
ATOM     10  C   UNL A   1      39.604  23.086  26.169  1.00  0.00     0.014 A 
ATOM     11  C   UNL A   1      40.981  21.962  27.771  1.00  0.00     0.014 A 
ATOM     12  C   UNL A   1      40.120  24.323  26.538  1.00  0.00     0.010 A 
ATOM     13  C   UNL A   1      41.463  23.213  28.198  1.00  0.00     0.010 A 
ATOM     14  C   UNL A   1      41.082  24.401  27.543  1.00  0.00    -0.014 A 
BRANCH  14  15
ATOM     15  C   UNL A   1      41.753  25.698  27.830  1.00  0.00     0.031 A 
ATOM     16  C   UNL A   1      41.004  26.758  28.593  1.00  0.00     0.074 A 
ATOM     17  C   UNL A   1      43.029  25.924  27.462  1.00  0.00     0.049 A 
ATOM     18  N   UNL A   1      41.323  28.009  28.814  1.00  0.00    -0.248 NA
ATOM     19  C   UNL A   1      39.715  26.359  29.182  1.00  0.00     0.031 C 
ATOM     20  C   UNL A   1      43.901  24.964  26.785  1.00  0.00     0.029 A 
ATOM     21  N   UNL A   1      43.813  27.046  27.597  1.00  0.00    -0.354 N 
ATOM     22  C   UNL A   1      40.251  28.556  29.507  1.00  0.00     0.074 A 
ATOM     23  C   UNL A   1      39.274  27.505  29.679  1.00  0.00     0.031 C 
ATOM     24  C   UNL A   1      45.095  25.537  26.559  1.00  0.00     0.029 A 
ATOM     25  C   UNL A   1      45.050  26.925  27.009  1.00  0.00     0.049 A 
ATOM     26  H   UNL A   1      43.518  27.858  28.069  1.00  0.00     0.167 HD
ATOM     27  C   UNL A   1      40.099  29.824  29.956  1.00  0.00     0.037 A 
ATOM     28  C   UNL A   1      46.016  27.842  26.805  1.00  0.00     0.037 A 
ATOM     29  C   UNL A   1      41.100  30.851  29.844  1.00  0.00     0.049 A 
ATOM     30  C   UNL A   1      45.803  29.257  27.272  1.00  0.00     0.074 A 
ATOM     31  C   UNL A   1      41.063  32.148  30.326  1.00  0.00     0.029 A 
ATOM     32  N   UNL A   1      42.323  30.694  29.210  1.00  0.00    -0.354 N 
ATOM     33  N   UNL A   1      44.780  29.772  27.908  1.00  0.00    -0.248 NA
ATOM     34  C   UNL A   1      46.872  30.222  26.975  1.00  0.00     0.031 C 
ATOM     35  C   UNL A   1      42.243  32.791  29.943  1.00  0.00     0.029 A 
ATOM     36  C   UNL A   1      43.034  31.881  29.260  1.00  0.00     0.049 A 
ATOM     37  H   UNL A   1      42.638  29.862  28.787  1.00  0.00     0.167 HD
ATOM     38  C   UNL A   1      45.083  31.114  28.095  1.00  0.00     0.074 A 
ATOM     39  C   UNL A   1      46.395  31.330  27.523  1.00  0.00     0.031 C 
ATOM     40  C   UNL A   1      44.337  32.080  28.683  1.00  0.00     0.037 A 
BRANCH  27  41
ATOM     41  C   UNL A   1      38.786  30.194  30.580  1.00  0.00     0.064 A 
ATOM     42  C   UNL A   1      38.602  30.222  31.969  1.00  0.00     0.173 A 
ATOM     43  C   UNL A   1      37.711  30.587  29.766  1.00  0.00     0.173 A 
ATOM     44  F   UNL A   1      39.593  29.841  32.789  1.00  0.00    -0.203 F 
ATOM     45  C   UNL A   1      37.386  30.617  32.522  1.00  0.00     0.198 A 
ATOM     46  C   UNL A   1      36.506  31.004  30.322  1.00  0.00     0.198 A 
ATOM     47  F   UNL A   1      37.839  30.579  28.431  1.00  0.00    -0.203 F 
ATOM     48  F   UNL A   1      37.220  30.605  33.851  1.00  0.00    -0.200 F 
ATOM     49  C   UNL A   1      36.343  31.015  31.699  1.00  0.00     0.200 A 
ATOM     50  F   UNL A   1      35.503  31.399  29.525  1.00  0.00    -0.200 F 
ATOM     51  F   UNL A   1      35.178  31.408  32.232  1.00  0.00    -0.200 F 
ENDBRANCH  27  41
BRANCH  28  52
ATOM     52  C   UNL A   1      47.249  27.464  26.064  1.00  0.00     0.064 A 
ATOM     53  C   UNL A   1      47.303  27.523  24.665  1.00  0.00     0.173 A 
ATOM     54  C   UNL A   1      48.397  27.029  26.744  1.00  0.00     0.173 A 
ATOM     55  F   UNL A   1      46.221  27.903  23.969  1.00  0.00    -0.203 F 
ATOM     56  C   UNL A   1      48.457  27.155  23.975  1.00  0.00     0.198 A 
ATOM     57  C   UNL A   1      49.558  26.689  26.054  1.00  0.00     0.198 A 
ATOM     58  F   UNL A   1      48.395  26.946  28.083  1.00  0.00    -0.203 F 
ATOM     59  F   UNL A   1      48.469  27.182  22.634  1.00  0.00    -0.200 F 
ATOM     60  C   UNL A   1      49.585  26.747  24.669  1.00  0.00     0.200 A 
ATOM     61  F   UNL A   1      50.649  26.306  26.730  1.00  0.00    -0.200 F 
ATOM     62  F   UNL A   1      50.696  26.400  24.004  1.00  0.00    -0.200 F 
ENDBRANCH  28  52
BRANCH  40  63
ATOM     63  C   UNL A   1      44.926  33.457  28.748  1.00  0.00     0.064 A 
ATOM     64  C   UNL A   1      45.780  33.837  29.793  1.00  0.00     0.173 A 
ATOM     65  C   UNL A   1      44.673  34.389  27.730  1.00  0.00     0.173 A 
ATOM     66  F   UNL A   1      46.038  32.985  30.796  1.00  0.00    -0.203 F 
ATOM     67  C   UNL A   1      46.348  35.108  29.826  1.00  0.00     0.198 A 
ATOM     68  C   UNL A   1      45.262  35.650  27.754  1.00  0.00     0.198 A 
ATOM     69  F   UNL A   1      43.868  34.071  26.706  1.00  0.00    -0.203 F 
ATOM     70  F   UNL A   1      47.132  35.463  30.853  1.00  0.00    -0.200 F 
ATOM     71  C   UNL A   1      46.094  36.011  28.803  1.00  0.00     0.200 A 
ATOM     72  F   UNL A   1      45.025  36.517  26.759  1.00  0.00    -0.200 F 
ATOM     73  F   UNL A   1      46.648  37.230  28.832  1.00  0.00    -0.200 F 
ENDBRANCH  40  63
ENDBRANCH  14  15
ENDBRANCH   7   9
ENDBRANCH   4   5
ENDBRANCH   3   4
ENDBRANCH   2   3
ENDBRANCH   1   2
BRANCH   1  74
ATOM     74  N   UNL A   1      34.984  24.444  24.378  1.00  0.00    -0.352 N 
ATOM     75  C   UNL A   1      33.982  25.363  24.107  1.00  0.00     0.251 C 
ATOM     76  H   UNL A   1      35.247  23.846  23.642  1.00  0.00     0.163 HD
ATOM     77  O   UNL A   1      33.827  25.793  22.964  1.00  0.00    -0.269 OA
BRANCH  75  78
ATOM     78  C   UNL A   1      32.973  25.753  25.124  1.00  0.00     0.046 A 
ATOM     79  C   UNL A   1      32.041  24.726  25.364  1.00  0.00     0.014 A 
ATOM     80  C   UNL A   1      32.734  27.062  25.624  1.00  0.00    -0.001 A 
ATOM     81  C   UNL A   1      30.888  24.961  26.109  1.00  0.00     0.001 A 
ATOM     82  C   UNL A   1      31.562  27.257  26.396  1.00  0.00     0.007 A 
ATOM     83  C   UNL A   1      30.652  26.225  26.632  1.00  0.00     0.000 A 
BRANCH  80  84
ATOM     84  C   UNL A   1      33.580  28.318  25.403  1.00  0.00     0.197 C 
ATOM     85  S   UNL A   1      34.460  28.847  26.887  1.00  0.00    -0.120 SA
ATOM     86  N   UNL A   1      32.843  29.460  24.916  1.00  0.00    -0.236 N 
ATOM     87  C   UNL A   1      33.540  30.400  26.979  1.00  0.00     0.174 C 
ATOM     88  C   UNL A   1      32.423  30.280  25.963  1.00  0.00     0.252 C 
ATOM     89  O   UNL A   1      31.334  30.817  26.114  1.00  0.00    -0.272 OA
BRANCH  86  90
ATOM     90  N   UNL A   1      32.302  29.285  23.620  1.00  0.00    -0.270 N 
ATOM     91  H   UNL A   1      32.955  29.418  22.896  1.00  0.00     0.191 HD
BRANCH  90  92
ATOM     92  C   UNL A   1      31.059  28.972  23.184  1.00  0.00     0.189 C 
ATOM     93  S   UNL A   1      30.903  27.517  22.358  1.00  0.00    -0.039 S 
BRANCH  92  94
ATOM     94  N   UNL A   1      29.945  29.641  23.521  1.00  0.00    -0.331 N 
ATOM     95  H   UNL A   1      29.541  29.366  24.376  1.00  0.00     0.169 HD
BRANCH  94  96
ATOM     96  C   UNL A   1      29.265  30.660  22.857  1.00  0.00     0.040 A 
ATOM     97  C   UNL A   1      28.894  30.434  21.532  1.00  0.00     0.026 A 
ATOM     98  C   UNL A   1      28.987  31.877  23.458  1.00  0.00     0.026 A 
ATOM     99  C   UNL A   1      28.204  31.396  20.804  1.00  0.00     0.002 A 
ATOM    100  C   UNL A   1      28.350  32.871  22.710  1.00  0.00     0.002 A 
ATOM    101  C   UNL A   1      27.948  32.627  21.391  1.00  0.00     0.000 A 
ENDBRANCH  94  96
ENDBRANCH  92  94
ENDBRANCH  90  92
ENDBRANCH  86  90
ENDBRANCH  80  84
ENDBRANCH  75  78
ENDBRANCH   1  74
TORSDOF 16
ENDMDL
MODEL 2
REMARK VINA RESULT:     -12.7      4.861     10.487
REMARK SMILES O=C(NCCCCNC(=O)c1ccccc1[C@@H]1SCC(=O)N1NC(=S)Nc1ccccc1)c1ccc(-c2c3nc(c(-c4c(F)c(F)c(F)c(F)c4F)c4ccc([nH]4)c(-c4c(F)c(F)c(F)c(F)c4F)c4nc(c(-c5c(F)c(F)c(F)c(F)c5F)c5ccc2[nH]5)C=C4)C=C3)cc1
REMARK SMILES IDX 7 1 6 2 5 3 4 4 3 5 1 6 2 7 33 9 34 10 95 11 35 12 94 13
REMARK SMILES IDX 36 14 37 15 38 16 88 17 39 18 93 19 87 20 89 21 40 22 92 23
REMARK SMILES IDX 86 24 85 25 41 27 73 28 53 29 72 30 54 31 57 32 71 33 90 34
REMARK SMILES IDX 55 35 56 36 70 38 91 39 58 40 42 41 43 42 51 43 44 44 45 45
REMARK SMILES IDX 49 46 52 47 46 48 47 49 50 50 48 51 74 52 75 53 83 54 76 55
REMARK SMILES IDX 77 56 81 57 84 58 78 59 79 60 82 61 80 62 59 63 60 64 68 65
REMARK SMILES IDX 61 66 62 67 66 68 69 69 63 70 64 71 67 72 65 73 8 74 9 75
REMARK SMILES IDX 10 77 11 78 12 79 16 80 13 81 15 82 14 83 17 84 18 85 22 86
REMARK SMILES IDX 19 87 20 88 21 89 23 90 24 92 25 93 26 94 27 96 28 97 32 98
REMARK SMILES IDX 29 99 31 100 30 101
REMARK H PARENT 3 8 89 26 57 37 8 76 23 91 26 95
REMARK Flexibility Score: inf
ROOT
ATOM      1  C   UNL A   1      34.381  29.046  27.163  1.00  0.00     0.116 C 
ENDROOT
BRANCH   1   2
ATOM      2  C   UNL A   1      34.938  30.312  27.841  1.00  0.00     0.023 C 
BRANCH   2   3
ATOM      3  C   UNL A   1      34.373  31.646  27.320  1.00  0.00     0.023 C 
BRANCH   3   4
ATOM      4  C   UNL A   1      32.966  32.173  27.698  1.00  0.00     0.116 C 
BRANCH   4   5
ATOM      5  N   UNL A   1      32.668  33.594  27.680  1.00  0.00    -0.352 N 
ATOM      6  O   UNL A   1      32.675  35.650  28.649  1.00  0.00    -0.269 OA
ATOM      7  C   UNL A   1      33.181  34.543  28.568  1.00  0.00     0.251 C 
ATOM      8  H   UNL A   1      32.052  33.917  26.982  1.00  0.00     0.163 HD
BRANCH   7   9
ATOM      9  C   UNL A   1      34.349  34.206  29.428  1.00  0.00     0.039 A 
ATOM     10  C   UNL A   1      35.638  34.483  28.989  1.00  0.00     0.014 A 
ATOM     11  C   UNL A   1      34.181  33.635  30.687  1.00  0.00     0.014 A 
ATOM     12  C   UNL A   1      36.761  34.040  29.679  1.00  0.00     0.010 A 
ATOM     13  C   UNL A   1      35.311  33.240  31.426  1.00  0.00     0.010 A 
ATOM     14  C   UNL A   1      36.610  33.384  30.899  1.00  0.00    -0.014 A 
BRANCH  14  15
ATOM     15  C   UNL A   1      37.791  32.768  31.562  1.00  0.00     0.031 A 
ATOM     16  C   UNL A   1      38.490  31.616  30.891  1.00  0.00     0.074 A 
ATOM     17  C   UNL A   1      38.273  33.248  32.725  1.00  0.00     0.049 A 
ATOM     18  N   UNL A   1      39.427  30.825  31.352  1.00  0.00    -0.248 NA
ATOM     19  C   UNL A   1      38.074  31.305  29.513  1.00  0.00     0.031 C 
ATOM     20  C   UNL A   1      37.746  34.404  33.451  1.00  0.00     0.029 A 
ATOM     21  N   UNL A   1      39.315  32.811  33.510  1.00  0.00    -0.354 N 
ATOM     22  C   UNL A   1      39.662  29.892  30.352  1.00  0.00     0.074 A 
ATOM     23  C   UNL A   1      38.779  30.214  29.253  1.00  0.00     0.031 C 
ATOM     24  C   UNL A   1      38.460  34.581  34.574  1.00  0.00     0.029 A 
ATOM     25  C   UNL A   1      39.448  33.512  34.685  1.00  0.00     0.049 A 
ATOM     26  H   UNL A   1      39.908  32.068  33.255  1.00  0.00     0.167 HD
ATOM     27  C   UNL A   1      40.536  28.858  30.353  1.00  0.00     0.037 A 
ATOM     28  C   UNL A   1      40.236  33.287  35.754  1.00  0.00     0.037 A 
ATOM     29  C   UNL A   1      41.462  28.580  31.419  1.00  0.00     0.049 A 
ATOM     30  C   UNL A   1      41.166  32.103  35.752  1.00  0.00     0.074 A 
ATOM     31  C   UNL A   1      42.431  27.594  31.483  1.00  0.00     0.029 A 
ATOM     32  N   UNL A   1      41.537  29.294  32.604  1.00  0.00    -0.354 N 
ATOM     33  N   UNL A   1      41.369  31.214  34.811  1.00  0.00    -0.248 NA
ATOM     34  C   UNL A   1      41.963  31.882  36.967  1.00  0.00     0.031 C 
ATOM     35  C   UNL A   1      43.062  27.681  32.727  1.00  0.00     0.029 A 
ATOM     36  C   UNL A   1      42.515  28.748  33.420  1.00  0.00     0.049 A 
ATOM     37  H   UNL A   1      40.979  30.073  32.832  1.00  0.00     0.167 HD
ATOM     38  C   UNL A   1      42.318  30.335  35.314  1.00  0.00     0.074 A 
ATOM     39  C   UNL A   1      42.668  30.809  36.637  1.00  0.00     0.031 C 
ATOM     40  C   UNL A   1      42.848  29.231  34.734  1.00  0.00     0.037 A 
BRANCH  27  41
ATOM     41  C   UNL A   1      40.515  27.919  29.183  1.00  0.00     0.064 A 
ATOM     42  C   UNL A   1      39.691  26.787  29.152  1.00  0.00     0.173 A 
ATOM     43  C   UNL A   1      41.293  28.199  28.049  1.00  0.00     0.173 A 
ATOM     44  F   UNL A   1      38.940  26.468  30.217  1.00  0.00    -0.203 F 
ATOM     45  C   UNL A   1      39.656  25.959  28.032  1.00  0.00     0.198 A 
ATOM     46  C   UNL A   1      41.237  27.384  26.923  1.00  0.00     0.198 A 
ATOM     47  F   UNL A   1      42.097  29.273  28.030  1.00  0.00    -0.203 F 
ATOM     48  F   UNL A   1      38.885  24.863  28.034  1.00  0.00    -0.200 F 
ATOM     49  C   UNL A   1      40.421  26.263  26.916  1.00  0.00     0.200 A 
ATOM     50  F   UNL A   1      41.970  27.686  25.841  1.00  0.00    -0.200 F 
ATOM     51  F   UNL A   1      40.376  25.474  25.834  1.00  0.00    -0.200 F 
ENDBRANCH  27  41
BRANCH  28  52
ATOM     52  C   UNL A   1      40.131  34.167  36.949  1.00  0.00     0.064 A 
ATOM     53  C   UNL A   1      40.907  35.327  37.068  1.00  0.00     0.173 A 
ATOM     54  C   UNL A   1      39.253  33.857  37.999  1.00  0.00     0.173 A 
ATOM     55  F   UNL A   1      41.783  35.648  36.105  1.00  0.00    -0.203 F 
ATOM     56  C   UNL A   1      40.814  36.141  38.195  1.00  0.00     0.198 A 
ATOM     57  C   UNL A   1      39.140  34.687  39.112  1.00  0.00     0.198 A 
ATOM     58  F   UNL A   1      38.494  32.754  37.938  1.00  0.00    -0.203 F 
ATOM     59  F   UNL A   1      41.597  37.224  38.303  1.00  0.00    -0.200 F 
ATOM     60  C   UNL A   1      39.925  35.826  39.213  1.00  0.00     0.200 A 
ATOM     61  F   UNL A   1      38.272  34.384  40.086  1.00  0.00    -0.200 F 
ATOM     62  F   UNL A   1      39.831  36.613  40.292  1.00  0.00    -0.200 F 
ENDBRANCH  28  52
BRANCH  40  63
ATOM     63  C   UNL A   1      43.869  28.466  35.520  1.00  0.00     0.064 A 
ATOM     64  C   UNL A   1      45.240  28.725  35.382  1.00  0.00     0.173 A 
ATOM     65  C   UNL A   1      43.471  27.500  36.456  1.00  0.00     0.173 A 
ATOM     66  F   UNL A   1      45.669  29.629  34.488  1.00  0.00    -0.203 F 
ATOM     67  C   UNL A   1      46.179  28.031  36.141  1.00  0.00     0.198 A 
ATOM     68  C   UNL A   1      44.410  26.825  37.231  1.00  0.00     0.198 A 
ATOM     69  F   UNL A   1      42.171  27.221  36.629  1.00  0.00    -0.203 F 
ATOM     70  F   UNL A   1      47.486  28.267  35.967  1.00  0.00    -0.200 F 
ATOM     71  C   UNL A   1      45.763  27.087  37.070  1.00  0.00     0.200 A 
ATOM     72  F   UNL A   1      44.007  25.923  38.136  1.00  0.00    -0.200 F 
ATOM     73  F   UNL A   1      46.667  26.427  37.806  1.00  0.00    -0.200 F 
ENDBRANCH  40  63
ENDBRANCH  14  15
ENDBRANCH   7   9
ENDBRANCH   4   5
ENDBRANCH   3   4
ENDBRANCH   2   3
ENDBRANCH   1   2
BRANCH   1  74
ATOM     74  N   UNL A   1      33.108  28.532  27.648  1.00  0.00    -0.352 N 
ATOM     75  C   UNL A   1      32.159  27.846  26.906  1.00  0.00     0.251 C 
ATOM     76  H   UNL A   1      32.901  28.686  28.598  1.00  0.00     0.163 HD
ATOM     77  O   UNL A   1      31.421  27.025  27.449  1.00  0.00    -0.269 OA
BRANCH  75  78
ATOM     78  C   UNL A   1      31.888  28.168  25.482  1.00  0.00     0.046 A 
ATOM     79  C   UNL A   1      31.114  29.336  25.343  1.00  0.00     0.014 A 
ATOM     80  C   UNL A   1      32.095  27.315  24.364  1.00  0.00    -0.001 A 
ATOM     81  C   UNL A   1      30.561  29.690  24.115  1.00  0.00     0.001 A 
ATOM     82  C   UNL A   1      31.535  27.719  23.127  1.00  0.00     0.007 A 
ATOM     83  C   UNL A   1      30.778  28.886  23.005  1.00  0.00     0.000 A 
BRANCH  80  84
ATOM     84  C   UNL A   1      32.831  25.974  24.334  1.00  0.00     0.197 C 
ATOM     85  S   UNL A   1      33.762  25.714  22.811  1.00  0.00    -0.120 SA
ATOM     86  N   UNL A   1      31.984  24.820  24.517  1.00  0.00    -0.236 N 
ATOM     87  C   UNL A   1      32.739  24.304  22.329  1.00  0.00     0.174 C 
ATOM     88  C   UNL A   1      31.571  24.291  23.294  1.00  0.00     0.252 C 
ATOM     89  O   UNL A   1      30.458  23.896  22.977  1.00  0.00    -0.272 OA
BRANCH  86  90
ATOM     90  N   UNL A   1      31.376  24.749  25.794  1.00  0.00    -0.270 N 
ATOM     91  H   UNL A   1      30.961  25.592  26.083  1.00  0.00     0.191 HD
BRANCH  90  92
ATOM     92  C   UNL A   1      31.257  23.744  26.694  1.00  0.00     0.189 C 
ATOM     93  S   UNL A   1      29.701  23.177  26.977  1.00  0.00    -0.039 S 
BRANCH  92  94
ATOM     94  N   UNL A   1      32.291  23.068  27.219  1.00  0.00    -0.331 N 
ATOM     95  H   UNL A   1      32.303  23.033  28.203  1.00  0.00     0.169 HD
BRANCH  94  96
ATOM     96  C   UNL A   1      33.351  22.411  26.600  1.00  0.00     0.040 A 
ATOM     97  C   UNL A   1      33.068  21.229  25.915  1.00  0.00     0.026 A 
ATOM     98  C   UNL A   1      34.655  22.873  26.676  1.00  0.00     0.026 A 
ATOM     99  C   UNL A   1      34.068  20.518  25.263  1.00  0.00     0.002 A 
ATOM    100  C   UNL A   1      35.673  22.129  26.075  1.00  0.00     0.002 A 
ATOM    101  C   UNL A   1      35.379  20.961  25.360  1.00  0.00     0.000 A 
ENDBRANCH  94  96
ENDBRANCH  92  94
ENDBRANCH  90  92
ENDBRANCH  86  90
ENDBRANCH  80  84
ENDBRANCH  75  78
ENDBRANCH   1  74
TORSDOF 16
ENDMDL
MODEL 3
REMARK VINA RESULT:     -12.7      4.999     10.462
REMARK SMILES O=C(NCCCCNC(=O)c1ccccc1[C@@H]1SCC(=O)N1NC(=S)Nc1ccccc1)c1ccc(-c2c3nc(c(-c4c(F)c(F)c(F)c(F)c4F)c4ccc([nH]4)c(-c4c(F)c(F)c(F)c(F)c4F)c4nc(c(-c5c(F)c(F)c(F)c(F)c5F)c5ccc2[nH]5)C=C4)C=C3)cc1
REMARK SMILES IDX 7 1 6 2 5 3 4 4 3 5 1 6 2 7 33 9 34 10 95 11 35 12 94 13
REMARK SMILES IDX 36 14 37 15 38 16 88 17 39 18 93 19 87 20 89 21 40 22 92 23
REMARK SMILES IDX 86 24 85 25 41 27 73 28 53 29 72 30 54 31 57 32 71 33 90 34
REMARK SMILES IDX 55 35 56 36 70 38 91 39 58 40 42 41 43 42 51 43 44 44 45 45
REMARK SMILES IDX 49 46 52 47 46 48 47 49 50 50 48 51 74 52 75 53 83 54 76 55
REMARK SMILES IDX 77 56 81 57 84 58 78 59 79 60 82 61 80 62 59 63 60 64 68 65
REMARK SMILES IDX 61 66 62 67 66 68 69 69 63 70 64 71 67 72 65 73 8 74 9 75
REMARK SMILES IDX 10 77 11 78 12 79 16 80 13 81 15 82 14 83 17 84 18 85 22 86
REMARK SMILES IDX 19 87 20 88 21 89 23 90 24 92 25 93 26 94 27 96 28 97 32 98
REMARK SMILES IDX 29 99 31 100 30 101
REMARK H PARENT 3 8 89 26 57 37 8 76 23 91 26 95
REMARK Flexibility Score: inf
ROOT
ATOM      1  C   UNL A   1      33.366  29.458  26.166  1.00  0.00     0.116 C 
ENDROOT
BRANCH   1   2
ATOM      2  C   UNL A   1      32.137  30.025  26.901  1.00  0.00     0.023 C 
BRANCH   2   3
ATOM      3  C   UNL A   1      31.954  31.550  26.807  1.00  0.00     0.023 C 
BRANCH   3   4
ATOM      4  C   UNL A   1      32.892  32.559  27.517  1.00  0.00     0.116 C 
BRANCH   4   5
ATOM      5  N   UNL A   1      32.549  33.967  27.606  1.00  0.00    -0.352 N 
ATOM      6  O   UNL A   1      32.497  35.944  28.726  1.00  0.00    -0.269 OA
ATOM      7  C   UNL A   1      33.038  34.863  28.561  1.00  0.00     0.251 C 
ATOM      8  H   UNL A   1      31.918  34.320  26.938  1.00  0.00     0.163 HD
BRANCH   7   9
ATOM      9  C   UNL A   1      34.223  34.501  29.387  1.00  0.00     0.039 A 
ATOM     10  C   UNL A   1      35.501  34.607  28.852  1.00  0.00     0.014 A 
ATOM     11  C   UNL A   1      34.083  34.078  30.706  1.00  0.00     0.014 A 
ATOM     12  C   UNL A   1      36.620  34.127  29.523  1.00  0.00     0.010 A 
ATOM     13  C   UNL A   1      35.217  33.650  31.420  1.00  0.00     0.010 A 
ATOM     14  C   UNL A   1      36.488  33.614  30.811  1.00  0.00    -0.014 A 
BRANCH  14  15
ATOM     15  C   UNL A   1      37.648  32.954  31.471  1.00  0.00     0.031 A 
ATOM     16  C   UNL A   1      38.327  31.802  30.779  1.00  0.00     0.074 A 
ATOM     17  C   UNL A   1      38.129  33.395  32.650  1.00  0.00     0.049 A 
ATOM     18  N   UNL A   1      39.240  30.979  31.231  1.00  0.00    -0.248 NA
ATOM     19  C   UNL A   1      37.917  31.534  29.391  1.00  0.00     0.031 C 
ATOM     20  C   UNL A   1      37.621  34.545  33.398  1.00  0.00     0.029 A 
ATOM     21  N   UNL A   1      39.152  32.915  33.434  1.00  0.00    -0.354 N 
ATOM     22  C   UNL A   1      39.464  30.064  30.210  1.00  0.00     0.074 A 
ATOM     23  C   UNL A   1      38.599  30.433  29.111  1.00  0.00     0.031 C 
ATOM     24  C   UNL A   1      38.328  34.679  34.532  1.00  0.00     0.029 A 
ATOM     25  C   UNL A   1      39.290  33.584  34.627  1.00  0.00     0.049 A 
ATOM     26  H   UNL A   1      39.730  32.164  33.167  1.00  0.00     0.167 HD
ATOM     27  C   UNL A   1      40.313  29.011  30.196  1.00  0.00     0.037 A 
ATOM     28  C   UNL A   1      40.061  33.316  35.698  1.00  0.00     0.037 A 
ATOM     29  C   UNL A   1      41.222  28.685  31.263  1.00  0.00     0.049 A 
ATOM     30  C   UNL A   1      40.963  32.111  35.676  1.00  0.00     0.074 A 
ATOM     31  C   UNL A   1      42.167  27.675  31.313  1.00  0.00     0.029 A 
ATOM     32  N   UNL A   1      41.301  29.369  32.466  1.00  0.00    -0.354 N 
ATOM     33  N   UNL A   1      41.155  31.240  34.716  1.00  0.00    -0.248 NA
ATOM     34  C   UNL A   1      41.743  31.842  36.894  1.00  0.00     0.031 C 
ATOM     35  C   UNL A   1      42.786  27.718  32.565  1.00  0.00     0.029 A 
ATOM     36  C   UNL A   1      42.257  28.782  33.279  1.00  0.00     0.049 A 
ATOM     37  H   UNL A   1      40.759  30.155  32.707  1.00  0.00     0.167 HD
ATOM     38  C   UNL A   1      42.078  30.327  35.207  1.00  0.00     0.074 A 
ATOM     39  C   UNL A   1      42.425  30.762  36.544  1.00  0.00     0.031 C 
ATOM     40  C   UNL A   1      42.588  29.225  34.607  1.00  0.00     0.037 A 
BRANCH  27  41
ATOM     41  C   UNL A   1      40.282  28.100  29.004  1.00  0.00     0.064 A 
ATOM     42  C   UNL A   1      41.014  28.371  27.840  1.00  0.00     0.173 A 
ATOM     43  C   UNL A   1      39.550  26.904  29.058  1.00  0.00     0.173 A 
ATOM     44  F   UNL A   1      41.718  29.508  27.733  1.00  0.00    -0.203 F 
ATOM     45  C   UNL A   1      41.004  27.483  26.767  1.00  0.00     0.198 A 
ATOM     46  C   UNL A   1      39.562  26.007  27.994  1.00  0.00     0.198 A 
ATOM     47  F   UNL A   1      38.834  26.599  30.151  1.00  0.00    -0.203 F 
ATOM     48  F   UNL A   1      41.685  27.775  25.650  1.00  0.00    -0.200 F 
ATOM     49  C   UNL A   1      40.286  26.299  26.848  1.00  0.00     0.200 A 
ATOM     50  F   UNL A   1      38.876  24.859  28.079  1.00  0.00    -0.200 F 
ATOM     51  F   UNL A   1      40.288  25.439  25.820  1.00  0.00    -0.200 F 
ENDBRANCH  27  41
BRANCH  28  52
ATOM     52  C   UNL A   1      39.964  34.169  36.912  1.00  0.00     0.064 A 
ATOM     53  C   UNL A   1      39.087  33.850  37.957  1.00  0.00     0.173 A 
ATOM     54  C   UNL A   1      40.744  35.328  37.046  1.00  0.00     0.173 A 
ATOM     55  F   UNL A   1      38.297  32.771  37.861  1.00  0.00    -0.203 F 
ATOM     56  C   UNL A   1      38.990  34.661  39.086  1.00  0.00     0.198 A 
ATOM     57  C   UNL A   1      40.668  36.122  38.188  1.00  0.00     0.198 A 
ATOM     58  F   UNL A   1      41.594  35.683  36.070  1.00  0.00    -0.203 F 
ATOM     59  F   UNL A   1      38.113  34.356  40.054  1.00  0.00    -0.200 F 
ATOM     60  C   UNL A   1      39.785  35.791  39.205  1.00  0.00     0.200 A 
ATOM     61  F   UNL A   1      41.447  37.205  38.302  1.00  0.00    -0.200 F 
ATOM     62  F   UNL A   1      39.696  36.565  40.295  1.00  0.00    -0.200 F 
ENDBRANCH  28  52
BRANCH  40  63
ATOM     63  C   UNL A   1      43.583  28.418  35.384  1.00  0.00     0.064 A 
ATOM     64  C   UNL A   1      43.174  27.402  36.259  1.00  0.00     0.173 A 
ATOM     65  C   UNL A   1      44.960  28.628  35.213  1.00  0.00     0.173 A 
ATOM     66  F   UNL A   1      41.869  27.175  36.466  1.00  0.00    -0.203 F 
ATOM     67  C   UNL A   1      44.109  26.635  36.950  1.00  0.00     0.198 A 
ATOM     68  C   UNL A   1      45.891  27.843  35.887  1.00  0.00     0.198 A 
ATOM     69  F   UNL A   1      45.401  29.583  34.382  1.00  0.00    -0.203 F 
ATOM     70  F   UNL A   1      43.697  25.694  37.811  1.00  0.00    -0.200 F 
ATOM     71  C   UNL A   1      45.466  26.852  36.758  1.00  0.00     0.200 A 
ATOM     72  F   UNL A   1      47.202  28.046  35.692  1.00  0.00    -0.200 F 
ATOM     73  F   UNL A   1      46.364  26.107  37.418  1.00  0.00    -0.200 F 
ENDBRANCH  40  63
ENDBRANCH  14  15
ENDBRANCH   7   9
ENDBRANCH   4   5
ENDBRANCH   3   4
ENDBRANCH   2   3
ENDBRANCH   1   2
BRANCH   1  74
ATOM     74  N   UNL A   1      33.876  28.169  26.611  1.00  0.00    -0.352 N 
ATOM     75  C   UNL A   1      33.654  26.940  26.008  1.00  0.00     0.251 C 
ATOM     76  H   UNL A   1      34.436  28.170  27.421  1.00  0.00     0.163 HD
ATOM     77  O   UNL A   1      34.491  26.043  26.101  1.00  0.00    -0.269 OA
BRANCH  75  78
ATOM     78  C   UNL A   1      32.362  26.601  25.362  1.00  0.00     0.046 A 
ATOM     79  C   UNL A   1      31.324  26.455  26.303  1.00  0.00     0.014 A 
ATOM     80  C   UNL A   1      32.168  26.180  24.019  1.00  0.00    -0.001 A 
ATOM     81  C   UNL A   1      30.090  25.923  25.936  1.00  0.00     0.001 A 
ATOM     82  C   UNL A   1      30.893  25.663  23.678  1.00  0.00     0.007 A 
ATOM     83  C   UNL A   1      29.873  25.534  24.621  1.00  0.00     0.000 A 
BRANCH  80  84
ATOM     84  C   UNL A   1      33.191  26.182  22.881  1.00  0.00     0.197 C 
ATOM     85  S   UNL A   1      32.484  26.679  21.297  1.00  0.00    -0.120 SA
ATOM     86  N   UNL A   1      33.858  24.919  22.671  1.00  0.00    -0.236 N 
ATOM     87  C   UNL A   1      32.791  25.058  20.557  1.00  0.00     0.174 C 
ATOM     88  C   UNL A   1      33.211  24.156  21.699  1.00  0.00     0.252 C 
ATOM     89  O   UNL A   1      32.962  22.958  21.719  1.00  0.00    -0.272 OA
BRANCH  86  90
ATOM     90  N   UNL A   1      34.679  24.516  23.751  1.00  0.00    -0.270 N 
ATOM     91  H   UNL A   1      35.038  25.265  24.279  1.00  0.00     0.191 HD
BRANCH  90  92
ATOM     92  C   UNL A   1      35.068  23.298  24.198  1.00  0.00     0.189 C 
ATOM     93  S   UNL A   1      36.720  23.067  24.391  1.00  0.00    -0.039 S 
BRANCH  92  94
ATOM     94  N   UNL A   1      34.230  22.355  24.658  1.00  0.00    -0.331 N 
ATOM     95  H   UNL A   1      34.493  21.431  24.445  1.00  0.00     0.169 HD
BRANCH  94  96
ATOM     96  C   UNL A   1      33.050  22.471  25.388  1.00  0.00     0.040 A 
ATOM     97  C   UNL A   1      33.143  22.938  26.699  1.00  0.00     0.026 A 
ATOM     98  C   UNL A   1      31.818  22.111  24.865  1.00  0.00     0.026 A 
ATOM     99  C   UNL A   1      32.011  23.091  27.491  1.00  0.00     0.002 A 
ATOM    100  C   UNL A   1      30.685  22.204  25.678  1.00  0.00     0.002 A 
ATOM    101  C   UNL A   1      30.778  22.704  26.982  1.00  0.00     0.000 A 
ENDBRANCH  94  96
ENDBRANCH  92  94
ENDBRANCH  90  92
ENDBRANCH  86  90
ENDBRANCH  80  84
ENDBRANCH  75  78
ENDBRANCH   1  74
TORSDOF 16
ENDMDL
