MODEL 1
REMARK VINA RESULT:     -12.2      0.000      0.000
REMARK SMILES O=C(NCCCCNC(=O)[C@@H](Cc1ccccc1)NS(=O)(=O)c1ccccc1C(F)(F)F)c1ccc(-c2c3nc(c(-c4c(F)c(F)c(F)c(F)c4F)c4ccc([nH]4)c(-c4c(F)c(F)c(F)c(F)c4F)c4nc(c(-c5c(F)c(F)c(F)c(F)c5F)c5ccc2[nH]5)C=C4)C=C3)cc1
REMARK SMILES IDX 6 1 5 2 4 3 3 4 1 5 2 6 33 8 34 9 95 10 35 11 94 12 36 13
REMARK SMILES IDX 37 14 38 15 88 16 39 17 93 18 87 19 89 20 40 21 92 22 86 23
REMARK SMILES IDX 85 24 41 26 73 27 53 28 72 29 54 30 57 31 71 32 90 33 55 34
REMARK SMILES IDX 56 35 70 37 91 38 58 39 42 40 43 41 51 42 44 43 45 44 49 45
REMARK SMILES IDX 52 46 46 47 47 48 50 49 48 50 74 51 75 52 83 53 76 54 77 55
REMARK SMILES IDX 81 56 84 57 78 58 79 59 82 60 80 61 59 62 60 63 68 64 61 65
REMARK SMILES IDX 62 66 66 67 69 68 63 69 64 70 67 71 65 72 7 73 8 74 9 75
REMARK SMILES IDX 10 77 11 78 12 79 13 80 14 81 18 82 15 83 17 84 16 85 19 86
REMARK SMILES IDX 20 88 21 89 22 90 23 91 24 92 28 93 25 94 27 95 26 96 29 97
REMARK SMILES IDX 30 98 31 99 32 100
REMARK H PARENT 3 7 89 25 57 36 8 76 19 87
REMARK Flexibility Score: inf
ROOT
ATOM      1  C   UNL A   1      31.817  30.376  26.468  1.00  0.00     0.023 C 
ENDROOT
BRANCH   1   2
ATOM      2  C   UNL A   1      31.558  31.858  26.633  1.00  0.00     0.023 C 
BRANCH   2   3
ATOM      3  C   UNL A   1      32.700  32.598  27.297  1.00  0.00     0.116 C 
BRANCH   3   4
ATOM      4  N   UNL A   1      32.396  33.993  27.609  1.00  0.00    -0.352 N 
ATOM      5  O   UNL A   1      32.494  35.955  28.735  1.00  0.00    -0.269 OA
ATOM      6  C   UNL A   1      32.962  34.840  28.534  1.00  0.00     0.251 C 
ATOM      7  H   UNL A   1      31.672  34.391  27.072  1.00  0.00     0.163 HD
BRANCH   6   8
ATOM      8  C   UNL A   1      34.120  34.369  29.318  1.00  0.00     0.039 A 
ATOM      9  C   UNL A   1      35.406  34.554  28.822  1.00  0.00     0.014 A 
ATOM     10  C   UNL A   1      33.918  33.670  30.512  1.00  0.00     0.014 A 
ATOM     11  C   UNL A   1      36.449  33.821  29.358  1.00  0.00     0.010 A 
ATOM     12  C   UNL A   1      35.009  33.072  31.151  1.00  0.00     0.010 A 
ATOM     13  C   UNL A   1      36.275  33.101  30.551  1.00  0.00    -0.014 A 
BRANCH  13  14
ATOM     14  C   UNL A   1      37.465  32.454  31.158  1.00  0.00     0.031 A 
ATOM     15  C   UNL A   1      37.923  32.791  32.549  1.00  0.00     0.074 A 
ATOM     16  C   UNL A   1      38.092  31.494  30.448  1.00  0.00     0.049 A 
ATOM     17  N   UNL A   1      38.945  32.311  33.215  1.00  0.00    -0.248 NA
ATOM     18  C   UNL A   1      37.151  33.802  33.287  1.00  0.00     0.031 C 
ATOM     19  C   UNL A   1      37.729  31.089  29.085  1.00  0.00     0.029 A 
ATOM     20  N   UNL A   1      39.126  30.659  30.773  1.00  0.00    -0.354 N 
ATOM     21  C   UNL A   1      38.962  32.988  34.428  1.00  0.00     0.074 A 
ATOM     22  C   UNL A   1      37.855  33.920  34.407  1.00  0.00     0.031 C 
ATOM     23  C   UNL A   1      38.462  30.028  28.729  1.00  0.00     0.029 A 
ATOM     24  C   UNL A   1      39.423  29.750  29.787  1.00  0.00     0.049 A 
ATOM     25  H   UNL A   1      39.610  30.704  31.629  1.00  0.00     0.167 HD
ATOM     26  C   UNL A   1      39.830  32.841  35.458  1.00  0.00     0.037 A 
ATOM     27  C   UNL A   1      40.385  28.814  29.720  1.00  0.00     0.037 A 
ATOM     28  C   UNL A   1      40.908  31.883  35.476  1.00  0.00     0.049 A 
ATOM     29  C   UNL A   1      41.333  28.682  30.872  1.00  0.00     0.074 A 
ATOM     30  C   UNL A   1      41.827  31.634  36.480  1.00  0.00     0.029 A 
ATOM     31  N   UNL A   1      41.208  31.011  34.437  1.00  0.00    -0.354 N 
ATOM     32  N   UNL A   1      41.345  29.337  32.008  1.00  0.00    -0.248 NA
ATOM     33  C   UNL A   1      42.411  27.699  30.727  1.00  0.00     0.031 C 
ATOM     34  C   UNL A   1      42.708  30.644  36.033  1.00  0.00     0.029 A 
ATOM     35  C   UNL A   1      42.310  30.239  34.770  1.00  0.00     0.049 A 
ATOM     36  H   UNL A   1      40.711  30.950  33.590  1.00  0.00     0.167 HD
ATOM     37  C   UNL A   1      42.430  28.846  32.715  1.00  0.00     0.074 A 
ATOM     38  C   UNL A   1      43.032  27.815  31.892  1.00  0.00     0.031 C 
ATOM     39  C   UNL A   1      42.894  29.222  33.932  1.00  0.00     0.037 A 
BRANCH  26  40
ATOM     40  C   UNL A   1      39.677  33.752  36.643  1.00  0.00     0.064 A 
ATOM     41  C   UNL A   1      40.298  35.008  36.701  1.00  0.00     0.173 A 
ATOM     42  C   UNL A   1      38.850  33.382  37.716  1.00  0.00     0.173 A 
ATOM     43  F   UNL A   1      41.108  35.408  35.708  1.00  0.00    -0.203 F 
ATOM     44  C   UNL A   1      40.114  35.851  37.796  1.00  0.00     0.198 A 
ATOM     45  C   UNL A   1      38.646  34.238  38.796  1.00  0.00     0.198 A 
ATOM     46  F   UNL A   1      38.226  32.195  37.710  1.00  0.00    -0.203 F 
ATOM     47  F   UNL A   1      40.748  37.030  37.847  1.00  0.00    -0.200 F 
ATOM     48  C   UNL A   1      39.282  35.468  38.839  1.00  0.00     0.200 A 
ATOM     49  F   UNL A   1      37.833  33.871  39.797  1.00  0.00    -0.200 F 
ATOM     50  F   UNL A   1      39.098  36.284  39.886  1.00  0.00    -0.200 F 
ENDBRANCH  26  40
BRANCH  27  51
ATOM     51  C   UNL A   1      40.505  27.969  28.505  1.00  0.00     0.064 A 
ATOM     52  C   UNL A   1      41.269  28.386  27.408  1.00  0.00     0.173 A 
ATOM     53  C   UNL A   1      39.893  26.708  28.434  1.00  0.00     0.173 A 
ATOM     54  F   UNL A   1      41.860  29.589  27.422  1.00  0.00    -0.203 F 
ATOM     55  C   UNL A   1      41.411  27.576  26.282  1.00  0.00     0.198 A 
ATOM     56  C   UNL A   1      40.065  25.885  27.324  1.00  0.00     0.198 A 
ATOM     57  F   UNL A   1      39.159  26.258  29.462  1.00  0.00    -0.203 F 
ATOM     58  F   UNL A   1      42.119  28.013  25.232  1.00  0.00    -0.200 F 
ATOM     59  C   UNL A   1      40.817  26.323  26.246  1.00  0.00     0.200 A 
ATOM     60  F   UNL A   1      39.510  24.666  27.306  1.00  0.00    -0.200 F 
ATOM     61  F   UNL A   1      40.970  25.538  25.172  1.00  0.00    -0.200 F 
ENDBRANCH  27  51
BRANCH  39  62
ATOM     62  C   UNL A   1      44.099  28.495  34.444  1.00  0.00     0.064 A 
ATOM     63  C   UNL A   1      45.397  28.983  34.227  1.00  0.00     0.173 A 
ATOM     64  C   UNL A   1      43.956  27.303  35.168  1.00  0.00     0.173 A 
ATOM     65  F   UNL A   1      45.585  30.109  33.522  1.00  0.00    -0.203 F 
ATOM     66  C   UNL A   1      46.508  28.288  34.693  1.00  0.00     0.198 A 
ATOM     67  C   UNL A   1      45.068  26.626  35.658  1.00  0.00     0.198 A 
ATOM     68  F   UNL A   1      42.735  26.798  35.403  1.00  0.00    -0.203 F 
ATOM     69  F   UNL A   1      47.740  28.743  34.428  1.00  0.00    -0.200 F 
ATOM     70  C   UNL A   1      46.343  27.114  35.412  1.00  0.00     0.200 A 
ATOM     71  F   UNL A   1      44.906  25.496  36.361  1.00  0.00    -0.200 F 
ATOM     72  F   UNL A   1      47.414  26.444  35.860  1.00  0.00    -0.200 F 
ENDBRANCH  39  62
ENDBRANCH  13  14
ENDBRANCH   6   8
ENDBRANCH   3   4
ENDBRANCH   2   3
ENDBRANCH   1   2
BRANCH   1  73
ATOM     73  C   UNL A   1      31.972  29.892  25.032  1.00  0.00     0.116 C 
BRANCH  73  74
ATOM     74  N   UNL A   1      30.694  29.395  24.556  1.00  0.00    -0.355 N 
ATOM     75  C   UNL A   1      30.451  28.187  23.949  1.00  0.00     0.238 C 
ATOM     76  H   UNL A   1      29.918  29.988  24.681  1.00  0.00     0.163 HD
ATOM     77  O   UNL A   1      29.556  28.147  23.102  1.00  0.00    -0.273 OA
BRANCH  75  78
ATOM     78  C   UNL A   1      31.194  26.905  24.390  1.00  0.00     0.163 C 
BRANCH  78  79
ATOM     79  C   UNL A   1      30.391  25.960  25.296  1.00  0.00     0.065 C 
BRANCH  79  80
ATOM     80  C   UNL A   1      30.939  24.632  25.760  1.00  0.00    -0.046 A 
ATOM     81  C   UNL A   1      31.882  24.580  26.803  1.00  0.00     0.004 A 
ATOM     82  C   UNL A   1      30.600  23.436  25.117  1.00  0.00     0.004 A 
ATOM     83  C   UNL A   1      32.421  23.361  27.227  1.00  0.00     0.000 A 
ATOM     84  C   UNL A   1      31.151  22.218  25.529  1.00  0.00     0.000 A 
ATOM     85  C   UNL A   1      32.051  22.178  26.591  1.00  0.00     0.000 A 
ENDBRANCH  79  80
ENDBRANCH  78  79
BRANCH  78  86
ATOM     86  N   UNL A   1      31.887  26.345  23.218  1.00  0.00    -0.198 NA
ATOM     87  H   UNL A   1      31.539  26.880  22.423  1.00  0.00     0.142 HD
BRANCH  86  88
ATOM     88  S   UNL A   1      33.520  26.255  22.990  1.00  0.00     0.241 S 
ATOM     89  O   UNL A   1      33.736  26.121  21.568  1.00  0.00    -0.207 OA
ATOM     90  O   UNL A   1      34.087  27.359  23.733  1.00  0.00    -0.207 OA
BRANCH  88  91
ATOM     91  C   UNL A   1      34.159  24.775  23.746  1.00  0.00     0.094 A 
ATOM     92  C   UNL A   1      34.970  25.005  24.877  1.00  0.00     0.022 A 
ATOM     93  C   UNL A   1      33.895  23.459  23.335  1.00  0.00     0.076 A 
ATOM     94  C   UNL A   1      35.568  23.950  25.563  1.00  0.00     0.001 A 
ATOM     95  C   UNL A   1      34.568  22.411  24.007  1.00  0.00     0.014 A 
ATOM     96  C   UNL A   1      35.390  22.653  25.109  1.00  0.00     0.001 A 
BRANCH  93  97
ATOM     97  C   UNL A   1      32.946  23.051  22.240  1.00  0.00     0.417 C 
ATOM     98  F   UNL A   1      32.623  21.734  22.318  1.00  0.00    -0.166 F 
ATOM     99  F   UNL A   1      31.758  23.716  22.306  1.00  0.00    -0.166 F 
ATOM    100  F   UNL A   1      33.397  23.258  20.975  1.00  0.00    -0.166 F 
ENDBRANCH  93  97
ENDBRANCH  88  91
ENDBRANCH  86  88
ENDBRANCH  78  86
ENDBRANCH  75  78
ENDBRANCH  73  74
ENDBRANCH   1  73
TORSDOF 17
ENDMDL
MODEL 2
REMARK VINA RESULT:     -12.2      0.409      7.268
REMARK SMILES O=C(NCCCCNC(=O)[C@@H](Cc1ccccc1)NS(=O)(=O)c1ccccc1C(F)(F)F)c1ccc(-c2c3nc(c(-c4c(F)c(F)c(F)c(F)c4F)c4ccc([nH]4)c(-c4c(F)c(F)c(F)c(F)c4F)c4nc(c(-c5c(F)c(F)c(F)c(F)c5F)c5ccc2[nH]5)C=C4)C=C3)cc1
REMARK SMILES IDX 6 1 5 2 4 3 3 4 1 5 2 6 33 8 34 9 95 10 35 11 94 12 36 13
REMARK SMILES IDX 37 14 38 15 88 16 39 17 93 18 87 19 89 20 40 21 92 22 86 23
REMARK SMILES IDX 85 24 41 26 73 27 53 28 72 29 54 30 57 31 71 32 90 33 55 34
REMARK SMILES IDX 56 35 70 37 91 38 58 39 42 40 43 41 51 42 44 43 45 44 49 45
REMARK SMILES IDX 52 46 46 47 47 48 50 49 48 50 74 51 75 52 83 53 76 54 77 55
REMARK SMILES IDX 81 56 84 57 78 58 79 59 82 60 80 61 59 62 60 63 68 64 61 65
REMARK SMILES IDX 62 66 66 67 69 68 63 69 64 70 67 71 65 72 7 73 8 74 9 75
REMARK SMILES IDX 10 77 11 78 12 79 13 80 14 81 18 82 15 83 17 84 16 85 19 86
REMARK SMILES IDX 20 88 21 89 22 90 23 91 24 92 28 93 25 94 27 95 26 96 29 97
REMARK SMILES IDX 30 98 31 99 32 100
REMARK H PARENT 3 7 89 25 57 36 8 76 19 87
REMARK Flexibility Score: inf
ROOT
ATOM      1  C   UNL A   1      31.781  30.467  26.504  1.00  0.00     0.023 C 
ENDROOT
BRANCH   1   2
ATOM      2  C   UNL A   1      31.583  31.965  26.583  1.00  0.00     0.023 C 
BRANCH   2   3
ATOM      3  C   UNL A   1      32.723  32.686  27.273  1.00  0.00     0.116 C 
BRANCH   3   4
ATOM      4  N   UNL A   1      32.424  34.077  27.608  1.00  0.00    -0.352 N 
ATOM      5  O   UNL A   1      32.505  36.011  28.783  1.00  0.00    -0.269 OA
ATOM      6  C   UNL A   1      32.968  34.895  28.572  1.00  0.00     0.251 C 
ATOM      7  H   UNL A   1      31.722  34.495  27.057  1.00  0.00     0.163 HD
BRANCH   6   8
ATOM      8  C   UNL A   1      34.095  34.393  29.382  1.00  0.00     0.039 A 
ATOM      9  C   UNL A   1      35.392  34.497  28.893  1.00  0.00     0.014 A 
ATOM     10  C   UNL A   1      33.848  33.742  30.594  1.00  0.00     0.014 A 
ATOM     11  C   UNL A   1      36.393  33.732  29.462  1.00  0.00     0.010 A 
ATOM     12  C   UNL A   1      34.902  33.112  31.263  1.00  0.00     0.010 A 
ATOM     13  C   UNL A   1      36.173  33.059  30.675  1.00  0.00    -0.014 A 
BRANCH  13  14
ATOM     14  C   UNL A   1      37.324  32.373  31.314  1.00  0.00     0.031 A 
ATOM     15  C   UNL A   1      38.126  31.331  30.587  1.00  0.00     0.074 A 
ATOM     16  C   UNL A   1      37.680  32.765  32.555  1.00  0.00     0.049 A 
ATOM     17  N   UNL A   1      39.157  30.644  31.014  1.00  0.00    -0.248 NA
ATOM     18  C   UNL A   1      37.718  31.002  29.213  1.00  0.00     0.031 C 
ATOM     19  C   UNL A   1      36.969  33.770  33.352  1.00  0.00     0.029 A 
ATOM     20  N   UNL A   1      38.738  32.408  33.347  1.00  0.00    -0.354 N 
ATOM     21  C   UNL A   1      39.493  29.777  29.981  1.00  0.00     0.074 A 
ATOM     22  C   UNL A   1      38.552  30.016  28.908  1.00  0.00     0.031 C 
ATOM     23  C   UNL A   1      37.658  34.015  34.473  1.00  0.00     0.029 A 
ATOM     24  C   UNL A   1      38.793  33.106  34.528  1.00  0.00     0.049 A 
ATOM     25  H   UNL A   1      39.394  31.719  33.095  1.00  0.00     0.167 HD
ATOM     26  C   UNL A   1      40.495  28.867  29.944  1.00  0.00     0.037 A 
ATOM     27  C   UNL A   1      39.643  33.006  35.565  1.00  0.00     0.037 A 
ATOM     28  C   UNL A   1      41.445  28.665  31.010  1.00  0.00     0.049 A 
ATOM     29  C   UNL A   1      40.735  31.982  35.495  1.00  0.00     0.074 A 
ATOM     30  C   UNL A   1      42.514  27.788  31.062  1.00  0.00     0.029 A 
ATOM     31  N   UNL A   1      41.440  29.358  32.214  1.00  0.00    -0.354 N 
ATOM     32  N   UNL A   1      41.034  31.162  34.518  1.00  0.00    -0.248 NA
ATOM     33  C   UNL A   1      41.594  31.857  36.677  1.00  0.00     0.031 C 
ATOM     34  C   UNL A   1      43.129  27.919  32.312  1.00  0.00     0.029 A 
ATOM     35  C   UNL A   1      42.475  28.913  33.021  1.00  0.00     0.049 A 
ATOM     36  H   UNL A   1      40.797  30.062  32.457  1.00  0.00     0.167 HD
ATOM     37  C   UNL A   1      42.116  30.421  34.964  1.00  0.00     0.074 A 
ATOM     38  C   UNL A   1      42.441  30.914  36.288  1.00  0.00     0.031 C 
ATOM     39  C   UNL A   1      42.775  29.416  34.338  1.00  0.00     0.037 A 
BRANCH  26  40
ATOM     40  C   UNL A   1      40.606  27.991  28.727  1.00  0.00     0.064 A 
ATOM     41  C   UNL A   1      39.924  26.771  28.625  1.00  0.00     0.173 A 
ATOM     42  C   UNL A   1      41.366  28.410  27.623  1.00  0.00     0.173 A 
ATOM     43  F   UNL A   1      39.191  26.317  29.653  1.00  0.00    -0.203 F 
ATOM     44  C   UNL A   1      40.014  25.992  27.471  1.00  0.00     0.198 A 
ATOM     45  C   UNL A   1      41.433  27.643  26.463  1.00  0.00     0.198 A 
ATOM     46  F   UNL A   1      42.034  29.573  27.664  1.00  0.00    -0.203 F 
ATOM     47  F   UNL A   1      39.385  24.811  27.412  1.00  0.00    -0.200 F 
ATOM     48  C   UNL A   1      40.763  26.432  26.390  1.00  0.00     0.200 A 
ATOM     49  F   UNL A   1      42.147  28.076  25.414  1.00  0.00    -0.200 F 
ATOM     50  F   UNL A   1      40.840  25.687  25.278  1.00  0.00    -0.200 F 
ENDBRANCH  26  40
BRANCH  27  51
ATOM     51  C   UNL A   1      39.457  33.875  36.754  1.00  0.00     0.064 A 
ATOM     52  C   UNL A   1      38.764  33.419  37.882  1.00  0.00     0.173 A 
ATOM     53  C   UNL A   1      40.007  35.166  36.802  1.00  0.00     0.173 A 
ATOM     54  F   UNL A   1      38.208  32.199  37.878  1.00  0.00    -0.203 F 
ATOM     55  C   UNL A   1      38.622  34.223  39.011  1.00  0.00     0.198 A 
ATOM     56  C   UNL A   1      39.896  35.954  37.944  1.00  0.00     0.198 A 
ATOM     57  F   UNL A   1      40.689  35.646  35.751  1.00  0.00    -0.203 F 
ATOM     58  F   UNL A   1      37.925  33.776  40.064  1.00  0.00    -0.200 F 
ATOM     59  C   UNL A   1      39.196  35.486  39.045  1.00  0.00     0.200 A 
ATOM     60  F   UNL A   1      40.474  37.163  37.979  1.00  0.00    -0.200 F 
ATOM     61  F   UNL A   1      39.075  36.250  40.138  1.00  0.00    -0.200 F 
ENDBRANCH  27  51
BRANCH  39  62
ATOM     62  C   UNL A   1      43.923  28.803  35.080  1.00  0.00     0.064 A 
ATOM     63  C   UNL A   1      43.744  27.694  35.921  1.00  0.00     0.173 A 
ATOM     64  C   UNL A   1      45.218  29.323  34.942  1.00  0.00     0.173 A 
ATOM     65  F   UNL A   1      42.520  27.175  36.102  1.00  0.00    -0.203 F 
ATOM     66  C   UNL A   1      44.816  27.147  36.619  1.00  0.00     0.198 A 
ATOM     67  C   UNL A   1      46.293  28.755  35.618  1.00  0.00     0.198 A 
ATOM     68  F   UNL A   1      45.439  30.381  34.147  1.00  0.00    -0.203 F 
ATOM     69  F   UNL A   1      44.614  26.123  37.459  1.00  0.00    -0.200 F 
ATOM     70  C   UNL A   1      46.090  27.673  36.462  1.00  0.00     0.200 A 
ATOM     71  F   UNL A   1      47.525  29.259  35.459  1.00  0.00    -0.200 F 
ATOM     72  F   UNL A   1      47.122  27.146  37.135  1.00  0.00    -0.200 F 
ENDBRANCH  39  62
ENDBRANCH  13  14
ENDBRANCH   6   8
ENDBRANCH   3   4
ENDBRANCH   2   3
ENDBRANCH   1   2
BRANCH   1  73
ATOM     73  C   UNL A   1      31.970  29.904  25.101  1.00  0.00     0.116 C 
BRANCH  73  74
ATOM     74  N   UNL A   1      30.698  29.401  24.613  1.00  0.00    -0.355 N 
ATOM     75  C   UNL A   1      30.467  28.194  24.001  1.00  0.00     0.238 C 
ATOM     76  H   UNL A   1      29.917  29.989  24.735  1.00  0.00     0.163 HD
ATOM     77  O   UNL A   1      29.578  28.151  23.147  1.00  0.00    -0.273 OA
BRANCH  75  78
ATOM     78  C   UNL A   1      31.214  26.914  24.442  1.00  0.00     0.163 C 
BRANCH  78  79
ATOM     79  C   UNL A   1      30.411  25.963  25.340  1.00  0.00     0.065 C 
BRANCH  79  80
ATOM     80  C   UNL A   1      30.956  24.628  25.788  1.00  0.00    -0.046 A 
ATOM     81  C   UNL A   1      31.922  24.563  26.810  1.00  0.00     0.004 A 
ATOM     82  C   UNL A   1      30.590  23.437  25.150  1.00  0.00     0.004 A 
ATOM     83  C   UNL A   1      32.458  23.337  27.218  1.00  0.00     0.000 A 
ATOM     84  C   UNL A   1      31.139  22.213  25.546  1.00  0.00     0.000 A 
ATOM     85  C   UNL A   1      32.062  22.160  26.587  1.00  0.00     0.000 A 
ENDBRANCH  79  80
ENDBRANCH  78  79
BRANCH  78  86
ATOM     86  N   UNL A   1      31.917  26.362  23.272  1.00  0.00    -0.198 NA
ATOM     87  H   UNL A   1      31.574  26.900  22.478  1.00  0.00     0.142 HD
BRANCH  86  88
ATOM     88  S   UNL A   1      33.552  26.276  23.056  1.00  0.00     0.241 S 
ATOM     89  O   UNL A   1      33.780  26.182  21.633  1.00  0.00    -0.207 OA
ATOM     90  O   UNL A   1      34.114  27.358  23.836  1.00  0.00    -0.207 OA
BRANCH  88  91
ATOM     91  C   UNL A   1      34.182  24.774  23.776  1.00  0.00     0.094 A 
ATOM     92  C   UNL A   1      35.008  24.972  24.903  1.00  0.00     0.022 A 
ATOM     93  C   UNL A   1      33.899  23.470  23.341  1.00  0.00     0.076 A 
ATOM     94  C   UNL A   1      35.600  23.897  25.561  1.00  0.00     0.001 A 
ATOM     95  C   UNL A   1      34.567  22.401  23.985  1.00  0.00     0.014 A 
ATOM     96  C   UNL A   1      35.403  22.611  25.083  1.00  0.00     0.001 A 
BRANCH  93  97
ATOM     97  C   UNL A   1      32.935  23.094  22.248  1.00  0.00     0.417 C 
ATOM     98  F   UNL A   1      32.606  21.777  22.297  1.00  0.00    -0.166 F 
ATOM     99  F   UNL A   1      31.751  23.763  22.346  1.00  0.00    -0.166 F 
ATOM    100  F   UNL A   1      33.371  23.331  20.983  1.00  0.00    -0.166 F 
ENDBRANCH  93  97
ENDBRANCH  88  91
ENDBRANCH  86  88
ENDBRANCH  78  86
ENDBRANCH  75  78
ENDBRANCH  73  74
ENDBRANCH   1  73
TORSDOF 17
ENDMDL
MODEL 3
REMARK VINA RESULT:     -12.2      1.410      2.764
REMARK SMILES O=C(NCCCCNC(=O)[C@@H](Cc1ccccc1)NS(=O)(=O)c1ccccc1C(F)(F)F)c1ccc(-c2c3nc(c(-c4c(F)c(F)c(F)c(F)c4F)c4ccc([nH]4)c(-c4c(F)c(F)c(F)c(F)c4F)c4nc(c(-c5c(F)c(F)c(F)c(F)c5F)c5ccc2[nH]5)C=C4)C=C3)cc1
REMARK SMILES IDX 6 1 5 2 4 3 3 4 1 5 2 6 33 8 34 9 95 10 35 11 94 12 36 13
REMARK SMILES IDX 37 14 38 15 88 16 39 17 93 18 87 19 89 20 40 21 92 22 86 23
REMARK SMILES IDX 85 24 41 26 73 27 53 28 72 29 54 30 57 31 71 32 90 33 55 34
REMARK SMILES IDX 56 35 70 37 91 38 58 39 42 40 43 41 51 42 44 43 45 44 49 45
REMARK SMILES IDX 52 46 46 47 47 48 50 49 48 50 74 51 75 52 83 53 76 54 77 55
REMARK SMILES IDX 81 56 84 57 78 58 79 59 82 60 80 61 59 62 60 63 68 64 61 65
REMARK SMILES IDX 62 66 66 67 69 68 63 69 64 70 67 71 65 72 7 73 8 74 9 75
REMARK SMILES IDX 10 77 11 78 12 79 13 80 14 81 18 82 15 83 17 84 16 85 19 86
REMARK SMILES IDX 20 88 21 89 22 90 23 91 24 92 28 93 25 94 27 95 26 96 29 97
REMARK SMILES IDX 30 98 31 99 32 100
REMARK H PARENT 3 7 89 25 57 36 8 76 19 87
REMARK Flexibility Score: inf
ROOT
ATOM      1  C   UNL A   1      31.953  30.652  26.384  1.00  0.00     0.023 C 
ENDROOT
BRANCH   1   2
ATOM      2  C   UNL A   1      31.588  32.019  26.922  1.00  0.00     0.023 C 
BRANCH   2   3
ATOM      3  C   UNL A   1      32.792  32.870  27.270  1.00  0.00     0.116 C 
BRANCH   3   4
ATOM      4  N   UNL A   1      32.455  34.242  27.646  1.00  0.00    -0.352 N 
ATOM      5  O   UNL A   1      32.489  36.143  28.875  1.00  0.00    -0.269 OA
ATOM      6  C   UNL A   1      32.982  35.048  28.629  1.00  0.00     0.251 C 
ATOM      7  H   UNL A   1      31.738  34.655  27.112  1.00  0.00     0.163 HD
BRANCH   6   8
ATOM      8  C   UNL A   1      34.128  34.555  29.418  1.00  0.00     0.039 A 
ATOM      9  C   UNL A   1      35.417  34.692  28.915  1.00  0.00     0.014 A 
ATOM     10  C   UNL A   1      33.909  33.882  30.623  1.00  0.00     0.014 A 
ATOM     11  C   UNL A   1      36.440  33.938  29.461  1.00  0.00     0.010 A 
ATOM     12  C   UNL A   1      34.983  33.263  31.270  1.00  0.00     0.010 A 
ATOM     13  C   UNL A   1      36.248  33.243  30.666  1.00  0.00    -0.014 A 
BRANCH  13  14
ATOM     14  C   UNL A   1      37.420  32.571  31.281  1.00  0.00     0.031 A 
ATOM     15  C   UNL A   1      37.870  32.891  32.678  1.00  0.00     0.074 A 
ATOM     16  C   UNL A   1      38.036  31.604  30.571  1.00  0.00     0.049 A 
ATOM     17  N   UNL A   1      38.876  32.389  33.351  1.00  0.00    -0.248 NA
ATOM     18  C   UNL A   1      37.110  33.912  33.415  1.00  0.00     0.031 C 
ATOM     19  C   UNL A   1      37.679  31.212  29.202  1.00  0.00     0.029 A 
ATOM     20  N   UNL A   1      39.051  30.747  30.901  1.00  0.00    -0.354 N 
ATOM     21  C   UNL A   1      38.895  33.059  34.568  1.00  0.00     0.074 A 
ATOM     22  C   UNL A   1      37.805  34.010  34.542  1.00  0.00     0.031 C 
ATOM     23  C   UNL A   1      38.395  30.140  28.847  1.00  0.00     0.029 A 
ATOM     24  C   UNL A   1      39.340  29.839  29.912  1.00  0.00     0.049 A 
ATOM     25  H   UNL A   1      39.527  30.779  31.761  1.00  0.00     0.167 HD
ATOM     26  C   UNL A   1      39.749  32.889  35.605  1.00  0.00     0.037 A 
ATOM     27  C   UNL A   1      40.285  28.885  29.849  1.00  0.00     0.037 A 
ATOM     28  C   UNL A   1      40.810  31.912  35.628  1.00  0.00     0.049 A 
ATOM     29  C   UNL A   1      41.220  28.730  31.010  1.00  0.00     0.074 A 
ATOM     30  C   UNL A   1      41.713  31.640  36.640  1.00  0.00     0.029 A 
ATOM     31  N   UNL A   1      41.103  31.040  34.587  1.00  0.00    -0.354 N 
ATOM     32  N   UNL A   1      41.233  29.378  32.149  1.00  0.00    -0.248 NA
ATOM     33  C   UNL A   1      42.281  27.727  30.869  1.00  0.00     0.031 C 
ATOM     34  C   UNL A   1      42.581  30.636  36.195  1.00  0.00     0.029 A 
ATOM     35  C   UNL A   1      42.187  30.246  34.926  1.00  0.00     0.049 A 
ATOM     36  H   UNL A   1      40.613  30.994  33.735  1.00  0.00     0.167 HD
ATOM     37  C   UNL A   1      42.302  28.863  32.864  1.00  0.00     0.074 A 
ATOM     38  C   UNL A   1      42.892  27.825  32.041  1.00  0.00     0.031 C 
ATOM     39  C   UNL A   1      42.760  29.223  34.087  1.00  0.00     0.037 A 
BRANCH  26  40
ATOM     40  C   UNL A   1      39.602  33.797  36.794  1.00  0.00     0.064 A 
ATOM     41  C   UNL A   1      40.173  35.077  36.828  1.00  0.00     0.173 A 
ATOM     42  C   UNL A   1      38.829  33.396  37.896  1.00  0.00     0.173 A 
ATOM     43  F   UNL A   1      40.930  35.507  35.807  1.00  0.00    -0.203 F 
ATOM     44  C   UNL A   1      39.993  35.914  37.929  1.00  0.00     0.198 A 
ATOM     45  C   UNL A   1      38.629  34.245  38.982  1.00  0.00     0.198 A 
ATOM     46  F   UNL A   1      38.254  32.184  37.914  1.00  0.00    -0.203 F 
ATOM     47  F   UNL A   1      40.581  37.118  37.955  1.00  0.00    -0.200 F 
ATOM     48  C   UNL A   1      39.216  35.500  39.001  1.00  0.00     0.200 A 
ATOM     49  F   UNL A   1      37.868  33.848  40.011  1.00  0.00    -0.200 F 
ATOM     50  F   UNL A   1      39.037  36.311  40.053  1.00  0.00    -0.200 F 
ENDBRANCH  26  40
BRANCH  27  51
ATOM     51  C   UNL A   1      40.402  28.046  28.630  1.00  0.00     0.064 A 
ATOM     52  C   UNL A   1      41.179  28.457  27.541  1.00  0.00     0.173 A 
ATOM     53  C   UNL A   1      39.771  26.794  28.548  1.00  0.00     0.173 A 
ATOM     54  F   UNL A   1      41.789  29.651  27.566  1.00  0.00    -0.203 F 
ATOM     55  C   UNL A   1      41.317  27.651  26.412  1.00  0.00     0.198 A 
ATOM     56  C   UNL A   1      39.939  25.974  27.436  1.00  0.00     0.198 A 
ATOM     57  F   UNL A   1      39.023  26.349  29.569  1.00  0.00    -0.203 F 
ATOM     58  F   UNL A   1      42.039  28.082  25.369  1.00  0.00    -0.200 F 
ATOM     59  C   UNL A   1      40.705  26.407  26.365  1.00  0.00     0.200 A 
ATOM     60  F   UNL A   1      39.366  24.764  27.407  1.00  0.00    -0.200 F 
ATOM     61  F   UNL A   1      40.854  25.625  25.288  1.00  0.00    -0.200 F 
ENDBRANCH  27  51
BRANCH  39  62
ATOM     62  C   UNL A   1      43.947  28.471  34.607  1.00  0.00     0.064 A 
ATOM     63  C   UNL A   1      45.256  28.935  34.403  1.00  0.00     0.173 A 
ATOM     64  C   UNL A   1      43.774  27.279  35.326  1.00  0.00     0.173 A 
ATOM     65  F   UNL A   1      45.472  30.059  33.703  1.00  0.00    -0.203 F 
ATOM     66  C   UNL A   1      46.349  28.216  34.875  1.00  0.00     0.198 A 
ATOM     67  C   UNL A   1      44.869  26.579  35.822  1.00  0.00     0.198 A 
ATOM     68  F   UNL A   1      42.542  26.798  35.548  1.00  0.00    -0.203 F 
ATOM     69  F   UNL A   1      47.592  28.648  34.622  1.00  0.00    -0.200 F 
ATOM     70  C   UNL A   1      46.155  27.043  35.589  1.00  0.00     0.200 A 
ATOM     71  F   UNL A   1      44.680  25.450  36.519  1.00  0.00    -0.200 F 
ATOM     72  F   UNL A   1      47.209  26.351  36.043  1.00  0.00    -0.200 F 
ENDBRANCH  39  62
ENDBRANCH  13  14
ENDBRANCH   6   8
ENDBRANCH   3   4
ENDBRANCH   2   3
ENDBRANCH   1   2
BRANCH   1  73
ATOM     73  C   UNL A   1      33.095  29.948  27.106  1.00  0.00     0.116 C 
BRANCH  73  74
ATOM     74  N   UNL A   1      32.637  28.652  27.574  1.00  0.00    -0.355 N 
ATOM     75  C   UNL A   1      32.211  27.599  26.803  1.00  0.00     0.238 C 
ATOM     76  H   UNL A   1      32.630  28.514  28.549  1.00  0.00     0.163 HD
ATOM     77  O   UNL A   1      31.335  26.867  27.272  1.00  0.00    -0.273 OA
BRANCH  75  78
ATOM     78  C   UNL A   1      32.881  27.275  25.447  1.00  0.00     0.163 C 
BRANCH  78  79
ATOM     79  C   UNL A   1      34.114  26.364  25.525  1.00  0.00     0.065 C 
BRANCH  79  80
ATOM     80  C   UNL A   1      34.067  24.910  25.120  1.00  0.00    -0.046 A 
ATOM     81  C   UNL A   1      33.842  23.912  26.085  1.00  0.00     0.004 A 
ATOM     82  C   UNL A   1      34.331  24.509  23.804  1.00  0.00     0.004 A 
ATOM     83  C   UNL A   1      33.823  22.558  25.731  1.00  0.00     0.000 A 
ATOM     84  C   UNL A   1      34.328  23.155  23.453  1.00  0.00     0.000 A 
ATOM     85  C   UNL A   1      34.062  22.181  24.412  1.00  0.00     0.000 A 
ENDBRANCH  79  80
ENDBRANCH  78  79
BRANCH  78  86
ATOM     86  N   UNL A   1      31.824  26.957  24.472  1.00  0.00    -0.198 NA
ATOM     87  H   UNL A   1      30.951  27.207  24.937  1.00  0.00     0.142 HD
BRANCH  86  88
ATOM     88  S   UNL A   1      31.682  27.560  22.942  1.00  0.00     0.241 S 
ATOM     89  O   UNL A   1      32.691  28.584  22.802  1.00  0.00    -0.207 OA
ATOM     90  O   UNL A   1      31.653  26.411  22.062  1.00  0.00    -0.207 OA
BRANCH  88  91
ATOM     91  C   UNL A   1      30.105  28.365  22.750  1.00  0.00     0.094 A 
ATOM     92  C   UNL A   1      30.152  29.561  22.002  1.00  0.00     0.022 A 
ATOM     93  C   UNL A   1      28.876  27.897  23.239  1.00  0.00     0.076 A 
ATOM     94  C   UNL A   1      29.005  30.323  21.788  1.00  0.00     0.001 A 
ATOM     95  C   UNL A   1      27.740  28.723  23.064  1.00  0.00     0.014 A 
ATOM     96  C   UNL A   1      27.803  29.918  22.345  1.00  0.00     0.001 A 
BRANCH  93  97
ATOM     97  C   UNL A   1      28.645  26.580  23.930  1.00  0.00     0.417 C 
ATOM     98  F   UNL A   1      29.308  26.509  25.113  1.00  0.00    -0.166 F 
ATOM     99  F   UNL A   1      27.333  26.379  24.242  1.00  0.00    -0.166 F 
ATOM    100  F   UNL A   1      29.012  25.481  23.221  1.00  0.00    -0.166 F 
ENDBRANCH  93  97
ENDBRANCH  88  91
ENDBRANCH  86  88
ENDBRANCH  78  86
ENDBRANCH  75  78
ENDBRANCH  73  74
ENDBRANCH   1  73
TORSDOF 17
ENDMDL
