MODEL 1
REMARK VINA RESULT:     -12.4      0.000      0.000
REMARK SMILES Cc1ccc(Cl)c(OCC(=O)Nc2sccc2C(=O)NCCCCNC(=O)c2ccc(-c3c4nc(c(-c5c(F)c(F)c(F)c(F)c5F)c5ccc([nH]5)c(-c5c(F)c(F)c(F)c(F)c5F)c5nc(c(-c6c(F)c(F)c(F)c(F)c6F)c6ccc3[nH]6)C=C5)C=C4)cc2)c1
REMARK SMILES IDX 21 1 20 2 18 3 19 4 17 6 13 7 14 8 15 9 16 10 12 11 10 12
REMARK SMILES IDX 11 13 9 15 8 16 7 17 1 18 2 19 3 20 91 21 4 22 5 23 6 24
REMARK SMILES IDX 22 25 23 26 24 27 25 28 26 29 27 31 28 32 29 33 90 34 30 35
REMARK SMILES IDX 89 36 31 37 32 38 33 39 83 40 34 41 88 42 82 43 84 44 35 45
REMARK SMILES IDX 87 46 81 47 80 48 36 50 68 51 48 52 67 53 49 54 52 55 66 56
REMARK SMILES IDX 85 57 50 58 51 59 65 61 86 62 53 63 37 64 38 65 46 66 39 67
REMARK SMILES IDX 40 68 44 69 47 70 41 71 42 72 45 73 43 74 69 75 70 76 78 77
REMARK SMILES IDX 71 78 72 79 76 80 79 81 73 82 74 83 77 84 75 85 54 86 55 87
REMARK SMILES IDX 63 88 56 89 57 90 61 91 64 92 58 93 59 94 62 95 60 96
REMARK H PARENT 20 5 12 14 25 30 84 49 52 60
REMARK Flexibility Score: inf
ROOT
ATOM      1  C   UNL A   1      36.548  21.613  25.414  1.00  0.00     0.116 C 
ENDROOT
BRANCH   1   2
ATOM      2  N   UNL A   1      35.699  21.870  26.556  1.00  0.00    -0.352 N 
ATOM      3  C   UNL A   1      34.424  22.392  26.611  1.00  0.00     0.254 C 
ATOM      4  O   UNL A   1      34.066  22.841  27.692  1.00  0.00    -0.269 OA
ATOM      5  H   UNL A   1      36.091  21.634  27.428  1.00  0.00     0.163 HD
BRANCH   3   6
ATOM      6  C   UNL A   1      33.582  22.537  25.418  1.00  0.00     0.074 A 
ATOM      7  C   UNL A   1      32.211  22.463  25.246  1.00  0.00     0.108 A 
ATOM      8  S   UNL A   1      31.766  22.300  23.597  1.00  0.00    -0.126 S 
ATOM      9  C   UNL A   1      33.334  22.692  23.067  1.00  0.00     0.068 A 
ATOM     10  C   UNL A   1      34.201  22.798  24.129  1.00  0.00     0.028 A 
BRANCH   7  11
ATOM     11  N   UNL A   1      31.092  22.377  26.035  1.00  0.00    -0.314 N 
ATOM     12  C   UNL A   1      30.417  23.326  26.744  1.00  0.00     0.262 C 
ATOM     13  O   UNL A   1      29.642  22.927  27.624  1.00  0.00    -0.271 OA
ATOM     14  H   UNL A   1      30.709  21.472  26.099  1.00  0.00     0.170 HD
BRANCH  12  15
ATOM     15  C   UNL A   1      30.401  24.805  26.340  1.00  0.00     0.329 C 
BRANCH  15  16
ATOM     16  O   UNL A   1      31.429  25.676  26.722  1.00  0.00    -0.482 OA
BRANCH  16  17
ATOM     17  C   UNL A   1      32.031  26.499  25.810  1.00  0.00     0.138 A 
ATOM     18  C   UNL A   1      33.653  26.650  22.343  1.00  0.00     0.044 C 
ATOM     19  C   UNL A   1      33.038  27.044  23.655  1.00  0.00    -0.047 A 
ATOM     20  C   UNL A   1      32.878  28.406  23.927  1.00  0.00     0.005 A 
ATOM     21  C   UNL A   1      32.597  26.090  24.596  1.00  0.00     0.051 A 
ATOM     22  C   UNL A   1      32.359  28.821  25.149  1.00  0.00     0.025 A 
ATOM     23  C   UNL A   1      31.964  27.874  26.093  1.00  0.00     0.083 A 
ATOM     24  Cl  UNL A   1      31.402  28.447  27.629  1.00  0.00    -0.080 Cl
ENDBRANCH  16  17
ENDBRANCH  15  16
ENDBRANCH  12  15
ENDBRANCH   7  11
ENDBRANCH   3   6
ENDBRANCH   1   2
BRANCH   1  25
ATOM     25  C   UNL A   1      36.606  20.138  25.001  1.00  0.00     0.023 C 
BRANCH  25  26
ATOM     26  C   UNL A   1      38.007  19.581  24.704  1.00  0.00     0.023 C 
BRANCH  26  27
ATOM     27  C   UNL A   1      39.088  19.868  25.750  1.00  0.00     0.116 C 
BRANCH  27  28
ATOM     28  N   UNL A   1      40.196  18.932  25.751  1.00  0.00    -0.352 N 
ATOM     29  C   UNL A   1      41.527  19.109  26.048  1.00  0.00     0.251 C 
ATOM     30  H   UNL A   1      39.953  18.013  25.495  1.00  0.00     0.163 HD
ATOM     31  O   UNL A   1      42.294  18.152  25.956  1.00  0.00    -0.269 OA
BRANCH  29  32
ATOM     32  C   UNL A   1      42.090  20.434  26.415  1.00  0.00     0.039 A 
ATOM     33  C   UNL A   1      42.598  21.230  25.382  1.00  0.00     0.014 A 
ATOM     34  C   UNL A   1      42.200  20.885  27.734  1.00  0.00     0.014 A 
ATOM     35  C   UNL A   1      43.121  22.499  25.653  1.00  0.00     0.010 A 
ATOM     36  C   UNL A   1      42.678  22.180  28.001  1.00  0.00     0.010 A 
ATOM     37  C   UNL A   1      43.122  23.012  26.960  1.00  0.00    -0.014 A 
BRANCH  37  38
ATOM     38  C   UNL A   1      43.506  24.432  27.213  1.00  0.00     0.031 A 
ATOM     39  C   UNL A   1      42.514  25.445  27.720  1.00  0.00     0.074 A 
ATOM     40  C   UNL A   1      44.771  24.826  26.954  1.00  0.00     0.049 A 
ATOM     41  N   UNL A   1      42.692  26.721  27.968  1.00  0.00    -0.248 NA
ATOM     42  C   UNL A   1      41.146  24.973  27.974  1.00  0.00     0.031 C 
ATOM     43  C   UNL A   1      45.833  23.963  26.436  1.00  0.00     0.029 A 
ATOM     44  N   UNL A   1      45.378  26.054  27.083  1.00  0.00    -0.354 N 
ATOM     45  C   UNL A   1      41.464  27.205  28.397  1.00  0.00     0.074 A 
ATOM     46  C   UNL A   1      40.538  26.092  28.352  1.00  0.00     0.031 C 
ATOM     47  C   UNL A   1      46.959  24.681  26.303  1.00  0.00     0.029 A 
ATOM     48  C   UNL A   1      46.693  26.065  26.686  1.00  0.00     0.049 A 
ATOM     49  H   UNL A   1      44.913  26.851  27.428  1.00  0.00     0.167 HD
ATOM     50  C   UNL A   1      41.141  28.458  28.803  1.00  0.00     0.037 A 
ATOM     51  C   UNL A   1      47.585  27.074  26.613  1.00  0.00     0.037 A 
ATOM     52  C   UNL A   1      42.062  29.563  28.888  1.00  0.00     0.049 A 
ATOM     53  C   UNL A   1      47.181  28.461  27.033  1.00  0.00     0.074 A 
ATOM     54  C   UNL A   1      41.836  30.833  29.395  1.00  0.00     0.029 A 
ATOM     55  N   UNL A   1      43.374  29.541  28.445  1.00  0.00    -0.354 N 
ATOM     56  N   UNL A   1      46.041  28.878  27.524  1.00  0.00    -0.248 NA
ATOM     57  C   UNL A   1      48.190  29.522  26.882  1.00  0.00     0.031 C 
ATOM     58  C   UNL A   1      42.994  31.596  29.206  1.00  0.00     0.029 A 
ATOM     59  C   UNL A   1      43.953  30.788  28.623  1.00  0.00     0.049 A 
ATOM     60  H   UNL A   1      43.827  28.755  28.062  1.00  0.00     0.167 HD
ATOM     61  C   UNL A   1      46.200  30.238  27.754  1.00  0.00     0.074 A 
ATOM     62  C   UNL A   1      47.553  30.576  27.372  1.00  0.00     0.031 C 
ATOM     63  C   UNL A   1      45.298  31.126  28.236  1.00  0.00     0.037 A 
BRANCH  50  64
ATOM     64  C   UNL A   1      39.720  28.730  29.201  1.00  0.00     0.064 A 
ATOM     65  C   UNL A   1      39.281  28.550  30.521  1.00  0.00     0.173 A 
ATOM     66  C   UNL A   1      38.825  29.295  28.280  1.00  0.00     0.173 A 
ATOM     67  F   UNL A   1      40.101  28.016  31.438  1.00  0.00    -0.203 F 
ATOM     68  C   UNL A   1      37.994  28.920  30.901  1.00  0.00     0.198 A 
ATOM     69  C   UNL A   1      37.546  29.683  28.669  1.00  0.00     0.198 A 
ATOM     70  F   UNL A   1      39.203  29.500  27.009  1.00  0.00    -0.203 F 
ATOM     71  F   UNL A   1      37.589  28.728  32.165  1.00  0.00    -0.200 F 
ATOM     72  C   UNL A   1      37.131  29.495  29.979  1.00  0.00     0.200 A 
ATOM     73  F   UNL A   1      36.720  30.253  27.781  1.00  0.00    -0.200 F 
ATOM     74  F   UNL A   1      35.901  29.872  30.353  1.00  0.00    -0.200 F 
ENDBRANCH  50  64
BRANCH  51  75
ATOM     75  C   UNL A   1      48.954  26.823  26.091  1.00  0.00     0.064 A 
ATOM     76  C   UNL A   1      49.260  27.015  24.736  1.00  0.00     0.173 A 
ATOM     77  C   UNL A   1      49.972  26.343  26.928  1.00  0.00     0.173 A 
ATOM     78  F   UNL A   1      48.312  27.445  23.890  1.00  0.00    -0.203 F 
ATOM     79  C   UNL A   1      50.524  26.712  24.234  1.00  0.00     0.198 A 
ATOM     80  C   UNL A   1      51.243  26.070  26.431  1.00  0.00     0.198 A 
ATOM     81  F   UNL A   1      49.730  26.142  28.232  1.00  0.00    -0.203 F 
ATOM     82  F   UNL A   1      50.773  26.850  22.925  1.00  0.00    -0.200 F 
ATOM     83  C   UNL A   1      51.516  26.244  25.083  1.00  0.00     0.200 A 
ATOM     84  F   UNL A   1      52.201  25.628  27.258  1.00  0.00    -0.200 F 
ATOM     85  F   UNL A   1      52.730  25.948  24.599  1.00  0.00    -0.200 F 
ENDBRANCH  51  75
BRANCH  63  86
ATOM     86  C   UNL A   1      45.741  32.552  28.382  1.00  0.00     0.064 A 
ATOM     87  C   UNL A   1      45.490  33.500  27.379  1.00  0.00     0.173 A 
ATOM     88  C   UNL A   1      46.385  32.987  29.551  1.00  0.00     0.173 A 
ATOM     89  F   UNL A   1      44.893  33.131  26.236  1.00  0.00    -0.203 F 
ATOM     90  C   UNL A   1      45.883  34.828  27.533  1.00  0.00     0.198 A 
ATOM     91  C   UNL A   1      46.754  34.320  29.712  1.00  0.00     0.198 A 
ATOM     92  F   UNL A   1      46.646  32.121  30.541  1.00  0.00    -0.203 F 
ATOM     93  F   UNL A   1      45.669  35.707  26.545  1.00  0.00    -0.200 F 
ATOM     94  C   UNL A   1      46.507  35.238  28.701  1.00  0.00     0.200 A 
ATOM     95  F   UNL A   1      47.347  34.718  30.845  1.00  0.00    -0.200 F 
ATOM     96  F   UNL A   1      46.878  36.517  28.851  1.00  0.00    -0.200 F 
ENDBRANCH  63  86
ENDBRANCH  37  38
ENDBRANCH  29  32
ENDBRANCH  27  28
ENDBRANCH  26  27
ENDBRANCH  25  26
ENDBRANCH   1  25
TORSDOF 15
ENDMDL
MODEL 2
REMARK VINA RESULT:     -12.4      5.745     11.159
REMARK SMILES Cc1ccc(Cl)c(OCC(=O)Nc2sccc2C(=O)NCCCCNC(=O)c2ccc(-c3c4nc(c(-c5c(F)c(F)c(F)c(F)c5F)c5ccc([nH]5)c(-c5c(F)c(F)c(F)c(F)c5F)c5nc(c(-c6c(F)c(F)c(F)c(F)c6F)c6ccc3[nH]6)C=C5)C=C4)cc2)c1
REMARK SMILES IDX 21 1 20 2 18 3 19 4 17 6 13 7 14 8 15 9 16 10 12 11 10 12
REMARK SMILES IDX 11 13 9 15 8 16 7 17 1 18 2 19 3 20 91 21 4 22 5 23 6 24
REMARK SMILES IDX 22 25 23 26 24 27 25 28 26 29 27 31 28 32 29 33 90 34 30 35
REMARK SMILES IDX 89 36 31 37 32 38 33 39 83 40 34 41 88 42 82 43 84 44 35 45
REMARK SMILES IDX 87 46 81 47 80 48 36 50 68 51 48 52 67 53 49 54 52 55 66 56
REMARK SMILES IDX 85 57 50 58 51 59 65 61 86 62 53 63 37 64 38 65 46 66 39 67
REMARK SMILES IDX 40 68 44 69 47 70 41 71 42 72 45 73 43 74 69 75 70 76 78 77
REMARK SMILES IDX 71 78 72 79 76 80 79 81 73 82 74 83 77 84 75 85 54 86 55 87
REMARK SMILES IDX 63 88 56 89 57 90 61 91 64 92 58 93 59 94 62 95 60 96
REMARK H PARENT 20 5 12 14 25 30 84 49 52 60
REMARK Flexibility Score: inf
ROOT
ATOM      1  C   UNL A   1      31.920  29.481  26.797  1.00  0.00     0.116 C 
ENDROOT
BRANCH   1   2
ATOM      2  N   UNL A   1      33.088  28.705  26.446  1.00  0.00    -0.352 N 
ATOM      3  C   UNL A   1      33.183  27.420  25.956  1.00  0.00     0.254 C 
ATOM      4  O   UNL A   1      34.270  26.869  26.079  1.00  0.00    -0.269 OA
ATOM      5  H   UNL A   1      33.949  29.167  26.576  1.00  0.00     0.163 HD
BRANCH   3   6
ATOM      6  C   UNL A   1      32.021  26.688  25.440  1.00  0.00     0.074 A 
ATOM      7  C   UNL A   1      31.625  26.382  24.150  1.00  0.00     0.108 A 
ATOM      8  S   UNL A   1      29.991  25.867  24.071  1.00  0.00    -0.126 S 
ATOM      9  C   UNL A   1      29.897  25.689  25.759  1.00  0.00     0.068 A 
ATOM     10  C   UNL A   1      31.038  26.153  26.368  1.00  0.00     0.028 A 
BRANCH   7  11
ATOM     11  N   UNL A   1      32.141  26.473  22.881  1.00  0.00    -0.314 N 
ATOM     12  C   UNL A   1      33.210  25.859  22.301  1.00  0.00     0.262 C 
ATOM     13  O   UNL A   1      33.649  26.359  21.256  1.00  0.00    -0.271 OA
ATOM     14  H   UNL A   1      31.652  27.087  22.288  1.00  0.00     0.170 HD
BRANCH  12  15
ATOM     15  C   UNL A   1      33.716  24.481  22.746  1.00  0.00     0.329 C 
BRANCH  15  16
ATOM     16  O   UNL A   1      34.778  24.352  23.649  1.00  0.00    -0.482 OA
BRANCH  16  17
ATOM     17  C   UNL A   1      34.691  23.511  24.725  1.00  0.00     0.138 A 
ATOM     18  C   UNL A   1      32.587  22.575  27.786  1.00  0.00     0.044 C 
ATOM     19  C   UNL A   1      33.618  22.550  26.694  1.00  0.00    -0.047 A 
ATOM     20  C   UNL A   1      34.486  21.456  26.631  1.00  0.00     0.005 A 
ATOM     21  C   UNL A   1      33.714  23.571  25.726  1.00  0.00     0.051 A 
ATOM     22  C   UNL A   1      35.489  21.412  25.667  1.00  0.00     0.025 A 
ATOM     23  C   UNL A   1      35.607  22.444  24.738  1.00  0.00     0.083 A 
ATOM     24  Cl  UNL A   1      36.923  22.378  23.615  1.00  0.00    -0.080 Cl
ENDBRANCH  16  17
ENDBRANCH  15  16
ENDBRANCH  12  15
ENDBRANCH   7  11
ENDBRANCH   3   6
ENDBRANCH   1   2
BRANCH   1  25
ATOM     25  C   UNL A   1      31.634  30.643  25.840  1.00  0.00     0.023 C 
BRANCH  25  26
ATOM     26  C   UNL A   1      31.372  32.006  26.502  1.00  0.00     0.023 C 
BRANCH  26  27
ATOM     27  C   UNL A   1      32.558  32.649  27.226  1.00  0.00     0.116 C 
BRANCH  27  28
ATOM     28  N   UNL A   1      32.339  34.017  27.654  1.00  0.00    -0.352 N 
ATOM     29  C   UNL A   1      33.044  34.814  28.526  1.00  0.00     0.251 C 
ATOM     30  H   UNL A   1      31.551  34.448  27.252  1.00  0.00     0.163 HD
ATOM     31  O   UNL A   1      32.645  35.955  28.749  1.00  0.00    -0.269 OA
BRANCH  29  32
ATOM     32  C   UNL A   1      34.239  34.325  29.261  1.00  0.00     0.039 A 
ATOM     33  C   UNL A   1      34.023  33.623  30.453  1.00  0.00     0.014 A 
ATOM     34  C   UNL A   1      35.552  34.592  28.861  1.00  0.00     0.014 A 
ATOM     35  C   UNL A   1      35.101  33.113  31.184  1.00  0.00     0.010 A 
ATOM     36  C   UNL A   1      36.633  34.037  29.567  1.00  0.00     0.010 A 
ATOM     37  C   UNL A   1      36.419  33.270  30.724  1.00  0.00    -0.014 A 
BRANCH  37  38
ATOM     38  C   UNL A   1      37.544  32.565  31.406  1.00  0.00     0.031 A 
ATOM     39  C   UNL A   1      38.238  31.384  30.780  1.00  0.00     0.074 A 
ATOM     40  C   UNL A   1      37.933  32.980  32.630  1.00  0.00     0.049 A 
ATOM     41  N   UNL A   1      39.218  30.655  31.259  1.00  0.00    -0.248 NA
ATOM     42  C   UNL A   1      37.771  30.960  29.453  1.00  0.00     0.031 C 
ATOM     43  C   UNL A   1      37.337  34.092  33.372  1.00  0.00     0.029 A 
ATOM     44  N   UNL A   1      38.915  32.512  33.472  1.00  0.00    -0.354 N 
ATOM     45  C   UNL A   1      39.479  29.684  30.301  1.00  0.00     0.074 A 
ATOM     46  C   UNL A   1      38.537  29.900  29.222  1.00  0.00     0.031 C 
ATOM     47  C   UNL A   1      37.971  34.229  34.547  1.00  0.00     0.029 A 
ATOM     48  C   UNL A   1      38.990  33.190  34.665  1.00  0.00     0.049 A 
ATOM     49  H   UNL A   1      39.510  31.762  33.242  1.00  0.00     0.167 HD
ATOM     50  C   UNL A   1      40.424  28.712  30.314  1.00  0.00     0.037 A 
ATOM     51  C   UNL A   1      39.772  32.992  35.746  1.00  0.00     0.037 A 
ATOM     52  C   UNL A   1      41.391  28.513  31.364  1.00  0.00     0.049 A 
ATOM     53  C   UNL A   1      40.783  31.877  35.743  1.00  0.00     0.074 A 
ATOM     54  C   UNL A   1      42.450  27.620  31.399  1.00  0.00     0.029 A 
ATOM     55  N   UNL A   1      41.410  29.198  32.568  1.00  0.00    -0.354 N 
ATOM     56  N   UNL A   1      41.077  31.029  34.790  1.00  0.00    -0.248 NA
ATOM     57  C   UNL A   1      41.569  31.689  36.974  1.00  0.00     0.031 C 
ATOM     58  C   UNL A   1      43.076  27.726  32.646  1.00  0.00     0.029 A 
ATOM     59  C   UNL A   1      42.433  28.715  33.369  1.00  0.00     0.049 A 
ATOM     60  H   UNL A   1      40.791  29.922  32.816  1.00  0.00     0.167 HD
ATOM     61  C   UNL A   1      42.087  30.221  35.296  1.00  0.00     0.074 A 
ATOM     62  C   UNL A   1      42.374  30.692  36.633  1.00  0.00     0.031 C 
ATOM     63  C   UNL A   1      42.715  29.179  34.703  1.00  0.00     0.037 A 
BRANCH  50  64
ATOM     64  C   UNL A   1      40.484  27.765  29.152  1.00  0.00     0.064 A 
ATOM     65  C   UNL A   1      39.673  26.622  29.095  1.00  0.00     0.173 A 
ATOM     66  C   UNL A   1      41.270  28.072  28.031  1.00  0.00     0.173 A 
ATOM     67  F   UNL A   1      38.903  26.289  30.142  1.00  0.00    -0.203 F 
ATOM     68  C   UNL A   1      39.653  25.818  27.959  1.00  0.00     0.198 A 
ATOM     69  C   UNL A   1      41.231  27.277  26.889  1.00  0.00     0.198 A 
ATOM     70  F   UNL A   1      42.052  29.163  28.032  1.00  0.00    -0.203 F 
ATOM     71  F   UNL A   1      38.880  24.723  27.930  1.00  0.00    -0.200 F 
ATOM     72  C   UNL A   1      40.422  26.151  26.854  1.00  0.00     0.200 A 
ATOM     73  F   UNL A   1      41.962  27.610  25.816  1.00  0.00    -0.200 F 
ATOM     74  F   UNL A   1      40.383  25.388  25.753  1.00  0.00    -0.200 F 
ENDBRANCH  50  64
BRANCH  51  75
ATOM     75  C   UNL A   1      39.615  33.852  36.948  1.00  0.00     0.064 A 
ATOM     76  C   UNL A   1      38.809  33.454  38.024  1.00  0.00     0.173 A 
ATOM     77  C   UNL A   1      40.233  35.108  37.025  1.00  0.00     0.173 A 
ATOM     78  F   UNL A   1      38.174  32.273  37.984  1.00  0.00    -0.203 F 
ATOM     79  C   UNL A   1      38.606  34.292  39.119  1.00  0.00     0.198 A 
ATOM     80  C   UNL A   1      40.054  35.932  38.133  1.00  0.00     0.198 A 
ATOM     81  F   UNL A   1      41.013  35.536  36.021  1.00  0.00    -0.203 F 
ATOM     82  F   UNL A   1      37.786  33.911  40.107  1.00  0.00    -0.200 F 
ATOM     83  C   UNL A   1      39.232  35.527  39.175  1.00  0.00     0.200 A 
ATOM     84  F   UNL A   1      40.670  37.121  38.187  1.00  0.00    -0.200 F 
ATOM     85  F   UNL A   1      39.034  36.335  40.225  1.00  0.00    -0.200 F 
ENDBRANCH  51  75
BRANCH  63  86
ATOM     86  C   UNL A   1      43.779  28.472  35.490  1.00  0.00     0.064 A 
ATOM     87  C   UNL A   1      45.132  28.817  35.360  1.00  0.00     0.173 A 
ATOM     88  C   UNL A   1      43.442  27.469  36.412  1.00  0.00     0.173 A 
ATOM     89  F   UNL A   1      45.507  29.756  34.479  1.00  0.00    -0.203 F 
ATOM     90  C   UNL A   1      46.111  28.172  36.112  1.00  0.00     0.198 A 
ATOM     91  C   UNL A   1      44.421  26.845  37.181  1.00  0.00     0.198 A 
ATOM     92  F   UNL A   1      42.162  27.105  36.576  1.00  0.00    -0.203 F 
ATOM     93  F   UNL A   1      47.402  28.490  35.942  1.00  0.00    -0.200 F 
ATOM     94  C   UNL A   1      45.755  27.193  37.027  1.00  0.00     0.200 A 
ATOM     95  F   UNL A   1      44.074  25.907  38.073  1.00  0.00    -0.200 F 
ATOM     96  F   UNL A   1      46.698  26.579  37.756  1.00  0.00    -0.200 F 
ENDBRANCH  63  86
ENDBRANCH  37  38
ENDBRANCH  29  32
ENDBRANCH  27  28
ENDBRANCH  26  27
ENDBRANCH  25  26
ENDBRANCH   1  25
TORSDOF 15
ENDMDL
MODEL 3
REMARK VINA RESULT:     -12.4      1.507      2.543
REMARK SMILES Cc1ccc(Cl)c(OCC(=O)Nc2sccc2C(=O)NCCCCNC(=O)c2ccc(-c3c4nc(c(-c5c(F)c(F)c(F)c(F)c5F)c5ccc([nH]5)c(-c5c(F)c(F)c(F)c(F)c5F)c5nc(c(-c6c(F)c(F)c(F)c(F)c6F)c6ccc3[nH]6)C=C5)C=C4)cc2)c1
REMARK SMILES IDX 21 1 20 2 18 3 19 4 17 6 13 7 14 8 15 9 16 10 12 11 10 12
REMARK SMILES IDX 11 13 9 15 8 16 7 17 1 18 2 19 3 20 91 21 4 22 5 23 6 24
REMARK SMILES IDX 22 25 23 26 24 27 25 28 26 29 27 31 28 32 29 33 90 34 30 35
REMARK SMILES IDX 89 36 31 37 32 38 33 39 83 40 34 41 88 42 82 43 84 44 35 45
REMARK SMILES IDX 87 46 81 47 80 48 36 50 68 51 48 52 67 53 49 54 52 55 66 56
REMARK SMILES IDX 85 57 50 58 51 59 65 61 86 62 53 63 37 64 38 65 46 66 39 67
REMARK SMILES IDX 40 68 44 69 47 70 41 71 42 72 45 73 43 74 69 75 70 76 78 77
REMARK SMILES IDX 71 78 72 79 76 80 79 81 73 82 74 83 77 84 75 85 54 86 55 87
REMARK SMILES IDX 63 88 56 89 57 90 61 91 64 92 58 93 59 94 62 95 60 96
REMARK H PARENT 20 5 12 14 25 30 84 49 52 60
REMARK Flexibility Score: inf
ROOT
ATOM      1  C   UNL A   1      37.552  23.025  25.938  1.00  0.00     0.116 C 
ENDROOT
BRANCH   1   2
ATOM      2  N   UNL A   1      37.415  23.338  24.533  1.00  0.00    -0.352 N 
ATOM      3  C   UNL A   1      36.452  22.942  23.629  1.00  0.00     0.254 C 
ATOM      4  O   UNL A   1      36.746  23.037  22.443  1.00  0.00    -0.269 OA
ATOM      5  H   UNL A   1      38.115  23.924  24.166  1.00  0.00     0.163 HD
BRANCH   3   6
ATOM      6  C   UNL A   1      35.195  22.309  24.045  1.00  0.00     0.074 A 
ATOM      7  C   UNL A   1      33.875  22.628  23.783  1.00  0.00     0.108 A 
ATOM      8  S   UNL A   1      32.785  21.819  24.833  1.00  0.00    -0.126 S 
ATOM      9  C   UNL A   1      34.001  20.771  25.394  1.00  0.00     0.068 A 
ATOM     10  C   UNL A   1      35.231  21.132  24.898  1.00  0.00     0.028 A 
BRANCH   7  11
ATOM     11  N   UNL A   1      33.180  23.498  22.980  1.00  0.00    -0.314 N 
ATOM     12  C   UNL A   1      32.914  24.827  23.115  1.00  0.00     0.262 C 
ATOM     13  O   UNL A   1      31.999  25.293  22.421  1.00  0.00    -0.271 OA
ATOM     14  H   UNL A   1      32.812  23.089  22.163  1.00  0.00     0.170 HD
BRANCH  12  15
ATOM     15  C   UNL A   1      33.834  25.781  23.886  1.00  0.00     0.329 C 
BRANCH  15  16
ATOM     16  O   UNL A   1      33.880  25.778  25.285  1.00  0.00    -0.482 OA
BRANCH  16  17
ATOM     17  C   UNL A   1      33.347  26.808  26.011  1.00  0.00     0.138 A 
ATOM     18  C   UNL A   1      33.845  30.453  27.079  1.00  0.00     0.044 C 
ATOM     19  C   UNL A   1      33.237  29.101  26.837  1.00  0.00    -0.047 A 
ATOM     20  C   UNL A   1      31.907  28.898  27.219  1.00  0.00     0.005 A 
ATOM     21  C   UNL A   1      33.950  28.055  26.217  1.00  0.00     0.051 A 
ATOM     22  C   UNL A   1      31.316  27.648  27.060  1.00  0.00     0.025 A 
ATOM     23  C   UNL A   1      32.039  26.605  26.485  1.00  0.00     0.083 A 
ATOM     24  Cl  UNL A   1      31.281  25.051  26.388  1.00  0.00    -0.080 Cl
ENDBRANCH  16  17
ENDBRANCH  15  16
ENDBRANCH  12  15
ENDBRANCH   7  11
ENDBRANCH   3   6
ENDBRANCH   1   2
BRANCH   1  25
ATOM     25  C   UNL A   1      38.928  22.471  26.321  1.00  0.00     0.023 C 
BRANCH  25  26
ATOM     26  C   UNL A   1      39.433  21.289  25.478  1.00  0.00     0.023 C 
BRANCH  26  27
ATOM     27  C   UNL A   1      39.290  19.898  26.103  1.00  0.00     0.116 C 
BRANCH  27  28
ATOM     28  N   UNL A   1      40.422  19.017  25.888  1.00  0.00    -0.352 N 
ATOM     29  C   UNL A   1      41.769  19.216  26.074  1.00  0.00     0.251 C 
ATOM     30  H   UNL A   1      40.183  18.123  25.550  1.00  0.00     0.163 HD
ATOM     31  O   UNL A   1      42.553  18.310  25.797  1.00  0.00    -0.269 OA
BRANCH  29  32
ATOM     32  C   UNL A   1      42.324  20.515  26.538  1.00  0.00     0.039 A 
ATOM     33  C   UNL A   1      43.022  21.291  25.605  1.00  0.00     0.014 A 
ATOM     34  C   UNL A   1      42.245  20.956  27.863  1.00  0.00     0.014 A 
ATOM     35  C   UNL A   1      43.550  22.535  25.968  1.00  0.00     0.010 A 
ATOM     36  C   UNL A   1      42.730  22.228  28.214  1.00  0.00     0.010 A 
ATOM     37  C   UNL A   1      43.367  23.043  27.264  1.00  0.00    -0.014 A 
BRANCH  37  38
ATOM     38  C   UNL A   1      43.767  24.444  27.588  1.00  0.00     0.031 A 
ATOM     39  C   UNL A   1      42.751  25.502  27.928  1.00  0.00     0.074 A 
ATOM     40  C   UNL A   1      45.074  24.779  27.548  1.00  0.00     0.049 A 
ATOM     41  N   UNL A   1      42.943  26.768  28.212  1.00  0.00    -0.248 NA
ATOM     42  C   UNL A   1      41.340  25.093  27.945  1.00  0.00     0.031 C 
ATOM     43  C   UNL A   1      46.168  23.868  27.210  1.00  0.00     0.029 A 
ATOM     44  N   UNL A   1      45.706  25.978  27.787  1.00  0.00    -0.354 N 
ATOM     45  C   UNL A   1      41.683  27.309  28.432  1.00  0.00     0.074 A 
ATOM     46  C   UNL A   1      40.729  26.239  28.224  1.00  0.00     0.031 C 
ATOM     47  C   UNL A   1      47.332  24.533  27.274  1.00  0.00     0.029 A 
ATOM     48  C   UNL A   1      47.068  25.929  27.616  1.00  0.00     0.049 A 
ATOM     49  H   UNL A   1      45.227  26.795  28.055  1.00  0.00     0.167 HD
ATOM     50  C   UNL A   1      41.353  28.575  28.788  1.00  0.00     0.037 A 
ATOM     51  C   UNL A   1      48.005  26.895  27.701  1.00  0.00     0.037 A 
ATOM     52  C   UNL A   1      42.296  29.636  29.034  1.00  0.00     0.049 A 
ATOM     53  C   UNL A   1      47.599  28.300  28.058  1.00  0.00     0.074 A 
ATOM     54  C   UNL A   1      42.047  30.916  29.505  1.00  0.00     0.029 A 
ATOM     55  N   UNL A   1      43.662  29.554  28.818  1.00  0.00    -0.354 N 
ATOM     56  N   UNL A   1      46.413  28.769  28.353  1.00  0.00    -0.248 NA
ATOM     57  C   UNL A   1      48.667  29.313  28.086  1.00  0.00     0.031 C 
ATOM     58  C   UNL A   1      43.252  31.625  29.519  1.00  0.00     0.029 A 
ATOM     59  C   UNL A   1      44.259  30.773  29.099  1.00  0.00     0.049 A 
ATOM     60  H   UNL A   1      44.137  28.748  28.511  1.00  0.00     0.167 HD
ATOM     61  C   UNL A   1      46.592  30.120  28.617  1.00  0.00     0.074 A 
ATOM     62  C   UNL A   1      48.004  30.395  28.470  1.00  0.00     0.031 C 
ATOM     63  C   UNL A   1      45.663  31.049  28.947  1.00  0.00     0.037 A 
BRANCH  50  64
ATOM     64  C   UNL A   1      39.900  28.913  28.943  1.00  0.00     0.064 A 
ATOM     65  C   UNL A   1      39.110  29.276  27.842  1.00  0.00     0.173 A 
ATOM     66  C   UNL A   1      39.266  28.751  30.184  1.00  0.00     0.173 A 
ATOM     67  F   UNL A   1      39.670  29.440  26.635  1.00  0.00    -0.203 F 
ATOM     68  C   UNL A   1      37.739  29.470  27.982  1.00  0.00     0.198 A 
ATOM     69  C   UNL A   1      37.891  28.926  30.315  1.00  0.00     0.198 A 
ATOM     70  F   UNL A   1      39.977  28.391  31.264  1.00  0.00    -0.203 F 
ATOM     71  F   UNL A   1      37.003  29.828  26.919  1.00  0.00    -0.200 F 
ATOM     72  C   UNL A   1      37.128  29.285  29.214  1.00  0.00     0.200 A 
ATOM     73  F   UNL A   1      37.302  28.731  31.503  1.00  0.00    -0.200 F 
ATOM     74  F   UNL A   1      35.805  29.450  29.341  1.00  0.00    -0.200 F 
ENDBRANCH  50  64
BRANCH  51  75
ATOM     75  C   UNL A   1      49.429  26.581  27.415  1.00  0.00     0.064 A 
ATOM     76  C   UNL A   1      50.350  26.382  28.452  1.00  0.00     0.173 A 
ATOM     77  C   UNL A   1      49.906  26.517  26.097  1.00  0.00     0.173 A 
ATOM     78  F   UNL A   1      49.948  26.461  29.729  1.00  0.00    -0.203 F 
ATOM     79  C   UNL A   1      51.699  26.158  28.183  1.00  0.00     0.198 A 
ATOM     80  C   UNL A   1      51.248  26.263  25.829  1.00  0.00     0.198 A 
ATOM     81  F   UNL A   1      49.064  26.702  25.069  1.00  0.00    -0.203 F 
ATOM     82  F   UNL A   1      52.569  26.028  29.194  1.00  0.00    -0.200 F 
ATOM     83  C   UNL A   1      52.146  26.094  26.872  1.00  0.00     0.200 A 
ATOM     84  F   UNL A   1      51.673  26.191  24.560  1.00  0.00    -0.200 F 
ATOM     85  F   UNL A   1      53.443  25.883  26.614  1.00  0.00    -0.200 F 
ENDBRANCH  51  75
BRANCH  63  86
ATOM     86  C   UNL A   1      46.139  32.453  29.176  1.00  0.00     0.064 A 
ATOM     87  C   UNL A   1      46.163  33.394  28.136  1.00  0.00     0.173 A 
ATOM     88  C   UNL A   1      46.538  32.877  30.453  1.00  0.00     0.173 A 
ATOM     89  F   UNL A   1      45.809  33.034  26.893  1.00  0.00    -0.203 F 
ATOM     90  C   UNL A   1      46.584  34.703  28.362  1.00  0.00     0.198 A 
ATOM     91  C   UNL A   1      46.933  34.192  30.682  1.00  0.00     0.198 A 
ATOM     92  F   UNL A   1      46.531  32.017  31.482  1.00  0.00    -0.203 F 
ATOM     93  F   UNL A   1      46.636  35.573  27.345  1.00  0.00    -0.200 F 
ATOM     94  C   UNL A   1      46.961  35.102  29.635  1.00  0.00     0.200 A 
ATOM     95  F   UNL A   1      47.287  34.580  31.914  1.00  0.00    -0.200 F 
ATOM     96  F   UNL A   1      47.358  36.364  29.853  1.00  0.00    -0.200 F 
ENDBRANCH  63  86
ENDBRANCH  37  38
ENDBRANCH  29  32
ENDBRANCH  27  28
ENDBRANCH  26  27
ENDBRANCH  25  26
ENDBRANCH   1  25
TORSDOF 15
ENDMDL
