MODEL 1
REMARK VINA RESULT:     -12.8      0.000      0.000
REMARK SMILES O=C(NCCCCNC(=O)[C@@H]1CCC(=O)N(CCCOC2CCCCC2)[C@H]1c1ccco1)c1ccc(-c2c3nc(c(-c4c(F)c(F)c(F)c(F)c4F)c4ccc([nH]4)c(-c4c(F)c(F)c(F)c(F)c4F)c4nc(c(-c5c(F)c(F)c(F)c(F)c5F)c5ccc2[nH]5)C=C4)C=C3)cc1
REMARK SMILES IDX 7 1 6 2 5 3 4 4 3 5 1 6 2 7 33 9 34 10 95 11 35 12 94 13
REMARK SMILES IDX 36 14 37 15 38 16 88 17 39 18 93 19 87 20 89 21 40 22 92 23
REMARK SMILES IDX 86 24 85 25 41 27 73 28 53 29 72 30 54 31 57 32 71 33 90 34
REMARK SMILES IDX 55 35 56 36 70 38 91 39 58 40 42 41 43 42 51 43 44 44 45 45
REMARK SMILES IDX 49 46 52 47 46 48 47 49 50 50 48 51 74 52 75 53 83 54 76 55
REMARK SMILES IDX 77 56 81 57 84 58 78 59 79 60 82 61 80 62 59 63 60 64 68 65
REMARK SMILES IDX 61 66 62 67 66 68 69 69 63 70 64 71 67 72 65 73 8 74 9 75
REMARK SMILES IDX 10 77 11 78 12 79 27 80 13 81 16 82 14 83 15 84 28 85 29 86
REMARK SMILES IDX 32 87 30 88 31 89 17 90 18 91 19 92 20 93 21 94 22 95 26 96
REMARK SMILES IDX 23 97 25 98 24 99
REMARK H PARENT 3 8 89 26 57 37 8 76
REMARK Flexibility Score: inf
ROOT
ATOM      1  C   UNL A   1      37.728  21.970  25.383  1.00  0.00     0.116 C 
ENDROOT
BRANCH   1   2
ATOM      2  C   UNL A   1      37.311  20.550  25.019  1.00  0.00     0.023 C 
BRANCH   2   3
ATOM      3  C   UNL A   1      38.467  19.553  25.010  1.00  0.00     0.023 C 
BRANCH   3   4
ATOM      4  C   UNL A   1      39.603  19.902  25.962  1.00  0.00     0.116 C 
BRANCH   4   5
ATOM      5  N   UNL A   1      40.663  18.903  25.952  1.00  0.00    -0.352 N 
ATOM      6  O   UNL A   1      42.788  18.153  25.832  1.00  0.00    -0.269 OA
ATOM      7  C   UNL A   1      42.023  19.080  26.035  1.00  0.00     0.251 C 
ATOM      8  H   UNL A   1      40.362  17.969  25.877  1.00  0.00     0.163 HD
BRANCH   7   9
ATOM      9  C   UNL A   1      42.537  20.424  26.354  1.00  0.00     0.039 A 
ATOM     10  C   UNL A   1      42.473  20.901  27.666  1.00  0.00     0.014 A 
ATOM     11  C   UNL A   1      43.050  21.216  25.327  1.00  0.00     0.014 A 
ATOM     12  C   UNL A   1      42.788  22.226  27.927  1.00  0.00     0.010 A 
ATOM     13  C   UNL A   1      43.453  22.519  25.609  1.00  0.00     0.010 A 
ATOM     14  C   UNL A   1      43.298  23.040  26.905  1.00  0.00    -0.014 A 
BRANCH  14  15
ATOM     15  C   UNL A   1      43.722  24.424  27.214  1.00  0.00     0.031 A 
ATOM     16  C   UNL A   1      42.742  25.428  27.740  1.00  0.00     0.074 A 
ATOM     17  C   UNL A   1      45.004  24.766  26.992  1.00  0.00     0.049 A 
ATOM     18  N   UNL A   1      42.914  26.704  27.978  1.00  0.00    -0.248 NA
ATOM     19  C   UNL A   1      41.384  24.941  28.026  1.00  0.00     0.031 C 
ATOM     20  C   UNL A   1      46.041  23.862  26.488  1.00  0.00     0.029 A 
ATOM     21  N   UNL A   1      45.654  25.961  27.153  1.00  0.00    -0.354 N 
ATOM     22  C   UNL A   1      41.685  27.177  28.415  1.00  0.00     0.074 A 
ATOM     23  C   UNL A   1      40.768  26.058  28.387  1.00  0.00     0.031 C 
ATOM     24  C   UNL A   1      47.199  24.530  26.398  1.00  0.00     0.029 A 
ATOM     25  C   UNL A   1      46.969  25.921  26.765  1.00  0.00     0.049 A 
ATOM     26  H   UNL A   1      45.220  26.768  27.513  1.00  0.00     0.167 HD
ATOM     27  C   UNL A   1      41.360  28.434  28.803  1.00  0.00     0.037 A 
ATOM     28  C   UNL A   1      47.881  26.905  26.677  1.00  0.00     0.037 A 
ATOM     29  C   UNL A   1      42.291  29.534  28.829  1.00  0.00     0.049 A 
ATOM     30  C   UNL A   1      47.484  28.298  27.071  1.00  0.00     0.074 A 
ATOM     31  C   UNL A   1      42.075  30.839  29.235  1.00  0.00     0.029 A 
ATOM     32  N   UNL A   1      43.616  29.458  28.419  1.00  0.00    -0.354 N 
ATOM     33  N   UNL A   1      46.327  28.734  27.506  1.00  0.00    -0.248 NA
ATOM     34  C   UNL A   1      48.517  29.334  26.963  1.00  0.00     0.031 C 
ATOM     35  C   UNL A   1      43.250  31.566  29.017  1.00  0.00     0.029 A 
ATOM     36  C   UNL A   1      44.220  30.700  28.537  1.00  0.00     0.049 A 
ATOM     37  H   UNL A   1      44.059  28.643  28.092  1.00  0.00     0.167 HD
ATOM     38  C   UNL A   1      46.498  30.087  27.751  1.00  0.00     0.074 A 
ATOM     39  C   UNL A   1      47.874  30.399  27.421  1.00  0.00     0.031 C 
ATOM     40  C   UNL A   1      45.596  30.989  28.213  1.00  0.00     0.037 A 
BRANCH  27  41
ATOM     41  C   UNL A   1      39.932  28.693  29.196  1.00  0.00     0.064 A 
ATOM     42  C   UNL A   1      39.469  28.475  30.503  1.00  0.00     0.173 A 
ATOM     43  C   UNL A   1      39.017  29.186  28.253  1.00  0.00     0.173 A 
ATOM     44  F   UNL A   1      40.298  27.995  31.443  1.00  0.00    -0.203 F 
ATOM     45  C   UNL A   1      38.136  28.703  30.839  1.00  0.00     0.198 A 
ATOM     46  C   UNL A   1      37.693  29.444  28.601  1.00  0.00     0.198 A 
ATOM     47  F   UNL A   1      39.406  29.420  26.991  1.00  0.00    -0.203 F 
ATOM     48  F   UNL A   1      37.703  28.429  32.078  1.00  0.00    -0.200 F 
ATOM     49  C   UNL A   1      37.251  29.192  29.891  1.00  0.00     0.200 A 
ATOM     50  F   UNL A   1      36.844  29.931  27.685  1.00  0.00    -0.200 F 
ATOM     51  F   UNL A   1      35.970  29.411  30.215  1.00  0.00    -0.200 F 
ENDBRANCH  27  41
BRANCH  28  52
ATOM     52  C   UNL A   1      49.245  26.590  26.186  1.00  0.00     0.064 A 
ATOM     53  C   UNL A   1      49.603  26.830  24.853  1.00  0.00     0.173 A 
ATOM     54  C   UNL A   1      50.232  26.091  27.050  1.00  0.00     0.173 A 
ATOM     55  F   UNL A   1      48.690  27.295  23.989  1.00  0.00    -0.203 F 
ATOM     56  C   UNL A   1      50.896  26.575  24.400  1.00  0.00     0.198 A 
ATOM     57  C   UNL A   1      51.531  25.866  26.604  1.00  0.00     0.198 A 
ATOM     58  F   UNL A   1      49.942  25.860  28.339  1.00  0.00    -0.203 F 
ATOM     59  F   UNL A   1      51.205  26.785  23.114  1.00  0.00    -0.200 F 
ATOM     60  C   UNL A   1      51.860  26.101  25.278  1.00  0.00     0.200 A 
ATOM     61  F   UNL A   1      52.465  25.431  27.460  1.00  0.00    -0.200 F 
ATOM     62  F   UNL A   1      53.108  25.874  24.845  1.00  0.00    -0.200 F 
ENDBRANCH  28  52
BRANCH  40  63
ATOM     63  C   UNL A   1      46.083  32.390  28.442  1.00  0.00     0.064 A 
ATOM     64  C   UNL A   1      46.035  33.365  27.436  1.00  0.00     0.173 A 
ATOM     65  C   UNL A   1      46.556  32.772  29.707  1.00  0.00     0.173 A 
ATOM     66  F   UNL A   1      45.608  33.045  26.204  1.00  0.00    -0.203 F 
ATOM     67  C   UNL A   1      46.460  34.668  27.683  1.00  0.00     0.198 A 
ATOM     68  C   UNL A   1      46.950  34.082  29.959  1.00  0.00     0.198 A 
ATOM     69  F   UNL A   1      46.617  31.878  30.704  1.00  0.00    -0.203 F 
ATOM     70  F   UNL A   1      46.447  35.574  26.694  1.00  0.00    -0.200 F 
ATOM     71  C   UNL A   1      46.907  35.028  28.946  1.00  0.00     0.200 A 
ATOM     72  F   UNL A   1      47.367  34.431  31.184  1.00  0.00    -0.200 F 
ATOM     73  F   UNL A   1      47.303  36.285  29.185  1.00  0.00    -0.200 F 
ENDBRANCH  40  63
ENDBRANCH  14  15
ENDBRANCH   7   9
ENDBRANCH   4   5
ENDBRANCH   3   4
ENDBRANCH   2   3
ENDBRANCH   1   2
BRANCH   1  74
ATOM     74  N   UNL A   1      36.671  22.651  26.099  1.00  0.00    -0.356 N 
ATOM     75  C   UNL A   1      35.363  22.807  25.751  1.00  0.00     0.225 C 
ATOM     76  H   UNL A   1      36.933  23.057  26.956  1.00  0.00     0.163 HD
ATOM     77  O   UNL A   1      34.666  23.531  26.461  1.00  0.00    -0.275 OA
BRANCH  75  78
ATOM     78  C   UNL A   1      34.819  22.099  24.516  1.00  0.00     0.109 C 
ATOM     79  C   UNL A   1      35.084  22.864  23.236  1.00  0.00     0.026 C 
ATOM     80  C   UNL A   1      33.317  21.835  24.694  1.00  0.00     0.164 C 
ATOM     81  C   UNL A   1      34.319  24.164  23.226  1.00  0.00     0.101 C 
ATOM     82  N   UNL A   1      32.404  22.902  24.246  1.00  0.00    -0.332 N 
ATOM     83  C   UNL A   1      32.852  24.038  23.568  1.00  0.00     0.223 C 
ATOM     84  O   UNL A   1      32.113  24.991  23.300  1.00  0.00    -0.275 OA
BRANCH  80  85
ATOM     85  C   UNL A   1      32.973  20.500  24.097  1.00  0.00     0.127 A 
ATOM     86  C   UNL A   1      32.222  20.167  22.984  1.00  0.00     0.048 A 
ATOM     87  O   UNL A   1      33.449  19.371  24.692  1.00  0.00    -0.467 OA
ATOM     88  C   UNL A   1      32.282  18.760  22.869  1.00  0.00     0.042 A 
ATOM     89  C   UNL A   1      33.050  18.324  23.923  1.00  0.00     0.195 A 
ENDBRANCH  80  85
BRANCH  82  90
ATOM     90  C   UNL A   1      31.031  23.006  24.778  1.00  0.00     0.122 C 
BRANCH  90  91
ATOM     91  C   UNL A   1      30.736  23.424  26.223  1.00  0.00     0.050 C 
BRANCH  91  92
ATOM     92  C   UNL A   1      31.508  24.593  26.845  1.00  0.00     0.162 C 
BRANCH  92  93
ATOM     93  O   UNL A   1      30.859  25.864  26.818  1.00  0.00    -0.378 OA
BRANCH  93  94
ATOM     94  C   UNL A   1      31.591  27.056  26.501  1.00  0.00     0.118 C 
ATOM     95  C   UNL A   1      31.425  28.206  27.493  1.00  0.00     0.032 C 
ATOM     96  C   UNL A   1      33.041  26.685  26.163  1.00  0.00     0.032 C 
ATOM     97  C   UNL A   1      32.373  29.367  27.258  1.00  0.00     0.003 C 
ATOM     98  C   UNL A   1      34.021  27.857  26.137  1.00  0.00     0.003 C 
ATOM     99  C   UNL A   1      33.808  28.859  27.265  1.00  0.00     0.000 C 
ENDBRANCH  93  94
ENDBRANCH  92  93
ENDBRANCH  91  92
ENDBRANCH  90  91
ENDBRANCH  82  90
ENDBRANCH  75  78
ENDBRANCH   1  74
TORSDOF 17
ENDMDL
MODEL 2
REMARK VINA RESULT:     -12.6      2.066      3.088
REMARK SMILES O=C(NCCCCNC(=O)[C@@H]1CCC(=O)N(CCCOC2CCCCC2)[C@H]1c1ccco1)c1ccc(-c2c3nc(c(-c4c(F)c(F)c(F)c(F)c4F)c4ccc([nH]4)c(-c4c(F)c(F)c(F)c(F)c4F)c4nc(c(-c5c(F)c(F)c(F)c(F)c5F)c5ccc2[nH]5)C=C4)C=C3)cc1
REMARK SMILES IDX 7 1 6 2 5 3 4 4 3 5 1 6 2 7 33 9 34 10 95 11 35 12 94 13
REMARK SMILES IDX 36 14 37 15 38 16 88 17 39 18 93 19 87 20 89 21 40 22 92 23
REMARK SMILES IDX 86 24 85 25 41 27 73 28 53 29 72 30 54 31 57 32 71 33 90 34
REMARK SMILES IDX 55 35 56 36 70 38 91 39 58 40 42 41 43 42 51 43 44 44 45 45
REMARK SMILES IDX 49 46 52 47 46 48 47 49 50 50 48 51 74 52 75 53 83 54 76 55
REMARK SMILES IDX 77 56 81 57 84 58 78 59 79 60 82 61 80 62 59 63 60 64 68 65
REMARK SMILES IDX 61 66 62 67 66 68 69 69 63 70 64 71 67 72 65 73 8 74 9 75
REMARK SMILES IDX 10 77 11 78 12 79 27 80 13 81 16 82 14 83 15 84 28 85 29 86
REMARK SMILES IDX 32 87 30 88 31 89 17 90 18 91 19 92 20 93 21 94 22 95 26 96
REMARK SMILES IDX 23 97 25 98 24 99
REMARK H PARENT 3 8 89 26 57 37 8 76
REMARK Flexibility Score: inf
ROOT
ATOM      1  C   UNL A   1      36.902  22.239  24.827  1.00  0.00     0.116 C 
ENDROOT
BRANCH   1   2
ATOM      2  C   UNL A   1      36.839  20.751  25.153  1.00  0.00     0.023 C 
BRANCH   2   3
ATOM      3  C   UNL A   1      38.149  20.010  24.895  1.00  0.00     0.023 C 
BRANCH   3   4
ATOM      4  C   UNL A   1      39.214  20.230  25.961  1.00  0.00     0.116 C 
BRANCH   4   5
ATOM      5  N   UNL A   1      40.268  19.226  25.908  1.00  0.00    -0.352 N 
ATOM      6  O   UNL A   1      42.391  18.470  25.794  1.00  0.00    -0.269 OA
ATOM      7  C   UNL A   1      41.626  19.385  26.043  1.00  0.00     0.251 C 
ATOM      8  H   UNL A   1      39.965  18.302  25.754  1.00  0.00     0.163 HD
BRANCH   7   9
ATOM      9  C   UNL A   1      42.138  20.698  26.476  1.00  0.00     0.039 A 
ATOM     10  C   UNL A   1      42.225  20.997  27.839  1.00  0.00     0.014 A 
ATOM     11  C   UNL A   1      42.495  21.639  25.511  1.00  0.00     0.014 A 
ATOM     12  C   UNL A   1      42.533  22.290  28.235  1.00  0.00     0.010 A 
ATOM     13  C   UNL A   1      42.894  22.910  25.915  1.00  0.00     0.010 A 
ATOM     14  C   UNL A   1      42.888  23.251  27.278  1.00  0.00    -0.014 A 
BRANCH  14  15
ATOM     15  C   UNL A   1      43.308  24.601  27.717  1.00  0.00     0.031 A 
ATOM     16  C   UNL A   1      42.292  25.644  28.072  1.00  0.00     0.074 A 
ATOM     17  C   UNL A   1      44.623  24.877  27.770  1.00  0.00     0.049 A 
ATOM     18  N   UNL A   1      42.475  26.901  28.387  1.00  0.00    -0.248 NA
ATOM     19  C   UNL A   1      40.882  25.226  28.062  1.00  0.00     0.031 C 
ATOM     20  C   UNL A   1      45.695  23.931  27.451  1.00  0.00     0.029 A 
ATOM     21  N   UNL A   1      45.285  26.030  28.103  1.00  0.00    -0.354 N 
ATOM     22  C   UNL A   1      41.207  27.431  28.586  1.00  0.00     0.074 A 
ATOM     23  C   UNL A   1      40.261  26.365  28.333  1.00  0.00     0.031 C 
ATOM     24  C   UNL A   1      46.879  24.536  27.620  1.00  0.00     0.029 A 
ATOM     25  C   UNL A   1      46.648  25.927  27.985  1.00  0.00     0.049 A 
ATOM     26  H   UNL A   1      44.827  26.850  28.397  1.00  0.00     0.167 HD
ATOM     27  C   UNL A   1      40.873  28.693  28.948  1.00  0.00     0.037 A 
ATOM     28  C   UNL A   1      47.606  26.861  28.119  1.00  0.00     0.037 A 
ATOM     29  C   UNL A   1      41.832  29.739  29.200  1.00  0.00     0.049 A 
ATOM     30  C   UNL A   1      47.206  28.263  28.476  1.00  0.00     0.074 A 
ATOM     31  C   UNL A   1      41.602  31.042  29.603  1.00  0.00     0.029 A 
ATOM     32  N   UNL A   1      43.207  29.600  29.062  1.00  0.00    -0.354 N 
ATOM     33  N   UNL A   1      46.007  28.751  28.686  1.00  0.00    -0.248 NA
ATOM     34  C   UNL A   1      48.289  29.243  28.616  1.00  0.00     0.031 C 
ATOM     35  C   UNL A   1      42.831  31.708  29.652  1.00  0.00     0.029 A 
ATOM     36  C   UNL A   1      43.835  30.803  29.345  1.00  0.00     0.049 A 
ATOM     37  H   UNL A   1      43.667  28.770  28.800  1.00  0.00     0.167 HD
ATOM     38  C   UNL A   1      46.191  30.086  29.010  1.00  0.00     0.074 A 
ATOM     39  C   UNL A   1      47.620  30.329  28.975  1.00  0.00     0.031 C 
ATOM     40  C   UNL A   1      45.260  31.023  29.315  1.00  0.00     0.037 A 
BRANCH  27  41
ATOM     41  C   UNL A   1      39.409  29.020  29.055  1.00  0.00     0.064 A 
ATOM     42  C   UNL A   1      38.725  28.977  30.280  1.00  0.00     0.173 A 
ATOM     43  C   UNL A   1      38.683  29.402  27.916  1.00  0.00     0.173 A 
ATOM     44  F   UNL A   1      39.367  28.609  31.400  1.00  0.00    -0.203 F 
ATOM     45  C   UNL A   1      37.364  29.265  30.352  1.00  0.00     0.198 A 
ATOM     46  C   UNL A   1      37.330  29.721  27.997  1.00  0.00     0.198 A 
ATOM     47  F   UNL A   1      39.287  29.468  26.720  1.00  0.00    -0.203 F 
ATOM     48  F   UNL A   1      36.719  29.158  31.523  1.00  0.00    -0.200 F 
ATOM     49  C   UNL A   1      36.669  29.641  29.213  1.00  0.00     0.200 A 
ATOM     50  F   UNL A   1      36.665  30.099  26.897  1.00  0.00    -0.200 F 
ATOM     51  F   UNL A   1      35.360  29.918  29.284  1.00  0.00    -0.200 F 
ENDBRANCH  27  41
BRANCH  28  52
ATOM     52  C   UNL A   1      49.024  26.484  27.900  1.00  0.00     0.064 A 
ATOM     53  C   UNL A   1      49.550  26.384  26.605  1.00  0.00     0.173 A 
ATOM     54  C   UNL A   1      49.893  26.266  28.979  1.00  0.00     0.173 A 
ATOM     55  F   UNL A   1      48.754  26.573  25.543  1.00  0.00    -0.203 F 
ATOM     56  C   UNL A   1      50.893  26.072  26.399  1.00  0.00     0.198 A 
ATOM     57  C   UNL A   1      51.241  25.985  28.773  1.00  0.00     0.198 A 
ATOM     58  F   UNL A   1      49.440  26.365  30.238  1.00  0.00    -0.203 F 
ATOM     59  F   UNL A   1      51.365  25.953  25.151  1.00  0.00    -0.200 F 
ATOM     60  C   UNL A   1      51.738  25.881  27.482  1.00  0.00     0.200 A 
ATOM     61  F   UNL A   1      52.058  25.824  29.821  1.00  0.00    -0.200 F 
ATOM     62  F   UNL A   1      53.032  25.599  27.282  1.00  0.00    -0.200 F 
ENDBRANCH  28  52
BRANCH  40  63
ATOM     63  C   UNL A   1      45.759  32.389  29.688  1.00  0.00     0.064 A 
ATOM     64  C   UNL A   1      45.884  33.416  28.743  1.00  0.00     0.173 A 
ATOM     65  C   UNL A   1      46.065  32.684  31.026  1.00  0.00     0.173 A 
ATOM     66  F   UNL A   1      45.621  33.180  27.449  1.00  0.00    -0.203 F 
ATOM     67  C   UNL A   1      46.316  34.685  29.121  1.00  0.00     0.198 A 
ATOM     68  C   UNL A   1      46.465  33.961  31.405  1.00  0.00     0.198 A 
ATOM     69  F   UNL A   1      45.957  31.736  31.969  1.00  0.00    -0.203 F 
ATOM     70  F   UNL A   1      46.471  35.642  28.194  1.00  0.00    -0.200 F 
ATOM     71  C   UNL A   1      46.596  34.960  30.451  1.00  0.00     0.200 A 
ATOM     72  F   UNL A   1      46.721  34.227  32.693  1.00  0.00    -0.200 F 
ATOM     73  F   UNL A   1      46.998  36.185  30.815  1.00  0.00    -0.200 F 
ENDBRANCH  40  63
ENDBRANCH  14  15
ENDBRANCH   7   9
ENDBRANCH   4   5
ENDBRANCH   3   4
ENDBRANCH   2   3
ENDBRANCH   1   2
BRANCH   1  74
ATOM     74  N   UNL A   1      36.191  22.528  23.600  1.00  0.00    -0.356 N 
ATOM     75  C   UNL A   1      35.139  23.370  23.398  1.00  0.00     0.225 C 
ATOM     76  H   UNL A   1      36.511  22.050  22.802  1.00  0.00     0.163 HD
ATOM     77  O   UNL A   1      34.612  23.369  22.286  1.00  0.00    -0.275 OA
BRANCH  75  78
ATOM     78  C   UNL A   1      34.656  24.265  24.534  1.00  0.00     0.109 C 
ATOM     79  C   UNL A   1      34.220  23.480  25.754  1.00  0.00     0.026 C 
ATOM     80  C   UNL A   1      33.522  25.169  24.030  1.00  0.00     0.164 C 
ATOM     81  C   UNL A   1      32.993  22.659  25.446  1.00  0.00     0.101 C 
ATOM     82  N   UNL A   1      32.155  24.628  24.135  1.00  0.00    -0.332 N 
ATOM     83  C   UNL A   1      31.872  23.421  24.779  1.00  0.00     0.223 C 
ATOM     84  O   UNL A   1      30.751  22.902  24.762  1.00  0.00    -0.275 OA
BRANCH  80  85
ATOM     85  C   UNL A   1      33.650  26.525  24.664  1.00  0.00     0.127 A 
ATOM     86  C   UNL A   1      33.552  26.926  25.984  1.00  0.00     0.048 A 
ATOM     87  O   UNL A   1      33.913  27.600  23.869  1.00  0.00    -0.467 OA
ATOM     88  C   UNL A   1      33.815  28.314  26.000  1.00  0.00     0.042 A 
ATOM     89  C   UNL A   1      34.041  28.674  24.691  1.00  0.00     0.195 A 
ENDBRANCH  80  85
BRANCH  82  90
ATOM     90  C   UNL A   1      31.063  25.140  23.282  1.00  0.00     0.122 C 
BRANCH  90  91
ATOM     91  C   UNL A   1      30.103  26.242  23.746  1.00  0.00     0.050 C 
BRANCH  91  92
ATOM     92  C   UNL A   1      30.444  27.709  23.469  1.00  0.00     0.162 C 
BRANCH  92  93
ATOM     93  O   UNL A   1      29.843  28.291  22.312  1.00  0.00    -0.378 OA
BRANCH  93  94
ATOM     94  C   UNL A   1      29.557  29.695  22.260  1.00  0.00     0.118 C 
ATOM     95  C   UNL A   1      28.293  30.074  21.490  1.00  0.00     0.032 C 
ATOM     96  C   UNL A   1      29.670  30.288  23.670  1.00  0.00     0.032 C 
ATOM     97  C   UNL A   1      27.894  31.531  21.635  1.00  0.00     0.003 C 
ATOM     98  C   UNL A   1      29.069  31.682  23.837  1.00  0.00     0.003 C 
ATOM     99  C   UNL A   1      27.742  31.870  23.111  1.00  0.00     0.000 C 
ENDBRANCH  93  94
ENDBRANCH  92  93
ENDBRANCH  91  92
ENDBRANCH  90  91
ENDBRANCH  82  90
ENDBRANCH  75  78
ENDBRANCH   1  74
TORSDOF 17
ENDMDL
MODEL 3
REMARK VINA RESULT:     -12.6      5.347     11.057
REMARK SMILES O=C(NCCCCNC(=O)[C@@H]1CCC(=O)N(CCCOC2CCCCC2)[C@H]1c1ccco1)c1ccc(-c2c3nc(c(-c4c(F)c(F)c(F)c(F)c4F)c4ccc([nH]4)c(-c4c(F)c(F)c(F)c(F)c4F)c4nc(c(-c5c(F)c(F)c(F)c(F)c5F)c5ccc2[nH]5)C=C4)C=C3)cc1
REMARK SMILES IDX 7 1 6 2 5 3 4 4 3 5 1 6 2 7 33 9 34 10 95 11 35 12 94 13
REMARK SMILES IDX 36 14 37 15 38 16 88 17 39 18 93 19 87 20 89 21 40 22 92 23
REMARK SMILES IDX 86 24 85 25 41 27 73 28 53 29 72 30 54 31 57 32 71 33 90 34
REMARK SMILES IDX 55 35 56 36 70 38 91 39 58 40 42 41 43 42 51 43 44 44 45 45
REMARK SMILES IDX 49 46 52 47 46 48 47 49 50 50 48 51 74 52 75 53 83 54 76 55
REMARK SMILES IDX 77 56 81 57 84 58 78 59 79 60 82 61 80 62 59 63 60 64 68 65
REMARK SMILES IDX 61 66 62 67 66 68 69 69 63 70 64 71 67 72 65 73 8 74 9 75
REMARK SMILES IDX 10 77 11 78 12 79 27 80 13 81 16 82 14 83 15 84 28 85 29 86
REMARK SMILES IDX 32 87 30 88 31 89 17 90 18 91 19 92 20 93 21 94 22 95 26 96
REMARK SMILES IDX 23 97 25 98 24 99
REMARK H PARENT 3 8 89 26 57 37 8 76
REMARK Flexibility Score: inf
ROOT
ATOM      1  C   UNL A   1      32.136  29.844  25.577  1.00  0.00     0.116 C 
ENDROOT
BRANCH   1   2
ATOM      2  C   UNL A   1      31.672  30.518  26.863  1.00  0.00     0.023 C 
BRANCH   2   3
ATOM      3  C   UNL A   1      31.527  32.033  26.745  1.00  0.00     0.023 C 
BRANCH   3   4
ATOM      4  C   UNL A   1      32.768  32.816  27.153  1.00  0.00     0.116 C 
BRANCH   4   5
ATOM      5  N   UNL A   1      32.454  34.171  27.584  1.00  0.00    -0.352 N 
ATOM      6  O   UNL A   1      32.498  35.959  28.960  1.00  0.00    -0.269 OA
ATOM      7  C   UNL A   1      32.995  34.902  28.613  1.00  0.00     0.251 C 
ATOM      8  H   UNL A   1      31.756  34.629  27.062  1.00  0.00     0.163 HD
BRANCH   7   9
ATOM      9  C   UNL A   1      34.181  34.365  29.306  1.00  0.00     0.039 A 
ATOM     10  C   UNL A   1      35.460  34.640  28.814  1.00  0.00     0.014 A 
ATOM     11  C   UNL A   1      34.003  33.557  30.428  1.00  0.00     0.014 A 
ATOM     12  C   UNL A   1      36.555  33.988  29.358  1.00  0.00     0.010 A 
ATOM     13  C   UNL A   1      35.115  32.975  31.032  1.00  0.00     0.010 A 
ATOM     14  C   UNL A   1      36.395  33.165  30.482  1.00  0.00    -0.014 A 
BRANCH  14  15
ATOM     15  C   UNL A   1      37.583  32.549  31.116  1.00  0.00     0.031 A 
ATOM     16  C   UNL A   1      38.331  31.445  30.432  1.00  0.00     0.074 A 
ATOM     17  C   UNL A   1      37.964  32.990  32.328  1.00  0.00     0.049 A 
ATOM     18  N   UNL A   1      39.334  30.730  30.876  1.00  0.00    -0.248 NA
ATOM     19  C   UNL A   1      37.890  31.086  29.076  1.00  0.00     0.031 C 
ATOM     20  C   UNL A   1      37.308  34.065  33.077  1.00  0.00     0.029 A 
ATOM     21  N   UNL A   1      38.986  32.589  33.147  1.00  0.00    -0.354 N 
ATOM     22  C   UNL A   1      39.626  29.821  29.868  1.00  0.00     0.074 A 
ATOM     23  C   UNL A   1      38.680  30.058  28.799  1.00  0.00     0.031 C 
ATOM     24  C   UNL A   1      37.954  34.249  34.236  1.00  0.00     0.029 A 
ATOM     25  C   UNL A   1      39.018  33.260  34.344  1.00  0.00     0.049 A 
ATOM     26  H   UNL A   1      39.633  31.889  32.901  1.00  0.00     0.167 HD
ATOM     27  C   UNL A   1      40.599  28.878  29.846  1.00  0.00     0.037 A 
ATOM     28  C   UNL A   1      39.794  33.072  35.426  1.00  0.00     0.037 A 
ATOM     29  C   UNL A   1      41.535  28.661  30.920  1.00  0.00     0.049 A 
ATOM     30  C   UNL A   1      40.834  31.991  35.393  1.00  0.00     0.074 A 
ATOM     31  C   UNL A   1      42.579  27.756  30.986  1.00  0.00     0.029 A 
ATOM     32  N   UNL A   1      41.531  29.355  32.123  1.00  0.00    -0.354 N 
ATOM     33  N   UNL A   1      41.121  31.151  34.428  1.00  0.00    -0.248 NA
ATOM     34  C   UNL A   1      41.659  31.832  36.596  1.00  0.00     0.031 C 
ATOM     35  C   UNL A   1      43.169  27.860  32.250  1.00  0.00     0.029 A 
ATOM     36  C   UNL A   1      42.537  28.878  32.948  1.00  0.00     0.049 A 
ATOM     37  H   UNL A   1      40.906  30.078  32.356  1.00  0.00     0.167 HD
ATOM     38  C   UNL A   1      42.176  30.382  34.894  1.00  0.00     0.074 A 
ATOM     39  C   UNL A   1      42.482  30.861  36.227  1.00  0.00     0.031 C 
ATOM     40  C   UNL A   1      42.834  29.375  34.270  1.00  0.00     0.037 A 
BRANCH  27  41
ATOM     41  C   UNL A   1      40.675  27.986  28.637  1.00  0.00     0.064 A 
ATOM     42  C   UNL A   1      41.466  28.307  27.524  1.00  0.00     0.173 A 
ATOM     43  C   UNL A   1      39.956  26.781  28.601  1.00  0.00     0.173 A 
ATOM     44  F   UNL A   1      42.167  29.452  27.501  1.00  0.00    -0.203 F 
ATOM     45  C   UNL A   1      41.505  27.476  26.407  1.00  0.00     0.198 A 
ATOM     46  C   UNL A   1      40.023  25.935  27.496  1.00  0.00     0.198 A 
ATOM     47  F   UNL A   1      39.188  26.419  29.640  1.00  0.00    -0.203 F 
ATOM     48  F   UNL A   1      42.222  27.833  25.332  1.00  0.00    -0.200 F 
ATOM     49  C   UNL A   1      40.789  26.289  26.395  1.00  0.00     0.200 A 
ATOM     50  F   UNL A   1      39.341  24.782  27.494  1.00  0.00    -0.200 F 
ATOM     51  F   UNL A   1      40.828  25.490  25.321  1.00  0.00    -0.200 F 
ENDBRANCH  27  41
BRANCH  28  52
ATOM     52  C   UNL A   1      39.593  33.929  36.620  1.00  0.00     0.064 A 
ATOM     53  C   UNL A   1      38.797  33.498  37.690  1.00  0.00     0.173 A 
ATOM     54  C   UNL A   1      40.233  35.172  36.739  1.00  0.00     0.173 A 
ATOM     55  F   UNL A   1      38.158  32.322  37.616  1.00  0.00    -0.203 F 
ATOM     56  C   UNL A   1      38.643  34.282  38.831  1.00  0.00     0.198 A 
ATOM     57  C   UNL A   1      40.103  35.941  37.892  1.00  0.00     0.198 A 
ATOM     58  F   UNL A   1      41.017  35.621  35.748  1.00  0.00    -0.203 F 
ATOM     59  F   UNL A   1      37.853  33.861  39.827  1.00  0.00    -0.200 F 
ATOM     60  C   UNL A   1      39.302  35.499  38.934  1.00  0.00     0.200 A 
ATOM     61  F   UNL A   1      40.759  37.104  37.998  1.00  0.00    -0.200 F 
ATOM     62  F   UNL A   1      39.167  36.243  40.040  1.00  0.00    -0.200 F 
ENDBRANCH  28  52
BRANCH  40  63
ATOM     63  C   UNL A   1      43.989  28.754  35.000  1.00  0.00     0.064 A 
ATOM     64  C   UNL A   1      45.297  29.243  34.870  1.00  0.00     0.173 A 
ATOM     65  C   UNL A   1      43.771  27.685  35.883  1.00  0.00     0.173 A 
ATOM     66  F   UNL A   1      45.561  30.251  34.025  1.00  0.00    -0.203 F 
ATOM     67  C   UNL A   1      46.347  28.672  35.585  1.00  0.00     0.198 A 
ATOM     68  C   UNL A   1      44.817  27.138  36.619  1.00  0.00     0.198 A 
ATOM     69  F   UNL A   1      42.537  27.184  36.046  1.00  0.00    -0.203 F 
ATOM     70  F   UNL A   1      47.597  29.126  35.413  1.00  0.00    -0.200 F 
ATOM     71  C   UNL A   1      46.105  27.628  36.466  1.00  0.00     0.200 A 
ATOM     72  F   UNL A   1      44.577  26.140  37.481  1.00  0.00    -0.200 F 
ATOM     73  F   UNL A   1      47.114  27.089  37.163  1.00  0.00    -0.200 F 
ENDBRANCH  40  63
ENDBRANCH  14  15
ENDBRANCH   7   9
ENDBRANCH   4   5
ENDBRANCH   3   4
ENDBRANCH   2   3
ENDBRANCH   1   2
BRANCH   1  74
ATOM     74  N   UNL A   1      31.092  29.005  25.029  1.00  0.00    -0.356 N 
ATOM     75  C   UNL A   1      31.121  27.671  24.755  1.00  0.00     0.225 C 
ATOM     76  H   UNL A   1      30.244  29.461  24.826  1.00  0.00     0.163 HD
ATOM     77  O   UNL A   1      30.150  27.186  24.176  1.00  0.00    -0.275 OA
BRANCH  75  78
ATOM     78  C   UNL A   1      32.333  26.841  25.161  1.00  0.00     0.109 C 
ATOM     79  C   UNL A   1      33.644  27.464  24.726  1.00  0.00     0.026 C 
ATOM     80  C   UNL A   1      32.192  25.417  24.603  1.00  0.00     0.164 C 
ATOM     81  C   UNL A   1      33.751  27.478  23.221  1.00  0.00     0.101 C 
ATOM     82  N   UNL A   1      32.730  25.185  23.251  1.00  0.00    -0.332 N 
ATOM     83  C   UNL A   1      33.453  26.155  22.553  1.00  0.00     0.223 C 
ATOM     84  O   UNL A   1      33.798  26.013  21.376  1.00  0.00    -0.275 OA
BRANCH  80  85
ATOM     85  C   UNL A   1      32.727  24.436  25.607  1.00  0.00     0.127 A 
ATOM     86  C   UNL A   1      34.008  23.962  25.823  1.00  0.00     0.048 A 
ATOM     87  O   UNL A   1      31.866  23.872  26.499  1.00  0.00    -0.467 OA
ATOM     88  C   UNL A   1      33.931  23.097  26.937  1.00  0.00     0.042 A 
ATOM     89  C   UNL A   1      32.610  23.086  27.320  1.00  0.00     0.195 A 
ENDBRANCH  80  85
BRANCH  82  90
ATOM     90  C   UNL A   1      32.252  24.061  22.421  1.00  0.00     0.122 C 
BRANCH  90  91
ATOM     91  C   UNL A   1      32.978  22.712  22.363  1.00  0.00     0.050 C 
BRANCH  91  92
ATOM     92  C   UNL A   1      32.233  21.434  22.759  1.00  0.00     0.162 C 
BRANCH  92  93
ATOM     93  O   UNL A   1      32.451  20.961  24.089  1.00  0.00    -0.378 OA
BRANCH  93  94
ATOM     94  C   UNL A   1      32.789  19.590  24.335  1.00  0.00     0.118 C 
ATOM     95  C   UNL A   1      32.231  18.589  23.323  1.00  0.00     0.032 C 
ATOM     96  C   UNL A   1      34.296  19.479  24.605  1.00  0.00     0.032 C 
ATOM     97  C   UNL A   1      32.781  17.183  23.477  1.00  0.00     0.003 C 
ATOM     98  C   UNL A   1      34.862  18.062  24.548  1.00  0.00     0.003 C 
ATOM     99  C   UNL A   1      34.301  17.223  23.407  1.00  0.00     0.000 C 
ENDBRANCH  93  94
ENDBRANCH  92  93
ENDBRANCH  91  92
ENDBRANCH  90  91
ENDBRANCH  82  90
ENDBRANCH  75  78
ENDBRANCH   1  74
TORSDOF 17
ENDMDL
