MODEL 1
REMARK VINA RESULT:     -13.3      0.000      0.000
REMARK SMILES O=C(NCCCCNC(=O)c1ccc(-c2c3nc(c(-c4c(F)c(F)c(F)c(F)c4F)c4ccc([nH]4)c(-c4c(F)c(F)c(F)c(F)c4F)c4nc(c(-c5c(F)c(F)c(F)c(F)c5F)c5ccc2[nH]5)C=C4)C=C3)cc1)c1ccc(NS(=O)(=O)C2=Cc3ccccc3CC2)cc1
REMARK SMILES IDX 5 1 4 2 3 3 1 4 2 5 74 7 75 8 93 9 76 10 92 11 77 12 78 13
REMARK SMILES IDX 79 15 80 16 81 17 82 18 83 19 91 20 84 21 90 22 85 23 89 24
REMARK SMILES IDX 86 25 88 26 87 27 6 28 7 29 8 30 9 31 10 33 11 34 12 35
REMARK SMILES IDX 73 36 13 37 72 38 14 39 15 40 16 41 66 42 17 43 71 44 65 45
REMARK SMILES IDX 67 46 18 47 70 48 64 49 63 50 19 52 51 53 31 54 50 55 32 56
REMARK SMILES IDX 35 57 49 58 68 59 33 60 34 61 48 63 69 64 36 65 20 66 21 67
REMARK SMILES IDX 29 68 22 69 23 70 27 71 30 72 24 73 25 74 28 75 26 76 52 77
REMARK SMILES IDX 53 78 61 79 54 80 55 81 59 82 62 83 56 84 57 85 60 86 58 87
REMARK SMILES IDX 37 88 38 89 46 90 39 91 40 92 44 93 47 94 41 95 42 96 45 97
REMARK SMILES IDX 43 98
REMARK H PARENT 3 6 78 14 8 32 67 51 35 62
REMARK Flexibility Score: inf
ROOT
ATOM      1  C   UNL A   1      36.906  21.564  24.796  1.00  0.00     0.023 C 
ENDROOT
BRANCH   1   2
ATOM      2  C   UNL A   1      35.661  21.668  25.671  1.00  0.00     0.116 C 
BRANCH   2   3
ATOM      3  N   UNL A   1      34.935  20.412  25.744  1.00  0.00    -0.352 N 
ATOM      4  O   UNL A   1      33.105  19.089  25.724  1.00  0.00    -0.269 OA
ATOM      5  C   UNL A   1      33.620  20.163  25.436  1.00  0.00     0.251 C 
ATOM      6  H   UNL A   1      35.454  19.636  26.056  1.00  0.00     0.163 HD
BRANCH   5   7
ATOM      7  C   UNL A   1      32.827  21.199  24.743  1.00  0.00     0.039 A 
ATOM      8  C   UNL A   1      32.033  22.081  25.480  1.00  0.00     0.016 A 
ATOM      9  C   UNL A   1      32.923  21.331  23.355  1.00  0.00     0.016 A 
ATOM     10  C   UNL A   1      31.300  23.066  24.823  1.00  0.00     0.027 A 
ATOM     11  C   UNL A   1      32.175  22.316  22.698  1.00  0.00     0.027 A 
ATOM     12  C   UNL A   1      31.355  23.178  23.432  1.00  0.00     0.049 A 
BRANCH  12  13
ATOM     13  N   UNL A   1      30.686  24.263  22.789  1.00  0.00    -0.280 N 
ATOM     14  H   UNL A   1      29.876  24.095  22.256  1.00  0.00     0.180 HD
BRANCH  13  15
ATOM     15  S   UNL A   1      31.290  25.849  22.943  1.00  0.00     0.258 S 
ATOM     16  O   UNL A   1      32.609  25.672  23.511  1.00  0.00    -0.202 OA
ATOM     17  O   UNL A   1      31.166  26.425  21.615  1.00  0.00    -0.202 OA
BRANCH  15  18
ATOM     18  C   UNL A   1      30.250  26.745  24.062  1.00  0.00     0.066 C 
ATOM     19  C   UNL A   1      30.593  26.685  25.368  1.00  0.00     0.026 C 
ATOM     20  C   UNL A   1      29.803  28.097  23.557  1.00  0.00     0.055 C 
ATOM     21  C   UNL A   1      31.526  27.763  25.808  1.00  0.00    -0.021 A 
ATOM     22  C   UNL A   1      30.922  29.132  23.747  1.00  0.00     0.041 C 
ATOM     23  C   UNL A   1      32.239  27.606  27.000  1.00  0.00     0.008 A 
ATOM     24  C   UNL A   1      31.702  28.927  25.030  1.00  0.00    -0.040 A 
ATOM     25  C   UNL A   1      33.162  28.575  27.395  1.00  0.00     0.001 A 
ATOM     26  C   UNL A   1      32.649  29.879  25.425  1.00  0.00     0.004 A 
ATOM     27  C   UNL A   1      33.378  29.700  26.601  1.00  0.00     0.000 A 
ENDBRANCH  15  18
ENDBRANCH  13  15
ENDBRANCH  12  13
ENDBRANCH   5   7
ENDBRANCH   2   3
ENDBRANCH   1   2
BRANCH   1  28
ATOM     28  C   UNL A   1      37.764  20.323  25.032  1.00  0.00     0.023 C 
BRANCH  28  29
ATOM     29  C   UNL A   1      39.068  20.567  25.780  1.00  0.00     0.116 C 
BRANCH  29  30
ATOM     30  N   UNL A   1      39.946  19.405  25.797  1.00  0.00    -0.352 N 
ATOM     31  C   UNL A   1      41.293  19.348  26.073  1.00  0.00     0.251 C 
ATOM     32  H   UNL A   1      39.518  18.545  25.583  1.00  0.00     0.163 HD
ATOM     33  O   UNL A   1      41.917  18.303  25.936  1.00  0.00    -0.269 OA
BRANCH  31  34
ATOM     34  C   UNL A   1      41.989  20.578  26.504  1.00  0.00     0.039 A 
ATOM     35  C   UNL A   1      42.422  21.489  25.537  1.00  0.00     0.014 A 
ATOM     36  C   UNL A   1      42.153  20.855  27.863  1.00  0.00     0.014 A 
ATOM     37  C   UNL A   1      42.940  22.722  25.937  1.00  0.00     0.010 A 
ATOM     38  C   UNL A   1      42.601  22.110  28.256  1.00  0.00     0.010 A 
ATOM     39  C   UNL A   1      42.991  23.060  27.299  1.00  0.00    -0.014 A 
BRANCH  39  40
ATOM     40  C   UNL A   1      43.444  24.396  27.763  1.00  0.00     0.031 A 
ATOM     41  C   UNL A   1      42.423  25.438  28.125  1.00  0.00     0.074 A 
ATOM     42  C   UNL A   1      44.755  24.708  27.749  1.00  0.00     0.049 A 
ATOM     43  N   UNL A   1      42.589  26.712  28.369  1.00  0.00    -0.248 NA
ATOM     44  C   UNL A   1      41.021  24.992  28.184  1.00  0.00     0.031 C 
ATOM     45  C   UNL A   1      45.841  23.799  27.380  1.00  0.00     0.029 A 
ATOM     46  N   UNL A   1      45.395  25.892  28.027  1.00  0.00    -0.354 N 
ATOM     47  C   UNL A   1      41.314  27.226  28.569  1.00  0.00     0.074 A 
ATOM     48  C   UNL A   1      40.382  26.135  28.391  1.00  0.00     0.031 C 
ATOM     49  C   UNL A   1      47.011  24.456  27.455  1.00  0.00     0.029 A 
ATOM     50  C   UNL A   1      46.755  25.842  27.835  1.00  0.00     0.049 A 
ATOM     51  H   UNL A   1      44.924  26.700  28.333  1.00  0.00     0.167 HD
ATOM     52  C   UNL A   1      40.959  28.492  28.886  1.00  0.00     0.037 A 
ATOM     53  C   UNL A   1      47.687  26.811  27.935  1.00  0.00     0.037 A 
ATOM     54  C   UNL A   1      41.891  29.560  29.124  1.00  0.00     0.049 A 
ATOM     55  C   UNL A   1      47.260  28.204  28.316  1.00  0.00     0.074 A 
ATOM     56  C   UNL A   1      41.630  30.856  29.534  1.00  0.00     0.029 A 
ATOM     57  N   UNL A   1      43.265  29.452  28.982  1.00  0.00    -0.354 N 
ATOM     58  N   UNL A   1      46.058  28.663  28.565  1.00  0.00    -0.248 NA
ATOM     59  C   UNL A   1      48.322  29.217  28.434  1.00  0.00     0.031 C 
ATOM     60  C   UNL A   1      42.845  31.543  29.608  1.00  0.00     0.029 A 
ATOM     61  C   UNL A   1      43.864  30.663  29.284  1.00  0.00     0.049 A 
ATOM     62  H   UNL A   1      43.744  28.637  28.707  1.00  0.00     0.167 HD
ATOM     63  C   UNL A   1      46.222  29.999  28.905  1.00  0.00     0.074 A 
ATOM     64  C   UNL A   1      47.640  30.280  28.835  1.00  0.00     0.031 C 
ATOM     65  C   UNL A   1      45.281  30.913  29.245  1.00  0.00     0.037 A 
BRANCH  52  66
ATOM     66  C   UNL A   1      39.496  28.801  29.007  1.00  0.00     0.064 A 
ATOM     67  C   UNL A   1      38.820  28.687  30.230  1.00  0.00     0.173 A 
ATOM     68  C   UNL A   1      38.782  29.284  27.900  1.00  0.00     0.173 A 
ATOM     69  F   UNL A   1      39.456  28.218  31.313  1.00  0.00    -0.203 F 
ATOM     70  C   UNL A   1      37.475  29.033  30.336  1.00  0.00     0.198 A 
ATOM     71  C   UNL A   1      37.446  29.653  28.017  1.00  0.00     0.198 A 
ATOM     72  F   UNL A   1      39.387  29.415  26.709  1.00  0.00    -0.203 F 
ATOM     73  F   UNL A   1      36.839  28.886  31.506  1.00  0.00    -0.200 F 
ATOM     74  C   UNL A   1      36.792  29.524  29.234  1.00  0.00     0.200 A 
ATOM     75  F   UNL A   1      36.790  30.140  26.954  1.00  0.00    -0.200 F 
ATOM     76  F   UNL A   1      35.503  29.872  29.342  1.00  0.00    -0.200 F 
ENDBRANCH  52  66
BRANCH  53  77
ATOM     77  C   UNL A   1      49.118  26.509  27.675  1.00  0.00     0.064 A 
ATOM     78  C   UNL A   1      50.006  26.273  28.734  1.00  0.00     0.173 A 
ATOM     79  C   UNL A   1      49.638  26.488  26.372  1.00  0.00     0.173 A 
ATOM     80  F   UNL A   1      49.561  26.304  30.000  1.00  0.00    -0.203 F 
ATOM     81  C   UNL A   1      51.363  26.059  28.503  1.00  0.00     0.198 A 
ATOM     82  C   UNL A   1      50.990  26.246  26.142  1.00  0.00     0.198 A 
ATOM     83  F   UNL A   1      48.830  26.704  25.324  1.00  0.00    -0.203 F 
ATOM     84  F   UNL A   1      52.198  25.895  29.539  1.00  0.00    -0.200 F 
ATOM     85  C   UNL A   1      51.854  26.043  27.207  1.00  0.00     0.200 A 
ATOM     86  F   UNL A   1      51.459  26.221  24.886  1.00  0.00    -0.200 F 
ATOM     87  F   UNL A   1      53.161  25.846  26.986  1.00  0.00    -0.200 F 
ENDBRANCH  53  77
BRANCH  65  88
ATOM     88  C   UNL A   1      45.751  32.283  29.631  1.00  0.00     0.064 A 
ATOM     89  C   UNL A   1      45.847  33.319  28.694  1.00  0.00     0.173 A 
ATOM     90  C   UNL A   1      46.043  32.575  30.972  1.00  0.00     0.173 A 
ATOM     91  F   UNL A   1      45.593  33.084  27.398  1.00  0.00    -0.203 F 
ATOM     92  C   UNL A   1      46.231  34.600  29.083  1.00  0.00     0.198 A 
ATOM     93  C   UNL A   1      46.401  33.862  31.363  1.00  0.00     0.198 A 
ATOM     94  F   UNL A   1      45.958  31.616  31.907  1.00  0.00    -0.203 F 
ATOM     95  F   UNL A   1      46.348  35.570  28.167  1.00  0.00    -0.200 F 
ATOM     96  C   UNL A   1      46.498  34.871  30.417  1.00  0.00     0.200 A 
ATOM     97  F   UNL A   1      46.646  34.125  32.653  1.00  0.00    -0.200 F 
ATOM     98  F   UNL A   1      46.854  36.108  30.792  1.00  0.00    -0.200 F 
ENDBRANCH  65  88
ENDBRANCH  39  40
ENDBRANCH  31  34
ENDBRANCH  29  30
ENDBRANCH  28  29
ENDBRANCH   1  28
TORSDOF 14
ENDMDL
MODEL 2
REMARK VINA RESULT:     -13.2      5.230     10.529
REMARK SMILES O=C(NCCCCNC(=O)c1ccc(-c2c3nc(c(-c4c(F)c(F)c(F)c(F)c4F)c4ccc([nH]4)c(-c4c(F)c(F)c(F)c(F)c4F)c4nc(c(-c5c(F)c(F)c(F)c(F)c5F)c5ccc2[nH]5)C=C4)C=C3)cc1)c1ccc(NS(=O)(=O)C2=Cc3ccccc3CC2)cc1
REMARK SMILES IDX 5 1 4 2 3 3 1 4 2 5 74 7 75 8 93 9 76 10 92 11 77 12 78 13
REMARK SMILES IDX 79 15 80 16 81 17 82 18 83 19 91 20 84 21 90 22 85 23 89 24
REMARK SMILES IDX 86 25 88 26 87 27 6 28 7 29 8 30 9 31 10 33 11 34 12 35
REMARK SMILES IDX 73 36 13 37 72 38 14 39 15 40 16 41 66 42 17 43 71 44 65 45
REMARK SMILES IDX 67 46 18 47 70 48 64 49 63 50 19 52 51 53 31 54 50 55 32 56
REMARK SMILES IDX 35 57 49 58 68 59 33 60 34 61 48 63 69 64 36 65 20 66 21 67
REMARK SMILES IDX 29 68 22 69 23 70 27 71 30 72 24 73 25 74 28 75 26 76 52 77
REMARK SMILES IDX 53 78 61 79 54 80 55 81 59 82 62 83 56 84 57 85 60 86 58 87
REMARK SMILES IDX 37 88 38 89 46 90 39 91 40 92 44 93 47 94 41 95 42 96 45 97
REMARK SMILES IDX 43 98
REMARK H PARENT 3 6 78 14 8 32 67 51 35 62
REMARK Flexibility Score: inf
ROOT
ATOM      1  C   UNL A   1      32.092  30.274  26.702  1.00  0.00     0.023 C 
ENDROOT
BRANCH   1   2
ATOM      2  C   UNL A   1      32.073  29.816  25.246  1.00  0.00     0.116 C 
BRANCH   2   3
ATOM      3  N   UNL A   1      30.843  30.188  24.569  1.00  0.00    -0.352 N 
ATOM      4  O   UNL A   1      29.200  29.994  23.032  1.00  0.00    -0.269 OA
ATOM      5  C   UNL A   1      30.118  29.469  23.652  1.00  0.00     0.251 C 
ATOM      6  H   UNL A   1      30.480  31.074  24.799  1.00  0.00     0.163 HD
BRANCH   5   7
ATOM      7  C   UNL A   1      30.447  28.047  23.419  1.00  0.00     0.039 A 
ATOM      8  C   UNL A   1      29.914  27.061  24.252  1.00  0.00     0.016 A 
ATOM      9  C   UNL A   1      31.240  27.691  22.325  1.00  0.00     0.016 A 
ATOM     10  C   UNL A   1      30.213  25.721  24.017  1.00  0.00     0.027 A 
ATOM     11  C   UNL A   1      31.548  26.344  22.099  1.00  0.00     0.027 A 
ATOM     12  C   UNL A   1      31.041  25.358  22.953  1.00  0.00     0.049 A 
BRANCH  12  13
ATOM     13  N   UNL A   1      31.244  23.975  22.663  1.00  0.00    -0.280 N 
ATOM     14  H   UNL A   1      30.507  23.436  22.296  1.00  0.00     0.180 HD
BRANCH  13  15
ATOM     15  S   UNL A   1      32.762  23.257  22.951  1.00  0.00     0.258 S 
ATOM     16  O   UNL A   1      32.666  21.959  22.316  1.00  0.00    -0.202 OA
ATOM     17  O   UNL A   1      33.731  24.216  22.448  1.00  0.00    -0.202 OA
BRANCH  15  18
ATOM     18  C   UNL A   1      32.980  23.075  24.699  1.00  0.00     0.066 C 
ATOM     19  C   UNL A   1      33.666  21.983  25.102  1.00  0.00     0.026 C 
ATOM     20  C   UNL A   1      33.296  24.360  25.428  1.00  0.00     0.055 C 
ATOM     21  C   UNL A   1      35.139  22.190  25.219  1.00  0.00    -0.021 A 
ATOM     22  C   UNL A   1      34.783  24.711  25.266  1.00  0.00     0.041 C 
ATOM     23  C   UNL A   1      35.986  21.079  25.257  1.00  0.00     0.008 A 
ATOM     24  C   UNL A   1      35.681  23.491  25.280  1.00  0.00    -0.040 A 
ATOM     25  C   UNL A   1      37.369  21.256  25.303  1.00  0.00     0.001 A 
ATOM     26  C   UNL A   1      37.071  23.655  25.301  1.00  0.00     0.004 A 
ATOM     27  C   UNL A   1      37.910  22.540  25.309  1.00  0.00     0.000 A 
ENDBRANCH  15  18
ENDBRANCH  13  15
ENDBRANCH  12  13
ENDBRANCH   5   7
ENDBRANCH   2   3
ENDBRANCH   1   2
BRANCH   1  28
ATOM     28  C   UNL A   1      31.728  31.740  26.926  1.00  0.00     0.023 C 
BRANCH  28  29
ATOM     29  C   UNL A   1      32.877  32.633  27.377  1.00  0.00     0.116 C 
BRANCH  29  30
ATOM     30  N   UNL A   1      32.463  33.999  27.667  1.00  0.00    -0.352 N 
ATOM     31  C   UNL A   1      32.992  34.882  28.579  1.00  0.00     0.251 C 
ATOM     32  H   UNL A   1      31.703  34.334  27.140  1.00  0.00     0.163 HD
ATOM     33  O   UNL A   1      32.456  35.965  28.786  1.00  0.00    -0.269 OA
BRANCH  31  34
ATOM     34  C   UNL A   1      34.198  34.493  29.338  1.00  0.00     0.039 A 
ATOM     35  C   UNL A   1      34.050  33.874  30.581  1.00  0.00     0.014 A 
ATOM     36  C   UNL A   1      35.468  34.685  28.788  1.00  0.00     0.014 A 
ATOM     37  C   UNL A   1      35.173  33.364  31.235  1.00  0.00     0.010 A 
ATOM     38  C   UNL A   1      36.574  34.114  29.405  1.00  0.00     0.010 A 
ATOM     39  C   UNL A   1      36.438  33.440  30.629  1.00  0.00    -0.014 A 
BRANCH  39  40
ATOM     40  C   UNL A   1      37.643  32.826  31.243  1.00  0.00     0.031 A 
ATOM     41  C   UNL A   1      38.294  31.648  30.574  1.00  0.00     0.074 A 
ATOM     42  C   UNL A   1      38.080  33.249  32.446  1.00  0.00     0.049 A 
ATOM     43  N   UNL A   1      39.227  30.849  31.025  1.00  0.00    -0.248 NA
ATOM     44  C   UNL A   1      37.803  31.299  29.231  1.00  0.00     0.031 C 
ATOM     45  C   UNL A   1      37.509  34.354  33.216  1.00  0.00     0.029 A 
ATOM     46  N   UNL A   1      39.089  32.774  33.248  1.00  0.00    -0.354 N 
ATOM     47  C   UNL A   1      39.404  29.884  30.042  1.00  0.00     0.074 A 
ATOM     48  C   UNL A   1      38.464  30.178  28.983  1.00  0.00     0.031 C 
ATOM     49  C   UNL A   1      38.177  34.476  34.376  1.00  0.00     0.029 A 
ATOM     50  C   UNL A   1      39.193  33.430  34.451  1.00  0.00     0.049 A 
ATOM     51  H   UNL A   1      39.683  32.033  32.986  1.00  0.00     0.167 HD
ATOM     52  C   UNL A   1      40.282  28.855  30.023  1.00  0.00     0.037 A 
ATOM     53  C   UNL A   1      40.002  33.199  35.504  1.00  0.00     0.037 A 
ATOM     54  C   UNL A   1      41.257  28.603  31.048  1.00  0.00     0.049 A 
ATOM     55  C   UNL A   1      40.987  32.061  35.439  1.00  0.00     0.074 A 
ATOM     56  C   UNL A   1      42.247  27.635  31.077  1.00  0.00     0.029 A 
ATOM     57  N   UNL A   1      41.372  29.330  32.223  1.00  0.00    -0.354 N 
ATOM     58  N   UNL A   1      41.188  31.195  34.477  1.00  0.00    -0.248 NA
ATOM     59  C   UNL A   1      41.861  31.871  36.607  1.00  0.00     0.031 C 
ATOM     60  C   UNL A   1      42.940  27.755  32.284  1.00  0.00     0.029 A 
ATOM     61  C   UNL A   1      42.408  28.823  32.989  1.00  0.00     0.049 A 
ATOM     62  H   UNL A   1      40.802  30.091  32.475  1.00  0.00     0.167 HD
ATOM     63  C   UNL A   1      42.232  30.386  34.905  1.00  0.00     0.074 A 
ATOM     64  C   UNL A   1      42.627  30.865  36.212  1.00  0.00     0.031 C 
ATOM     65  C   UNL A   1      42.812  29.338  34.270  1.00  0.00     0.037 A 
BRANCH  52  66
ATOM     66  C   UNL A   1      40.243  27.921  28.851  1.00  0.00     0.064 A 
ATOM     67  C   UNL A   1      40.971  28.178  27.681  1.00  0.00     0.173 A 
ATOM     68  C   UNL A   1      39.522  26.719  28.928  1.00  0.00     0.173 A 
ATOM     69  F   UNL A   1      41.665  29.319  27.554  1.00  0.00    -0.203 F 
ATOM     70  C   UNL A   1      40.968  27.271  26.624  1.00  0.00     0.198 A 
ATOM     71  C   UNL A   1      39.543  25.804  27.881  1.00  0.00     0.198 A 
ATOM     72  F   UNL A   1      38.813  26.425  30.030  1.00  0.00    -0.203 F 
ATOM     73  F   UNL A   1      41.645  27.552  25.502  1.00  0.00    -0.200 F 
ATOM     74  C   UNL A   1      40.263  26.082  26.729  1.00  0.00     0.200 A 
ATOM     75  F   UNL A   1      38.871  24.649  27.989  1.00  0.00    -0.200 F 
ATOM     76  F   UNL A   1      40.275  25.203  25.717  1.00  0.00    -0.200 F 
ENDBRANCH  52  66
BRANCH  53  77
ATOM     77  C   UNL A   1      39.926  34.058  36.714  1.00  0.00     0.064 A 
ATOM     78  C   UNL A   1      39.073  33.728  37.777  1.00  0.00     0.173 A 
ATOM     79  C   UNL A   1      40.670  35.243  36.820  1.00  0.00     0.173 A 
ATOM     80  F   UNL A   1      38.324  32.616  37.713  1.00  0.00    -0.203 F 
ATOM     81  C   UNL A   1      38.943  34.565  38.884  1.00  0.00     0.198 A 
ATOM     82  C   UNL A   1      40.560  36.064  37.940  1.00  0.00     0.198 A 
ATOM     83  F   UNL A   1      41.504  35.602  35.833  1.00  0.00    -0.203 F 
ATOM     84  F   UNL A   1      38.076  34.253  39.857  1.00  0.00    -0.200 F 
ATOM     85  C   UNL A   1      39.688  35.731  38.966  1.00  0.00     0.200 A 
ATOM     86  F   UNL A   1      41.290  37.184  38.021  1.00  0.00    -0.200 F 
ATOM     87  F   UNL A   1      39.556  36.539  40.026  1.00  0.00    -0.200 F 
ENDBRANCH  53  77
BRANCH  65  88
ATOM     88  C   UNL A   1      43.976  28.676  34.944  1.00  0.00     0.064 A 
ATOM     89  C   UNL A   1      45.288  29.133  34.763  1.00  0.00     0.173 A 
ATOM     90  C   UNL A   1      43.763  27.614  35.835  1.00  0.00     0.173 A 
ATOM     91  F   UNL A   1      45.543  30.136  33.909  1.00  0.00    -0.203 F 
ATOM     92  C   UNL A   1      46.349  28.540  35.442  1.00  0.00     0.198 A 
ATOM     93  C   UNL A   1      44.822  27.040  36.532  1.00  0.00     0.198 A 
ATOM     94  F   UNL A   1      42.522  27.147  36.046  1.00  0.00    -0.203 F 
ATOM     95  F   UNL A   1      47.600  28.969  35.232  1.00  0.00    -0.200 F 
ATOM     96  C   UNL A   1      46.114  27.502  36.332  1.00  0.00     0.200 A 
ATOM     97  F   UNL A   1      44.591  26.047  37.400  1.00  0.00    -0.200 F 
ATOM     98  F   UNL A   1      47.135  26.942  36.995  1.00  0.00    -0.200 F 
ENDBRANCH  65  88
ENDBRANCH  39  40
ENDBRANCH  31  34
ENDBRANCH  29  30
ENDBRANCH  28  29
ENDBRANCH   1  28
TORSDOF 14
ENDMDL
MODEL 3
REMARK VINA RESULT:     -13.2      0.811      1.853
REMARK SMILES O=C(NCCCCNC(=O)c1ccc(-c2c3nc(c(-c4c(F)c(F)c(F)c(F)c4F)c4ccc([nH]4)c(-c4c(F)c(F)c(F)c(F)c4F)c4nc(c(-c5c(F)c(F)c(F)c(F)c5F)c5ccc2[nH]5)C=C4)C=C3)cc1)c1ccc(NS(=O)(=O)C2=Cc3ccccc3CC2)cc1
REMARK SMILES IDX 5 1 4 2 3 3 1 4 2 5 74 7 75 8 93 9 76 10 92 11 77 12 78 13
REMARK SMILES IDX 79 15 80 16 81 17 82 18 83 19 91 20 84 21 90 22 85 23 89 24
REMARK SMILES IDX 86 25 88 26 87 27 6 28 7 29 8 30 9 31 10 33 11 34 12 35
REMARK SMILES IDX 73 36 13 37 72 38 14 39 15 40 16 41 66 42 17 43 71 44 65 45
REMARK SMILES IDX 67 46 18 47 70 48 64 49 63 50 19 52 51 53 31 54 50 55 32 56
REMARK SMILES IDX 35 57 49 58 68 59 33 60 34 61 48 63 69 64 36 65 20 66 21 67
REMARK SMILES IDX 29 68 22 69 23 70 27 71 30 72 24 73 25 74 28 75 26 76 52 77
REMARK SMILES IDX 53 78 61 79 54 80 55 81 59 82 62 83 56 84 57 85 60 86 58 87
REMARK SMILES IDX 37 88 38 89 46 90 39 91 40 92 44 93 47 94 41 95 42 96 45 97
REMARK SMILES IDX 43 98
REMARK H PARENT 3 6 78 14 8 32 67 51 35 62
REMARK Flexibility Score: inf
ROOT
ATOM      1  C   UNL A   1      36.977  21.433  24.764  1.00  0.00     0.023 C 
ENDROOT
BRANCH   1   2
ATOM      2  C   UNL A   1      35.812  21.545  25.743  1.00  0.00     0.116 C 
BRANCH   2   3
ATOM      3  N   UNL A   1      35.002  20.340  25.773  1.00  0.00    -0.352 N 
ATOM      4  O   UNL A   1      33.089  19.143  25.679  1.00  0.00    -0.269 OA
ATOM      5  C   UNL A   1      33.683  20.185  25.425  1.00  0.00     0.251 C 
ATOM      6  H   UNL A   1      35.459  19.525  26.082  1.00  0.00     0.163 HD
BRANCH   5   7
ATOM      7  C   UNL A   1      32.979  21.284  24.732  1.00  0.00     0.039 A 
ATOM      8  C   UNL A   1      33.239  21.540  23.383  1.00  0.00     0.016 A 
ATOM      9  C   UNL A   1      32.008  22.022  25.414  1.00  0.00     0.016 A 
ATOM     10  C   UNL A   1      32.560  22.565  22.731  1.00  0.00     0.027 A 
ATOM     11  C   UNL A   1      31.336  23.060  24.756  1.00  0.00     0.027 A 
ATOM     12  C   UNL A   1      31.620  23.338  23.416  1.00  0.00     0.049 A 
BRANCH  12  13
ATOM     13  N   UNL A   1      30.856  24.309  22.700  1.00  0.00    -0.280 N 
ATOM     14  H   UNL A   1      30.024  24.043  22.246  1.00  0.00     0.180 HD
BRANCH  13  15
ATOM     15  S   UNL A   1      31.383  25.928  22.631  1.00  0.00     0.258 S 
ATOM     16  O   UNL A   1      32.670  25.910  23.293  1.00  0.00    -0.202 OA
ATOM     17  O   UNL A   1      31.320  26.281  21.223  1.00  0.00    -0.202 OA
BRANCH  15  18
ATOM     18  C   UNL A   1      30.239  26.935  23.533  1.00  0.00     0.066 C 
ATOM     19  C   UNL A   1      30.284  26.826  24.879  1.00  0.00     0.026 C 
ATOM     20  C   UNL A   1      30.072  28.335  22.990  1.00  0.00     0.055 C 
ATOM     21  C   UNL A   1      31.220  27.779  25.542  1.00  0.00    -0.021 A 
ATOM     22  C   UNL A   1      31.237  29.225  23.447  1.00  0.00     0.041 C 
ATOM     23  C   UNL A   1      31.637  27.529  26.853  1.00  0.00     0.008 A 
ATOM     24  C   UNL A   1      31.694  28.918  24.858  1.00  0.00    -0.040 A 
ATOM     25  C   UNL A   1      32.561  28.376  27.466  1.00  0.00     0.001 A 
ATOM     26  C   UNL A   1      32.639  29.747  25.476  1.00  0.00     0.004 A 
ATOM     27  C   UNL A   1      33.072  29.473  26.773  1.00  0.00     0.000 A 
ENDBRANCH  15  18
ENDBRANCH  13  15
ENDBRANCH  12  13
ENDBRANCH   5   7
ENDBRANCH   2   3
ENDBRANCH   1   2
BRANCH   1  28
ATOM     28  C   UNL A   1      37.869  20.209  24.956  1.00  0.00     0.023 C 
BRANCH  28  29
ATOM     29  C   UNL A   1      39.144  20.453  25.754  1.00  0.00     0.116 C 
BRANCH  29  30
ATOM     30  N   UNL A   1      40.021  19.291  25.803  1.00  0.00    -0.352 N 
ATOM     31  C   UNL A   1      41.376  19.246  26.039  1.00  0.00     0.251 C 
ATOM     32  H   UNL A   1      39.586  18.422  25.647  1.00  0.00     0.163 HD
ATOM     33  O   UNL A   1      41.995  18.193  25.935  1.00  0.00    -0.269 OA
BRANCH  31  34
ATOM     34  C   UNL A   1      42.086  20.494  26.383  1.00  0.00     0.039 A 
ATOM     35  C   UNL A   1      42.559  21.314  25.356  1.00  0.00     0.014 A 
ATOM     36  C   UNL A   1      42.225  20.879  27.719  1.00  0.00     0.014 A 
ATOM     37  C   UNL A   1      43.092  22.567  25.665  1.00  0.00     0.010 A 
ATOM     38  C   UNL A   1      42.689  22.154  28.019  1.00  0.00     0.010 A 
ATOM     39  C   UNL A   1      43.119  23.015  26.996  1.00  0.00    -0.014 A 
BRANCH  39  40
ATOM     40  C   UNL A   1      43.587  24.377  27.360  1.00  0.00     0.031 A 
ATOM     41  C   UNL A   1      42.601  25.380  27.889  1.00  0.00     0.074 A 
ATOM     42  C   UNL A   1      44.860  24.743  27.109  1.00  0.00     0.049 A 
ATOM     43  N   UNL A   1      42.751  26.664  28.088  1.00  0.00    -0.248 NA
ATOM     44  C   UNL A   1      41.254  24.877  28.202  1.00  0.00     0.031 C 
ATOM     45  C   UNL A   1      45.901  23.876  26.559  1.00  0.00     0.029 A 
ATOM     46  N   UNL A   1      45.485  25.958  27.257  1.00  0.00    -0.354 N 
ATOM     47  C   UNL A   1      41.511  27.127  28.509  1.00  0.00     0.074 A 
ATOM     48  C   UNL A   1      40.611  25.994  28.510  1.00  0.00     0.031 C 
ATOM     49  C   UNL A   1      47.036  24.582  26.418  1.00  0.00     0.029 A 
ATOM     50  C   UNL A   1      46.790  25.962  26.826  1.00  0.00     0.049 A 
ATOM     51  H   UNL A   1      45.040  26.751  27.636  1.00  0.00     0.167 HD
ATOM     52  C   UNL A   1      41.162  28.383  28.873  1.00  0.00     0.037 A 
ATOM     53  C   UNL A   1      47.680  26.972  26.748  1.00  0.00     0.037 A 
ATOM     54  C   UNL A   1      42.073  29.492  28.931  1.00  0.00     0.049 A 
ATOM     55  C   UNL A   1      47.266  28.352  27.188  1.00  0.00     0.074 A 
ATOM     56  C   UNL A   1      41.832  30.783  29.370  1.00  0.00     0.029 A 
ATOM     57  N   UNL A   1      43.403  29.441  28.546  1.00  0.00    -0.354 N 
ATOM     58  N   UNL A   1      46.109  28.763  27.644  1.00  0.00    -0.248 NA
ATOM     59  C   UNL A   1      48.286  29.410  27.104  1.00  0.00     0.031 C 
ATOM     60  C   UNL A   1      43.008  31.522  29.218  1.00  0.00     0.029 A 
ATOM     61  C   UNL A   1      43.992  30.681  28.725  1.00  0.00     0.049 A 
ATOM     62  H   UNL A   1      43.861  28.642  28.197  1.00  0.00     0.167 HD
ATOM     63  C   UNL A   1      46.272  30.110  27.937  1.00  0.00     0.074 A 
ATOM     64  C   UNL A   1      47.640  30.450  27.611  1.00  0.00     0.031 C 
ATOM     65  C   UNL A   1      45.366  30.989  28.431  1.00  0.00     0.037 A 
BRANCH  52  66
ATOM     66  C   UNL A   1      39.732  28.631  29.251  1.00  0.00     0.064 A 
ATOM     67  C   UNL A   1      39.274  28.438  30.561  1.00  0.00     0.173 A 
ATOM     68  C   UNL A   1      38.827  29.136  28.303  1.00  0.00     0.173 A 
ATOM     69  F   UNL A   1      40.097  27.946  31.499  1.00  0.00    -0.203 F 
ATOM     70  C   UNL A   1      37.957  28.729  30.908  1.00  0.00     0.198 A 
ATOM     71  C   UNL A   1      37.520  29.449  28.660  1.00  0.00     0.198 A 
ATOM     72  F   UNL A   1      39.220  29.341  27.036  1.00  0.00    -0.203 F 
ATOM     73  F   UNL A   1      37.531  28.507  32.158  1.00  0.00    -0.200 F 
ATOM     74  C   UNL A   1      37.084  29.243  29.960  1.00  0.00     0.200 A 
ATOM     75  F   UNL A   1      36.682  29.958  27.745  1.00  0.00    -0.200 F 
ATOM     76  F   UNL A   1      35.822  29.537  30.299  1.00  0.00    -0.200 F 
ENDBRANCH  52  66
BRANCH  53  77
ATOM     77  C   UNL A   1      49.054  26.726  26.239  1.00  0.00     0.064 A 
ATOM     78  C   UNL A   1      49.390  27.018  24.909  1.00  0.00     0.173 A 
ATOM     79  C   UNL A   1      50.047  26.161  27.053  1.00  0.00     0.173 A 
ATOM     80  F   UNL A   1      48.468  27.539  24.086  1.00  0.00    -0.203 F 
ATOM     81  C   UNL A   1      50.655  26.725  24.404  1.00  0.00     0.198 A 
ATOM     82  C   UNL A   1      51.320  25.894  26.553  1.00  0.00     0.198 A 
ATOM     83  F   UNL A   1      49.779  25.866  28.333  1.00  0.00    -0.203 F 
ATOM     84  F   UNL A   1      50.929  26.960  23.114  1.00  0.00    -0.200 F 
ATOM     85  C   UNL A   1      51.620  26.166  25.227  1.00  0.00     0.200 A 
ATOM     86  F   UNL A   1      52.254  25.364  27.355  1.00  0.00    -0.200 F 
ATOM     87  F   UNL A   1      52.834  25.876  24.739  1.00  0.00    -0.200 F 
ENDBRANCH  53  77
BRANCH  65  88
ATOM     88  C   UNL A   1      45.836  32.384  28.715  1.00  0.00     0.064 A 
ATOM     89  C   UNL A   1      46.413  32.731  29.944  1.00  0.00     0.173 A 
ATOM     90  C   UNL A   1      45.768  33.366  27.715  1.00  0.00     0.173 A 
ATOM     91  F   UNL A   1      46.485  31.830  30.935  1.00  0.00    -0.203 F 
ATOM     92  C   UNL A   1      46.894  34.019  30.167  1.00  0.00     0.198 A 
ATOM     93  C   UNL A   1      46.273  34.645  27.932  1.00  0.00     0.198 A 
ATOM     94  F   UNL A   1      45.231  33.078  26.520  1.00  0.00    -0.203 F 
ATOM     95  F   UNL A   1      47.413  34.341  31.359  1.00  0.00    -0.200 F 
ATOM     96  C   UNL A   1      46.832  34.970  29.158  1.00  0.00     0.200 A 
ATOM     97  F   UNL A   1      46.225  35.557  26.953  1.00  0.00    -0.200 F 
ATOM     98  F   UNL A   1      47.310  36.205  29.371  1.00  0.00    -0.200 F 
ENDBRANCH  65  88
ENDBRANCH  39  40
ENDBRANCH  31  34
ENDBRANCH  29  30
ENDBRANCH  28  29
ENDBRANCH   1  28
TORSDOF 14
ENDMDL
