MODEL 1
REMARK VINA RESULT:     -13.1      0.000      0.000
REMARK SMILES C#Cc1cc(Cl)c2c(c1)C=C(C(=O)NCCCCNC(=O)c1ccc(-c3c4nc(c(-c5c(F)c(F)c(F)c(F)c5F)c5ccc([nH]5)c(-c5c(F)c(F)c(F)c(F)c5F)c5nc(c(-c6c(F)c(F)c(F)c(F)c6F)c6ccc3[nH]6)C=C5)C=C4)cc1)[C@@H](C(F)(F)F)O2
REMARK SMILES IDX 17 1 16 2 15 3 14 4 12 5 13 6 11 8 3 9 4 10 9 11 5 12 8 13
REMARK SMILES IDX 6 14 7 15 10 16 90 17 85 18 2 19 1 20 86 21 87 22 88 23
REMARK SMILES IDX 89 24 18 25 19 26 20 27 21 29 22 30 23 31 84 32 24 33 83 34
REMARK SMILES IDX 25 35 26 36 27 37 77 38 28 39 82 40 76 41 78 42 29 43 81 44
REMARK SMILES IDX 75 45 74 46 30 48 62 49 42 50 61 51 43 52 46 53 60 54 79 55
REMARK SMILES IDX 44 56 45 57 59 59 80 60 47 61 31 62 32 63 40 64 33 65 34 66
REMARK SMILES IDX 38 67 41 68 35 69 36 70 39 71 37 72 63 73 64 74 72 75 65 76
REMARK SMILES IDX 66 77 70 78 73 79 67 80 68 81 71 82 69 83 48 84 49 85 57 86
REMARK SMILES IDX 50 87 51 88 55 89 58 90 52 91 53 92 56 93 54 94
REMARK H PARENT 14 7 19 28 78 47 46 58
REMARK Flexibility Score: inf
ROOT
ATOM      1  C   UNL A   1      31.620  32.016  26.741  1.00  0.00     0.023 C 
ENDROOT
BRANCH   1   2
ATOM      2  C   UNL A   1      31.790  30.509  26.872  1.00  0.00     0.023 C 
BRANCH   2   3
ATOM      3  C   UNL A   1      33.188  30.033  26.498  1.00  0.00     0.116 C 
BRANCH   3   4
ATOM      4  N   UNL A   1      33.323  29.797  25.070  1.00  0.00    -0.352 N 
ATOM      5  C   UNL A   1      33.138  28.756  24.221  1.00  0.00     0.251 C 
ATOM      6  O   UNL A   1      33.331  29.000  23.027  1.00  0.00    -0.270 OA
ATOM      7  H   UNL A   1      33.630  30.602  24.597  1.00  0.00     0.163 HD
BRANCH   5   8
ATOM      8  C   UNL A   1      32.734  27.380  24.640  1.00  0.00     0.067 C 
ATOM      9  C   UNL A   1      33.892  22.728  25.303  1.00  0.00     0.027 A 
ATOM     10  C   UNL A   1      32.666  22.502  25.931  1.00  0.00     0.041 A 
ATOM     11  C   UNL A   1      34.227  24.006  24.840  1.00  0.00     0.029 A 
ATOM     12  C   UNL A   1      31.774  23.556  26.093  1.00  0.00     0.084 A 
ATOM     13  C   UNL A   1      33.331  25.068  25.002  1.00  0.00     0.020 A 
ATOM     14  Cl  UNL A   1      30.267  23.251  26.883  1.00  0.00    -0.080 Cl
ATOM     15  C   UNL A   1      32.100  24.832  25.625  1.00  0.00     0.146 A 
ATOM     16  C   UNL A   1      33.678  26.423  24.584  1.00  0.00     0.025 C 
ATOM     17  O   UNL A   1      31.198  25.827  25.849  1.00  0.00    -0.474 OA
ATOM     18  C   UNL A   1      31.344  27.043  25.086  1.00  0.00     0.314 C 
BRANCH   9  19
ATOM     19  C   UNL A   1      34.806  21.640  25.158  1.00  0.00    -0.070 C 
ATOM     20  C   UNL A   1      35.576  20.733  24.997  1.00  0.00     0.010 C 
ENDBRANCH   9  19
BRANCH  18  21
ATOM     21  C   UNL A   1      30.338  27.034  23.917  1.00  0.00     0.429 C 
ATOM     22  F   UNL A   1      29.369  26.110  24.133  1.00  0.00    -0.167 F 
ATOM     23  F   UNL A   1      29.703  28.220  23.761  1.00  0.00    -0.167 F 
ATOM     24  F   UNL A   1      30.924  26.747  22.733  1.00  0.00    -0.167 F 
ENDBRANCH  18  21
ENDBRANCH   5   8
ENDBRANCH   3   4
ENDBRANCH   2   3
ENDBRANCH   1   2
BRANCH   1  25
ATOM     25  C   UNL A   1      32.796  32.828  27.270  1.00  0.00     0.116 C 
BRANCH  25  26
ATOM     26  N   UNL A   1      32.440  34.197  27.627  1.00  0.00    -0.352 N 
ATOM     27  C   UNL A   1      33.000  34.988  28.600  1.00  0.00     0.251 C 
ATOM     28  H   UNL A   1      31.710  34.604  27.106  1.00  0.00     0.163 HD
ATOM     29  O   UNL A   1      32.523  36.078  28.891  1.00  0.00    -0.269 OA
BRANCH  27  30
ATOM     30  C   UNL A   1      34.174  34.465  29.320  1.00  0.00     0.039 A 
ATOM     31  C   UNL A   1      33.979  33.751  30.500  1.00  0.00     0.014 A 
ATOM     32  C   UNL A   1      35.445  34.584  28.749  1.00  0.00     0.014 A 
ATOM     33  C   UNL A   1      35.061  33.092  31.079  1.00  0.00     0.010 A 
ATOM     34  C   UNL A   1      36.495  33.843  29.269  1.00  0.00     0.010 A 
ATOM     35  C   UNL A   1      36.316  33.100  30.445  1.00  0.00    -0.014 A 
BRANCH  35  36
ATOM     36  C   UNL A   1      37.464  32.360  31.020  1.00  0.00     0.031 A 
ATOM     37  C   UNL A   1      37.960  32.712  32.392  1.00  0.00     0.074 A 
ATOM     38  C   UNL A   1      38.071  31.397  30.300  1.00  0.00     0.049 A 
ATOM     39  N   UNL A   1      38.958  32.200  33.066  1.00  0.00    -0.248 NA
ATOM     40  C   UNL A   1      37.260  33.800  33.094  1.00  0.00     0.031 C 
ATOM     41  C   UNL A   1      37.696  30.993  28.944  1.00  0.00     0.029 A 
ATOM     42  N   UNL A   1      39.127  30.578  30.611  1.00  0.00    -0.354 N 
ATOM     43  C   UNL A   1      38.996  32.897  34.265  1.00  0.00     0.074 A 
ATOM     44  C   UNL A   1      37.980  33.921  34.198  1.00  0.00     0.031 C 
ATOM     45  C   UNL A   1      38.480  29.973  28.558  1.00  0.00     0.029 A 
ATOM     46  C   UNL A   1      39.442  29.683  29.618  1.00  0.00     0.049 A 
ATOM     47  H   UNL A   1      39.613  30.627  31.466  1.00  0.00     0.167 HD
ATOM     48  C   UNL A   1      39.783  32.676  35.342  1.00  0.00     0.037 A 
ATOM     49  C   UNL A   1      40.399  28.735  29.569  1.00  0.00     0.037 A 
ATOM     50  C   UNL A   1      40.784  31.645  35.407  1.00  0.00     0.049 A 
ATOM     51  C   UNL A   1      41.301  28.547  30.760  1.00  0.00     0.074 A 
ATOM     52  C   UNL A   1      41.613  31.320  36.464  1.00  0.00     0.029 A 
ATOM     53  N   UNL A   1      41.093  30.777  34.370  1.00  0.00    -0.354 N 
ATOM     54  N   UNL A   1      41.289  29.170  31.914  1.00  0.00    -0.248 NA
ATOM     55  C   UNL A   1      42.348  27.523  30.645  1.00  0.00     0.031 C 
ATOM     56  C   UNL A   1      42.469  30.299  36.046  1.00  0.00     0.029 A 
ATOM     57  C   UNL A   1      42.128  29.938  34.752  1.00  0.00     0.049 A 
ATOM     58  H   UNL A   1      40.646  30.760  33.493  1.00  0.00     0.167 HD
ATOM     59  C   UNL A   1      42.303  28.598  32.670  1.00  0.00     0.074 A 
ATOM     60  C   UNL A   1      42.898  27.563  31.851  1.00  0.00     0.031 C 
ATOM     61  C   UNL A   1      42.706  28.907  33.927  1.00  0.00     0.037 A 
BRANCH  48  62
ATOM     62  C   UNL A   1      39.585  33.552  36.545  1.00  0.00     0.064 A 
ATOM     63  C   UNL A   1      40.181  34.820  36.636  1.00  0.00     0.173 A 
ATOM     64  C   UNL A   1      38.742  33.149  37.591  1.00  0.00     0.173 A 
ATOM     65  F   UNL A   1      41.009  35.248  35.669  1.00  0.00    -0.203 F 
ATOM     66  C   UNL A   1      39.957  35.641  37.737  1.00  0.00     0.198 A 
ATOM     67  C   UNL A   1      38.491  33.988  38.673  1.00  0.00     0.198 A 
ATOM     68  F   UNL A   1      38.145  31.948  37.555  1.00  0.00    -0.203 F 
ATOM     69  F   UNL A   1      40.574  36.828  37.821  1.00  0.00    -0.200 F 
ATOM     70  C   UNL A   1      39.103  35.230  38.748  1.00  0.00     0.200 A 
ATOM     71  F   UNL A   1      37.652  33.596  39.642  1.00  0.00    -0.200 F 
ATOM     72  F   UNL A   1      38.871  36.030  39.797  1.00  0.00    -0.200 F 
ENDBRANCH  48  62
BRANCH  49  73
ATOM     73  C   UNL A   1      40.523  27.871  28.365  1.00  0.00     0.064 A 
ATOM     74  C   UNL A   1      41.308  28.268  27.273  1.00  0.00     0.173 A 
ATOM     75  C   UNL A   1      39.882  26.625  28.286  1.00  0.00     0.173 A 
ATOM     76  F   UNL A   1      41.924  29.459  27.290  1.00  0.00    -0.203 F 
ATOM     77  C   UNL A   1      41.442  27.457  26.148  1.00  0.00     0.198 A 
ATOM     78  C   UNL A   1      40.043  25.801  27.174  1.00  0.00     0.198 A 
ATOM     79  F   UNL A   1      39.122  26.196  29.303  1.00  0.00    -0.203 F 
ATOM     80  F   UNL A   1      42.168  27.877  25.104  1.00  0.00    -0.200 F 
ATOM     81  C   UNL A   1      40.817  26.220  26.103  1.00  0.00     0.200 A 
ATOM     82  F   UNL A   1      39.454  24.597  27.145  1.00  0.00    -0.200 F 
ATOM     83  F   UNL A   1      40.960  25.432  25.028  1.00  0.00    -0.200 F 
ENDBRANCH  49  73
BRANCH  61  84
ATOM     84  C   UNL A   1      43.836  28.109  34.516  1.00  0.00     0.064 A 
ATOM     85  C   UNL A   1      45.159  28.570  34.478  1.00  0.00     0.173 A 
ATOM     86  C   UNL A   1      43.577  26.915  35.208  1.00  0.00     0.173 A 
ATOM     87  F   UNL A   1      45.462  29.701  33.821  1.00  0.00    -0.203 F 
ATOM     88  C   UNL A   1      46.183  27.858  35.096  1.00  0.00     0.198 A 
ATOM     89  C   UNL A   1      44.597  26.227  35.858  1.00  0.00     0.198 A 
ATOM     90  F   UNL A   1      42.327  26.434  35.287  1.00  0.00    -0.203 F 
ATOM     91  F   UNL A   1      47.446  28.299  35.012  1.00  0.00    -0.200 F 
ATOM     92  C   UNL A   1      45.901  26.695  35.796  1.00  0.00     0.200 A 
ATOM     93  F   UNL A   1      44.317  25.116  36.553  1.00  0.00    -0.200 F 
ATOM     94  F   UNL A   1      46.884  26.026  36.412  1.00  0.00    -0.200 F 
ENDBRANCH  61  84
ENDBRANCH  35  36
ENDBRANCH  27  30
ENDBRANCH  25  26
ENDBRANCH   1  25
TORSDOF 13
ENDMDL
MODEL 2
REMARK VINA RESULT:     -13.1      0.231      1.600
REMARK SMILES C#Cc1cc(Cl)c2c(c1)C=C(C(=O)NCCCCNC(=O)c1ccc(-c3c4nc(c(-c5c(F)c(F)c(F)c(F)c5F)c5ccc([nH]5)c(-c5c(F)c(F)c(F)c(F)c5F)c5nc(c(-c6c(F)c(F)c(F)c(F)c6F)c6ccc3[nH]6)C=C5)C=C4)cc1)[C@@H](C(F)(F)F)O2
REMARK SMILES IDX 17 1 16 2 15 3 14 4 12 5 13 6 11 8 3 9 4 10 9 11 5 12 8 13
REMARK SMILES IDX 6 14 7 15 10 16 90 17 85 18 2 19 1 20 86 21 87 22 88 23
REMARK SMILES IDX 89 24 18 25 19 26 20 27 21 29 22 30 23 31 84 32 24 33 83 34
REMARK SMILES IDX 25 35 26 36 27 37 77 38 28 39 82 40 76 41 78 42 29 43 81 44
REMARK SMILES IDX 75 45 74 46 30 48 62 49 42 50 61 51 43 52 46 53 60 54 79 55
REMARK SMILES IDX 44 56 45 57 59 59 80 60 47 61 31 62 32 63 40 64 33 65 34 66
REMARK SMILES IDX 38 67 41 68 35 69 36 70 39 71 37 72 63 73 64 74 72 75 65 76
REMARK SMILES IDX 66 77 70 78 73 79 67 80 68 81 71 82 69 83 48 84 49 85 57 86
REMARK SMILES IDX 50 87 51 88 55 89 58 90 52 91 53 92 56 93 54 94
REMARK H PARENT 14 7 19 28 78 47 46 58
REMARK Flexibility Score: inf
ROOT
ATOM      1  C   UNL A   1      31.632  32.019  26.748  1.00  0.00     0.023 C 
ENDROOT
BRANCH   1   2
ATOM      2  C   UNL A   1      31.809  30.512  26.872  1.00  0.00     0.023 C 
BRANCH   2   3
ATOM      3  C   UNL A   1      33.198  30.041  26.461  1.00  0.00     0.116 C 
BRANCH   3   4
ATOM      4  N   UNL A   1      33.299  29.813  25.029  1.00  0.00    -0.352 N 
ATOM      5  C   UNL A   1      33.108  28.773  24.180  1.00  0.00     0.251 C 
ATOM      6  O   UNL A   1      33.265  29.025  22.982  1.00  0.00    -0.270 OA
ATOM      7  H   UNL A   1      33.580  30.626  24.551  1.00  0.00     0.163 HD
BRANCH   5   8
ATOM      8  C   UNL A   1      32.738  27.389  24.603  1.00  0.00     0.067 C 
ATOM      9  C   UNL A   1      34.010  22.769  25.278  1.00  0.00     0.027 A 
ATOM     10  C   UNL A   1      32.790  22.514  25.906  1.00  0.00     0.041 A 
ATOM     11  C   UNL A   1      34.313  24.053  24.811  1.00  0.00     0.029 A 
ATOM     12  C   UNL A   1      31.872  23.546  26.067  1.00  0.00     0.084 A 
ATOM     13  C   UNL A   1      33.391  25.093  24.971  1.00  0.00     0.020 A 
ATOM     14  Cl  UNL A   1      30.374  23.207  26.858  1.00  0.00    -0.080 Cl
ATOM     15  C   UNL A   1      32.167  24.828  25.595  1.00  0.00     0.146 A 
ATOM     16  C   UNL A   1      33.705  26.456  24.548  1.00  0.00     0.025 C 
ATOM     17  O   UNL A   1      31.241  25.802  25.817  1.00  0.00    -0.474 OA
ATOM     18  C   UNL A   1      31.357  27.019  25.051  1.00  0.00     0.314 C 
BRANCH   9  19
ATOM     19  C   UNL A   1      34.950  21.703  25.135  1.00  0.00    -0.070 C 
ATOM     20  C   UNL A   1      35.730  20.803  24.977  1.00  0.00     0.010 C 
ENDBRANCH   9  19
BRANCH  18  21
ATOM     21  C   UNL A   1      30.351  26.982  23.882  1.00  0.00     0.429 C 
ATOM     22  F   UNL A   1      29.283  26.209  24.201  1.00  0.00    -0.167 F 
ATOM     23  F   UNL A   1      29.856  28.205  23.577  1.00  0.00    -0.167 F 
ATOM     24  F   UNL A   1      30.893  26.487  22.748  1.00  0.00    -0.167 F 
ENDBRANCH  18  21
ENDBRANCH   5   8
ENDBRANCH   3   4
ENDBRANCH   2   3
ENDBRANCH   1   2
BRANCH   1  25
ATOM     25  C   UNL A   1      32.786  32.836  27.316  1.00  0.00     0.116 C 
BRANCH  25  26
ATOM     26  N   UNL A   1      32.420  34.211  27.635  1.00  0.00    -0.352 N 
ATOM     27  C   UNL A   1      32.973  35.033  28.587  1.00  0.00     0.251 C 
ATOM     28  H   UNL A   1      31.688  34.599  27.101  1.00  0.00     0.163 HD
ATOM     29  O   UNL A   1      32.488  36.126  28.847  1.00  0.00    -0.269 OA
BRANCH  27  30
ATOM     30  C   UNL A   1      34.149  34.537  29.323  1.00  0.00     0.039 A 
ATOM     31  C   UNL A   1      33.956  33.861  30.526  1.00  0.00     0.014 A 
ATOM     32  C   UNL A   1      35.419  34.642  28.749  1.00  0.00     0.014 A 
ATOM     33  C   UNL A   1      35.041  33.225  31.125  1.00  0.00     0.010 A 
ATOM     34  C   UNL A   1      36.472  33.922  29.291  1.00  0.00     0.010 A 
ATOM     35  C   UNL A   1      36.296  33.216  30.491  1.00  0.00    -0.014 A 
BRANCH  35  36
ATOM     36  C   UNL A   1      37.447  32.500  31.089  1.00  0.00     0.031 A 
ATOM     37  C   UNL A   1      37.926  32.881  32.460  1.00  0.00     0.074 A 
ATOM     38  C   UNL A   1      38.071  31.531  30.392  1.00  0.00     0.049 A 
ATOM     39  N   UNL A   1      38.923  32.392  33.152  1.00  0.00    -0.248 NA
ATOM     40  C   UNL A   1      37.207  33.973  33.136  1.00  0.00     0.031 C 
ATOM     41  C   UNL A   1      37.714  31.099  29.040  1.00  0.00     0.029 A 
ATOM     42  N   UNL A   1      39.133  30.730  30.727  1.00  0.00    -0.354 N 
ATOM     43  C   UNL A   1      38.942  33.111  34.338  1.00  0.00     0.074 A 
ATOM     44  C   UNL A   1      37.916  34.122  34.244  1.00  0.00     0.031 C 
ATOM     45  C   UNL A   1      38.513  30.083  28.679  1.00  0.00     0.029 A 
ATOM     46  C   UNL A   1      39.468  29.821  29.752  1.00  0.00     0.049 A 
ATOM     47  H   UNL A   1      39.611  30.799  31.585  1.00  0.00     0.167 HD
ATOM     48  C   UNL A   1      39.722  32.916  35.427  1.00  0.00     0.037 A 
ATOM     49  C   UNL A   1      40.435  28.884  29.729  1.00  0.00     0.037 A 
ATOM     50  C   UNL A   1      40.733  31.899  35.518  1.00  0.00     0.049 A 
ATOM     51  C   UNL A   1      41.328  28.727  30.931  1.00  0.00     0.074 A 
ATOM     52  C   UNL A   1      41.556  31.601  36.589  1.00  0.00     0.029 A 
ATOM     53  N   UNL A   1      41.062  31.016  34.500  1.00  0.00    -0.354 N 
ATOM     54  N   UNL A   1      41.298  29.369  32.073  1.00  0.00    -0.248 NA
ATOM     55  C   UNL A   1      42.388  27.713  30.844  1.00  0.00     0.031 C 
ATOM     56  C   UNL A   1      42.428  30.583  36.196  1.00  0.00     0.029 A 
ATOM     57  C   UNL A   1      42.102  30.195  34.906  1.00  0.00     0.049 A 
ATOM     58  H   UNL A   1      40.624  30.979  33.619  1.00  0.00     0.167 HD
ATOM     59  C   UNL A   1      42.311  28.822  32.849  1.00  0.00     0.074 A 
ATOM     60  C   UNL A   1      42.926  27.780  32.053  1.00  0.00     0.031 C 
ATOM     61  C   UNL A   1      42.700  29.157  34.104  1.00  0.00     0.037 A 
BRANCH  48  62
ATOM     62  C   UNL A   1      39.503  33.811  36.612  1.00  0.00     0.064 A 
ATOM     63  C   UNL A   1      38.714  33.408  37.701  1.00  0.00     0.173 A 
ATOM     64  C   UNL A   1      40.136  35.061  36.689  1.00  0.00     0.173 A 
ATOM     65  F   UNL A   1      38.073  32.229  37.671  1.00  0.00    -0.203 F 
ATOM     66  C   UNL A   1      38.551  34.230  38.813  1.00  0.00     0.198 A 
ATOM     67  C   UNL A   1      40.001  35.864  37.819  1.00  0.00     0.198 A 
ATOM     68  F   UNL A   1      40.903  35.495  35.677  1.00  0.00    -0.203 F 
ATOM     69  F   UNL A   1      37.756  33.841  39.819  1.00  0.00    -0.200 F 
ATOM     70  C   UNL A   1      39.204  35.450  38.876  1.00  0.00     0.200 A 
ATOM     71  F   UNL A   1      40.647  37.036  37.886  1.00  0.00    -0.200 F 
ATOM     72  F   UNL A   1      39.065  36.231  39.956  1.00  0.00    -0.200 F 
ENDBRANCH  48  62
BRANCH  49  73
ATOM     73  C   UNL A   1      40.580  28.001  28.541  1.00  0.00     0.064 A 
ATOM     74  C   UNL A   1      39.929  26.760  28.483  1.00  0.00     0.173 A 
ATOM     75  C   UNL A   1      41.350  28.383  27.431  1.00  0.00     0.173 A 
ATOM     76  F   UNL A   1      39.200  26.338  29.526  1.00  0.00    -0.203 F 
ATOM     77  C   UNL A   1      40.048  25.934  27.367  1.00  0.00     0.198 A 
ATOM     78  C   UNL A   1      41.441  27.572  26.302  1.00  0.00     0.198 A 
ATOM     79  F   UNL A   1      41.991  29.561  27.432  1.00  0.00    -0.203 F 
ATOM     80  F   UNL A   1      39.446  24.738  27.354  1.00  0.00    -0.200 F 
ATOM     81  C   UNL A   1      40.795  26.345  26.273  1.00  0.00     0.200 A 
ATOM     82  F   UNL A   1      42.148  27.983  25.240  1.00  0.00    -0.200 F 
ATOM     83  F   UNL A   1      40.895  25.558  25.193  1.00  0.00    -0.200 F 
ENDBRANCH  49  73
BRANCH  61  84
ATOM     84  C   UNL A   1      43.833  28.382  34.717  1.00  0.00     0.064 A 
ATOM     85  C   UNL A   1      45.155  28.843  34.657  1.00  0.00     0.173 A 
ATOM     86  C   UNL A   1      43.578  27.214  35.453  1.00  0.00     0.173 A 
ATOM     87  F   UNL A   1      45.454  29.950  33.959  1.00  0.00    -0.203 F 
ATOM     88  C   UNL A   1      46.183  28.155  35.296  1.00  0.00     0.198 A 
ATOM     89  C   UNL A   1      44.602  26.551  36.123  1.00  0.00     0.198 A 
ATOM     90  F   UNL A   1      42.329  26.735  35.555  1.00  0.00    -0.203 F 
ATOM     91  F   UNL A   1      47.445  28.594  35.192  1.00  0.00    -0.200 F 
ATOM     92  C   UNL A   1      45.905  27.018  36.039  1.00  0.00     0.200 A 
ATOM     93  F   UNL A   1      44.326  25.465  36.860  1.00  0.00    -0.200 F 
ATOM     94  F   UNL A   1      46.891  26.373  36.675  1.00  0.00    -0.200 F 
ENDBRANCH  61  84
ENDBRANCH  35  36
ENDBRANCH  27  30
ENDBRANCH  25  26
ENDBRANCH   1  25
TORSDOF 13
ENDMDL
MODEL 3
REMARK VINA RESULT:     -13.1      0.205      1.193
REMARK SMILES C#Cc1cc(Cl)c2c(c1)C=C(C(=O)NCCCCNC(=O)c1ccc(-c3c4nc(c(-c5c(F)c(F)c(F)c(F)c5F)c5ccc([nH]5)c(-c5c(F)c(F)c(F)c(F)c5F)c5nc(c(-c6c(F)c(F)c(F)c(F)c6F)c6ccc3[nH]6)C=C5)C=C4)cc1)[C@@H](C(F)(F)F)O2
REMARK SMILES IDX 17 1 16 2 15 3 14 4 12 5 13 6 11 8 3 9 4 10 9 11 5 12 8 13
REMARK SMILES IDX 6 14 7 15 10 16 90 17 85 18 2 19 1 20 86 21 87 22 88 23
REMARK SMILES IDX 89 24 18 25 19 26 20 27 21 29 22 30 23 31 84 32 24 33 83 34
REMARK SMILES IDX 25 35 26 36 27 37 77 38 28 39 82 40 76 41 78 42 29 43 81 44
REMARK SMILES IDX 75 45 74 46 30 48 62 49 42 50 61 51 43 52 46 53 60 54 79 55
REMARK SMILES IDX 44 56 45 57 59 59 80 60 47 61 31 62 32 63 40 64 33 65 34 66
REMARK SMILES IDX 38 67 41 68 35 69 36 70 39 71 37 72 63 73 64 74 72 75 65 76
REMARK SMILES IDX 66 77 70 78 73 79 67 80 68 81 71 82 69 83 48 84 49 85 57 86
REMARK SMILES IDX 50 87 51 88 55 89 58 90 52 91 53 92 56 93 54 94
REMARK H PARENT 14 7 19 28 78 47 46 58
REMARK Flexibility Score: inf
ROOT
ATOM      1  C   UNL A   1      31.675  32.037  26.710  1.00  0.00     0.023 C 
ENDROOT
BRANCH   1   2
ATOM      2  C   UNL A   1      31.838  30.524  26.766  1.00  0.00     0.023 C 
BRANCH   2   3
ATOM      3  C   UNL A   1      33.225  30.059  26.343  1.00  0.00     0.116 C 
BRANCH   3   4
ATOM      4  N   UNL A   1      33.308  29.809  24.914  1.00  0.00    -0.352 N 
ATOM      5  C   UNL A   1      33.122  28.752  24.085  1.00  0.00     0.251 C 
ATOM      6  O   UNL A   1      33.256  28.987  22.881  1.00  0.00    -0.270 OA
ATOM      7  H   UNL A   1      33.568  30.618  24.419  1.00  0.00     0.163 HD
BRANCH   5   8
ATOM      8  C   UNL A   1      32.781  27.370  24.536  1.00  0.00     0.067 C 
ATOM      9  C   UNL A   1      34.137  22.781  25.263  1.00  0.00     0.027 A 
ATOM     10  C   UNL A   1      32.931  22.518  25.917  1.00  0.00     0.041 A 
ATOM     11  C   UNL A   1      34.411  24.062  24.771  1.00  0.00     0.029 A 
ATOM     12  C   UNL A   1      32.000  23.538  26.076  1.00  0.00     0.084 A 
ATOM     13  C   UNL A   1      33.476  25.090  24.930  1.00  0.00     0.020 A 
ATOM     14  Cl  UNL A   1      30.521  23.188  26.898  1.00  0.00    -0.080 Cl
ATOM     15  C   UNL A   1      32.267  24.817  25.578  1.00  0.00     0.146 A 
ATOM     16  C   UNL A   1      33.762  26.450  24.480  1.00  0.00     0.025 C 
ATOM     17  O   UNL A   1      31.329  25.780  25.801  1.00  0.00    -0.474 OA
ATOM     18  C   UNL A   1      31.413  26.985  25.013  1.00  0.00     0.314 C 
BRANCH   9  19
ATOM     19  C   UNL A   1      35.091  21.728  25.122  1.00  0.00    -0.070 C 
ATOM     20  C   UNL A   1      35.864  20.817  24.996  1.00  0.00     0.010 C 
ENDBRANCH   9  19
BRANCH  18  21
ATOM     21  C   UNL A   1      30.388  26.914  23.863  1.00  0.00     0.429 C 
ATOM     22  F   UNL A   1      30.926  26.286  22.788  1.00  0.00    -0.167 F 
ATOM     23  F   UNL A   1      29.276  26.215  24.193  1.00  0.00    -0.167 F 
ATOM     24  F   UNL A   1      29.976  28.137  23.461  1.00  0.00    -0.167 F 
ENDBRANCH  18  21
ENDBRANCH   5   8
ENDBRANCH   3   4
ENDBRANCH   2   3
ENDBRANCH   1   2
BRANCH   1  25
ATOM     25  C   UNL A   1      32.800  32.815  27.383  1.00  0.00     0.116 C 
BRANCH  25  26
ATOM     26  N   UNL A   1      32.434  34.186  27.719  1.00  0.00    -0.352 N 
ATOM     27  C   UNL A   1      32.994  34.998  28.676  1.00  0.00     0.251 C 
ATOM     28  H   UNL A   1      31.698  34.578  27.197  1.00  0.00     0.163 HD
ATOM     29  O   UNL A   1      32.510  36.088  28.951  1.00  0.00    -0.269 OA
BRANCH  27  30
ATOM     30  C   UNL A   1      34.177  34.496  29.396  1.00  0.00     0.039 A 
ATOM     31  C   UNL A   1      33.995  33.785  30.580  1.00  0.00     0.014 A 
ATOM     32  C   UNL A   1      35.445  34.633  28.823  1.00  0.00     0.014 A 
ATOM     33  C   UNL A   1      35.089  33.146  31.160  1.00  0.00     0.010 A 
ATOM     34  C   UNL A   1      36.508  33.911  29.344  1.00  0.00     0.010 A 
ATOM     35  C   UNL A   1      36.342  33.170  30.524  1.00  0.00    -0.014 A 
BRANCH  35  36
ATOM     36  C   UNL A   1      37.503  32.451  31.100  1.00  0.00     0.031 A 
ATOM     37  C   UNL A   1      38.005  32.828  32.465  1.00  0.00     0.074 A 
ATOM     38  C   UNL A   1      38.115  31.485  30.389  1.00  0.00     0.049 A 
ATOM     39  N   UNL A   1      39.012  32.336  33.138  1.00  0.00    -0.248 NA
ATOM     40  C   UNL A   1      37.297  33.917  33.156  1.00  0.00     0.031 C 
ATOM     41  C   UNL A   1      37.736  31.058  29.042  1.00  0.00     0.029 A 
ATOM     42  N   UNL A   1      39.183  30.682  30.704  1.00  0.00    -0.354 N 
ATOM     43  C   UNL A   1      39.051  33.050  34.327  1.00  0.00     0.074 A 
ATOM     44  C   UNL A   1      38.023  34.061  34.254  1.00  0.00     0.031 C 
ATOM     45  C   UNL A   1      38.529  30.043  28.664  1.00  0.00     0.029 A 
ATOM     46  C   UNL A   1      39.501  29.778  29.721  1.00  0.00     0.049 A 
ATOM     47  H   UNL A   1      39.675  30.749  31.554  1.00  0.00     0.167 HD
ATOM     48  C   UNL A   1      39.848  32.851  35.402  1.00  0.00     0.037 A 
ATOM     49  C   UNL A   1      40.468  28.840  29.678  1.00  0.00     0.037 A 
ATOM     50  C   UNL A   1      40.861  31.833  35.473  1.00  0.00     0.049 A 
ATOM     51  C   UNL A   1      41.381  28.679  30.865  1.00  0.00     0.074 A 
ATOM     52  C   UNL A   1      41.701  31.531  36.529  1.00  0.00     0.029 A 
ATOM     53  N   UNL A   1      41.173  30.955  34.446  1.00  0.00    -0.354 N 
ATOM     54  N   UNL A   1      41.369  29.317  32.010  1.00  0.00    -0.248 NA
ATOM     55  C   UNL A   1      42.439  27.665  30.756  1.00  0.00     0.031 C 
ATOM     56  C   UNL A   1      42.566  30.515  36.118  1.00  0.00     0.029 A 
ATOM     57  C   UNL A   1      42.220  30.132  34.832  1.00  0.00     0.049 A 
ATOM     58  H   UNL A   1      40.720  30.921  33.572  1.00  0.00     0.167 HD
ATOM     59  C   UNL A   1      42.395  28.767  32.767  1.00  0.00     0.074 A 
ATOM     60  C   UNL A   1      42.997  27.728  31.957  1.00  0.00     0.031 C 
ATOM     61  C   UNL A   1      42.804  29.097  34.017  1.00  0.00     0.037 A 
BRANCH  48  62
ATOM     62  C   UNL A   1      39.649  33.742  36.594  1.00  0.00     0.064 A 
ATOM     63  C   UNL A   1      40.226  35.020  36.660  1.00  0.00     0.173 A 
ATOM     64  C   UNL A   1      38.824  33.340  37.655  1.00  0.00     0.173 A 
ATOM     65  F   UNL A   1      41.036  35.448  35.679  1.00  0.00    -0.203 F 
ATOM     66  C   UNL A   1      40.000  35.854  37.752  1.00  0.00     0.198 A 
ATOM     67  C   UNL A   1      38.571  34.191  38.727  1.00  0.00     0.198 A 
ATOM     68  F   UNL A   1      38.246  32.129  37.642  1.00  0.00    -0.203 F 
ATOM     69  F   UNL A   1      40.598  37.051  37.813  1.00  0.00    -0.200 F 
ATOM     70  C   UNL A   1      39.163  35.444  38.778  1.00  0.00     0.200 A 
ATOM     71  F   UNL A   1      37.748  33.800  39.710  1.00  0.00    -0.200 F 
ATOM     72  F   UNL A   1      38.930  36.255  39.818  1.00  0.00    -0.200 F 
ENDBRANCH  48  62
BRANCH  49  73
ATOM     73  C   UNL A   1      40.594  27.962  28.485  1.00  0.00     0.064 A 
ATOM     74  C   UNL A   1      39.945  26.720  28.435  1.00  0.00     0.173 A 
ATOM     75  C   UNL A   1      41.341  28.350  27.362  1.00  0.00     0.173 A 
ATOM     76  F   UNL A   1      39.236  26.292  29.489  1.00  0.00    -0.203 F 
ATOM     77  C   UNL A   1      40.045  25.898  27.313  1.00  0.00     0.198 A 
ATOM     78  C   UNL A   1      41.414  27.542  26.229  1.00  0.00     0.198 A 
ATOM     79  F   UNL A   1      41.979  29.529  27.355  1.00  0.00    -0.203 F 
ATOM     80  F   UNL A   1      39.446  24.700  27.307  1.00  0.00    -0.200 F 
ATOM     81  C   UNL A   1      40.771  26.314  26.208  1.00  0.00     0.200 A 
ATOM     82  F   UNL A   1      42.100  27.959  25.155  1.00  0.00    -0.200 F 
ATOM     83  F   UNL A   1      40.853  25.532  25.123  1.00  0.00    -0.200 F 
ENDBRANCH  49  73
BRANCH  61  84
ATOM     84  C   UNL A   1      43.946  28.320  34.608  1.00  0.00     0.064 A 
ATOM     85  C   UNL A   1      45.266  28.789  34.542  1.00  0.00     0.173 A 
ATOM     86  C   UNL A   1      43.705  27.140  35.330  1.00  0.00     0.173 A 
ATOM     87  F   UNL A   1      45.552  29.907  33.857  1.00  0.00    -0.203 F 
ATOM     88  C   UNL A   1      46.303  28.097  35.162  1.00  0.00     0.198 A 
ATOM     89  C   UNL A   1      44.738  26.473  35.981  1.00  0.00     0.198 A 
ATOM     90  F   UNL A   1      42.459  26.653  35.436  1.00  0.00    -0.203 F 
ATOM     91  F   UNL A   1      47.562  28.544  35.052  1.00  0.00    -0.200 F 
ATOM     92  C   UNL A   1      46.038  26.949  35.892  1.00  0.00     0.200 A 
ATOM     93  F   UNL A   1      44.475  25.376  36.705  1.00  0.00    -0.200 F 
ATOM     94  F   UNL A   1      47.034  26.299  36.509  1.00  0.00    -0.200 F 
ENDBRANCH  61  84
ENDBRANCH  35  36
ENDBRANCH  27  30
ENDBRANCH  25  26
ENDBRANCH   1  25
TORSDOF 13
ENDMDL
