MODEL 1
REMARK VINA RESULT:     -12.2      0.000      0.000
REMARK SMILES [NH3+]CCOCC(=O)Nc1ccc(C(=O)NCCCCNC(=O)c2ccc(-c3c4nc(c(-c5c(F)c(F)c(F)c(F)c5F)c5ccc([nH]5)c(-c5c(F)c(F)c(F)c(F)c5F)c5nc(c(-c6c(F)c(F)c(F)c(F)c6F)c6ccc3[nH]6)C=C5)C=C4)cc2)c(Cl)c1
REMARK SMILES IDX 13 1 14 2 15 3 12 5 9 6 10 7 88 8 11 9 86 10 87 11 8 12 6 13
REMARK SMILES IDX 7 14 5 16 4 17 3 18 2 19 1 20 16 24 17 25 18 26 19 27 20 28
REMARK SMILES IDX 21 29 22 31 23 32 24 33 85 34 25 35 84 36 26 37 27 38 28 39
REMARK SMILES IDX 78 40 29 41 83 42 77 43 79 44 30 45 82 46 76 47 75 48 31 50
REMARK SMILES IDX 63 51 43 52 62 53 44 54 47 55 61 56 80 57 45 58 46 59 60 61
REMARK SMILES IDX 81 62 48 63 32 64 33 65 41 66 34 67 35 68 39 69 42 70 36 71
REMARK SMILES IDX 37 72 40 73 38 74 64 75 65 76 73 77 66 78 67 79 71 80 74 81
REMARK SMILES IDX 68 82 69 83 72 84 70 85 49 86 50 87 58 88 51 89 52 90 56 91
REMARK SMILES IDX 59 92 53 93 54 94 57 95 55 96
REMARK H PARENT 15 4 8 15 1 21 1 22 1 23 20 30 79 49 47 60
REMARK Flexibility Score: inf
ROOT
ATOM      1  C   UNL A   1      32.917  28.756  24.139  1.00  0.00     0.252 C 
ATOM      2  O   UNL A   1      33.260  28.829  22.954  1.00  0.00    -0.269 OA
ATOM      3  N   UNL A   1      33.283  29.823  24.908  1.00  0.00    -0.352 N 
ATOM      4  H   UNL A   1      33.641  30.575  24.385  1.00  0.00     0.163 HD
ENDROOT
BRANCH   1   5
ATOM      5  C   UNL A   1      32.081  27.586  24.551  1.00  0.00     0.058 A 
ATOM      6  C   UNL A   1      30.735  25.488  25.893  1.00  0.00     0.042 A 
ATOM      7  C   UNL A   1      32.037  25.805  26.246  1.00  0.00     0.027 A 
ATOM      8  C   UNL A   1      30.142  26.120  24.814  1.00  0.00     0.047 A 
ATOM      9  C   UNL A   1      32.707  26.819  25.562  1.00  0.00     0.017 A 
ATOM     10  C   UNL A   1      30.772  27.220  24.203  1.00  0.00     0.055 A 
ATOM     11  Cl  UNL A   1      29.669  28.111  23.234  1.00  0.00    -0.083 Cl
BRANCH   6  12
ATOM     12  N   UNL A   1      29.941  24.643  26.669  1.00  0.00    -0.324 N 
ATOM     13  C   UNL A   1      30.117  23.286  26.795  1.00  0.00     0.250 C 
ATOM     14  O   UNL A   1      29.371  22.646  27.541  1.00  0.00    -0.272 OA
ATOM     15  H   UNL A   1      29.196  25.051  27.166  1.00  0.00     0.170 HD
BRANCH  13  16
ATOM     16  C   UNL A   1      31.284  22.595  26.055  1.00  0.00     0.260 C 
BRANCH  16  17
ATOM     17  O   UNL A   1      31.166  21.235  25.686  1.00  0.00    -0.366 OA
BRANCH  17  18
ATOM     18  C   UNL A   1      32.206  20.735  24.847  1.00  0.00     0.222 C 
BRANCH  18  19
ATOM     19  C   UNL A   1      33.311  19.979  25.596  1.00  0.00     0.287 C 
BRANCH  19  20
ATOM     20  N   UNL A   1      32.853  18.913  26.485  1.00  0.00    -0.356 N 
ATOM     21  H   UNL A   1      31.834  18.905  26.510  1.00  0.00     0.344 HD
ATOM     22  H   UNL A   1      33.214  19.075  27.425  1.00  0.00     0.344 HD
ATOM     23  H   UNL A   1      33.191  18.014  26.141  1.00  0.00     0.344 HD
ENDBRANCH  19  20
ENDBRANCH  18  19
ENDBRANCH  17  18
ENDBRANCH  16  17
ENDBRANCH  13  16
ENDBRANCH   6  12
ENDBRANCH   1   5
BRANCH   3  24
ATOM     24  C   UNL A   1      33.254  30.077  26.326  1.00  0.00     0.116 C 
BRANCH  24  25
ATOM     25  C   UNL A   1      31.832  30.483  26.730  1.00  0.00     0.023 C 
BRANCH  25  26
ATOM     26  C   UNL A   1      31.570  31.983  26.780  1.00  0.00     0.023 C 
BRANCH  26  27
ATOM     27  C   UNL A   1      32.721  32.797  27.347  1.00  0.00     0.116 C 
BRANCH  27  28
ATOM     28  N   UNL A   1      32.357  34.162  27.705  1.00  0.00    -0.352 N 
ATOM     29  C   UNL A   1      32.967  34.994  28.609  1.00  0.00     0.251 C 
ATOM     30  H   UNL A   1      31.574  34.534  27.239  1.00  0.00     0.163 HD
ATOM     31  O   UNL A   1      32.499  36.099  28.863  1.00  0.00    -0.269 OA
BRANCH  29  32
ATOM     32  C   UNL A   1      34.167  34.512  29.313  1.00  0.00     0.039 A 
ATOM     33  C   UNL A   1      34.001  33.831  30.519  1.00  0.00     0.014 A 
ATOM     34  C   UNL A   1      35.433  34.662  28.742  1.00  0.00     0.014 A 
ATOM     35  C   UNL A   1      35.108  33.238  31.121  1.00  0.00     0.010 A 
ATOM     36  C   UNL A   1      36.518  33.997  29.298  1.00  0.00     0.010 A 
ATOM     37  C   UNL A   1      36.365  33.282  30.493  1.00  0.00    -0.014 A 
BRANCH  37  38
ATOM     38  C   UNL A   1      37.520  32.567  31.080  1.00  0.00     0.031 A 
ATOM     39  C   UNL A   1      38.015  32.927  32.450  1.00  0.00     0.074 A 
ATOM     40  C   UNL A   1      38.144  31.622  30.353  1.00  0.00     0.049 A 
ATOM     41  N   UNL A   1      38.989  32.392  33.143  1.00  0.00    -0.248 NA
ATOM     42  C   UNL A   1      37.351  34.055  33.122  1.00  0.00     0.031 C 
ATOM     43  C   UNL A   1      37.803  31.247  28.979  1.00  0.00     0.029 A 
ATOM     44  N   UNL A   1      39.195  30.799  30.670  1.00  0.00    -0.354 N 
ATOM     45  C   UNL A   1      39.054  33.118  34.323  1.00  0.00     0.074 A 
ATOM     46  C   UNL A   1      38.069  34.173  34.228  1.00  0.00     0.031 C 
ATOM     47  C   UNL A   1      38.599  30.241  28.587  1.00  0.00     0.029 A 
ATOM     48  C   UNL A   1      39.520  29.916  29.670  1.00  0.00     0.049 A 
ATOM     49  H   UNL A   1      39.670  30.837  31.532  1.00  0.00     0.167 HD
ATOM     50  C   UNL A   1      39.843  32.903  35.402  1.00  0.00     0.037 A 
ATOM     51  C   UNL A   1      40.449  28.943  29.642  1.00  0.00     0.037 A 
ATOM     52  C   UNL A   1      40.804  31.837  35.496  1.00  0.00     0.049 A 
ATOM     53  C   UNL A   1      41.290  28.704  30.866  1.00  0.00     0.074 A 
ATOM     54  C   UNL A   1      41.606  31.488  36.569  1.00  0.00     0.029 A 
ATOM     55  N   UNL A   1      41.094  30.945  34.473  1.00  0.00    -0.354 N 
ATOM     56  N   UNL A   1      41.278  29.336  32.015  1.00  0.00    -0.248 NA
ATOM     57  C   UNL A   1      42.262  27.605  30.794  1.00  0.00     0.031 C 
ATOM     58  C   UNL A   1      42.412  30.412  36.180  1.00  0.00     0.029 A 
ATOM     59  C   UNL A   1      42.078  30.060  34.881  1.00  0.00     0.049 A 
ATOM     60  H   UNL A   1      40.664  30.943  33.588  1.00  0.00     0.167 HD
ATOM     61  C   UNL A   1      42.225  28.703  32.807  1.00  0.00     0.074 A 
ATOM     62  C   UNL A   1      42.771  27.618  32.017  1.00  0.00     0.031 C 
ATOM     63  C   UNL A   1      42.613  28.994  34.074  1.00  0.00     0.037 A 
BRANCH  50  64
ATOM     64  C   UNL A   1      39.685  33.834  36.569  1.00  0.00     0.064 A 
ATOM     65  C   UNL A   1      40.337  35.076  36.611  1.00  0.00     0.173 A 
ATOM     66  C   UNL A   1      38.854  33.492  37.647  1.00  0.00     0.173 A 
ATOM     67  F   UNL A   1      41.154  35.444  35.613  1.00  0.00    -0.203 F 
ATOM     68  C   UNL A   1      40.188  35.929  37.702  1.00  0.00     0.198 A 
ATOM     69  C   UNL A   1      38.684  34.360  38.723  1.00  0.00     0.198 A 
ATOM     70  F   UNL A   1      38.208  32.318  37.657  1.00  0.00    -0.203 F 
ATOM     71  F   UNL A   1      40.862  37.086  37.742  1.00  0.00    -0.200 F 
ATOM     72  C   UNL A   1      39.356  35.574  38.752  1.00  0.00     0.200 A 
ATOM     73  F   UNL A   1      37.873  34.021  39.733  1.00  0.00    -0.200 F 
ATOM     74  F   UNL A   1      39.209  36.397  39.799  1.00  0.00    -0.200 F 
ENDBRANCH  50  64
BRANCH  51  75
ATOM     75  C   UNL A   1      40.596  28.090  28.435  1.00  0.00     0.064 A 
ATOM     76  C   UNL A   1      39.935  26.857  28.341  1.00  0.00     0.173 A 
ATOM     77  C   UNL A   1      41.395  28.487  27.354  1.00  0.00     0.173 A 
ATOM     78  F   UNL A   1      39.172  26.428  29.357  1.00  0.00    -0.203 F 
ATOM     79  C   UNL A   1      40.086  26.043  27.221  1.00  0.00     0.198 A 
ATOM     80  C   UNL A   1      41.524  27.684  26.221  1.00  0.00     0.198 A 
ATOM     81  F   UNL A   1      42.042  29.661  27.391  1.00  0.00    -0.203 F 
ATOM     82  F   UNL A   1      39.479  24.850  27.176  1.00  0.00    -0.200 F 
ATOM     83  C   UNL A   1      40.876  26.460  26.160  1.00  0.00     0.200 A 
ATOM     84  F   UNL A   1      42.277  28.096  25.193  1.00  0.00    -0.200 F 
ATOM     85  F   UNL A   1      41.019  25.677  25.082  1.00  0.00    -0.200 F 
ENDBRANCH  51  75
BRANCH  63  86
ATOM     86  C   UNL A   1      43.669  28.114  34.679  1.00  0.00     0.064 A 
ATOM     87  C   UNL A   1      43.336  26.940  35.370  1.00  0.00     0.173 A 
ATOM     88  C   UNL A   1      45.026  28.444  34.557  1.00  0.00     0.173 A 
ATOM     89  F   UNL A   1      42.050  26.589  35.527  1.00  0.00    -0.203 F 
ATOM     90  C   UNL A   1      44.323  26.147  35.949  1.00  0.00     0.198 A 
ATOM     91  C   UNL A   1      46.012  27.632  35.109  1.00  0.00     0.198 A 
ATOM     92  F   UNL A   1      45.397  29.553  33.899  1.00  0.00    -0.203 F 
ATOM     93  F   UNL A   1      43.979  25.062  36.657  1.00  0.00    -0.200 F 
ATOM     94  C   UNL A   1      45.659  26.491  35.815  1.00  0.00     0.200 A 
ATOM     95  F   UNL A   1      47.304  27.959  34.968  1.00  0.00    -0.200 F 
ATOM     96  F   UNL A   1      46.609  25.728  36.374  1.00  0.00    -0.200 F 
ENDBRANCH  63  86
ENDBRANCH  37  38
ENDBRANCH  29  32
ENDBRANCH  27  28
ENDBRANCH  26  27
ENDBRANCH  25  26
ENDBRANCH  24  25
ENDBRANCH   3  24
TORSDOF 17
ENDMDL
MODEL 2
REMARK VINA RESULT:     -12.1      0.663      7.472
REMARK SMILES [NH3+]CCOCC(=O)Nc1ccc(C(=O)NCCCCNC(=O)c2ccc(-c3c4nc(c(-c5c(F)c(F)c(F)c(F)c5F)c5ccc([nH]5)c(-c5c(F)c(F)c(F)c(F)c5F)c5nc(c(-c6c(F)c(F)c(F)c(F)c6F)c6ccc3[nH]6)C=C5)C=C4)cc2)c(Cl)c1
REMARK SMILES IDX 13 1 14 2 15 3 12 5 9 6 10 7 88 8 11 9 86 10 87 11 8 12 6 13
REMARK SMILES IDX 7 14 5 16 4 17 3 18 2 19 1 20 16 24 17 25 18 26 19 27 20 28
REMARK SMILES IDX 21 29 22 31 23 32 24 33 85 34 25 35 84 36 26 37 27 38 28 39
REMARK SMILES IDX 78 40 29 41 83 42 77 43 79 44 30 45 82 46 76 47 75 48 31 50
REMARK SMILES IDX 63 51 43 52 62 53 44 54 47 55 61 56 80 57 45 58 46 59 60 61
REMARK SMILES IDX 81 62 48 63 32 64 33 65 41 66 34 67 35 68 39 69 42 70 36 71
REMARK SMILES IDX 37 72 40 73 38 74 64 75 65 76 73 77 66 78 67 79 71 80 74 81
REMARK SMILES IDX 68 82 69 83 72 84 70 85 49 86 50 87 58 88 51 89 52 90 56 91
REMARK SMILES IDX 59 92 53 93 54 94 57 95 55 96
REMARK H PARENT 15 4 8 15 1 21 1 22 1 23 20 30 79 49 47 60
REMARK Flexibility Score: inf
ROOT
ATOM      1  C   UNL A   1      32.830  28.823  24.111  1.00  0.00     0.252 C 
ATOM      2  O   UNL A   1      33.105  28.932  22.911  1.00  0.00    -0.269 OA
ATOM      3  N   UNL A   1      33.238  29.868  24.890  1.00  0.00    -0.352 N 
ATOM      4  H   UNL A   1      33.565  30.637  24.369  1.00  0.00     0.163 HD
ENDROOT
BRANCH   1   5
ATOM      5  C   UNL A   1      32.021  27.639  24.536  1.00  0.00     0.058 A 
ATOM      6  C   UNL A   1      30.751  25.502  25.892  1.00  0.00     0.042 A 
ATOM      7  C   UNL A   1      32.067  25.818  26.187  1.00  0.00     0.027 A 
ATOM      8  C   UNL A   1      30.103  26.157  24.858  1.00  0.00     0.047 A 
ATOM      9  C   UNL A   1      32.699  26.852  25.496  1.00  0.00     0.017 A 
ATOM     10  C   UNL A   1      30.697  27.274  24.243  1.00  0.00     0.055 A 
ATOM     11  Cl  UNL A   1      29.544  28.182  23.351  1.00  0.00    -0.083 Cl
BRANCH   6  12
ATOM     12  N   UNL A   1      29.999  24.634  26.685  1.00  0.00    -0.324 N 
ATOM     13  C   UNL A   1      30.134  23.267  26.709  1.00  0.00     0.250 C 
ATOM     14  O   UNL A   1      29.437  22.605  27.481  1.00  0.00    -0.272 OA
ATOM     15  H   UNL A   1      29.319  25.033  27.273  1.00  0.00     0.170 HD
BRANCH  13  16
ATOM     16  C   UNL A   1      31.201  22.589  25.821  1.00  0.00     0.260 C 
BRANCH  16  17
ATOM     17  O   UNL A   1      31.154  21.190  25.624  1.00  0.00    -0.366 OA
BRANCH  17  18
ATOM     18  C   UNL A   1      32.231  20.641  24.866  1.00  0.00     0.222 C 
BRANCH  18  19
ATOM     19  C   UNL A   1      33.304  19.941  25.710  1.00  0.00     0.287 C 
BRANCH  19  20
ATOM     20  N   UNL A   1      32.842  18.795  26.492  1.00  0.00    -0.356 N 
ATOM     21  H   UNL A   1      33.036  17.935  25.980  1.00  0.00     0.344 HD
ATOM     22  H   UNL A   1      31.838  18.876  26.653  1.00  0.00     0.344 HD
ATOM     23  H   UNL A   1      33.330  18.775  27.387  1.00  0.00     0.344 HD
ENDBRANCH  19  20
ENDBRANCH  18  19
ENDBRANCH  17  18
ENDBRANCH  16  17
ENDBRANCH  13  16
ENDBRANCH   6  12
ENDBRANCH   1   5
BRANCH   3  24
ATOM     24  C   UNL A   1      33.289  30.080  26.314  1.00  0.00     0.116 C 
BRANCH  24  25
ATOM     25  C   UNL A   1      31.900  30.504  26.804  1.00  0.00     0.023 C 
BRANCH  25  26
ATOM     26  C   UNL A   1      31.642  32.006  26.823  1.00  0.00     0.023 C 
BRANCH  26  27
ATOM     27  C   UNL A   1      32.784  32.826  27.398  1.00  0.00     0.116 C 
BRANCH  27  28
ATOM     28  N   UNL A   1      32.432  34.211  27.681  1.00  0.00    -0.352 N 
ATOM     29  C   UNL A   1      33.004  35.065  28.589  1.00  0.00     0.251 C 
ATOM     30  H   UNL A   1      31.688  34.581  27.154  1.00  0.00     0.163 HD
ATOM     31  O   UNL A   1      32.547  36.188  28.771  1.00  0.00    -0.269 OA
BRANCH  29  32
ATOM     32  C   UNL A   1      34.147  34.586  29.384  1.00  0.00     0.039 A 
ATOM     33  C   UNL A   1      33.898  34.041  30.644  1.00  0.00     0.014 A 
ATOM     34  C   UNL A   1      35.439  34.602  28.851  1.00  0.00     0.014 A 
ATOM     35  C   UNL A   1      34.944  33.447  31.345  1.00  0.00     0.010 A 
ATOM     36  C   UNL A   1      36.460  33.934  29.513  1.00  0.00     0.010 A 
ATOM     37  C   UNL A   1      36.222  33.353  30.766  1.00  0.00    -0.014 A 
BRANCH  37  38
ATOM     38  C   UNL A   1      37.310  32.634  31.466  1.00  0.00     0.031 A 
ATOM     39  C   UNL A   1      38.005  31.482  30.803  1.00  0.00     0.074 A 
ATOM     40  C   UNL A   1      37.636  33.001  32.719  1.00  0.00     0.049 A 
ATOM     41  N   UNL A   1      39.000  30.754  31.244  1.00  0.00    -0.248 NA
ATOM     42  C   UNL A   1      37.501  31.071  29.483  1.00  0.00     0.031 C 
ATOM     43  C   UNL A   1      36.972  34.052  33.494  1.00  0.00     0.029 A 
ATOM     44  N   UNL A   1      38.614  32.536  33.561  1.00  0.00    -0.354 N 
ATOM     45  C   UNL A   1      39.234  29.803  30.261  1.00  0.00     0.074 A 
ATOM     46  C   UNL A   1      38.239  30.001  29.231  1.00  0.00     0.031 C 
ATOM     47  C   UNL A   1      37.588  34.179  34.680  1.00  0.00     0.029 A 
ATOM     48  C   UNL A   1      38.672  33.206  34.758  1.00  0.00     0.049 A 
ATOM     49  H   UNL A   1      39.216  31.792  33.330  1.00  0.00     0.167 HD
ATOM     50  C   UNL A   1      40.214  28.870  30.209  1.00  0.00     0.037 A 
ATOM     51  C   UNL A   1      39.519  33.060  35.793  1.00  0.00     0.037 A 
ATOM     52  C   UNL A   1      41.215  28.695  31.227  1.00  0.00     0.049 A 
ATOM     53  C   UNL A   1      40.618  32.038  35.695  1.00  0.00     0.074 A 
ATOM     54  C   UNL A   1      42.291  27.826  31.241  1.00  0.00     0.029 A 
ATOM     55  N   UNL A   1      41.259  29.407  32.418  1.00  0.00    -0.354 N 
ATOM     56  N   UNL A   1      40.891  31.206  34.718  1.00  0.00    -0.248 NA
ATOM     57  C   UNL A   1      41.536  31.946  36.838  1.00  0.00     0.031 C 
ATOM     58  C   UNL A   1      42.962  27.982  32.460  1.00  0.00     0.029 A 
ATOM     59  C   UNL A   1      42.331  28.982  33.184  1.00  0.00     0.049 A 
ATOM     60  H   UNL A   1      40.621  30.109  32.679  1.00  0.00     0.167 HD
ATOM     61  C   UNL A   1      42.020  30.506  35.119  1.00  0.00     0.074 A 
ATOM     62  C   UNL A   1      42.397  31.031  36.416  1.00  0.00     0.031 C 
ATOM     63  C   UNL A   1      42.683  29.513  34.476  1.00  0.00     0.037 A 
BRANCH  50  64
ATOM     64  C   UNL A   1      40.254  27.978  29.002  1.00  0.00     0.064 A 
ATOM     65  C   UNL A   1      40.975  28.331  27.851  1.00  0.00     0.173 A 
ATOM     66  C   UNL A   1      39.583  26.746  29.002  1.00  0.00     0.173 A 
ATOM     67  F   UNL A   1      41.622  29.506  27.793  1.00  0.00    -0.203 F 
ATOM     68  C   UNL A   1      41.000  27.500  26.735  1.00  0.00     0.198 A 
ATOM     69  C   UNL A   1      39.634  25.902  27.895  1.00  0.00     0.198 A 
ATOM     70  F   UNL A   1      38.879  26.360  30.076  1.00  0.00    -0.203 F 
ATOM     71  F   UNL A   1      41.653  27.883  25.630  1.00  0.00    -0.200 F 
ATOM     72  C   UNL A   1      40.336  26.283  26.761  1.00  0.00     0.200 A 
ATOM     73  F   UNL A   1      38.999  24.723  27.925  1.00  0.00    -0.200 F 
ATOM     74  F   UNL A   1      40.364  25.480  25.688  1.00  0.00    -0.200 F 
ENDBRANCH  50  64
BRANCH  51  75
ATOM     75  C   UNL A   1      39.393  33.936  36.986  1.00  0.00     0.064 A 
ATOM     76  C   UNL A   1      39.974  35.212  37.006  1.00  0.00     0.173 A 
ATOM     77  C   UNL A   1      38.692  33.520  38.127  1.00  0.00     0.173 A 
ATOM     78  F   UNL A   1      40.668  35.647  35.944  1.00  0.00    -0.203 F 
ATOM     79  C   UNL A   1      39.879  36.029  38.129  1.00  0.00     0.198 A 
ATOM     80  C   UNL A   1      38.573  34.349  39.241  1.00  0.00     0.198 A 
ATOM     81  F   UNL A   1      38.110  32.312  38.155  1.00  0.00    -0.203 F 
ATOM     82  F   UNL A   1      40.482  37.225  38.138  1.00  0.00    -0.200 F 
ATOM     83  C   UNL A   1      39.174  35.599  39.244  1.00  0.00     0.200 A 
ATOM     84  F   UNL A   1      37.880  33.937  40.310  1.00  0.00    -0.200 F 
ATOM     85  F   UNL A   1      39.080  36.387  40.324  1.00  0.00    -0.200 F 
ENDBRANCH  51  75
BRANCH  63  86
ATOM     86  C   UNL A   1      43.890  28.947  35.166  1.00  0.00     0.064 A 
ATOM     87  C   UNL A   1      45.173  29.467  34.942  1.00  0.00     0.173 A 
ATOM     88  C   UNL A   1      43.760  27.880  36.067  1.00  0.00     0.173 A 
ATOM     89  F   UNL A   1      45.351  30.477  34.077  1.00  0.00    -0.203 F 
ATOM     90  C   UNL A   1      46.287  28.915  35.568  1.00  0.00     0.198 A 
ATOM     91  C   UNL A   1      44.872  27.351  36.715  1.00  0.00     0.198 A 
ATOM     92  F   UNL A   1      42.554  27.351  36.320  1.00  0.00    -0.203 F 
ATOM     93  F   UNL A   1      47.511  29.389  35.293  1.00  0.00    -0.200 F 
ATOM     94  C   UNL A   1      46.136  27.862  36.456  1.00  0.00     0.200 A 
ATOM     95  F   UNL A   1      44.723  26.342  37.583  1.00  0.00    -0.200 F 
ATOM     96  F   UNL A   1      47.210  27.330  37.057  1.00  0.00    -0.200 F 
ENDBRANCH  63  86
ENDBRANCH  37  38
ENDBRANCH  29  32
ENDBRANCH  27  28
ENDBRANCH  26  27
ENDBRANCH  25  26
ENDBRANCH  24  25
ENDBRANCH   3  24
TORSDOF 17
ENDMDL
MODEL 3
REMARK VINA RESULT:     -11.7      5.565     10.186
REMARK SMILES [NH3+]CCOCC(=O)Nc1ccc(C(=O)NCCCCNC(=O)c2ccc(-c3c4nc(c(-c5c(F)c(F)c(F)c(F)c5F)c5ccc([nH]5)c(-c5c(F)c(F)c(F)c(F)c5F)c5nc(c(-c6c(F)c(F)c(F)c(F)c6F)c6ccc3[nH]6)C=C5)C=C4)cc2)c(Cl)c1
REMARK SMILES IDX 13 1 14 2 15 3 12 5 9 6 10 7 88 8 11 9 86 10 87 11 8 12 6 13
REMARK SMILES IDX 7 14 5 16 4 17 3 18 2 19 1 20 16 24 17 25 18 26 19 27 20 28
REMARK SMILES IDX 21 29 22 31 23 32 24 33 85 34 25 35 84 36 26 37 27 38 28 39
REMARK SMILES IDX 78 40 29 41 83 42 77 43 79 44 30 45 82 46 76 47 75 48 31 50
REMARK SMILES IDX 63 51 43 52 62 53 44 54 47 55 61 56 80 57 45 58 46 59 60 61
REMARK SMILES IDX 81 62 48 63 32 64 33 65 41 66 34 67 35 68 39 69 42 70 36 71
REMARK SMILES IDX 37 72 40 73 38 74 64 75 65 76 73 77 66 78 67 79 71 80 74 81
REMARK SMILES IDX 68 82 69 83 72 84 70 85 49 86 50 87 58 88 51 89 52 90 56 91
REMARK SMILES IDX 59 92 53 93 54 94 57 95 55 96
REMARK H PARENT 15 4 8 15 1 21 1 22 1 23 20 30 79 49 47 60
REMARK Flexibility Score: inf
ROOT
ATOM      1  C   UNL A   1      33.985  21.798  26.474  1.00  0.00     0.252 C 
ATOM      2  O   UNL A   1      33.472  21.739  27.597  1.00  0.00    -0.269 OA
ATOM      3  N   UNL A   1      34.706  20.696  26.114  1.00  0.00    -0.352 N 
ATOM      4  H   UNL A   1      34.598  19.941  26.736  1.00  0.00     0.163 HD
ENDROOT
BRANCH   1   5
ATOM      5  C   UNL A   1      33.680  22.996  25.631  1.00  0.00     0.058 A 
ATOM      6  C   UNL A   1      33.688  25.418  24.166  1.00  0.00     0.042 A 
ATOM      7  C   UNL A   1      34.366  25.343  25.372  1.00  0.00     0.027 A 
ATOM      8  C   UNL A   1      32.919  24.348  23.742  1.00  0.00     0.047 A 
ATOM      9  C   UNL A   1      34.334  24.157  26.106  1.00  0.00     0.017 A 
ATOM     10  C   UNL A   1      32.982  23.117  24.419  1.00  0.00     0.055 A 
ATOM     11  Cl  UNL A   1      32.336  21.845  23.463  1.00  0.00    -0.083 Cl
BRANCH   6  12
ATOM     12  N   UNL A   1      33.854  26.489  23.287  1.00  0.00    -0.324 N 
ATOM     13  C   UNL A   1      33.102  27.639  23.289  1.00  0.00     0.250 C 
ATOM     14  O   UNL A   1      33.366  28.536  22.484  1.00  0.00    -0.272 OA
ATOM     15  H   UNL A   1      34.567  26.415  22.612  1.00  0.00     0.170 HD
BRANCH  13  16
ATOM     16  C   UNL A   1      31.983  27.818  24.339  1.00  0.00     0.260 C 
BRANCH  16  17
ATOM     17  O   UNL A   1      31.033  28.852  24.175  1.00  0.00    -0.366 OA
BRANCH  17  18
ATOM     18  C   UNL A   1      29.908  28.527  23.359  1.00  0.00     0.222 C 
BRANCH  18  19
ATOM     19  C   UNL A   1      29.708  29.461  22.159  1.00  0.00     0.287 C 
BRANCH  19  20
ATOM     20  N   UNL A   1      30.925  30.072  21.627  1.00  0.00    -0.356 N 
ATOM     21  H   UNL A   1      31.084  30.968  22.087  1.00  0.00     0.344 HD
ATOM     22  H   UNL A   1      30.822  30.218  20.623  1.00  0.00     0.344 HD
ATOM     23  H   UNL A   1      31.719  29.456  21.801  1.00  0.00     0.344 HD
ENDBRANCH  19  20
ENDBRANCH  18  19
ENDBRANCH  17  18
ENDBRANCH  16  17
ENDBRANCH  13  16
ENDBRANCH   6  12
ENDBRANCH   1   5
BRANCH   3  24
ATOM     24  C   UNL A   1      35.591  20.408  25.015  1.00  0.00     0.116 C 
BRANCH  24  25
ATOM     25  C   UNL A   1      36.936  21.100  25.266  1.00  0.00     0.023 C 
BRANCH  25  26
ATOM     26  C   UNL A   1      38.170  20.263  24.951  1.00  0.00     0.023 C 
BRANCH  26  27
ATOM     27  C   UNL A   1      39.281  20.380  25.981  1.00  0.00     0.116 C 
BRANCH  27  28
ATOM     28  N   UNL A   1      40.205  19.254  25.983  1.00  0.00    -0.352 N 
ATOM     29  C   UNL A   1      41.569  19.274  26.128  1.00  0.00     0.251 C 
ATOM     30  H   UNL A   1      39.800  18.365  25.864  1.00  0.00     0.163 HD
ATOM     31  O   UNL A   1      42.228  18.244  26.032  1.00  0.00    -0.269 OA
BRANCH  29  32
ATOM     32  C   UNL A   1      42.235  20.569  26.348  1.00  0.00     0.039 A 
ATOM     33  C   UNL A   1      42.580  21.336  25.235  1.00  0.00     0.014 A 
ATOM     34  C   UNL A   1      42.439  21.051  27.643  1.00  0.00     0.014 A 
ATOM     35  C   UNL A   1      43.072  22.625  25.425  1.00  0.00     0.010 A 
ATOM     36  C   UNL A   1      42.847  22.365  27.827  1.00  0.00     0.010 A 
ATOM     37  C   UNL A   1      43.169  23.162  26.720  1.00  0.00    -0.014 A 
BRANCH  37  38
ATOM     38  C   UNL A   1      43.596  24.565  26.918  1.00  0.00     0.031 A 
ATOM     39  C   UNL A   1      42.619  25.591  27.414  1.00  0.00     0.074 A 
ATOM     40  C   UNL A   1      44.858  24.916  26.608  1.00  0.00     0.049 A 
ATOM     41  N   UNL A   1      42.816  26.857  27.679  1.00  0.00    -0.248 NA
ATOM     42  C   UNL A   1      41.230  25.146  27.610  1.00  0.00     0.031 C 
ATOM     43  C   UNL A   1      45.870  24.022  26.040  1.00  0.00     0.029 A 
ATOM     44  N   UNL A   1      45.508  26.117  26.731  1.00  0.00    -0.354 N 
ATOM     45  C   UNL A   1      41.582  27.357  28.068  1.00  0.00     0.074 A 
ATOM     46  C   UNL A   1      40.627  26.278  27.940  1.00  0.00     0.031 C 
ATOM     47  C   UNL A   1      47.023  24.693  25.904  1.00  0.00     0.029 A 
ATOM     48  C   UNL A   1      46.827  26.068  26.352  1.00  0.00     0.049 A 
ATOM     49  H   UNL A   1      45.072  26.936  27.060  1.00  0.00     0.167 HD
ATOM     50  C   UNL A   1      41.279  28.596  28.521  1.00  0.00     0.037 A 
ATOM     51  C   UNL A   1      47.773  27.024  26.381  1.00  0.00     0.037 A 
ATOM     52  C   UNL A   1      42.239  29.657  28.666  1.00  0.00     0.049 A 
ATOM     53  C   UNL A   1      47.418  28.383  26.920  1.00  0.00     0.074 A 
ATOM     54  C   UNL A   1      42.052  30.929  29.179  1.00  0.00     0.029 A 
ATOM     55  N   UNL A   1      43.573  29.568  28.293  1.00  0.00    -0.354 N 
ATOM     56  N   UNL A   1      46.268  28.819  27.375  1.00  0.00    -0.248 NA
ATOM     57  C   UNL A   1      48.498  29.377  26.962  1.00  0.00     0.031 C 
ATOM     58  C   UNL A   1      43.263  31.623  29.077  1.00  0.00     0.029 A 
ATOM     59  C   UNL A   1      44.217  30.768  28.545  1.00  0.00     0.049 A 
ATOM     60  H   UNL A   1      43.999  28.769  27.906  1.00  0.00     0.167 HD
ATOM     61  C   UNL A   1      46.489  30.129  27.774  1.00  0.00     0.074 A 
ATOM     62  C   UNL A   1      47.890  30.407  27.534  1.00  0.00     0.031 C 
ATOM     63  C   UNL A   1      45.610  31.026  28.289  1.00  0.00     0.037 A 
BRANCH  50  64
ATOM     64  C   UNL A   1      39.852  28.861  28.904  1.00  0.00     0.064 A 
ATOM     65  C   UNL A   1      38.917  29.335  27.971  1.00  0.00     0.173 A 
ATOM     66  C   UNL A   1      39.407  28.617  30.212  1.00  0.00     0.173 A 
ATOM     67  F   UNL A   1      39.294  29.599  26.711  1.00  0.00    -0.203 F 
ATOM     68  C   UNL A   1      37.597  29.584  28.339  1.00  0.00     0.198 A 
ATOM     69  C   UNL A   1      38.079  28.838  30.570  1.00  0.00     0.198 A 
ATOM     70  F   UNL A   1      40.259  28.164  31.143  1.00  0.00    -0.203 F 
ATOM     71  F   UNL A   1      36.736  30.085  27.444  1.00  0.00    -0.200 F 
ATOM     72  C   UNL A   1      37.178  29.328  29.636  1.00  0.00     0.200 A 
ATOM     73  F   UNL A   1      37.673  28.582  31.820  1.00  0.00    -0.200 F 
ATOM     74  F   UNL A   1      35.906  29.562  29.989  1.00  0.00    -0.200 F 
ENDBRANCH  50  64
BRANCH  51  75
ATOM     75  C   UNL A   1      49.155  26.715  25.934  1.00  0.00     0.064 A 
ATOM     76  C   UNL A   1      50.095  26.176  26.824  1.00  0.00     0.173 A 
ATOM     77  C   UNL A   1      49.566  26.951  24.614  1.00  0.00     0.173 A 
ATOM     78  F   UNL A   1      49.753  25.948  28.101  1.00  0.00    -0.203 F 
ATOM     79  C   UNL A   1      51.399  25.905  26.417  1.00  0.00     0.198 A 
ATOM     80  C   UNL A   1      50.864  26.654  24.201  1.00  0.00     0.198 A 
ATOM     81  F   UNL A   1      48.703  27.458  23.722  1.00  0.00    -0.203 F 
ATOM     82  F   UNL A   1      52.289  25.432  27.300  1.00  0.00    -0.200 F 
ATOM     83  C   UNL A   1      51.781  26.139  25.105  1.00  0.00     0.200 A 
ATOM     84  F   UNL A   1      51.225  26.869  22.929  1.00  0.00    -0.200 F 
ATOM     85  F   UNL A   1      53.035  25.876  24.713  1.00  0.00    -0.200 F 
ENDBRANCH  51  75
BRANCH  63  86
ATOM     86  C   UNL A   1      46.152  32.382  28.636  1.00  0.00     0.064 A 
ATOM     87  C   UNL A   1      46.692  32.654  29.902  1.00  0.00     0.173 A 
ATOM     88  C   UNL A   1      46.140  33.417  27.690  1.00  0.00     0.173 A 
ATOM     89  F   UNL A   1      46.712  31.701  30.847  1.00  0.00    -0.203 F 
ATOM     90  C   UNL A   1      47.166  33.923  30.219  1.00  0.00     0.198 A 
ATOM     91  C   UNL A   1      46.644  34.676  28.001  1.00  0.00     0.198 A 
ATOM     92  F   UNL A   1      45.641  33.206  26.463  1.00  0.00    -0.203 F 
ATOM     93  F   UNL A   1      47.622  34.177  31.455  1.00  0.00    -0.200 F 
ATOM     94  C   UNL A   1      47.146  34.931  29.268  1.00  0.00     0.200 A 
ATOM     95  F   UNL A   1      46.636  35.646  27.076  1.00  0.00    -0.200 F 
ATOM     96  F   UNL A   1      47.601  36.154  29.576  1.00  0.00    -0.200 F 
ENDBRANCH  63  86
ENDBRANCH  37  38
ENDBRANCH  29  32
ENDBRANCH  27  28
ENDBRANCH  26  27
ENDBRANCH  25  26
ENDBRANCH  24  25
ENDBRANCH   3  24
TORSDOF 17
ENDMDL
