MODEL 1
REMARK VINA RESULT:     -10.2      0.000      0.000
REMARK SMILES O=Cc1cn(-c2ccc(Cl)cc2)nc1C(=O)NCCCCNC(=O)c1ccc(-c2c3nc(c(-c4c(F)c(F)c(F)c(F)c4F)c4ccc([nH]4)c(-c4c(F)c(F)c(F)c(F)c4F)c4nc(c(-c5c(F)c(F)c(F)c(F)c5F)c5ccc2[nH]5)C=C4)C=C3)cc1
REMARK SMILES IDX 20 1 19 2 18 3 17 4 15 5 16 6 14 8 3 9 4 10 5 11 13 12 2 13
REMARK SMILES IDX 1 14 6 15 7 16 12 17 8 18 11 19 9 20 10 21 21 22 22 23 23 24
REMARK SMILES IDX 24 26 25 27 26 28 87 29 27 30 86 31 28 32 29 33 30 34 80 35
REMARK SMILES IDX 31 36 85 37 79 38 81 39 32 40 84 41 78 42 77 43 33 45 65 46
REMARK SMILES IDX 45 47 64 48 46 49 49 50 63 51 82 52 47 53 48 54 62 56 83 57
REMARK SMILES IDX 50 58 34 59 35 60 43 61 36 62 37 63 41 64 44 65 38 66 39 67
REMARK SMILES IDX 42 68 40 69 66 70 67 71 75 72 68 73 69 74 73 75 76 76 70 77
REMARK SMILES IDX 71 78 74 79 72 80 51 81 52 82 60 83 53 84 54 85 58 86 61 87
REMARK SMILES IDX 55 88 56 89 59 90 57 91
REMARK H PARENT 17 7 22 25 81 44 49 55
REMARK Flexibility Score: inf
ROOT
ATOM      1  C   UNL A   1      44.115  22.234  26.139  1.00  0.00     0.023 C 
ENDROOT
BRANCH   1   2
ATOM      2  C   UNL A   1      45.389  22.451  25.315  1.00  0.00     0.023 C 
BRANCH   2   3
ATOM      3  C   UNL A   1      45.855  23.887  25.068  1.00  0.00     0.116 C 
BRANCH   3   4
ATOM      4  N   UNL A   1      44.797  24.851  24.814  1.00  0.00    -0.351 N 
ATOM      5  C   UNL A   1      44.468  26.020  25.479  1.00  0.00     0.272 C 
ATOM      6  O   UNL A   1      43.482  26.633  25.065  1.00  0.00    -0.267 OA
ATOM      7  H   UNL A   1      44.223  24.638  24.044  1.00  0.00     0.163 HD
BRANCH   5   8
ATOM      8  C   UNL A   1      45.280  26.517  26.613  1.00  0.00     0.161 A 
ATOM      9  C   UNL A   1      46.312  27.499  26.615  1.00  0.00     0.066 A 
ATOM     10  C   UNL A   1      46.718  27.586  27.924  1.00  0.00     0.127 A 
ATOM     11  N   UNL A   1      45.865  26.811  28.662  1.00  0.00    -0.239 N 
ATOM     12  N   UNL A   1      45.073  26.053  27.869  1.00  0.00    -0.162 NA
BRANCH   9  13
ATOM     13  C   UNL A   1      46.871  28.286  25.546  1.00  0.00     0.264 C 
ATOM     14  O   UNL A   1      46.322  29.285  25.094  1.00  0.00    -0.298 OA
ENDBRANCH   9  13
BRANCH  11  15
ATOM     15  C   UNL A   1      45.790  26.802  30.079  1.00  0.00     0.065 A 
ATOM     16  C   UNL A   1      44.550  26.557  30.694  1.00  0.00     0.030 A 
ATOM     17  C   UNL A   1      46.920  27.058  30.860  1.00  0.00     0.030 A 
ATOM     18  C   UNL A   1      44.431  26.605  32.083  1.00  0.00     0.023 A 
ATOM     19  C   UNL A   1      46.785  27.149  32.252  1.00  0.00     0.023 A 
ATOM     20  C   UNL A   1      45.544  26.926  32.855  1.00  0.00     0.041 A 
ATOM     21  Cl  UNL A   1      45.377  27.058  34.563  1.00  0.00    -0.084 Cl
ENDBRANCH  11  15
ENDBRANCH   5   8
ENDBRANCH   3   4
ENDBRANCH   2   3
ENDBRANCH   1   2
BRANCH   1  22
ATOM     22  C   UNL A   1      42.809  22.492  25.404  1.00  0.00     0.116 C 
BRANCH  22  23
ATOM     23  N   UNL A   1      41.614  21.936  26.044  1.00  0.00    -0.352 N 
ATOM     24  C   UNL A   1      40.857  22.521  27.060  1.00  0.00     0.251 C 
ATOM     25  H   UNL A   1      41.312  21.057  25.722  1.00  0.00     0.163 HD
ATOM     26  O   UNL A   1      40.079  21.890  27.737  1.00  0.00    -0.269 OA
BRANCH  24  27
ATOM     27  C   UNL A   1      41.038  23.973  27.272  1.00  0.00     0.039 A 
ATOM     28  C   UNL A   1      40.306  24.938  26.574  1.00  0.00     0.014 A 
ATOM     29  C   UNL A   1      41.889  24.328  28.308  1.00  0.00     0.014 A 
ATOM     30  C   UNL A   1      40.370  26.263  27.007  1.00  0.00     0.010 A 
ATOM     31  C   UNL A   1      41.761  25.566  28.868  1.00  0.00     0.010 A 
ATOM     32  C   UNL A   1      41.085  26.564  28.175  1.00  0.00    -0.014 A 
BRANCH  32  33
ATOM     33  C   UNL A   1      41.128  27.908  28.742  1.00  0.00     0.031 A 
ATOM     34  C   UNL A   1      42.211  28.797  28.233  1.00  0.00     0.074 A 
ATOM     35  C   UNL A   1      40.090  28.389  29.466  1.00  0.00     0.049 A 
ATOM     36  N   UNL A   1      43.173  29.346  28.899  1.00  0.00    -0.248 NA
ATOM     37  C   UNL A   1      42.282  29.044  26.783  1.00  0.00     0.031 C 
ATOM     38  C   UNL A   1      38.797  27.736  29.740  1.00  0.00     0.029 A 
ATOM     39  N   UNL A   1      39.915  29.623  30.009  1.00  0.00    -0.354 N 
ATOM     40  C   UNL A   1      43.867  30.150  27.993  1.00  0.00     0.074 A 
ATOM     41  C   UNL A   1      43.376  29.804  26.686  1.00  0.00     0.031 C 
ATOM     42  C   UNL A   1      37.900  28.654  30.153  1.00  0.00     0.029 A 
ATOM     43  C   UNL A   1      38.608  29.895  30.387  1.00  0.00     0.049 A 
ATOM     44  H   UNL A   1      40.650  30.268  30.123  1.00  0.00     0.167 HD
ATOM     45  C   UNL A   1      44.611  31.209  28.419  1.00  0.00     0.037 A 
ATOM     46  C   UNL A   1      38.129  31.065  30.864  1.00  0.00     0.037 A 
ATOM     47  C   UNL A   1      44.799  31.160  29.844  1.00  0.00     0.049 A 
ATOM     48  C   UNL A   1      39.284  31.824  31.391  1.00  0.00     0.074 A 
ATOM     49  C   UNL A   1      45.560  30.427  30.725  1.00  0.00     0.029 A 
ATOM     50  N   UNL A   1      43.793  31.750  30.563  1.00  0.00    -0.354 N 
ATOM     51  N   UNL A   1      40.012  31.425  32.398  1.00  0.00    -0.248 NA
ATOM     52  C   UNL A   1      39.874  32.874  30.571  1.00  0.00     0.031 C 
ATOM     53  C   UNL A   1      44.815  30.388  31.942  1.00  0.00     0.029 A 
ATOM     54  C   UNL A   1      43.645  31.130  31.774  1.00  0.00     0.049 A 
ATOM     55  H   UNL A   1      43.253  32.513  30.252  1.00  0.00     0.167 HD
ATOM     56  C   UNL A   1      41.288  31.863  32.099  1.00  0.00     0.074 A 
ATOM     57  C   UNL A   1      41.111  32.884  31.076  1.00  0.00     0.031 C 
ATOM     58  C   UNL A   1      42.382  31.141  32.480  1.00  0.00     0.037 A 
BRANCH  45  59
ATOM     59  C   UNL A   1      44.803  32.514  27.671  1.00  0.00     0.064 A 
ATOM     60  C   UNL A   1      46.027  32.757  27.010  1.00  0.00     0.173 A 
ATOM     61  C   UNL A   1      43.978  33.646  27.846  1.00  0.00     0.173 A 
ATOM     62  F   UNL A   1      46.905  31.762  26.808  1.00  0.00    -0.203 F 
ATOM     63  C   UNL A   1      46.419  34.042  26.618  1.00  0.00     0.198 A 
ATOM     64  C   UNL A   1      44.350  34.918  27.407  1.00  0.00     0.198 A 
ATOM     65  F   UNL A   1      42.842  33.593  28.549  1.00  0.00    -0.203 F 
ATOM     66  F   UNL A   1      47.640  34.241  26.103  1.00  0.00    -0.200 F 
ATOM     67  C   UNL A   1      45.581  35.123  26.821  1.00  0.00     0.200 A 
ATOM     68  F   UNL A   1      43.533  35.957  27.634  1.00  0.00    -0.200 F 
ATOM     69  F   UNL A   1      45.974  36.362  26.500  1.00  0.00    -0.200 F 
ENDBRANCH  45  59
BRANCH  46  70
ATOM     70  C   UNL A   1      36.802  31.664  30.615  1.00  0.00     0.064 A 
ATOM     71  C   UNL A   1      35.923  31.949  31.669  1.00  0.00     0.173 A 
ATOM     72  C   UNL A   1      36.490  32.225  29.360  1.00  0.00     0.173 A 
ATOM     73  F   UNL A   1      36.174  31.475  32.897  1.00  0.00    -0.203 F 
ATOM     74  C   UNL A   1      34.815  32.782  31.489  1.00  0.00     0.198 A 
ATOM     75  C   UNL A   1      35.382  33.055  29.182  1.00  0.00     0.198 A 
ATOM     76  F   UNL A   1      37.308  32.056  28.310  1.00  0.00    -0.203 F 
ATOM     77  F   UNL A   1      34.032  33.085  32.533  1.00  0.00    -0.200 F 
ATOM     78  C   UNL A   1      34.554  33.346  30.250  1.00  0.00     0.200 A 
ATOM     79  F   UNL A   1      35.161  33.621  27.987  1.00  0.00    -0.200 F 
ATOM     80  F   UNL A   1      33.533  34.200  30.095  1.00  0.00    -0.200 F 
ENDBRANCH  46  70
BRANCH  58  81
ATOM     81  C   UNL A   1      42.206  30.152  33.594  1.00  0.00     0.064 A 
ATOM     82  C   UNL A   1      41.877  28.800  33.416  1.00  0.00     0.173 A 
ATOM     83  C   UNL A   1      42.495  30.579  34.897  1.00  0.00     0.173 A 
ATOM     84  F   UNL A   1      41.667  28.297  32.195  1.00  0.00    -0.203 F 
ATOM     85  C   UNL A   1      41.810  27.923  34.497  1.00  0.00     0.198 A 
ATOM     86  C   UNL A   1      42.463  29.695  35.970  1.00  0.00     0.198 A 
ATOM     87  F   UNL A   1      42.861  31.851  35.120  1.00  0.00    -0.203 F 
ATOM     88  F   UNL A   1      41.483  26.636  34.302  1.00  0.00    -0.200 F 
ATOM     89  C   UNL A   1      42.111  28.370  35.773  1.00  0.00     0.200 A 
ATOM     90  F   UNL A   1      42.799  30.124  37.195  1.00  0.00    -0.200 F 
ATOM     91  F   UNL A   1      42.087  27.519  36.809  1.00  0.00    -0.200 F 
ENDBRANCH  58  81
ENDBRANCH  32  33
ENDBRANCH  24  27
ENDBRANCH  22  23
ENDBRANCH   1  22
TORSDOF 13
ENDMDL
MODEL 2
REMARK VINA RESULT:     -10.2      3.932      6.527
REMARK SMILES O=Cc1cn(-c2ccc(Cl)cc2)nc1C(=O)NCCCCNC(=O)c1ccc(-c2c3nc(c(-c4c(F)c(F)c(F)c(F)c4F)c4ccc([nH]4)c(-c4c(F)c(F)c(F)c(F)c4F)c4nc(c(-c5c(F)c(F)c(F)c(F)c5F)c5ccc2[nH]5)C=C4)C=C3)cc1
REMARK SMILES IDX 20 1 19 2 18 3 17 4 15 5 16 6 14 8 3 9 4 10 5 11 13 12 2 13
REMARK SMILES IDX 1 14 6 15 7 16 12 17 8 18 11 19 9 20 10 21 21 22 22 23 23 24
REMARK SMILES IDX 24 26 25 27 26 28 87 29 27 30 86 31 28 32 29 33 30 34 80 35
REMARK SMILES IDX 31 36 85 37 79 38 81 39 32 40 84 41 78 42 77 43 33 45 65 46
REMARK SMILES IDX 45 47 64 48 46 49 49 50 63 51 82 52 47 53 48 54 62 56 83 57
REMARK SMILES IDX 50 58 34 59 35 60 43 61 36 62 37 63 41 64 44 65 38 66 39 67
REMARK SMILES IDX 42 68 40 69 66 70 67 71 75 72 68 73 69 74 73 75 76 76 70 77
REMARK SMILES IDX 71 78 74 79 72 80 51 81 52 82 60 83 53 84 54 85 58 86 61 87
REMARK SMILES IDX 55 88 56 89 59 90 57 91
REMARK H PARENT 17 7 22 25 81 44 49 55
REMARK Flexibility Score: inf
ROOT
ATOM      1  C   UNL A   1      37.321  22.081  24.557  1.00  0.00     0.023 C 
ENDROOT
BRANCH   1   2
ATOM      2  C   UNL A   1      35.884  21.640  24.850  1.00  0.00     0.023 C 
BRANCH   2   3
ATOM      3  C   UNL A   1      34.800  22.718  24.939  1.00  0.00     0.116 C 
BRANCH   3   4
ATOM      4  N   UNL A   1      33.735  22.612  23.957  1.00  0.00    -0.351 N 
ATOM      5  C   UNL A   1      32.503  23.242  23.896  1.00  0.00     0.272 C 
ATOM      6  O   UNL A   1      31.768  22.931  22.957  1.00  0.00    -0.267 OA
ATOM      7  H   UNL A   1      33.919  21.992  23.215  1.00  0.00     0.163 HD
BRANCH   5   8
ATOM      8  C   UNL A   1      32.106  24.257  24.898  1.00  0.00     0.161 A 
ATOM      9  C   UNL A   1      31.239  24.120  26.020  1.00  0.00     0.066 A 
ATOM     10  C   UNL A   1      31.231  25.357  26.617  1.00  0.00     0.127 A 
ATOM     11  N   UNL A   1      32.161  26.124  25.967  1.00  0.00    -0.239 N 
ATOM     12  N   UNL A   1      32.602  25.516  24.842  1.00  0.00    -0.162 NA
BRANCH   9  13
ATOM     13  C   UNL A   1      30.499  22.986  26.510  1.00  0.00     0.264 C 
ATOM     14  O   UNL A   1      29.984  22.953  27.623  1.00  0.00    -0.298 OA
ENDBRANCH   9  13
BRANCH  11  15
ATOM     15  C   UNL A   1      32.629  27.387  26.410  1.00  0.00     0.065 A 
ATOM     16  C   UNL A   1      31.700  28.336  26.869  1.00  0.00     0.030 A 
ATOM     17  C   UNL A   1      33.991  27.704  26.370  1.00  0.00     0.030 A 
ATOM     18  C   UNL A   1      32.122  29.609  27.251  1.00  0.00     0.023 A 
ATOM     19  C   UNL A   1      34.403  28.998  26.713  1.00  0.00     0.023 A 
ATOM     20  C   UNL A   1      33.469  29.943  27.147  1.00  0.00     0.041 A 
ATOM     21  Cl  UNL A   1      33.977  31.538  27.548  1.00  0.00    -0.084 Cl
ENDBRANCH  11  15
ENDBRANCH   5   8
ENDBRANCH   3   4
ENDBRANCH   2   3
ENDBRANCH   1   2
BRANCH   1  22
ATOM     22  C   UNL A   1      38.000  22.874  25.662  1.00  0.00     0.116 C 
BRANCH  22  23
ATOM     23  N   UNL A   1      38.917  22.105  26.509  1.00  0.00    -0.352 N 
ATOM     24  C   UNL A   1      40.038  22.587  27.186  1.00  0.00     0.251 C 
ATOM     25  H   UNL A   1      38.719  21.147  26.611  1.00  0.00     0.163 HD
ATOM     26  O   UNL A   1      40.903  21.857  27.611  1.00  0.00    -0.269 OA
BRANCH  24  27
ATOM     27  C   UNL A   1      40.121  24.051  27.376  1.00  0.00     0.039 A 
ATOM     28  C   UNL A   1      39.001  24.885  27.336  1.00  0.00     0.014 A 
ATOM     29  C   UNL A   1      41.369  24.540  27.731  1.00  0.00     0.014 A 
ATOM     30  C   UNL A   1      39.140  26.207  27.761  1.00  0.00     0.010 A 
ATOM     31  C   UNL A   1      41.445  25.747  28.365  1.00  0.00     0.010 A 
ATOM     32  C   UNL A   1      40.367  26.623  28.299  1.00  0.00    -0.014 A 
BRANCH  32  33
ATOM     33  C   UNL A   1      40.568  27.961  28.846  1.00  0.00     0.031 A 
ATOM     34  C   UNL A   1      41.690  28.745  28.257  1.00  0.00     0.074 A 
ATOM     35  C   UNL A   1      39.627  28.538  29.630  1.00  0.00     0.049 A 
ATOM     36  N   UNL A   1      42.740  29.209  28.852  1.00  0.00    -0.248 NA
ATOM     37  C   UNL A   1      41.688  28.975  26.803  1.00  0.00     0.031 C 
ATOM     38  C   UNL A   1      38.301  28.008  29.995  1.00  0.00     0.029 A 
ATOM     39  N   UNL A   1      39.601  29.787  30.168  1.00  0.00    -0.354 N 
ATOM     40  C   UNL A   1      43.442  29.941  27.893  1.00  0.00     0.074 A 
ATOM     41  C   UNL A   1      42.837  29.632  26.625  1.00  0.00     0.031 C 
ATOM     42  C   UNL A   1      37.520  29.006  30.454  1.00  0.00     0.029 A 
ATOM     43  C   UNL A   1      38.351  30.179  30.627  1.00  0.00     0.049 A 
ATOM     44  H   UNL A   1      40.396  30.363  30.226  1.00  0.00     0.167 HD
ATOM     45  C   UNL A   1      44.305  30.931  28.257  1.00  0.00     0.037 A 
ATOM     46  C   UNL A   1      38.011  31.390  31.120  1.00  0.00     0.037 A 
ATOM     47  C   UNL A   1      44.582  30.873  29.668  1.00  0.00     0.049 A 
ATOM     48  C   UNL A   1      39.262  32.044  31.562  1.00  0.00     0.074 A 
ATOM     49  C   UNL A   1      45.330  30.079  30.506  1.00  0.00     0.029 A 
ATOM     50  N   UNL A   1      43.682  31.557  30.443  1.00  0.00    -0.354 N 
ATOM     51  N   UNL A   1      40.016  31.588  32.524  1.00  0.00    -0.248 NA
ATOM     52  C   UNL A   1      39.890  33.032  30.692  1.00  0.00     0.031 C 
ATOM     53  C   UNL A   1      44.666  30.116  31.769  1.00  0.00     0.029 A 
ATOM     54  C   UNL A   1      43.559  30.960  31.668  1.00  0.00     0.049 A 
ATOM     55  H   UNL A   1      43.194  32.363  30.159  1.00  0.00     0.167 HD
ATOM     56  C   UNL A   1      41.304  31.905  32.137  1.00  0.00     0.074 A 
ATOM     57  C   UNL A   1      41.153  32.933  31.116  1.00  0.00     0.031 C 
ATOM     58  C   UNL A   1      42.351  31.090  32.455  1.00  0.00     0.037 A 
BRANCH  45  59
ATOM     59  C   UNL A   1      44.564  32.208  27.483  1.00  0.00     0.064 A 
ATOM     60  C   UNL A   1      45.777  32.350  26.772  1.00  0.00     0.173 A 
ATOM     61  C   UNL A   1      43.834  33.400  27.671  1.00  0.00     0.173 A 
ATOM     62  F   UNL A   1      46.569  31.290  26.552  1.00  0.00    -0.203 F 
ATOM     63  C   UNL A   1      46.247  33.598  26.345  1.00  0.00     0.198 A 
ATOM     64  C   UNL A   1      44.281  34.636  27.199  1.00  0.00     0.198 A 
ATOM     65  F   UNL A   1      42.725  33.442  28.418  1.00  0.00    -0.203 F 
ATOM     66  F   UNL A   1      47.459  33.698  25.781  1.00  0.00    -0.200 F 
ATOM     67  C   UNL A   1      45.500  34.740  26.564  1.00  0.00     0.200 A 
ATOM     68  F   UNL A   1      43.553  35.735  27.441  1.00  0.00    -0.200 F 
ATOM     69  F   UNL A   1      45.972  35.943  26.209  1.00  0.00    -0.200 F 
ENDBRANCH  45  59
BRANCH  46  70
ATOM     70  C   UNL A   1      36.730  32.106  30.950  1.00  0.00     0.064 A 
ATOM     71  C   UNL A   1      35.839  32.265  32.020  1.00  0.00     0.173 A 
ATOM     72  C   UNL A   1      36.490  32.888  29.803  1.00  0.00     0.173 A 
ATOM     73  F   UNL A   1      36.024  31.576  33.154  1.00  0.00    -0.203 F 
ATOM     74  C   UNL A   1      34.788  33.185  31.963  1.00  0.00     0.198 A 
ATOM     75  C   UNL A   1      35.439  33.805  29.746  1.00  0.00     0.198 A 
ATOM     76  F   UNL A   1      37.327  32.846  28.755  1.00  0.00    -0.203 F 
ATOM     77  F   UNL A   1      33.993  33.357  33.027  1.00  0.00    -0.200 F 
ATOM     78  C   UNL A   1      34.598  33.964  30.832  1.00  0.00     0.200 A 
ATOM     79  F   UNL A   1      35.288  34.576  28.661  1.00  0.00    -0.200 F 
ATOM     80  F   UNL A   1      33.635  34.895  30.805  1.00  0.00    -0.200 F 
ENDBRANCH  46  70
BRANCH  58  81
ATOM     81  C   UNL A   1      42.161  30.128  33.590  1.00  0.00     0.064 A 
ATOM     82  C   UNL A   1      41.755  28.792  33.445  1.00  0.00     0.173 A 
ATOM     83  C   UNL A   1      42.515  30.557  34.876  1.00  0.00     0.173 A 
ATOM     84  F   UNL A   1      41.477  28.284  32.239  1.00  0.00    -0.203 F 
ATOM     85  C   UNL A   1      41.677  27.936  34.542  1.00  0.00     0.198 A 
ATOM     86  C   UNL A   1      42.472  29.692  35.964  1.00  0.00     0.198 A 
ATOM     87  F   UNL A   1      42.955  31.811  35.066  1.00  0.00    -0.203 F 
ATOM     88  F   UNL A   1      41.277  26.666  34.378  1.00  0.00    -0.200 F 
ATOM     89  C   UNL A   1      42.044  28.385  35.799  1.00  0.00     0.200 A 
ATOM     90  F   UNL A   1      42.871  30.120  37.170  1.00  0.00    -0.200 F 
ATOM     91  F   UNL A   1      42.010  27.552  36.849  1.00  0.00    -0.200 F 
ENDBRANCH  58  81
ENDBRANCH  32  33
ENDBRANCH  24  27
ENDBRANCH  22  23
ENDBRANCH   1  22
TORSDOF 13
ENDMDL
MODEL 3
REMARK VINA RESULT:     -10.1      3.638      9.932
REMARK SMILES O=Cc1cn(-c2ccc(Cl)cc2)nc1C(=O)NCCCCNC(=O)c1ccc(-c2c3nc(c(-c4c(F)c(F)c(F)c(F)c4F)c4ccc([nH]4)c(-c4c(F)c(F)c(F)c(F)c4F)c4nc(c(-c5c(F)c(F)c(F)c(F)c5F)c5ccc2[nH]5)C=C4)C=C3)cc1
REMARK SMILES IDX 20 1 19 2 18 3 17 4 15 5 16 6 14 8 3 9 4 10 5 11 13 12 2 13
REMARK SMILES IDX 1 14 6 15 7 16 12 17 8 18 11 19 9 20 10 21 21 22 22 23 23 24
REMARK SMILES IDX 24 26 25 27 26 28 87 29 27 30 86 31 28 32 29 33 30 34 80 35
REMARK SMILES IDX 31 36 85 37 79 38 81 39 32 40 84 41 78 42 77 43 33 45 65 46
REMARK SMILES IDX 45 47 64 48 46 49 49 50 63 51 82 52 47 53 48 54 62 56 83 57
REMARK SMILES IDX 50 58 34 59 35 60 43 61 36 62 37 63 41 64 44 65 38 66 39 67
REMARK SMILES IDX 42 68 40 69 66 70 67 71 75 72 68 73 69 74 73 75 76 76 70 77
REMARK SMILES IDX 71 78 74 79 72 80 51 81 52 82 60 83 53 84 54 85 58 86 61 87
REMARK SMILES IDX 55 88 56 89 59 90 57 91
REMARK H PARENT 17 7 22 25 81 44 49 55
REMARK Flexibility Score: inf
ROOT
ATOM      1  C   UNL A   1      35.488  33.616  31.619  1.00  0.00     0.023 C 
ENDROOT
BRANCH   1   2
ATOM      2  C   UNL A   1      35.433  33.866  33.129  1.00  0.00     0.023 C 
BRANCH   2   3
ATOM      3  C   UNL A   1      36.474  33.177  34.015  1.00  0.00     0.116 C 
BRANCH   3   4
ATOM      4  N   UNL A   1      36.661  31.758  33.768  1.00  0.00    -0.351 N 
ATOM      5  C   UNL A   1      37.816  31.030  33.538  1.00  0.00     0.272 C 
ATOM      6  O   UNL A   1      37.677  29.825  33.316  1.00  0.00    -0.267 OA
ATOM      7  H   UNL A   1      35.831  31.227  33.766  1.00  0.00     0.163 HD
BRANCH   5   8
ATOM      8  C   UNL A   1      39.151  31.668  33.583  1.00  0.00     0.161 A 
ATOM      9  C   UNL A   1      40.148  31.594  34.599  1.00  0.00     0.066 A 
ATOM     10  C   UNL A   1      41.190  32.356  34.131  1.00  0.00     0.127 A 
ATOM     11  N   UNL A   1      40.876  32.725  32.850  1.00  0.00    -0.239 N 
ATOM     12  N   UNL A   1      39.590  32.429  32.552  1.00  0.00    -0.162 NA
BRANCH   9  13
ATOM     13  C   UNL A   1      40.163  30.898  35.860  1.00  0.00     0.264 C 
ATOM     14  O   UNL A   1      39.721  29.764  36.003  1.00  0.00    -0.298 OA
ENDBRANCH   9  13
BRANCH  11  15
ATOM     15  C   UNL A   1      41.775  33.324  31.931  1.00  0.00     0.065 A 
ATOM     16  C   UNL A   1      41.716  32.949  30.578  1.00  0.00     0.030 A 
ATOM     17  C   UNL A   1      42.726  34.256  32.358  1.00  0.00     0.030 A 
ATOM     18  C   UNL A   1      42.628  33.472  29.661  1.00  0.00     0.023 A 
ATOM     19  C   UNL A   1      43.667  34.744  31.441  1.00  0.00     0.023 A 
ATOM     20  C   UNL A   1      43.616  34.348  30.102  1.00  0.00     0.041 A 
ATOM     21  Cl  UNL A   1      44.785  34.934  28.983  1.00  0.00    -0.084 Cl
ENDBRANCH  11  15
ENDBRANCH   5   8
ENDBRANCH   3   4
ENDBRANCH   2   3
ENDBRANCH   1   2
BRANCH   1  22
ATOM     22  C   UNL A   1      34.824  32.333  31.144  1.00  0.00     0.116 C 
BRANCH  22  23
ATOM     23  N   UNL A   1      34.575  32.257  29.701  1.00  0.00    -0.352 N 
ATOM     24  C   UNL A   1      35.472  31.843  28.716  1.00  0.00     0.251 C 
ATOM     25  H   UNL A   1      33.680  32.526  29.396  1.00  0.00     0.163 HD
ATOM     26  O   UNL A   1      35.307  32.087  27.543  1.00  0.00    -0.269 OA
BRANCH  24  27
ATOM     27  C   UNL A   1      36.648  31.070  29.170  1.00  0.00     0.039 A 
ATOM     28  C   UNL A   1      36.638  29.677  29.290  1.00  0.00     0.014 A 
ATOM     29  C   UNL A   1      37.815  31.798  29.345  1.00  0.00     0.014 A 
ATOM     30  C   UNL A   1      37.852  29.019  29.491  1.00  0.00     0.010 A 
ATOM     31  C   UNL A   1      39.010  31.142  29.300  1.00  0.00     0.010 A 
ATOM     32  C   UNL A   1      39.041  29.763  29.471  1.00  0.00    -0.014 A 
BRANCH  32  33
ATOM     33  C   UNL A   1      40.356  29.140  29.585  1.00  0.00     0.031 A 
ATOM     34  C   UNL A   1      40.880  28.970  30.970  1.00  0.00     0.074 A 
ATOM     35  C   UNL A   1      40.921  28.514  28.526  1.00  0.00     0.049 A 
ATOM     36  N   UNL A   1      41.954  29.473  31.485  1.00  0.00    -0.248 NA
ATOM     37  C   UNL A   1      40.065  28.210  31.932  1.00  0.00     0.031 C 
ATOM     38  C   UNL A   1      40.343  28.296  27.187  1.00  0.00     0.029 A 
ATOM     39  N   UNL A   1      42.091  27.823  28.455  1.00  0.00    -0.354 N 
ATOM     40  C   UNL A   1      42.048  28.953  32.777  1.00  0.00     0.074 A 
ATOM     41  C   UNL A   1      40.788  28.316  33.050  1.00  0.00     0.031 C 
ATOM     42  C   UNL A   1      41.026  27.325  26.547  1.00  0.00     0.029 A 
ATOM     43  C   UNL A   1      42.208  27.024  27.327  1.00  0.00     0.049 A 
ATOM     44  H   UNL A   1      42.792  27.883  29.144  1.00  0.00     0.167 HD
ATOM     45  C   UNL A   1      43.248  28.879  33.419  1.00  0.00     0.037 A 
ATOM     46  C   UNL A   1      43.212  26.165  27.043  1.00  0.00     0.037 A 
ATOM     47  C   UNL A   1      44.245  29.652  32.728  1.00  0.00     0.049 A 
ATOM     48  C   UNL A   1      44.380  26.581  27.848  1.00  0.00     0.074 A 
ATOM     49  C   UNL A   1      44.546  30.985  32.578  1.00  0.00     0.029 A 
ATOM     50  N   UNL A   1      44.890  28.970  31.729  1.00  0.00    -0.354 N 
ATOM     51  N   UNL A   1      44.987  27.727  27.702  1.00  0.00    -0.248 NA
ATOM     52  C   UNL A   1      44.676  25.872  29.087  1.00  0.00     0.031 C 
ATOM     53  C   UNL A   1      45.173  31.100  31.300  1.00  0.00     0.029 A 
ATOM     54  C   UNL A   1      45.267  29.828  30.732  1.00  0.00     0.049 A 
ATOM     55  H   UNL A   1      45.058  28.000  31.729  1.00  0.00     0.167 HD
ATOM     56  C   UNL A   1      45.397  28.068  28.976  1.00  0.00     0.074 A 
ATOM     57  C   UNL A   1      45.341  26.829  29.740  1.00  0.00     0.031 C 
ATOM     58  C   UNL A   1      45.444  29.374  29.370  1.00  0.00     0.037 A 
BRANCH  45  59
ATOM     59  C   UNL A   1      43.666  27.793  34.391  1.00  0.00     0.064 A 
ATOM     60  C   UNL A   1      43.687  26.449  33.956  1.00  0.00     0.173 A 
ATOM     61  C   UNL A   1      43.731  27.974  35.789  1.00  0.00     0.173 A 
ATOM     62  F   UNL A   1      43.606  26.151  32.650  1.00  0.00    -0.203 F 
ATOM     63  C   UNL A   1      43.703  25.376  34.856  1.00  0.00     0.198 A 
ATOM     64  C   UNL A   1      43.799  26.903  36.681  1.00  0.00     0.198 A 
ATOM     65  F   UNL A   1      43.610  29.181  36.353  1.00  0.00    -0.203 F 
ATOM     66  F   UNL A   1      43.600  24.120  34.399  1.00  0.00    -0.200 F 
ATOM     67  C   UNL A   1      43.754  25.605  36.218  1.00  0.00     0.200 A 
ATOM     68  F   UNL A   1      43.825  27.145  37.999  1.00  0.00    -0.200 F 
ATOM     69  F   UNL A   1      43.712  24.584  37.084  1.00  0.00    -0.200 F 
ENDBRANCH  45  59
BRANCH  46  70
ATOM     70  C   UNL A   1      43.113  24.858  26.360  1.00  0.00     0.064 A 
ATOM     71  C   UNL A   1      43.883  24.573  25.224  1.00  0.00     0.173 A 
ATOM     72  C   UNL A   1      42.469  23.768  26.979  1.00  0.00     0.173 A 
ATOM     73  F   UNL A   1      44.548  25.555  24.601  1.00  0.00    -0.203 F 
ATOM     74  C   UNL A   1      44.032  23.265  24.754  1.00  0.00     0.198 A 
ATOM     75  C   UNL A   1      42.618  22.463  26.509  1.00  0.00     0.198 A 
ATOM     76  F   UNL A   1      41.763  23.939  28.107  1.00  0.00    -0.203 F 
ATOM     77  F   UNL A   1      44.826  23.020  23.703  1.00  0.00    -0.200 F 
ATOM     78  C   UNL A   1      43.413  22.210  25.406  1.00  0.00     0.200 A 
ATOM     79  F   UNL A   1      42.042  21.449  27.169  1.00  0.00    -0.200 F 
ATOM     80  F   UNL A   1      43.614  20.949  24.998  1.00  0.00    -0.200 F 
ENDBRANCH  46  70
BRANCH  58  81
ATOM     81  C   UNL A   1      45.498  30.420  28.296  1.00  0.00     0.064 A 
ATOM     82  C   UNL A   1      44.373  31.027  27.717  1.00  0.00     0.173 A 
ATOM     83  C   UNL A   1      46.757  30.905  27.918  1.00  0.00     0.173 A 
ATOM     84  F   UNL A   1      43.136  30.677  28.084  1.00  0.00    -0.203 F 
ATOM     85  C   UNL A   1      44.505  32.050  26.780  1.00  0.00     0.198 A 
ATOM     86  C   UNL A   1      46.887  31.950  27.010  1.00  0.00     0.198 A 
ATOM     87  F   UNL A   1      47.866  30.393  28.475  1.00  0.00    -0.203 F 
ATOM     88  F   UNL A   1      43.414  32.608  26.233  1.00  0.00    -0.200 F 
ATOM     89  C   UNL A   1      45.762  32.517  26.434  1.00  0.00     0.200 A 
ATOM     90  F   UNL A   1      48.104  32.426  26.714  1.00  0.00    -0.200 F 
ATOM     91  F   UNL A   1      45.890  33.528  25.563  1.00  0.00    -0.200 F 
ENDBRANCH  58  81
ENDBRANCH  32  33
ENDBRANCH  24  27
ENDBRANCH  22  23
ENDBRANCH   1  22
TORSDOF 13
ENDMDL
