MODEL 1
REMARK VINA RESULT:     -11.6      0.000      0.000
REMARK SMILES CCC(CC)([NH2+]Cc1ccc(I)cc1)C(=O)NCCCCNC(=O)c1ccc(-c2c3nc(c(-c4c(F)c(F)c(F)c(F)c4F)c4ccc([nH]4)c(-c4c(F)c(F)c(F)c(F)c4F)c4nc(c(-c5c(F)c(F)c(F)c(F)c5F)c5ccc2[nH]5)C=C4)C=C3)cc1
REMARK SMILES IDX 19 1 18 2 17 3 15 4 16 5 3 7 2 8 1 9 4 10 5 11 6 12 7 15
REMARK SMILES IDX 8 16 9 17 14 18 10 19 13 20 11 21 12 22 20 23 21 24 22 25
REMARK SMILES IDX 23 26 24 28 25 29 26 30 87 31 27 32 86 33 28 34 29 35 30 36
REMARK SMILES IDX 80 37 31 38 85 39 79 40 81 41 32 42 84 43 78 44 77 45 33 47
REMARK SMILES IDX 65 48 45 49 64 50 46 51 49 52 63 53 82 54 47 55 48 56 62 58
REMARK SMILES IDX 83 59 50 60 34 61 35 62 43 63 36 64 37 65 41 66 44 67 38 68
REMARK SMILES IDX 39 69 42 70 40 71 66 72 67 73 75 74 68 75 69 76 73 77 76 78
REMARK SMILES IDX 70 79 71 80 74 81 72 82 51 83 52 84 60 85 53 86 54 87 58 88
REMARK SMILES IDX 61 89 55 90 56 91 59 92 57 93
REMARK H PARENT 17 6 6 13 6 14 22 27 81 46 49 57
REMARK Flexibility Score: inf
ROOT
ATOM      1  C   UNL A   1      31.392  28.113  26.335  1.00  0.00     0.023 C 
ENDROOT
BRANCH   1   2
ATOM      2  C   UNL A   1      32.316  26.902  26.489  1.00  0.00     0.116 C 
BRANCH   2   3
ATOM      3  N   UNL A   1      31.619  25.702  26.859  1.00  0.00    -0.351 N 
ATOM      4  C   UNL A   1      31.710  24.389  26.549  1.00  0.00     0.281 C 
ATOM      5  O   UNL A   1      30.928  23.724  27.253  1.00  0.00    -0.268 OA
ATOM      6  H   UNL A   1      30.894  25.879  27.502  1.00  0.00     0.163 HD
BRANCH   4   7
ATOM      7  C   UNL A   1      32.690  23.650  25.529  1.00  0.00     0.175 C 
BRANCH   7   8
ATOM      8  C   UNL A   1      32.017  22.208  25.353  1.00  0.00     0.076 C 
ATOM      9  C   UNL A   1      32.919  20.982  25.563  1.00  0.00     0.011 C 
ENDBRANCH   7   8
BRANCH   7  10
ATOM     10  C   UNL A   1      34.115  23.431  26.090  1.00  0.00     0.076 C 
ATOM     11  C   UNL A   1      35.228  24.120  25.290  1.00  0.00     0.011 C 
ENDBRANCH   7  10
BRANCH   7  12
ATOM     12  N   UNL A   1      32.668  24.166  24.132  1.00  0.00    -0.330 N 
ATOM     13  H   UNL A   1      33.216  23.487  23.603  1.00  0.00     0.347 HD
ATOM     14  H   UNL A   1      32.942  25.128  24.332  1.00  0.00     0.347 HD
BRANCH  12  15
ATOM     15  C   UNL A   1      31.529  24.453  23.277  1.00  0.00     0.298 C 
BRANCH  15  16
ATOM     16  C   UNL A   1      30.784  25.786  23.294  1.00  0.00     0.006 A 
ATOM     17  C   UNL A   1      31.284  26.860  22.535  1.00  0.00     0.010 A 
ATOM     18  C   UNL A   1      29.518  25.980  23.871  1.00  0.00     0.010 A 
ATOM     19  C   UNL A   1      30.561  28.055  22.377  1.00  0.00     0.015 A 
ATOM     20  C   UNL A   1      28.795  27.170  23.737  1.00  0.00     0.015 A 
ATOM     21  C   UNL A   1      29.318  28.207  22.983  1.00  0.00     0.013 A 
ATOM     22  I   UNL A   1      28.224  29.951  22.743  1.00  0.00    -0.044 I 
ENDBRANCH  15  16
ENDBRANCH  12  15
ENDBRANCH   7  12
ENDBRANCH   4   7
ENDBRANCH   2   3
ENDBRANCH   1   2
BRANCH   1  23
ATOM     23  C   UNL A   1      31.782  29.324  27.174  1.00  0.00     0.023 C 
BRANCH  23  24
ATOM     24  C   UNL A   1      32.716  30.311  26.483  1.00  0.00     0.116 C 
BRANCH  24  25
ATOM     25  N   UNL A   1      32.582  31.694  26.920  1.00  0.00    -0.352 N 
ATOM     26  C   UNL A   1      33.502  32.441  27.628  1.00  0.00     0.251 C 
ATOM     27  H   UNL A   1      31.740  32.149  26.685  1.00  0.00     0.163 HD
ATOM     28  O   UNL A   1      33.258  33.588  27.983  1.00  0.00    -0.269 OA
BRANCH  26  29
ATOM     29  C   UNL A   1      34.778  31.797  28.002  1.00  0.00     0.039 A 
ATOM     30  C   UNL A   1      35.916  32.591  28.149  1.00  0.00     0.014 A 
ATOM     31  C   UNL A   1      34.800  30.444  28.347  1.00  0.00     0.014 A 
ATOM     32  C   UNL A   1      37.056  32.045  28.743  1.00  0.00     0.010 A 
ATOM     33  C   UNL A   1      35.902  29.931  29.017  1.00  0.00     0.010 A 
ATOM     34  C   UNL A   1      37.037  30.729  29.233  1.00  0.00    -0.014 A 
BRANCH  34  35
ATOM     35  C   UNL A   1      38.183  30.168  29.992  1.00  0.00     0.031 A 
ATOM     36  C   UNL A   1      38.435  30.614  31.405  1.00  0.00     0.074 A 
ATOM     37  C   UNL A   1      39.047  29.332  29.384  1.00  0.00     0.049 A 
ATOM     38  N   UNL A   1      39.432  30.323  32.201  1.00  0.00    -0.248 NA
ATOM     39  C   UNL A   1      37.453  31.542  31.987  1.00  0.00     0.031 C 
ATOM     40  C   UNL A   1      38.953  28.876  27.995  1.00  0.00     0.029 A 
ATOM     41  N   UNL A   1      40.185  28.724  29.854  1.00  0.00    -0.354 N 
ATOM     42  C   UNL A   1      39.210  31.049  33.363  1.00  0.00     0.074 A 
ATOM     43  C   UNL A   1      38.016  31.838  33.148  1.00  0.00     0.031 C 
ATOM     44  C   UNL A   1      39.974  28.043  27.735  1.00  0.00     0.029 A 
ATOM     45  C   UNL A   1      40.813  27.931  28.924  1.00  0.00     0.049 A 
ATOM     46  H   UNL A   1      40.521  28.846  30.772  1.00  0.00     0.167 HD
ATOM     47  C   UNL A   1      39.919  31.037  34.516  1.00  0.00     0.037 A 
ATOM     48  C   UNL A   1      41.940  27.199  29.020  1.00  0.00     0.037 A 
ATOM     49  C   UNL A   1      41.080  30.219  34.742  1.00  0.00     0.049 A 
ATOM     50  C   UNL A   1      42.694  27.180  30.322  1.00  0.00     0.074 A 
ATOM     51  C   UNL A   1      41.828  30.082  35.898  1.00  0.00     0.029 A 
ATOM     52  N   UNL A   1      41.659  29.394  33.790  1.00  0.00    -0.354 N 
ATOM     53  N   UNL A   1      42.433  27.815  31.439  1.00  0.00    -0.248 NA
ATOM     54  C   UNL A   1      43.895  26.334  30.380  1.00  0.00     0.031 C 
ATOM     55  C   UNL A   1      42.879  29.198  35.637  1.00  0.00     0.029 A 
ATOM     56  C   UNL A   1      42.763  28.753  34.329  1.00  0.00     0.049 A 
ATOM     57  H   UNL A   1      41.334  29.280  32.868  1.00  0.00     0.167 HD
ATOM     58  C   UNL A   1      43.417  27.427  32.338  1.00  0.00     0.074 A 
ATOM     59  C   UNL A   1      44.273  26.491  31.640  1.00  0.00     0.031 C 
ATOM     60  C   UNL A   1      43.596  27.813  33.624  1.00  0.00     0.037 A 
BRANCH  47  61
ATOM     61  C   UNL A   1      39.444  31.926  35.626  1.00  0.00     0.064 A 
ATOM     62  C   UNL A   1      38.501  31.485  36.567  1.00  0.00     0.173 A 
ATOM     63  C   UNL A   1      39.951  33.227  35.764  1.00  0.00     0.173 A 
ATOM     64  F   UNL A   1      37.976  30.255  36.470  1.00  0.00    -0.203 F 
ATOM     65  C   UNL A   1      38.058  32.325  37.586  1.00  0.00     0.198 A 
ATOM     66  C   UNL A   1      39.528  34.053  36.803  1.00  0.00     0.198 A 
ATOM     67  F   UNL A   1      40.856  33.697  34.894  1.00  0.00    -0.203 F 
ATOM     68  F   UNL A   1      37.117  31.900  38.439  1.00  0.00    -0.200 F 
ATOM     69  C   UNL A   1      38.576  33.605  37.706  1.00  0.00     0.200 A 
ATOM     70  F   UNL A   1      40.037  35.287  36.925  1.00  0.00    -0.200 F 
ATOM     71  F   UNL A   1      38.152  34.411  38.690  1.00  0.00    -0.200 F 
ENDBRANCH  47  61
BRANCH  48  72
ATOM     72  C   UNL A   1      42.406  26.395  27.861  1.00  0.00     0.064 A 
ATOM     73  C   UNL A   1      43.358  26.909  26.969  1.00  0.00     0.173 A 
ATOM     74  C   UNL A   1      41.910  25.106  27.617  1.00  0.00     0.173 A 
ATOM     75  F   UNL A   1      43.846  28.143  27.150  1.00  0.00    -0.203 F 
ATOM     76  C   UNL A   1      43.780  26.172  25.863  1.00  0.00     0.198 A 
ATOM     77  C   UNL A   1      42.353  24.361  26.525  1.00  0.00     0.198 A 
ATOM     78  F   UNL A   1      41.002  24.568  28.442  1.00  0.00    -0.203 F 
ATOM     79  F   UNL A   1      44.658  26.706  25.002  1.00  0.00    -0.200 F 
ATOM     80  C   UNL A   1      43.281  24.897  25.645  1.00  0.00     0.200 A 
ATOM     81  F   UNL A   1      41.877  23.125  26.323  1.00  0.00    -0.200 F 
ATOM     82  F   UNL A   1      43.689  24.189  24.583  1.00  0.00    -0.200 F 
ENDBRANCH  48  72
BRANCH  60  83
ATOM     83  C   UNL A   1      44.740  27.199  34.374  1.00  0.00     0.064 A 
ATOM     84  C   UNL A   1      45.998  27.814  34.427  1.00  0.00     0.173 A 
ATOM     85  C   UNL A   1      44.559  26.004  35.085  1.00  0.00     0.173 A 
ATOM     86  F   UNL A   1      46.223  28.950  33.750  1.00  0.00    -0.203 F 
ATOM     87  C   UNL A   1      47.042  27.243  35.150  1.00  0.00     0.198 A 
ATOM     88  C   UNL A   1      45.598  25.450  35.829  1.00  0.00     0.198 A 
ATOM     89  F   UNL A   1      43.372  25.380  35.070  1.00  0.00    -0.203 F 
ATOM     90  F   UNL A   1      48.248  27.827  35.155  1.00  0.00    -0.200 F 
ATOM     91  C   UNL A   1      46.839  26.067  35.856  1.00  0.00     0.200 A 
ATOM     92  F   UNL A   1      45.396  24.320  36.520  1.00  0.00    -0.200 F 
ATOM     93  F   UNL A   1      47.842  25.524  36.558  1.00  0.00    -0.200 F 
ENDBRANCH  60  83
ENDBRANCH  34  35
ENDBRANCH  26  29
ENDBRANCH  24  25
ENDBRANCH  23  24
ENDBRANCH   1  23
TORSDOF 16
ENDMDL
MODEL 2
REMARK VINA RESULT:     -11.5      2.304      3.394
REMARK SMILES CCC(CC)([NH2+]Cc1ccc(I)cc1)C(=O)NCCCCNC(=O)c1ccc(-c2c3nc(c(-c4c(F)c(F)c(F)c(F)c4F)c4ccc([nH]4)c(-c4c(F)c(F)c(F)c(F)c4F)c4nc(c(-c5c(F)c(F)c(F)c(F)c5F)c5ccc2[nH]5)C=C4)C=C3)cc1
REMARK SMILES IDX 19 1 18 2 17 3 15 4 16 5 3 7 2 8 1 9 4 10 5 11 6 12 7 15
REMARK SMILES IDX 8 16 9 17 14 18 10 19 13 20 11 21 12 22 20 23 21 24 22 25
REMARK SMILES IDX 23 26 24 28 25 29 26 30 87 31 27 32 86 33 28 34 29 35 30 36
REMARK SMILES IDX 80 37 31 38 85 39 79 40 81 41 32 42 84 43 78 44 77 45 33 47
REMARK SMILES IDX 65 48 45 49 64 50 46 51 49 52 63 53 82 54 47 55 48 56 62 58
REMARK SMILES IDX 83 59 50 60 34 61 35 62 43 63 36 64 37 65 41 66 44 67 38 68
REMARK SMILES IDX 39 69 42 70 40 71 66 72 67 73 75 74 68 75 69 76 73 77 76 78
REMARK SMILES IDX 70 79 71 80 74 81 72 82 51 83 52 84 60 85 53 86 54 87 58 88
REMARK SMILES IDX 61 89 55 90 56 91 59 92 57 93
REMARK H PARENT 17 6 6 13 6 14 22 27 81 46 49 57
REMARK Flexibility Score: inf
ROOT
ATOM      1  C   UNL A   1      32.133  30.246  27.018  1.00  0.00     0.023 C 
ENDROOT
BRANCH   1   2
ATOM      2  C   UNL A   1      33.515  29.739  26.597  1.00  0.00     0.116 C 
BRANCH   2   3
ATOM      3  N   UNL A   1      33.678  29.659  25.173  1.00  0.00    -0.351 N 
ATOM      4  C   UNL A   1      33.327  28.786  24.201  1.00  0.00     0.281 C 
ATOM      5  O   UNL A   1      33.609  29.252  23.082  1.00  0.00    -0.268 OA
ATOM      6  H   UNL A   1      34.169  30.434  24.813  1.00  0.00     0.163 HD
BRANCH   4   7
ATOM      7  C   UNL A   1      32.574  27.384  24.315  1.00  0.00     0.175 C 
BRANCH   7   8
ATOM      8  C   UNL A   1      31.043  27.806  24.512  1.00  0.00     0.076 C 
ATOM      9  C   UNL A   1      30.132  27.742  23.276  1.00  0.00     0.011 C 
ENDBRANCH   7   8
BRANCH   7  10
ATOM     10  C   UNL A   1      32.990  26.559  25.554  1.00  0.00     0.076 C 
ATOM     11  C   UNL A   1      31.845  25.781  26.217  1.00  0.00     0.011 C 
ENDBRANCH   7  10
BRANCH   7  12
ATOM     12  N   UNL A   1      32.510  26.588  23.057  1.00  0.00    -0.330 N 
ATOM     13  H   UNL A   1      32.486  27.289  22.316  1.00  0.00     0.347 HD
ATOM     14  H   UNL A   1      31.742  25.971  23.320  1.00  0.00     0.347 HD
BRANCH  12  15
ATOM     15  C   UNL A   1      33.427  25.574  22.566  1.00  0.00     0.298 C 
BRANCH  15  16
ATOM     16  C   UNL A   1      33.357  24.108  22.984  1.00  0.00     0.006 A 
ATOM     17  C   UNL A   1      34.510  23.484  23.493  1.00  0.00     0.010 A 
ATOM     18  C   UNL A   1      32.167  23.366  23.075  1.00  0.00     0.010 A 
ATOM     19  C   UNL A   1      34.471  22.193  24.047  1.00  0.00     0.015 A 
ATOM     20  C   UNL A   1      32.116  22.072  23.607  1.00  0.00     0.015 A 
ATOM     21  C   UNL A   1      33.272  21.490  24.098  1.00  0.00     0.013 A 
ATOM     22  I   UNL A   1      33.187  19.594  24.934  1.00  0.00    -0.044 I 
ENDBRANCH  15  16
ENDBRANCH  12  15
ENDBRANCH   7  12
ENDBRANCH   4   7
ENDBRANCH   2   3
ENDBRANCH   1   2
BRANCH   1  23
ATOM     23  C   UNL A   1      31.899  31.732  26.781  1.00  0.00     0.023 C 
BRANCH  23  24
ATOM     24  C   UNL A   1      32.921  32.658  27.432  1.00  0.00     0.116 C 
BRANCH  24  25
ATOM     25  N   UNL A   1      32.447  34.009  27.697  1.00  0.00    -0.352 N 
ATOM     26  C   UNL A   1      32.968  34.917  28.596  1.00  0.00     0.251 C 
ATOM     27  H   UNL A   1      31.668  34.310  27.175  1.00  0.00     0.163 HD
ATOM     28  O   UNL A   1      32.453  36.015  28.767  1.00  0.00    -0.269 OA
BRANCH  26  29
ATOM     29  C   UNL A   1      34.137  34.505  29.399  1.00  0.00     0.039 A 
ATOM     30  C   UNL A   1      33.926  33.903  30.640  1.00  0.00     0.014 A 
ATOM     31  C   UNL A   1      35.420  34.585  28.852  1.00  0.00     0.014 A 
ATOM     32  C   UNL A   1      34.996  33.284  31.289  1.00  0.00     0.010 A 
ATOM     33  C   UNL A   1      36.461  33.894  29.456  1.00  0.00     0.010 A 
ATOM     34  C   UNL A   1      36.258  33.225  30.674  1.00  0.00    -0.014 A 
BRANCH  34  35
ATOM     35  C   UNL A   1      37.377  32.456  31.274  1.00  0.00     0.031 A 
ATOM     36  C   UNL A   1      37.885  32.816  32.642  1.00  0.00     0.074 A 
ATOM     37  C   UNL A   1      37.995  31.498  30.556  1.00  0.00     0.049 A 
ATOM     38  N   UNL A   1      38.911  32.338  33.298  1.00  0.00    -0.248 NA
ATOM     39  C   UNL A   1      37.164  33.886  33.350  1.00  0.00     0.031 C 
ATOM     40  C   UNL A   1      37.644  31.100  29.191  1.00  0.00     0.029 A 
ATOM     41  N   UNL A   1      39.062  30.692  30.869  1.00  0.00    -0.354 N 
ATOM     42  C   UNL A   1      38.971  33.063  34.480  1.00  0.00     0.074 A 
ATOM     43  C   UNL A   1      37.916  34.052  34.427  1.00  0.00     0.031 C 
ATOM     44  C   UNL A   1      38.461  30.110  28.796  1.00  0.00     0.029 A 
ATOM     45  C   UNL A   1      39.416  29.826  29.863  1.00  0.00     0.049 A 
ATOM     46  H   UNL A   1      39.531  30.731  31.735  1.00  0.00     0.167 HD
ATOM     47  C   UNL A   1      39.812  32.901  35.529  1.00  0.00     0.037 A 
ATOM     48  C   UNL A   1      40.400  28.909  29.808  1.00  0.00     0.037 A 
ATOM     49  C   UNL A   1      40.832  31.890  35.598  1.00  0.00     0.049 A 
ATOM     50  C   UNL A   1      41.302  28.727  30.999  1.00  0.00     0.074 A 
ATOM     51  C   UNL A   1      41.689  31.598  36.645  1.00  0.00     0.029 A 
ATOM     52  N   UNL A   1      41.130  31.001  34.577  1.00  0.00    -0.354 N 
ATOM     53  N   UNL A   1      41.303  29.370  32.141  1.00  0.00    -0.248 NA
ATOM     54  C   UNL A   1      42.335  27.686  30.895  1.00  0.00     0.031 C 
ATOM     55  C   UNL A   1      42.526  30.552  36.245  1.00  0.00     0.029 A 
ATOM     56  C   UNL A   1      42.165  30.166  34.964  1.00  0.00     0.049 A 
ATOM     57  H   UNL A   1      40.673  30.967  33.705  1.00  0.00     0.167 HD
ATOM     58  C   UNL A   1      42.313  28.797  32.901  1.00  0.00     0.074 A 
ATOM     59  C   UNL A   1      42.896  27.744  32.095  1.00  0.00     0.031 C 
ATOM     60  C   UNL A   1      42.723  29.114  34.153  1.00  0.00     0.037 A 
BRANCH  47  61
ATOM     61  C   UNL A   1      39.648  33.831  36.694  1.00  0.00     0.064 A 
ATOM     62  C   UNL A   1      38.855  33.489  37.799  1.00  0.00     0.173 A 
ATOM     63  C   UNL A   1      40.306  35.070  36.715  1.00  0.00     0.173 A 
ATOM     64  F   UNL A   1      38.193  32.323  37.821  1.00  0.00    -0.203 F 
ATOM     65  C   UNL A   1      38.699  34.367  38.870  1.00  0.00     0.198 A 
ATOM     66  C   UNL A   1      40.173  35.932  37.801  1.00  0.00     0.198 A 
ATOM     67  F   UNL A   1      41.078  35.444  35.685  1.00  0.00    -0.203 F 
ATOM     68  F   UNL A   1      37.893  34.041  39.889  1.00  0.00    -0.200 F 
ATOM     69  C   UNL A   1      39.363  35.584  38.872  1.00  0.00     0.200 A 
ATOM     70  F   UNL A   1      40.823  37.105  37.807  1.00  0.00    -0.200 F 
ATOM     71  F   UNL A   1      39.216  36.427  39.904  1.00  0.00    -0.200 F 
ENDBRANCH  47  61
BRANCH  48  72
ATOM     72  C   UNL A   1      40.564  28.064  28.596  1.00  0.00     0.064 A 
ATOM     73  C   UNL A   1      41.354  28.499  27.522  1.00  0.00     0.173 A 
ATOM     74  C   UNL A   1      39.935  26.817  28.482  1.00  0.00     0.173 A 
ATOM     75  F   UNL A   1      41.959  29.694  27.577  1.00  0.00    -0.203 F 
ATOM     76  C   UNL A   1      41.491  27.726  26.370  1.00  0.00     0.198 A 
ATOM     77  C   UNL A   1      40.094  26.034  27.339  1.00  0.00     0.198 A 
ATOM     78  F   UNL A   1      39.173  26.354  29.483  1.00  0.00    -0.203 F 
ATOM     79  F   UNL A   1      42.216  28.186  25.341  1.00  0.00    -0.200 F 
ATOM     80  C   UNL A   1      40.865  26.492  26.282  1.00  0.00     0.200 A 
ATOM     81  F   UNL A   1      39.497  24.836  27.262  1.00  0.00    -0.200 F 
ATOM     82  F   UNL A   1      40.998  25.750  25.175  1.00  0.00    -0.200 F 
ENDBRANCH  48  72
BRANCH  60  83
ATOM     83  C   UNL A   1      43.830  28.294  34.744  1.00  0.00     0.064 A 
ATOM     84  C   UNL A   1      45.169  28.700  34.662  1.00  0.00     0.173 A 
ATOM     85  C   UNL A   1      43.540  27.110  35.439  1.00  0.00     0.173 A 
ATOM     86  F   UNL A   1      45.497  29.816  33.995  1.00  0.00    -0.203 F 
ATOM     87  C   UNL A   1      46.182  27.939  35.240  1.00  0.00     0.198 A 
ATOM     88  C   UNL A   1      44.554  26.367  36.038  1.00  0.00     0.198 A 
ATOM     89  F   UNL A   1      42.274  26.683  35.550  1.00  0.00    -0.203 F 
ATOM     90  F   UNL A   1      47.460  28.324  35.116  1.00  0.00    -0.200 F 
ATOM     91  C   UNL A   1      45.873  26.778  35.933  1.00  0.00     0.200 A 
ATOM     92  F   UNL A   1      44.252  25.252  36.718  1.00  0.00    -0.200 F 
ATOM     93  F   UNL A   1      46.849  26.052  36.495  1.00  0.00    -0.200 F 
ENDBRANCH  60  83
ENDBRANCH  34  35
ENDBRANCH  26  29
ENDBRANCH  24  25
ENDBRANCH  23  24
ENDBRANCH   1  23
TORSDOF 16
ENDMDL
MODEL 3
REMARK VINA RESULT:     -11.5      2.299      3.725
REMARK SMILES CCC(CC)([NH2+]Cc1ccc(I)cc1)C(=O)NCCCCNC(=O)c1ccc(-c2c3nc(c(-c4c(F)c(F)c(F)c(F)c4F)c4ccc([nH]4)c(-c4c(F)c(F)c(F)c(F)c4F)c4nc(c(-c5c(F)c(F)c(F)c(F)c5F)c5ccc2[nH]5)C=C4)C=C3)cc1
REMARK SMILES IDX 19 1 18 2 17 3 15 4 16 5 3 7 2 8 1 9 4 10 5 11 6 12 7 15
REMARK SMILES IDX 8 16 9 17 14 18 10 19 13 20 11 21 12 22 20 23 21 24 22 25
REMARK SMILES IDX 23 26 24 28 25 29 26 30 87 31 27 32 86 33 28 34 29 35 30 36
REMARK SMILES IDX 80 37 31 38 85 39 79 40 81 41 32 42 84 43 78 44 77 45 33 47
REMARK SMILES IDX 65 48 45 49 64 50 46 51 49 52 63 53 82 54 47 55 48 56 62 58
REMARK SMILES IDX 83 59 50 60 34 61 35 62 43 63 36 64 37 65 41 66 44 67 38 68
REMARK SMILES IDX 39 69 42 70 40 71 66 72 67 73 75 74 68 75 69 76 73 77 76 78
REMARK SMILES IDX 70 79 71 80 74 81 72 82 51 83 52 84 60 85 53 86 54 87 58 88
REMARK SMILES IDX 61 89 55 90 56 91 59 92 57 93
REMARK H PARENT 17 6 6 13 6 14 22 27 81 46 49 57
REMARK Flexibility Score: inf
ROOT
ATOM      1  C   UNL A   1      32.097  30.147  26.923  1.00  0.00     0.023 C 
ENDROOT
BRANCH   1   2
ATOM      2  C   UNL A   1      33.521  29.769  26.507  1.00  0.00     0.116 C 
BRANCH   2   3
ATOM      3  N   UNL A   1      33.672  29.608  25.088  1.00  0.00    -0.351 N 
ATOM      4  C   UNL A   1      33.381  28.648  24.181  1.00  0.00     0.281 C 
ATOM      5  O   UNL A   1      33.609  29.060  23.029  1.00  0.00    -0.268 OA
ATOM      6  H   UNL A   1      34.093  30.395  24.670  1.00  0.00     0.163 HD
BRANCH   4   7
ATOM      7  C   UNL A   1      32.747  27.200  24.400  1.00  0.00     0.175 C 
BRANCH   7   8
ATOM      8  C   UNL A   1      31.194  27.511  24.631  1.00  0.00     0.076 C 
ATOM      9  C   UNL A   1      30.343  27.799  23.385  1.00  0.00     0.011 C 
ENDBRANCH   7   8
BRANCH   7  10
ATOM     10  C   UNL A   1      33.269  26.482  25.666  1.00  0.00     0.076 C 
ATOM     11  C   UNL A   1      32.328  25.405  26.222  1.00  0.00     0.011 C 
ENDBRANCH   7  10
BRANCH   7  12
ATOM     12  N   UNL A   1      32.705  26.330  23.191  1.00  0.00    -0.330 N 
ATOM     13  H   UNL A   1      32.629  26.985  22.412  1.00  0.00     0.347 HD
ATOM     14  H   UNL A   1      31.978  25.688  23.504  1.00  0.00     0.347 HD
BRANCH  12  15
ATOM     15  C   UNL A   1      33.669  25.342  22.738  1.00  0.00     0.298 C 
BRANCH  15  16
ATOM     16  C   UNL A   1      33.560  23.855  23.066  1.00  0.00     0.006 A 
ATOM     17  C   UNL A   1      34.522  23.267  23.907  1.00  0.00     0.010 A 
ATOM     18  C   UNL A   1      32.457  23.050  22.738  1.00  0.00     0.010 A 
ATOM     19  C   UNL A   1      34.386  21.950  24.379  1.00  0.00     0.015 A 
ATOM     20  C   UNL A   1      32.318  21.730  23.185  1.00  0.00     0.015 A 
ATOM     21  C   UNL A   1      33.284  21.184  24.011  1.00  0.00     0.013 A 
ATOM     22  I   UNL A   1      33.053  19.248  24.715  1.00  0.00    -0.044 I 
ENDBRANCH  15  16
ENDBRANCH  12  15
ENDBRANCH   7  12
ENDBRANCH   4   7
ENDBRANCH   2   3
ENDBRANCH   1   2
BRANCH   1  23
ATOM     23  C   UNL A   1      31.778  31.634  26.830  1.00  0.00     0.023 C 
BRANCH  23  24
ATOM     24  C   UNL A   1      32.839  32.558  27.417  1.00  0.00     0.116 C 
BRANCH  24  25
ATOM     25  N   UNL A   1      32.407  33.932  27.635  1.00  0.00    -0.352 N 
ATOM     26  C   UNL A   1      32.964  34.858  28.492  1.00  0.00     0.251 C 
ATOM     27  H   UNL A   1      31.630  34.235  27.111  1.00  0.00     0.163 HD
ATOM     28  O   UNL A   1      32.482  35.977  28.626  1.00  0.00    -0.269 OA
BRANCH  26  29
ATOM     29  C   UNL A   1      34.131  34.445  29.297  1.00  0.00     0.039 A 
ATOM     30  C   UNL A   1      33.916  33.818  30.525  1.00  0.00     0.014 A 
ATOM     31  C   UNL A   1      35.417  34.550  28.763  1.00  0.00     0.014 A 
ATOM     32  C   UNL A   1      34.988  33.199  31.172  1.00  0.00     0.010 A 
ATOM     33  C   UNL A   1      36.461  33.858  29.363  1.00  0.00     0.010 A 
ATOM     34  C   UNL A   1      36.255  33.165  30.567  1.00  0.00    -0.014 A 
BRANCH  34  35
ATOM     35  C   UNL A   1      37.378  32.398  31.162  1.00  0.00     0.031 A 
ATOM     36  C   UNL A   1      37.880  32.748  32.534  1.00  0.00     0.074 A 
ATOM     37  C   UNL A   1      38.004  31.451  30.436  1.00  0.00     0.049 A 
ATOM     38  N   UNL A   1      38.907  32.270  33.188  1.00  0.00    -0.248 NA
ATOM     39  C   UNL A   1      37.151  33.806  33.252  1.00  0.00     0.031 C 
ATOM     40  C   UNL A   1      37.659  31.063  29.066  1.00  0.00     0.029 A 
ATOM     41  N   UNL A   1      39.075  30.649  30.744  1.00  0.00    -0.354 N 
ATOM     42  C   UNL A   1      38.960  32.984  34.378  1.00  0.00     0.074 A 
ATOM     43  C   UNL A   1      37.899  33.966  34.332  1.00  0.00     0.031 C 
ATOM     44  C   UNL A   1      38.484  30.083  28.664  1.00  0.00     0.029 A 
ATOM     45  C   UNL A   1      39.437  29.795  29.731  1.00  0.00     0.049 A 
ATOM     46  H   UNL A   1      39.542  30.683  31.611  1.00  0.00     0.167 HD
ATOM     47  C   UNL A   1      39.799  32.817  35.427  1.00  0.00     0.037 A 
ATOM     48  C   UNL A   1      40.428  28.885  29.669  1.00  0.00     0.037 A 
ATOM     49  C   UNL A   1      40.826  31.812  35.489  1.00  0.00     0.049 A 
ATOM     50  C   UNL A   1      41.328  28.698  30.860  1.00  0.00     0.074 A 
ATOM     51  C   UNL A   1      41.682  31.515  36.535  1.00  0.00     0.029 A 
ATOM     52  N   UNL A   1      41.132  30.935  34.460  1.00  0.00    -0.354 N 
ATOM     53  N   UNL A   1      41.322  29.329  32.009  1.00  0.00    -0.248 NA
ATOM     54  C   UNL A   1      42.368  27.664  30.749  1.00  0.00     0.031 C 
ATOM     55  C   UNL A   1      42.528  30.479  36.127  1.00  0.00     0.029 A 
ATOM     56  C   UNL A   1      42.172  30.104  34.841  1.00  0.00     0.049 A 
ATOM     57  H   UNL A   1      40.677  30.907  33.587  1.00  0.00     0.167 HD
ATOM     58  C   UNL A   1      42.334  28.755  32.766  1.00  0.00     0.074 A 
ATOM     59  C   UNL A   1      42.925  27.714  31.951  1.00  0.00     0.031 C 
ATOM     60  C   UNL A   1      42.738  29.063  34.022  1.00  0.00     0.037 A 
BRANCH  47  61
ATOM     61  C   UNL A   1      39.626  33.735  36.601  1.00  0.00     0.064 A 
ATOM     62  C   UNL A   1      40.280  34.974  36.664  1.00  0.00     0.173 A 
ATOM     63  C   UNL A   1      38.782  33.382  37.664  1.00  0.00     0.173 A 
ATOM     64  F   UNL A   1      41.109  35.352  35.679  1.00  0.00    -0.203 F 
ATOM     65  C   UNL A   1      40.123  35.813  37.765  1.00  0.00     0.198 A 
ATOM     66  C   UNL A   1      38.603  34.237  38.749  1.00  0.00     0.198 A 
ATOM     67  F   UNL A   1      38.132  32.210  37.652  1.00  0.00    -0.203 F 
ATOM     68  F   UNL A   1      40.800  36.967  37.828  1.00  0.00    -0.200 F 
ATOM     69  C   UNL A   1      39.280  35.446  38.803  1.00  0.00     0.200 A 
ATOM     70  F   UNL A   1      37.780  33.886  39.748  1.00  0.00    -0.200 F 
ATOM     71  F   UNL A   1      39.125  36.256  39.860  1.00  0.00    -0.200 F 
ENDBRANCH  47  61
BRANCH  48  72
ATOM     72  C   UNL A   1      40.601  28.053  28.449  1.00  0.00     0.064 A 
ATOM     73  C   UNL A   1      41.412  28.491  27.393  1.00  0.00     0.173 A 
ATOM     74  C   UNL A   1      39.959  26.815  28.310  1.00  0.00     0.173 A 
ATOM     75  F   UNL A   1      42.030  29.678  27.472  1.00  0.00    -0.203 F 
ATOM     76  C   UNL A   1      41.557  27.731  26.234  1.00  0.00     0.198 A 
ATOM     77  C   UNL A   1      40.125  26.044  27.161  1.00  0.00     0.198 A 
ATOM     78  F   UNL A   1      39.175  26.349  29.294  1.00  0.00    -0.203 F 
ATOM     79  F   UNL A   1      42.303  28.195  25.222  1.00  0.00    -0.200 F 
ATOM     80  C   UNL A   1      40.918  26.506  26.120  1.00  0.00     0.200 A 
ATOM     81  F   UNL A   1      39.515  24.855  27.060  1.00  0.00    -0.200 F 
ATOM     82  F   UNL A   1      41.059  25.775  25.007  1.00  0.00    -0.200 F 
ENDBRANCH  48  72
BRANCH  60  83
ATOM     83  C   UNL A   1      43.850  28.244  34.607  1.00  0.00     0.064 A 
ATOM     84  C   UNL A   1      43.598  27.048  35.292  1.00  0.00     0.173 A 
ATOM     85  C   UNL A   1      45.185  28.640  34.439  1.00  0.00     0.173 A 
ATOM     86  F   UNL A   1      42.338  26.636  35.492  1.00  0.00    -0.203 F 
ATOM     87  C   UNL A   1      44.644  26.286  35.807  1.00  0.00     0.198 A 
ATOM     88  C   UNL A   1      46.229  27.862  34.931  1.00  0.00     0.198 A 
ATOM     89  F   UNL A   1      45.477  29.775  33.785  1.00  0.00    -0.203 F 
ATOM     90  F   UNL A   1      44.380  25.166  36.493  1.00  0.00    -0.200 F 
ATOM     91  C   UNL A   1      45.958  26.689  35.619  1.00  0.00     0.200 A 
ATOM     92  F   UNL A   1      47.498  28.248  34.739  1.00  0.00    -0.200 F 
ATOM     93  F   UNL A   1      46.964  25.951  36.107  1.00  0.00    -0.200 F 
ENDBRANCH  60  83
ENDBRANCH  34  35
ENDBRANCH  26  29
ENDBRANCH  24  25
ENDBRANCH  23  24
ENDBRANCH   1  23
TORSDOF 16
ENDMDL
