MODEL 1
REMARK VINA RESULT:     -13.6      0.000      0.000
REMARK SMILES CC(C)[C@H](NC(=O)CCC1=c2ccccc2=NC1)C(=O)NCCCCNC(=O)c1ccc(-c2c3nc(c(-c4c(F)c(F)c(F)c(F)c4F)c4ccc([nH]4)c(-c4c(F)c(F)c(F)c(F)c4F)c4nc(c(-c5c(F)c(F)c(F)c(F)c5F)c5ccc2[nH]5)C=C4)C=C3)cc1
REMARK SMILES IDX 22 1 21 2 19 3 20 4 4 6 2 7 1 8 3 9 5 10 6 11 7 13 8 14 9 15
REMARK SMILES IDX 10 16 11 17 18 18 12 19 16 20 17 21 13 22 15 23 14 24 23 25
REMARK SMILES IDX 24 26 25 27 26 28 27 29 28 31 29 32 30 33 91 34 31 35 90 36
REMARK SMILES IDX 32 37 33 38 34 39 84 40 35 41 89 42 83 43 85 44 36 45 88 46
REMARK SMILES IDX 82 47 81 48 37 50 69 51 49 52 68 53 50 54 53 55 67 56 86 57
REMARK SMILES IDX 51 58 52 59 66 61 87 62 54 63 38 64 39 65 47 66 40 67 41 68
REMARK SMILES IDX 45 69 48 70 42 71 43 72 46 73 44 74 70 75 71 76 79 77 72 78
REMARK SMILES IDX 73 79 77 80 80 81 74 82 75 83 78 84 76 85 55 86 56 87 64 88
REMARK SMILES IDX 57 89 58 90 62 91 65 92 59 93 60 94 63 95 61 96
REMARK H PARENT 21 5 5 12 26 30 85 49 53 60
REMARK Flexibility Score: inf
ROOT
ATOM      1  C   UNL A   1      36.033  23.057  25.503  1.00  0.00     0.116 C 
ENDROOT
BRANCH   1   2
ATOM      2  N   UNL A   1      35.031  22.722  26.585  1.00  0.00    -0.354 N 
ATOM      3  C   UNL A   1      33.912  21.666  26.768  1.00  0.00     0.242 C 
ATOM      4  O   UNL A   1      33.731  21.862  28.019  1.00  0.00    -0.273 OA
ATOM      5  H   UNL A   1      35.108  23.321  27.362  1.00  0.00     0.163 HD
BRANCH   3   6
ATOM      6  C   UNL A   1      32.881  20.301  25.380  1.00  0.00     0.173 C 
BRANCH   6   7
ATOM      7  C   UNL A   1      33.297  18.602  24.797  1.00  0.00     0.015 C 
ATOM      8  C   UNL A   1      34.799  18.239  24.610  1.00  0.00     0.010 C 
ATOM      9  C   UNL A   1      32.558  17.336  25.285  1.00  0.00     0.010 C 
ENDBRANCH   6   7
BRANCH   6  10
ATOM     10  N   UNL A   1      32.329  20.701  23.703  1.00  0.00    -0.344 N 
ATOM     11  C   UNL A   1      32.106  21.714  22.800  1.00  0.00     0.220 C 
ATOM     12  H   UNL A   1      32.093  19.854  23.259  1.00  0.00     0.164 HD
ATOM     13  O   UNL A   1      31.976  21.344  21.623  1.00  0.00    -0.275 OA
BRANCH  11  14
ATOM     14  C   UNL A   1      32.132  23.231  23.062  1.00  0.00     0.104 C 
BRANCH  14  15
ATOM     15  C   UNL A   1      30.746  23.807  23.203  1.00  0.00     0.043 C 
BRANCH  15  16
ATOM     16  C   UNL A   1      30.648  24.522  24.494  1.00  0.00    -0.039 C 
ATOM     17  C   UNL A   1      30.533  25.847  24.619  1.00  0.00     0.001 A 
ATOM     18  C   UNL A   1      31.129  23.806  25.764  1.00  0.00     0.174 C 
ATOM     19  C   UNL A   1      30.666  27.409  23.560  1.00  0.00     0.010 A 
ATOM     20  C   UNL A   1      31.173  25.925  26.375  1.00  0.00     0.065 A 
ATOM     21  N   UNL A   1      31.403  24.763  26.895  1.00  0.00    -0.280 NA
ATOM     22  C   UNL A   1      31.316  28.774  24.217  1.00  0.00     0.001 A 
ATOM     23  C   UNL A   1      31.728  27.643  26.960  1.00  0.00     0.028 A 
ATOM     24  C   UNL A   1      31.702  28.863  26.050  1.00  0.00     0.002 A 
ENDBRANCH  15  16
ENDBRANCH  14  15
ENDBRANCH  11  14
ENDBRANCH   6  10
ENDBRANCH   3   6
ENDBRANCH   1   2
BRANCH   1  25
ATOM     25  C   UNL A   1      36.233  22.189  24.276  1.00  0.00     0.023 C 
BRANCH  25  26
ATOM     26  C   UNL A   1      37.284  21.112  24.394  1.00  0.00     0.023 C 
BRANCH  26  27
ATOM     27  C   UNL A   1      38.023  21.040  25.719  1.00  0.00     0.116 C 
BRANCH  27  28
ATOM     28  N   UNL A   1      39.256  20.247  25.741  1.00  0.00    -0.352 N 
ATOM     29  C   UNL A   1      40.428  20.562  26.413  1.00  0.00     0.251 C 
ATOM     30  H   UNL A   1      39.252  19.407  25.227  1.00  0.00     0.163 HD
ATOM     31  O   UNL A   1      41.419  19.845  26.371  1.00  0.00    -0.269 OA
BRANCH  29  32
ATOM     32  C   UNL A   1      40.446  21.847  27.141  1.00  0.00     0.039 A 
ATOM     33  C   UNL A   1      39.700  22.900  26.616  1.00  0.00     0.014 A 
ATOM     34  C   UNL A   1      41.453  22.072  28.081  1.00  0.00     0.014 A 
ATOM     35  C   UNL A   1      40.178  24.189  26.797  1.00  0.00     0.010 A 
ATOM     36  C   UNL A   1      41.814  23.387  28.389  1.00  0.00     0.010 A 
ATOM     37  C   UNL A   1      41.248  24.456  27.676  1.00  0.00    -0.014 A 
BRANCH  37  38
ATOM     38  C   UNL A   1      41.760  25.853  27.786  1.00  0.00     0.031 A 
ATOM     39  C   UNL A   1      41.021  26.915  28.568  1.00  0.00     0.074 A 
ATOM     40  C   UNL A   1      42.961  26.140  27.242  1.00  0.00     0.049 A 
ATOM     41  N   UNL A   1      41.360  28.165  28.780  1.00  0.00    -0.248 NA
ATOM     42  C   UNL A   1      39.737  26.543  29.184  1.00  0.00     0.031 C 
ATOM     43  C   UNL A   1      43.779  25.198  26.474  1.00  0.00     0.029 A 
ATOM     44  N   UNL A   1      43.724  27.278  27.283  1.00  0.00    -0.354 N 
ATOM     45  C   UNL A   1      40.329  28.726  29.526  1.00  0.00     0.074 A 
ATOM     46  C   UNL A   1      39.330  27.695  29.699  1.00  0.00     0.031 C 
ATOM     47  C   UNL A   1      44.961  25.760  26.200  1.00  0.00     0.029 A 
ATOM     48  C   UNL A   1      44.946  27.138  26.673  1.00  0.00     0.049 A 
ATOM     49  H   UNL A   1      43.425  28.114  27.710  1.00  0.00     0.167 HD
ATOM     50  C   UNL A   1      40.234  29.978  30.038  1.00  0.00     0.037 A 
ATOM     51  C   UNL A   1      45.943  28.022  26.484  1.00  0.00     0.037 A 
ATOM     52  C   UNL A   1      41.249  30.991  29.894  1.00  0.00     0.049 A 
ATOM     53  C   UNL A   1      45.780  29.420  27.006  1.00  0.00     0.074 A 
ATOM     54  C   UNL A   1      41.255  32.279  30.400  1.00  0.00     0.029 A 
ATOM     55  N   UNL A   1      42.438  30.828  29.200  1.00  0.00    -0.354 N 
ATOM     56  N   UNL A   1      44.809  29.924  27.724  1.00  0.00    -0.248 NA
ATOM     57  C   UNL A   1      46.845  30.377  26.676  1.00  0.00     0.031 C 
ATOM     58  C   UNL A   1      42.420  32.915  29.962  1.00  0.00     0.029 A 
ATOM     59  C   UNL A   1      43.169  32.006  29.234  1.00  0.00     0.049 A 
ATOM     60  H   UNL A   1      42.722  29.999  28.749  1.00  0.00     0.167 HD
ATOM     61  C   UNL A   1      45.147  31.251  27.944  1.00  0.00     0.074 A 
ATOM     62  C   UNL A   1      46.429  31.468  27.306  1.00  0.00     0.031 C 
ATOM     63  C   UNL A   1      44.449  32.205  28.604  1.00  0.00     0.037 A 
BRANCH  50  64
ATOM     64  C   UNL A   1      38.996  30.344  30.810  1.00  0.00     0.064 A 
ATOM     65  C   UNL A   1      38.932  30.204  32.205  1.00  0.00     0.173 A 
ATOM     66  C   UNL A   1      37.898  30.933  30.163  1.00  0.00     0.173 A 
ATOM     67  F   UNL A   1      39.950  29.642  32.875  1.00  0.00    -0.203 F 
ATOM     68  C   UNL A   1      37.810  30.623  32.918  1.00  0.00     0.198 A 
ATOM     69  C   UNL A   1      36.792  31.380  30.882  1.00  0.00     0.198 A 
ATOM     70  F   UNL A   1      37.910  31.105  28.832  1.00  0.00    -0.203 F 
ATOM     71  F   UNL A   1      37.759  30.447  34.246  1.00  0.00    -0.200 F 
ATOM     72  C   UNL A   1      36.747  31.221  32.258  1.00  0.00     0.200 A 
ATOM     73  F   UNL A   1      35.775  31.977  30.244  1.00  0.00    -0.200 F 
ATOM     74  F   UNL A   1      35.679  31.643  32.950  1.00  0.00    -0.200 F 
ENDBRANCH  50  64
BRANCH  51  75
ATOM     75  C   UNL A   1      47.172  27.602  25.761  1.00  0.00     0.064 A 
ATOM     76  C   UNL A   1      48.265  27.066  26.451  1.00  0.00     0.173 A 
ATOM     77  C   UNL A   1      47.267  27.700  24.363  1.00  0.00     0.173 A 
ATOM     78  F   UNL A   1      48.229  26.965  27.788  1.00  0.00    -0.203 F 
ATOM     79  C   UNL A   1      49.410  26.652  25.773  1.00  0.00     0.198 A 
ATOM     80  C   UNL A   1      48.396  27.251  23.684  1.00  0.00     0.198 A 
ATOM     81  F   UNL A   1      46.245  28.199  23.652  1.00  0.00    -0.203 F 
ATOM     82  F   UNL A   1      50.457  26.178  26.462  1.00  0.00    -0.200 F 
ATOM     83  C   UNL A   1      49.471  26.735  24.391  1.00  0.00     0.200 A 
ATOM     84  F   UNL A   1      48.439  27.310  22.346  1.00  0.00    -0.200 F 
ATOM     85  F   UNL A   1      50.565  26.320  23.739  1.00  0.00    -0.200 F 
ENDBRANCH  51  75
BRANCH  63  86
ATOM     86  C   UNL A   1      45.046  33.579  28.682  1.00  0.00     0.064 A 
ATOM     87  C   UNL A   1      44.699  34.577  27.761  1.00  0.00     0.173 A 
ATOM     88  C   UNL A   1      45.886  33.932  29.750  1.00  0.00     0.173 A 
ATOM     89  F   UNL A   1      43.912  34.285  26.714  1.00  0.00    -0.203 F 
ATOM     90  C   UNL A   1      45.170  35.878  27.905  1.00  0.00     0.198 A 
ATOM     91  C   UNL A   1      46.329  35.241  29.909  1.00  0.00     0.198 A 
ATOM     92  F   UNL A   1      46.242  33.014  30.662  1.00  0.00    -0.203 F 
ATOM     93  F   UNL A   1      44.843  36.811  27.000  1.00  0.00    -0.200 F 
ATOM     94  C   UNL A   1      45.971  36.213  28.987  1.00  0.00     0.200 A 
ATOM     95  F   UNL A   1      47.087  35.567  30.966  1.00  0.00    -0.200 F 
ATOM     96  F   UNL A   1      46.396  37.475  29.142  1.00  0.00    -0.200 F 
ENDBRANCH  63  86
ENDBRANCH  37  38
ENDBRANCH  29  32
ENDBRANCH  27  28
ENDBRANCH  26  27
ENDBRANCH  25  26
ENDBRANCH   1  25
TORSDOF 16
ENDMDL
MODEL 2
REMARK VINA RESULT:     -13.6      5.009     10.714
REMARK SMILES CC(C)[C@H](NC(=O)CCC1=c2ccccc2=NC1)C(=O)NCCCCNC(=O)c1ccc(-c2c3nc(c(-c4c(F)c(F)c(F)c(F)c4F)c4ccc([nH]4)c(-c4c(F)c(F)c(F)c(F)c4F)c4nc(c(-c5c(F)c(F)c(F)c(F)c5F)c5ccc2[nH]5)C=C4)C=C3)cc1
REMARK SMILES IDX 22 1 21 2 19 3 20 4 4 6 2 7 1 8 3 9 5 10 6 11 7 13 8 14 9 15
REMARK SMILES IDX 10 16 11 17 18 18 12 19 16 20 17 21 13 22 15 23 14 24 23 25
REMARK SMILES IDX 24 26 25 27 26 28 27 29 28 31 29 32 30 33 91 34 31 35 90 36
REMARK SMILES IDX 32 37 33 38 34 39 84 40 35 41 89 42 83 43 85 44 36 45 88 46
REMARK SMILES IDX 82 47 81 48 37 50 69 51 49 52 68 53 50 54 53 55 67 56 86 57
REMARK SMILES IDX 51 58 52 59 66 61 87 62 54 63 38 64 39 65 47 66 40 67 41 68
REMARK SMILES IDX 45 69 48 70 42 71 43 72 46 73 44 74 70 75 71 76 79 77 72 78
REMARK SMILES IDX 73 79 77 80 80 81 74 82 75 83 78 84 76 85 55 86 56 87 64 88
REMARK SMILES IDX 57 89 58 90 62 91 65 92 59 93 60 94 63 95 61 96
REMARK H PARENT 21 5 5 12 26 30 85 49 53 60
REMARK Flexibility Score: inf
ROOT
ATOM      1  C   UNL A   1      34.396  29.095  27.579  1.00  0.00     0.116 C 
ENDROOT
BRANCH   1   2
ATOM      2  N   UNL A   1      32.956  28.686  27.788  1.00  0.00    -0.354 N 
ATOM      3  C   UNL A   1      31.767  28.309  26.869  1.00  0.00     0.242 C 
ATOM      4  O   UNL A   1      31.016  27.835  27.789  1.00  0.00    -0.273 OA
ATOM      5  H   UNL A   1      32.713  28.652  28.742  1.00  0.00     0.163 HD
BRANCH   3   6
ATOM      6  C   UNL A   1      31.395  28.542  24.710  1.00  0.00     0.173 C 
BRANCH   6   7
ATOM      7  C   UNL A   1      30.089  27.846  23.610  1.00  0.00     0.015 C 
ATOM      8  C   UNL A   1      29.476  26.466  23.983  1.00  0.00     0.010 C 
ATOM      9  C   UNL A   1      28.974  28.705  22.972  1.00  0.00     0.010 C 
ENDBRANCH   6   7
BRANCH   6  10
ATOM     10  N   UNL A   1      32.599  28.279  23.384  1.00  0.00    -0.344 N 
ATOM     11  C   UNL A   1      33.424  27.363  22.775  1.00  0.00     0.220 C 
ATOM     12  H   UNL A   1      32.707  29.135  22.909  1.00  0.00     0.164 HD
ATOM     13  O   UNL A   1      33.844  27.702  21.658  1.00  0.00    -0.275 OA
BRANCH  11  14
ATOM     14  C   UNL A   1      33.770  25.942  23.256  1.00  0.00     0.104 C 
BRANCH  14  15
ATOM     15  C   UNL A   1      34.027  25.891  24.741  1.00  0.00     0.043 C 
BRANCH  15  16
ATOM     16  C   UNL A   1      33.927  24.489  25.202  1.00  0.00    -0.039 C 
ATOM     17  C   UNL A   1      34.973  23.717  25.509  1.00  0.00     0.001 A 
ATOM     18  C   UNL A   1      32.632  23.716  24.913  1.00  0.00     0.174 C 
ATOM     19  C   UNL A   1      36.858  23.720  25.355  1.00  0.00     0.010 A 
ATOM     20  C   UNL A   1      34.079  22.091  25.272  1.00  0.00     0.065 A 
ATOM     21  N   UNL A   1      32.819  22.223  25.011  1.00  0.00    -0.280 NA
ATOM     22  C   UNL A   1      37.642  22.305  25.039  1.00  0.00     0.001 A 
ATOM     23  C   UNL A   1      35.201  20.571  25.078  1.00  0.00     0.028 A 
ATOM     24  C   UNL A   1      36.719  20.672  25.066  1.00  0.00     0.002 A 
ENDBRANCH  15  16
ENDBRANCH  14  15
ENDBRANCH  11  14
ENDBRANCH   6  10
ENDBRANCH   3   6
ENDBRANCH   1   2
BRANCH   1  25
ATOM     25  C   UNL A   1      34.893  30.504  27.839  1.00  0.00     0.023 C 
BRANCH  25  26
ATOM     26  C   UNL A   1      33.826  31.559  28.004  1.00  0.00     0.023 C 
BRANCH  26  27
ATOM     27  C   UNL A   1      34.178  32.950  27.508  1.00  0.00     0.116 C 
BRANCH  27  28
ATOM     28  N   UNL A   1      33.185  34.002  27.742  1.00  0.00    -0.352 N 
ATOM     29  C   UNL A   1      33.190  34.928  28.776  1.00  0.00     0.251 C 
ATOM     30  H   UNL A   1      32.438  34.057  27.102  1.00  0.00     0.163 HD
ATOM     31  O   UNL A   1      32.313  35.771  28.904  1.00  0.00    -0.269 OA
BRANCH  29  32
ATOM     32  C   UNL A   1      34.284  34.809  29.761  1.00  0.00     0.039 A 
ATOM     33  C   UNL A   1      35.592  34.935  29.295  1.00  0.00     0.014 A 
ATOM     34  C   UNL A   1      34.011  34.235  31.003  1.00  0.00     0.014 A 
ATOM     35  C   UNL A   1      36.581  34.201  29.932  1.00  0.00     0.010 A 
ATOM     36  C   UNL A   1      35.053  33.644  31.724  1.00  0.00     0.010 A 
ATOM     37  C   UNL A   1      36.330  33.535  31.149  1.00  0.00    -0.014 A 
BRANCH  37  38
ATOM     38  C   UNL A   1      37.414  32.711  31.759  1.00  0.00     0.031 A 
ATOM     39  C   UNL A   1      38.067  31.570  31.012  1.00  0.00     0.074 A 
ATOM     40  C   UNL A   1      37.877  33.061  32.977  1.00  0.00     0.049 A 
ATOM     41  N   UNL A   1      39.045  30.786  31.400  1.00  0.00    -0.248 NA
ATOM     42  C   UNL A   1      37.560  31.255  29.666  1.00  0.00     0.031 C 
ATOM     43  C   UNL A   1      37.340  34.152  33.795  1.00  0.00     0.029 A 
ATOM     44  N   UNL A   1      38.920  32.576  33.723  1.00  0.00    -0.354 N 
ATOM     45  C   UNL A   1      39.250  29.880  30.365  1.00  0.00     0.074 A 
ATOM     46  C   UNL A   1      38.271  30.181  29.345  1.00  0.00     0.031 C 
ATOM     47  C   UNL A   1      38.110  34.315  34.876  1.00  0.00     0.029 A 
ATOM     48  C   UNL A   1      39.128  33.273  34.888  1.00  0.00     0.049 A 
ATOM     49  H   UNL A   1      39.468  31.805  33.449  1.00  0.00     0.167 HD
ATOM     50  C   UNL A   1      40.183  28.901  30.266  1.00  0.00     0.037 A 
ATOM     51  C   UNL A   1      40.020  33.086  35.879  1.00  0.00     0.037 A 
ATOM     52  C   UNL A   1      41.181  28.628  31.268  1.00  0.00     0.049 A 
ATOM     53  C   UNL A   1      40.998  31.953  35.769  1.00  0.00     0.074 A 
ATOM     54  C   UNL A   1      42.185  27.676  31.245  1.00  0.00     0.029 A 
ATOM     55  N   UNL A   1      41.305  29.310  32.470  1.00  0.00    -0.354 N 
ATOM     56  N   UNL A   1      41.188  31.122  34.776  1.00  0.00    -0.248 NA
ATOM     57  C   UNL A   1      41.873  31.721  36.926  1.00  0.00     0.031 C 
ATOM     58  C   UNL A   1      42.879  27.742  32.456  1.00  0.00     0.029 A 
ATOM     59  C   UNL A   1      42.346  28.774  33.211  1.00  0.00     0.049 A 
ATOM     60  H   UNL A   1      40.737  30.063  32.755  1.00  0.00     0.167 HD
ATOM     61  C   UNL A   1      42.212  30.276  35.179  1.00  0.00     0.074 A 
ATOM     62  C   UNL A   1      42.620  30.712  36.497  1.00  0.00     0.031 C 
ATOM     63  C   UNL A   1      42.751  29.224  34.518  1.00  0.00     0.037 A 
BRANCH  50  64
ATOM     64  C   UNL A   1      40.190  28.042  29.031  1.00  0.00     0.064 A 
ATOM     65  C   UNL A   1      40.943  28.387  27.899  1.00  0.00     0.173 A 
ATOM     66  C   UNL A   1      39.516  26.809  29.015  1.00  0.00     0.173 A 
ATOM     67  F   UNL A   1      41.602  29.554  27.857  1.00  0.00    -0.203 F 
ATOM     68  C   UNL A   1      41.005  27.541  26.793  1.00  0.00     0.198 A 
ATOM     69  C   UNL A   1      39.607  25.953  27.921  1.00  0.00     0.198 A 
ATOM     70  F   UNL A   1      38.792  26.421  30.076  1.00  0.00    -0.203 F 
ATOM     71  F   UNL A   1      41.704  27.909  25.710  1.00  0.00    -0.200 F 
ATOM     72  C   UNL A   1      40.348  26.321  26.809  1.00  0.00     0.200 A 
ATOM     73  F   UNL A   1      38.987  24.764  27.948  1.00  0.00    -0.200 F 
ATOM     74  F   UNL A   1      40.429  25.500  25.753  1.00  0.00    -0.200 F 
ENDBRANCH  50  64
BRANCH  51  75
ATOM     75  C   UNL A   1      40.012  33.993  37.057  1.00  0.00     0.064 A 
ATOM     76  C   UNL A   1      40.771  35.168  37.064  1.00  0.00     0.173 A 
ATOM     77  C   UNL A   1      39.222  33.719  38.185  1.00  0.00     0.173 A 
ATOM     78  F   UNL A   1      41.553  35.468  36.016  1.00  0.00    -0.203 F 
ATOM     79  C   UNL A   1      40.750  36.032  38.158  1.00  0.00     0.198 A 
ATOM     80  C   UNL A   1      39.172  34.601  39.261  1.00  0.00     0.198 A 
ATOM     81  F   UNL A   1      38.469  32.610  38.227  1.00  0.00    -0.203 F 
ATOM     82  F   UNL A   1      41.516  37.130  38.155  1.00  0.00    -0.200 F 
ATOM     83  C   UNL A   1      39.943  35.752  39.251  1.00  0.00     0.200 A 
ATOM     84  F   UNL A   1      38.371  34.338  40.303  1.00  0.00    -0.200 F 
ATOM     85  F   UNL A   1      39.909  36.592  40.294  1.00  0.00    -0.200 F 
ENDBRANCH  51  75
BRANCH  63  86
ATOM     86  C   UNL A   1      43.850  28.462  35.197  1.00  0.00     0.064 A 
ATOM     87  C   UNL A   1      43.575  27.332  35.980  1.00  0.00     0.173 A 
ATOM     88  C   UNL A   1      45.195  28.799  34.976  1.00  0.00     0.173 A 
ATOM     89  F   UNL A   1      42.306  26.979  36.234  1.00  0.00    -0.203 F 
ATOM     90  C   UNL A   1      44.607  26.565  36.515  1.00  0.00     0.198 A 
ATOM     91  C   UNL A   1      46.222  28.012  35.485  1.00  0.00     0.198 A 
ATOM     92  F   UNL A   1      45.509  29.868  34.228  1.00  0.00    -0.203 F 
ATOM     93  F   UNL A   1      44.321  25.502  37.278  1.00  0.00    -0.200 F 
ATOM     94  C   UNL A   1      45.928  26.896  36.254  1.00  0.00     0.200 A 
ATOM     95  F   UNL A   1      47.498  28.322  35.216  1.00  0.00    -0.200 F 
ATOM     96  F   UNL A   1      46.919  26.137  36.743  1.00  0.00    -0.200 F 
ENDBRANCH  63  86
ENDBRANCH  37  38
ENDBRANCH  29  32
ENDBRANCH  27  28
ENDBRANCH  26  27
ENDBRANCH  25  26
ENDBRANCH   1  25
TORSDOF 16
ENDMDL
MODEL 3
REMARK VINA RESULT:     -13.5      4.959      9.070
REMARK SMILES CC(C)[C@H](NC(=O)CCC1=c2ccccc2=NC1)C(=O)NCCCCNC(=O)c1ccc(-c2c3nc(c(-c4c(F)c(F)c(F)c(F)c4F)c4ccc([nH]4)c(-c4c(F)c(F)c(F)c(F)c4F)c4nc(c(-c5c(F)c(F)c(F)c(F)c5F)c5ccc2[nH]5)C=C4)C=C3)cc1
REMARK SMILES IDX 22 1 21 2 19 3 20 4 4 6 2 7 1 8 3 9 5 10 6 11 7 13 8 14 9 15
REMARK SMILES IDX 10 16 11 17 18 18 12 19 16 20 17 21 13 22 15 23 14 24 23 25
REMARK SMILES IDX 24 26 25 27 26 28 27 29 28 31 29 32 30 33 91 34 31 35 90 36
REMARK SMILES IDX 32 37 33 38 34 39 84 40 35 41 89 42 83 43 85 44 36 45 88 46
REMARK SMILES IDX 82 47 81 48 37 50 69 51 49 52 68 53 50 54 53 55 67 56 86 57
REMARK SMILES IDX 51 58 52 59 66 61 87 62 54 63 38 64 39 65 47 66 40 67 41 68
REMARK SMILES IDX 45 69 48 70 42 71 43 72 46 73 44 74 70 75 71 76 79 77 72 78
REMARK SMILES IDX 73 79 77 80 80 81 74 82 75 83 78 84 76 85 55 86 56 87 64 88
REMARK SMILES IDX 57 89 58 90 62 91 65 92 59 93 60 94 63 95 61 96
REMARK H PARENT 21 5 5 12 26 30 85 49 53 60
REMARK Flexibility Score: inf
ROOT
ATOM      1  C   UNL A   1      34.486  28.833  27.544  1.00  0.00     0.116 C 
ENDROOT
BRANCH   1   2
ATOM      2  N   UNL A   1      33.023  28.525  27.763  1.00  0.00    -0.354 N 
ATOM      3  C   UNL A   1      31.804  28.239  26.850  1.00  0.00     0.242 C 
ATOM      4  O   UNL A   1      31.029  27.811  27.773  1.00  0.00    -0.273 OA
ATOM      5  H   UNL A   1      32.786  28.499  28.718  1.00  0.00     0.163 HD
BRANCH   3   6
ATOM      6  C   UNL A   1      31.432  28.515  24.696  1.00  0.00     0.173 C 
BRANCH   6   7
ATOM      7  C   UNL A   1      30.133  27.832  23.580  1.00  0.00     0.015 C 
ATOM      8  C   UNL A   1      29.537  26.436  23.918  1.00  0.00     0.010 C 
ATOM      9  C   UNL A   1      29.008  28.694  22.965  1.00  0.00     0.010 C 
ENDBRANCH   6   7
BRANCH   6  10
ATOM     10  N   UNL A   1      32.640  28.290  23.367  1.00  0.00    -0.344 N 
ATOM     11  C   UNL A   1      33.493  27.402  22.756  1.00  0.00     0.220 C 
ATOM     12  H   UNL A   1      32.718  29.149  22.890  1.00  0.00     0.164 HD
ATOM     13  O   UNL A   1      33.898  27.753  21.638  1.00  0.00    -0.275 OA
BRANCH  11  14
ATOM     14  C   UNL A   1      33.888  25.993  23.237  1.00  0.00     0.104 C 
BRANCH  14  15
ATOM     15  C   UNL A   1      34.024  25.922  24.738  1.00  0.00     0.043 C 
BRANCH  15  16
ATOM     16  C   UNL A   1      33.897  24.513  25.170  1.00  0.00    -0.039 C 
ATOM     17  C   UNL A   1      34.926  23.723  25.486  1.00  0.00     0.001 A 
ATOM     18  C   UNL A   1      32.600  23.762  24.838  1.00  0.00     0.174 C 
ATOM     19  C   UNL A   1      36.815  23.706  25.373  1.00  0.00     0.010 A 
ATOM     20  C   UNL A   1      34.019  22.113  25.198  1.00  0.00     0.065 A 
ATOM     21  N   UNL A   1      32.767  22.266  24.912  1.00  0.00    -0.280 NA
ATOM     22  C   UNL A   1      37.589  22.287  25.048  1.00  0.00     0.001 A 
ATOM     23  C   UNL A   1      35.126  20.583  25.001  1.00  0.00     0.028 A 
ATOM     24  C   UNL A   1      36.646  20.666  25.024  1.00  0.00     0.002 A 
ENDBRANCH  15  16
ENDBRANCH  14  15
ENDBRANCH  11  14
ENDBRANCH   6  10
ENDBRANCH   3   6
ENDBRANCH   1   2
BRANCH   1  25
ATOM     25  C   UNL A   1      35.023  30.250  27.477  1.00  0.00     0.023 C 
BRANCH  25  26
ATOM     26  C   UNL A   1      34.083  31.333  27.948  1.00  0.00     0.023 C 
BRANCH  26  27
ATOM     27  C   UNL A   1      34.443  32.753  27.547  1.00  0.00     0.116 C 
BRANCH  27  28
ATOM     28  N   UNL A   1      33.415  33.776  27.759  1.00  0.00    -0.352 N 
ATOM     29  C   UNL A   1      33.351  34.676  28.814  1.00  0.00     0.251 C 
ATOM     30  H   UNL A   1      32.698  33.830  27.087  1.00  0.00     0.163 HD
ATOM     31  O   UNL A   1      32.449  35.496  28.920  1.00  0.00    -0.269 OA
BRANCH  29  32
ATOM     32  C   UNL A   1      34.400  34.557  29.846  1.00  0.00     0.039 A 
ATOM     33  C   UNL A   1      35.692  34.954  29.505  1.00  0.00     0.014 A 
ATOM     34  C   UNL A   1      34.162  33.747  30.957  1.00  0.00     0.014 A 
ATOM     35  C   UNL A   1      36.754  34.279  30.089  1.00  0.00     0.010 A 
ATOM     36  C   UNL A   1      35.249  33.205  31.650  1.00  0.00     0.010 A 
ATOM     37  C   UNL A   1      36.553  33.387  31.162  1.00  0.00    -0.014 A 
BRANCH  37  38
ATOM     38  C   UNL A   1      37.724  32.643  31.712  1.00  0.00     0.031 A 
ATOM     39  C   UNL A   1      38.255  32.905  33.103  1.00  0.00     0.074 A 
ATOM     40  C   UNL A   1      38.259  31.652  30.970  1.00  0.00     0.049 A 
ATOM     41  N   UNL A   1      39.244  32.314  33.730  1.00  0.00    -0.248 NA
ATOM     42  C   UNL A   1      37.608  33.965  33.894  1.00  0.00     0.031 C 
ATOM     43  C   UNL A   1      37.828  31.292  29.617  1.00  0.00     0.029 A 
ATOM     44  N   UNL A   1      39.243  30.740  31.253  1.00  0.00    -0.354 N 
ATOM     45  C   UNL A   1      39.352  32.943  34.966  1.00  0.00     0.074 A 
ATOM     46  C   UNL A   1      38.354  33.988  34.991  1.00  0.00     0.031 C 
ATOM     47  C   UNL A   1      38.470  30.186  29.227  1.00  0.00     0.029 A 
ATOM     48  C   UNL A   1      39.439  29.820  30.252  1.00  0.00     0.049 A 
ATOM     49  H   UNL A   1      39.757  30.743  32.093  1.00  0.00     0.167 HD
ATOM     50  C   UNL A   1      40.190  32.659  35.993  1.00  0.00     0.037 A 
ATOM     51  C   UNL A   1      40.317  28.805  30.147  1.00  0.00     0.037 A 
ATOM     52  C   UNL A   1      41.159  31.592  35.978  1.00  0.00     0.049 A 
ATOM     53  C   UNL A   1      41.276  28.558  31.275  1.00  0.00     0.074 A 
ATOM     54  C   UNL A   1      42.034  31.211  36.981  1.00  0.00     0.029 A 
ATOM     55  N   UNL A   1      41.376  30.734  34.911  1.00  0.00    -0.354 N 
ATOM     56  N   UNL A   1      41.348  29.150  32.440  1.00  0.00    -0.248 NA
ATOM     57  C   UNL A   1      42.288  27.514  31.064  1.00  0.00     0.031 C 
ATOM     58  C   UNL A   1      42.820  30.162  36.499  1.00  0.00     0.029 A 
ATOM     59  C   UNL A   1      42.397  29.848  35.218  1.00  0.00     0.049 A 
ATOM     60  H   UNL A   1      40.879  30.752  34.060  1.00  0.00     0.167 HD
ATOM     61  C   UNL A   1      42.402  28.544  33.109  1.00  0.00     0.074 A 
ATOM     62  C   UNL A   1      42.923  27.520  32.229  1.00  0.00     0.031 C 
ATOM     63  C   UNL A   1      42.899  28.825  34.337  1.00  0.00     0.037 A 
BRANCH  50  64
ATOM     64  C   UNL A   1      40.111  33.504  37.236  1.00  0.00     0.064 A 
ATOM     65  C   UNL A   1      40.925  34.633  37.410  1.00  0.00     0.173 A 
ATOM     66  C   UNL A   1      39.143  33.241  38.218  1.00  0.00     0.173 A 
ATOM     67  F   UNL A   1      41.871  34.930  36.506  1.00  0.00    -0.203 F 
ATOM     68  C   UNL A   1      40.785  35.454  38.528  1.00  0.00     0.198 A 
ATOM     69  C   UNL A   1      38.984  34.081  39.318  1.00  0.00     0.198 A 
ATOM     70  F   UNL A   1      38.326  32.182  38.096  1.00  0.00    -0.203 F 
ATOM     71  F   UNL A   1      41.597  36.508  38.689  1.00  0.00    -0.200 F 
ATOM     72  C   UNL A   1      39.807  35.184  39.473  1.00  0.00     0.200 A 
ATOM     73  F   UNL A   1      38.024  33.829  40.219  1.00  0.00    -0.200 F 
ATOM     74  F   UNL A   1      39.660  35.988  40.536  1.00  0.00    -0.200 F 
ENDBRANCH  50  64
BRANCH  51  75
ATOM     75  C   UNL A   1      40.325  27.962  28.923  1.00  0.00     0.064 A 
ATOM     76  C   UNL A   1      41.061  28.341  27.794  1.00  0.00     0.173 A 
ATOM     77  C   UNL A   1      39.622  26.748  28.866  1.00  0.00     0.173 A 
ATOM     78  F   UNL A   1      41.737  29.500  27.793  1.00  0.00    -0.203 F 
ATOM     79  C   UNL A   1      41.087  27.543  26.652  1.00  0.00     0.198 A 
ATOM     80  C   UNL A   1      39.681  25.933  27.739  1.00  0.00     0.198 A 
ATOM     81  F   UNL A   1      38.907  26.333  29.923  1.00  0.00    -0.203 F 
ATOM     82  F   UNL A   1      41.768  27.948  25.572  1.00  0.00    -0.200 F 
ATOM     83  C   UNL A   1      40.406  26.336  26.629  1.00  0.00     0.200 A 
ATOM     84  F   UNL A   1      39.041  24.755  27.732  1.00  0.00    -0.200 F 
ATOM     85  F   UNL A   1      40.447  25.561  25.537  1.00  0.00    -0.200 F 
ENDBRANCH  51  75
BRANCH  63  86
ATOM     86  C   UNL A   1      44.067  28.017  34.820  1.00  0.00     0.064 A 
ATOM     87  C   UNL A   1      43.885  26.760  35.414  1.00  0.00     0.173 A 
ATOM     88  C   UNL A   1      45.381  28.452  34.589  1.00  0.00     0.173 A 
ATOM     89  F   UNL A   1      42.649  26.307  35.671  1.00  0.00    -0.203 F 
ATOM     90  C   UNL A   1      44.977  25.968  35.758  1.00  0.00     0.198 A 
ATOM     91  C   UNL A   1      46.468  27.644  34.904  1.00  0.00     0.198 A 
ATOM     92  F   UNL A   1      45.607  29.645  34.016  1.00  0.00    -0.203 F 
ATOM     93  F   UNL A   1      44.780  24.779  36.345  1.00  0.00    -0.200 F 
ATOM     94  C   UNL A   1      46.265  26.403  35.489  1.00  0.00     0.200 A 
ATOM     95  F   UNL A   1      47.712  28.058  34.625  1.00  0.00    -0.200 F 
ATOM     96  F   UNL A   1      47.314  25.624  35.790  1.00  0.00    -0.200 F 
ENDBRANCH  63  86
ENDBRANCH  37  38
ENDBRANCH  29  32
ENDBRANCH  27  28
ENDBRANCH  26  27
ENDBRANCH  25  26
ENDBRANCH   1  25
TORSDOF 16
ENDMDL
