MODEL 1
REMARK VINA RESULT:     -12.9      0.000      0.000
REMARK SMILES COc1cccc([C@@H]2C[N@@H+](Cc3nccn3C)C[C@H]2C(=O)NCCCCNC(=O)c2ccc(-c3c4nc(c(-c5c(F)c(F)c(F)c(F)c5F)c5ccc([nH]5)c(-c5c(F)c(F)c(F)c(F)c5F)c5nc(c(-c6c(F)c(F)c(F)c(F)c6F)c6ccc3[nH]6)C=C5)C=C4)cc2)c1
REMARK SMILES IDX 24 1 23 2 22 3 20 4 21 5 19 7 8 8 9 9 10 10 18 11 7 13 3 14
REMARK SMILES IDX 4 15 93 16 5 17 6 18 2 19 1 20 11 21 12 22 13 23 16 24 14 25
REMARK SMILES IDX 15 26 17 27 25 28 26 29 27 30 28 31 29 33 30 34 31 35 92 36
REMARK SMILES IDX 32 37 91 38 33 39 34 40 35 41 85 42 36 43 90 44 84 45 86 46
REMARK SMILES IDX 37 47 89 48 83 49 82 50 38 52 70 53 50 54 69 55 51 56 54 57
REMARK SMILES IDX 68 58 87 59 52 60 53 61 67 63 88 64 55 65 39 66 40 67 48 68
REMARK SMILES IDX 41 69 42 70 46 71 49 72 43 73 44 74 47 75 45 76 71 77 72 78
REMARK SMILES IDX 80 79 73 80 74 81 78 82 81 83 75 84 76 85 79 86 77 87 56 88
REMARK SMILES IDX 57 89 65 90 58 91 59 92 63 93 66 94 60 95 61 96 64 97 62 98
REMARK H PARENT 22 6 10 12 27 32 86 51 54 62
REMARK Flexibility Score: inf
ROOT
ATOM      1  C   UNL A   1      31.771  28.310  27.234  1.00  0.00     0.023 C 
ENDROOT
BRANCH   1   2
ATOM      2  C   UNL A   1      31.980  26.827  26.897  1.00  0.00     0.116 C 
BRANCH   2   3
ATOM      3  N   UNL A   1      30.724  26.093  26.766  1.00  0.00    -0.356 N 
ATOM      4  C   UNL A   1      30.421  24.927  26.138  1.00  0.00     0.229 C 
ATOM      5  O   UNL A   1      29.857  24.087  26.854  1.00  0.00    -0.275 OA
ATOM      6  H   UNL A   1      29.959  26.521  27.214  1.00  0.00     0.163 HD
BRANCH   4   7
ATOM      7  C   UNL A   1      30.634  24.590  24.662  1.00  0.00     0.146 C 
ATOM      8  C   UNL A   1      31.162  25.666  23.719  1.00  0.00     0.092 C 
ATOM      9  C   UNL A   1      31.524  24.839  22.467  1.00  0.00     0.271 C 
ATOM     10  N   UNL A   1      31.916  23.501  22.942  1.00  0.00    -0.327 N 
ATOM     11  C   UNL A   1      31.438  23.343  24.324  1.00  0.00     0.277 C 
ATOM     12  H   UNL A   1      31.456  22.779  22.386  1.00  0.00     0.348 HD
BRANCH   8  13
ATOM     13  C   UNL A   1      30.151  26.750  23.390  1.00  0.00    -0.035 A 
ATOM     14  C   UNL A   1      29.621  28.918  22.390  1.00  0.00     0.119 A 
ATOM     15  C   UNL A   1      28.308  28.792  22.837  1.00  0.00     0.046 A 
ATOM     16  C   UNL A   1      30.533  27.906  22.678  1.00  0.00     0.050 A 
ATOM     17  C   UNL A   1      27.906  27.652  23.537  1.00  0.00     0.004 A 
ATOM     18  C   UNL A   1      28.823  26.634  23.813  1.00  0.00     0.004 A 
BRANCH  14  19
ATOM     19  O   UNL A   1      29.911  30.073  21.715  1.00  0.00    -0.497 OA
ATOM     20  C   UNL A   1      28.792  30.826  21.256  1.00  0.00     0.278 C 
ENDBRANCH  14  19
ENDBRANCH   8  13
BRANCH  10  21
ATOM     21  C   UNL A   1      33.328  23.175  22.694  1.00  0.00     0.339 C 
BRANCH  21  22
ATOM     22  C   UNL A   1      34.053  22.703  23.917  1.00  0.00     0.164 A 
ATOM     23  N   UNL A   1      34.200  21.433  24.260  1.00  0.00    -0.236 NA
ATOM     24  N   UNL A   1      34.777  23.507  24.757  1.00  0.00    -0.333 N 
ATOM     25  C   UNL A   1      35.177  21.407  25.206  1.00  0.00     0.131 A 
ATOM     26  C   UNL A   1      35.589  22.683  25.480  1.00  0.00     0.107 A 
ATOM     27  C   UNL A   1      34.738  24.945  24.865  1.00  0.00     0.151 C 
ENDBRANCH  21  22
ENDBRANCH  10  21
ENDBRANCH   4   7
ENDBRANCH   2   3
ENDBRANCH   1   2
BRANCH   1  28
ATOM     28  C   UNL A   1      31.781  29.319  26.069  1.00  0.00     0.023 C 
BRANCH  28  29
ATOM     29  C   UNL A   1      32.855  30.405  26.011  1.00  0.00     0.116 C 
BRANCH  29  30
ATOM     30  N   UNL A   1      32.596  31.594  26.815  1.00  0.00    -0.352 N 
ATOM     31  C   UNL A   1      33.437  32.330  27.626  1.00  0.00     0.251 C 
ATOM     32  H   UNL A   1      31.670  31.926  26.773  1.00  0.00     0.163 HD
ATOM     33  O   UNL A   1      33.048  33.336  28.191  1.00  0.00    -0.269 OA
BRANCH  31  34
ATOM     34  C   UNL A   1      34.796  31.819  27.861  1.00  0.00     0.039 A 
ATOM     35  C   UNL A   1      35.840  32.741  27.967  1.00  0.00     0.014 A 
ATOM     36  C   UNL A   1      34.982  30.476  28.176  1.00  0.00     0.014 A 
ATOM     37  C   UNL A   1      37.044  32.339  28.543  1.00  0.00     0.010 A 
ATOM     38  C   UNL A   1      36.143  30.106  28.838  1.00  0.00     0.010 A 
ATOM     39  C   UNL A   1      37.169  31.042  29.063  1.00  0.00    -0.014 A 
BRANCH  39  40
ATOM     40  C   UNL A   1      38.333  30.637  29.895  1.00  0.00     0.031 A 
ATOM     41  C   UNL A   1      39.324  29.655  29.342  1.00  0.00     0.074 A 
ATOM     42  C   UNL A   1      38.420  31.034  31.182  1.00  0.00     0.049 A 
ATOM     43  N   UNL A   1      40.261  28.982  29.961  1.00  0.00    -0.248 NA
ATOM     44  C   UNL A   1      39.202  29.340  27.910  1.00  0.00     0.031 C 
ATOM     45  C   UNL A   1      37.490  31.937  31.863  1.00  0.00     0.029 A 
ATOM     46  N   UNL A   1      39.330  30.706  32.156  1.00  0.00    -0.354 N 
ATOM     47  C   UNL A   1      40.795  28.126  29.009  1.00  0.00     0.074 A 
ATOM     48  C   UNL A   1      40.049  28.330  27.786  1.00  0.00     0.031 C 
ATOM     49  C   UNL A   1      37.893  32.114  33.131  1.00  0.00     0.029 A 
ATOM     50  C   UNL A   1      39.080  31.301  33.371  1.00  0.00     0.049 A 
ATOM     51  H   UNL A   1      40.092  30.103  32.000  1.00  0.00     0.167 HD
ATOM     52  C   UNL A   1      41.830  27.263  29.137  1.00  0.00     0.037 A 
ATOM     53  C   UNL A   1      39.730  31.191  34.546  1.00  0.00     0.037 A 
ATOM     54  C   UNL A   1      42.622  27.127  30.328  1.00  0.00     0.049 A 
ATOM     55  C   UNL A   1      40.924  30.280  34.642  1.00  0.00     0.074 A 
ATOM     56  C   UNL A   1      43.745  26.346  30.533  1.00  0.00     0.029 A 
ATOM     57  N   UNL A   1      42.384  27.810  31.512  1.00  0.00    -0.354 N 
ATOM     58  N   UNL A   1      41.448  29.506  33.724  1.00  0.00    -0.248 NA
ATOM     59  C   UNL A   1      41.617  30.226  35.938  1.00  0.00     0.031 C 
ATOM     60  C   UNL A   1      44.179  26.544  31.848  1.00  0.00     0.029 A 
ATOM     61  C   UNL A   1      43.343  27.470  32.452  1.00  0.00     0.049 A 
ATOM     62  H   UNL A   1      41.644  28.441  31.662  1.00  0.00     0.167 HD
ATOM     63  C   UNL A   1      42.546  28.899  34.317  1.00  0.00     0.074 A 
ATOM     64  C   UNL A   1      42.619  29.398  35.674  1.00  0.00     0.031 C 
ATOM     65  C   UNL A   1      43.415  28.005  33.786  1.00  0.00     0.037 A 
BRANCH  52  66
ATOM     66  C   UNL A   1      42.169  26.415  27.948  1.00  0.00     0.064 A 
ATOM     67  C   UNL A   1      43.143  26.807  27.018  1.00  0.00     0.173 A 
ATOM     68  C   UNL A   1      41.517  25.191  27.739  1.00  0.00     0.173 A 
ATOM     69  F   UNL A   1      43.784  27.977  27.165  1.00  0.00    -0.203 F 
ATOM     70  C   UNL A   1      43.420  26.028  25.898  1.00  0.00     0.198 A 
ATOM     71  C   UNL A   1      41.821  24.397  26.636  1.00  0.00     0.198 A 
ATOM     72  F   UNL A   1      40.582  24.765  28.601  1.00  0.00    -0.203 F 
ATOM     73  F   UNL A   1      44.305  26.458  24.988  1.00  0.00    -0.200 F 
ATOM     74  C   UNL A   1      42.763  24.822  25.711  1.00  0.00     0.200 A 
ATOM     75  F   UNL A   1      41.193  23.226  26.461  1.00  0.00    -0.200 F 
ATOM     76  F   UNL A   1      43.029  24.073  24.632  1.00  0.00    -0.200 F 
ENDBRANCH  52  66
BRANCH  53  77
ATOM     77  C   UNL A   1      39.290  31.987  35.722  1.00  0.00     0.064 A 
ATOM     78  C   UNL A   1      39.830  33.259  35.963  1.00  0.00     0.173 A 
ATOM     79  C   UNL A   1      38.341  31.499  36.630  1.00  0.00     0.173 A 
ATOM     80  F   UNL A   1      40.756  33.759  35.131  1.00  0.00    -0.203 F 
ATOM     81  C   UNL A   1      39.457  34.001  37.080  1.00  0.00     0.198 A 
ATOM     82  C   UNL A   1      37.949  32.254  37.736  1.00  0.00     0.198 A 
ATOM     83  F   UNL A   1      37.789  30.291  36.442  1.00  0.00    -0.203 F 
ATOM     84  F   UNL A   1      40.023  35.194  37.310  1.00  0.00    -0.200 F 
ATOM     85  C   UNL A   1      38.513  33.500  37.964  1.00  0.00     0.200 A 
ATOM     86  F   UNL A   1      37.029  31.772  38.582  1.00  0.00    -0.200 F 
ATOM     87  F   UNL A   1      38.154  34.214  39.039  1.00  0.00    -0.200 F 
ENDBRANCH  53  77
BRANCH  65  88
ATOM     88  C   UNL A   1      44.551  27.546  34.648  1.00  0.00     0.064 A 
ATOM     89  C   UNL A   1      45.757  28.258  34.711  1.00  0.00     0.173 A 
ATOM     90  C   UNL A   1      44.398  26.426  35.479  1.00  0.00     0.173 A 
ATOM     91  F   UNL A   1      45.952  29.326  33.925  1.00  0.00    -0.203 F 
ATOM     92  C   UNL A   1      46.774  27.858  35.574  1.00  0.00     0.198 A 
ATOM     93  C   UNL A   1      45.408  26.044  36.355  1.00  0.00     0.198 A 
ATOM     94  F   UNL A   1      43.260  25.717  35.455  1.00  0.00    -0.203 F 
ATOM     95  F   UNL A   1      47.929  28.537  35.603  1.00  0.00    -0.200 F 
ATOM     96  C   UNL A   1      46.596  26.759  36.402  1.00  0.00     0.200 A 
ATOM     97  F   UNL A   1      45.230  24.990  37.163  1.00  0.00    -0.200 F 
ATOM     98  F   UNL A   1      47.570  26.389  37.244  1.00  0.00    -0.200 F 
ENDBRANCH  65  88
ENDBRANCH  39  40
ENDBRANCH  31  34
ENDBRANCH  29  30
ENDBRANCH  28  29
ENDBRANCH   1  28
TORSDOF 15
ENDMDL
MODEL 2
REMARK VINA RESULT:     -12.8      1.048      7.169
REMARK SMILES COc1cccc([C@@H]2C[N@@H+](Cc3nccn3C)C[C@H]2C(=O)NCCCCNC(=O)c2ccc(-c3c4nc(c(-c5c(F)c(F)c(F)c(F)c5F)c5ccc([nH]5)c(-c5c(F)c(F)c(F)c(F)c5F)c5nc(c(-c6c(F)c(F)c(F)c(F)c6F)c6ccc3[nH]6)C=C5)C=C4)cc2)c1
REMARK SMILES IDX 24 1 23 2 22 3 20 4 21 5 19 7 8 8 9 9 10 10 18 11 7 13 3 14
REMARK SMILES IDX 4 15 93 16 5 17 6 18 2 19 1 20 11 21 12 22 13 23 16 24 14 25
REMARK SMILES IDX 15 26 17 27 25 28 26 29 27 30 28 31 29 33 30 34 31 35 92 36
REMARK SMILES IDX 32 37 91 38 33 39 34 40 35 41 85 42 36 43 90 44 84 45 86 46
REMARK SMILES IDX 37 47 89 48 83 49 82 50 38 52 70 53 50 54 69 55 51 56 54 57
REMARK SMILES IDX 68 58 87 59 52 60 53 61 67 63 88 64 55 65 39 66 40 67 48 68
REMARK SMILES IDX 41 69 42 70 46 71 49 72 43 73 44 74 47 75 45 76 71 77 72 78
REMARK SMILES IDX 80 79 73 80 74 81 78 82 81 83 75 84 76 85 79 86 77 87 56 88
REMARK SMILES IDX 57 89 65 90 58 91 59 92 63 93 66 94 60 95 61 96 64 97 62 98
REMARK H PARENT 22 6 10 12 27 32 86 51 54 62
REMARK Flexibility Score: inf
ROOT
ATOM      1  C   UNL A   1      31.454  29.437  25.630  1.00  0.00     0.023 C 
ENDROOT
BRANCH   1   2
ATOM      2  C   UNL A   1      31.659  28.365  26.710  1.00  0.00     0.116 C 
BRANCH   2   3
ATOM      3  N   UNL A   1      32.712  27.413  26.369  1.00  0.00    -0.356 N 
ATOM      4  C   UNL A   1      32.854  26.562  25.319  1.00  0.00     0.229 C 
ATOM      5  O   UNL A   1      33.925  26.673  24.705  1.00  0.00    -0.275 OA
ATOM      6  H   UNL A   1      33.452  27.382  27.017  1.00  0.00     0.163 HD
BRANCH   4   7
ATOM      7  C   UNL A   1      31.883  25.465  24.880  1.00  0.00     0.146 C 
ATOM      8  C   UNL A   1      31.288  25.512  23.477  1.00  0.00     0.092 C 
ATOM      9  C   UNL A   1      30.662  24.106  23.352  1.00  0.00     0.271 C 
ATOM     10  N   UNL A   1      31.488  23.201  24.169  1.00  0.00    -0.327 N 
ATOM     11  C   UNL A   1      32.307  24.017  25.078  1.00  0.00     0.277 C 
ATOM     12  H   UNL A   1      30.895  22.611  24.753  1.00  0.00     0.348 HD
BRANCH   8  13
ATOM     13  C   UNL A   1      30.245  26.599  23.284  1.00  0.00    -0.035 A 
ATOM     14  C   UNL A   1      29.592  28.768  22.362  1.00  0.00     0.119 A 
ATOM     15  C   UNL A   1      28.350  28.645  22.978  1.00  0.00     0.046 A 
ATOM     16  C   UNL A   1      30.533  27.753  22.528  1.00  0.00     0.050 A 
ATOM     17  C   UNL A   1      28.041  27.506  23.726  1.00  0.00     0.004 A 
ATOM     18  C   UNL A   1      28.984  26.486  23.878  1.00  0.00     0.004 A 
BRANCH  14  19
ATOM     19  O   UNL A   1      29.794  29.922  21.654  1.00  0.00    -0.497 OA
ATOM     20  C   UNL A   1      28.622  30.565  21.161  1.00  0.00     0.278 C 
ENDBRANCH  14  19
ENDBRANCH   8  13
BRANCH  10  21
ATOM     21  C   UNL A   1      32.197  22.179  23.384  1.00  0.00     0.339 C 
BRANCH  21  22
ATOM     22  C   UNL A   1      32.748  21.065  24.221  1.00  0.00     0.164 A 
ATOM     23  N   UNL A   1      32.035  20.052  24.688  1.00  0.00    -0.236 NA
ATOM     24  N   UNL A   1      34.078  20.871  24.489  1.00  0.00    -0.333 N 
ATOM     25  C   UNL A   1      32.931  19.111  25.088  1.00  0.00     0.131 A 
ATOM     26  C   UNL A   1      34.204  19.580  24.914  1.00  0.00     0.107 A 
ATOM     27  C   UNL A   1      35.162  21.811  24.339  1.00  0.00     0.151 C 
ENDBRANCH  21  22
ENDBRANCH  10  21
ENDBRANCH   4   7
ENDBRANCH   2   3
ENDBRANCH   1   2
BRANCH   1  28
ATOM     28  C   UNL A   1      31.769  30.900  26.001  1.00  0.00     0.023 C 
BRANCH  28  29
ATOM     29  C   UNL A   1      32.589  31.208  27.254  1.00  0.00     0.116 C 
BRANCH  29  30
ATOM     30  N   UNL A   1      32.814  32.622  27.530  1.00  0.00    -0.352 N 
ATOM     31  C   UNL A   1      33.978  33.308  27.814  1.00  0.00     0.251 C 
ATOM     32  H   UNL A   1      32.002  33.179  27.512  1.00  0.00     0.163 HD
ATOM     33  O   UNL A   1      33.976  34.516  27.972  1.00  0.00    -0.269 OA
BRANCH  31  34
ATOM     34  C   UNL A   1      35.211  32.530  28.005  1.00  0.00     0.039 A 
ATOM     35  C   UNL A   1      36.390  33.221  28.295  1.00  0.00     0.014 A 
ATOM     36  C   UNL A   1      35.142  31.144  28.102  1.00  0.00     0.014 A 
ATOM     37  C   UNL A   1      37.469  32.524  28.837  1.00  0.00     0.010 A 
ATOM     38  C   UNL A   1      36.180  30.471  28.731  1.00  0.00     0.010 A 
ATOM     39  C   UNL A   1      37.336  31.161  29.141  1.00  0.00    -0.014 A 
BRANCH  39  40
ATOM     40  C   UNL A   1      38.359  30.428  29.932  1.00  0.00     0.031 A 
ATOM     41  C   UNL A   1      38.539  30.759  31.385  1.00  0.00     0.074 A 
ATOM     42  C   UNL A   1      39.213  29.580  29.321  1.00  0.00     0.049 A 
ATOM     43  N   UNL A   1      39.512  30.432  32.197  1.00  0.00    -0.248 NA
ATOM     44  C   UNL A   1      37.516  31.628  31.989  1.00  0.00     0.031 C 
ATOM     45  C   UNL A   1      39.189  29.217  27.902  1.00  0.00     0.029 A 
ATOM     46  N   UNL A   1      40.287  28.884  29.818  1.00  0.00    -0.354 N 
ATOM     47  C   UNL A   1      39.249  31.103  33.383  1.00  0.00     0.074 A 
ATOM     48  C   UNL A   1      38.054  31.890  33.170  1.00  0.00     0.031 C 
ATOM     49  C   UNL A   1      40.178  28.346  27.651  1.00  0.00     0.029 A 
ATOM     50  C   UNL A   1      40.939  28.124  28.875  1.00  0.00     0.049 A 
ATOM     51  H   UNL A   1      40.564  28.923  30.762  1.00  0.00     0.167 HD
ATOM     52  C   UNL A   1      39.930  31.050  34.550  1.00  0.00     0.037 A 
ATOM     53  C   UNL A   1      42.034  27.347  28.987  1.00  0.00     0.037 A 
ATOM     54  C   UNL A   1      41.067  30.202  34.782  1.00  0.00     0.049 A 
ATOM     55  C   UNL A   1      42.731  27.247  30.317  1.00  0.00     0.074 A 
ATOM     56  C   UNL A   1      41.775  30.008  35.955  1.00  0.00     0.029 A 
ATOM     57  N   UNL A   1      41.646  29.385  33.822  1.00  0.00    -0.354 N 
ATOM     58  N   UNL A   1      42.449  27.853  31.444  1.00  0.00    -0.248 NA
ATOM     59  C   UNL A   1      43.898  26.356  30.391  1.00  0.00     0.031 C 
ATOM     60  C   UNL A   1      42.795  29.086  35.700  1.00  0.00     0.029 A 
ATOM     61  C   UNL A   1      42.702  28.682  34.377  1.00  0.00     0.049 A 
ATOM     62  H   UNL A   1      41.351  29.315  32.886  1.00  0.00     0.167 HD
ATOM     63  C   UNL A   1      43.380  27.395  32.366  1.00  0.00     0.074 A 
ATOM     64  C   UNL A   1      44.233  26.456  31.671  1.00  0.00     0.031 C 
ATOM     65  C   UNL A   1      43.517  27.727  33.673  1.00  0.00     0.037 A 
BRANCH  52  66
ATOM     66  C   UNL A   1      39.448  31.926  35.669  1.00  0.00     0.064 A 
ATOM     67  C   UNL A   1      39.947  33.223  35.855  1.00  0.00     0.173 A 
ATOM     68  C   UNL A   1      38.472  31.463  36.563  1.00  0.00     0.173 A 
ATOM     69  F   UNL A   1      40.894  33.706  35.036  1.00  0.00    -0.203 F 
ATOM     70  C   UNL A   1      39.519  34.009  36.921  1.00  0.00     0.198 A 
ATOM     71  C   UNL A   1      38.021  32.264  37.609  1.00  0.00     0.198 A 
ATOM     72  F   UNL A   1      37.958  30.231  36.427  1.00  0.00    -0.203 F 
ATOM     73  F   UNL A   1      40.060  35.220  37.118  1.00  0.00    -0.200 F 
ATOM     74  C   UNL A   1      38.553  33.531  37.793  1.00  0.00     0.200 A 
ATOM     75  F   UNL A   1      37.079  31.806  38.444  1.00  0.00    -0.200 F 
ATOM     76  F   UNL A   1      38.142  34.289  38.820  1.00  0.00    -0.200 F 
ENDBRANCH  52  66
BRANCH  53  77
ATOM     77  C   UNL A   1      42.525  26.572  27.817  1.00  0.00     0.064 A 
ATOM     78  C   UNL A   1      43.460  27.131  26.934  1.00  0.00     0.173 A 
ATOM     79  C   UNL A   1      42.070  25.274  27.548  1.00  0.00     0.173 A 
ATOM     80  F   UNL A   1      43.909  28.379  27.140  1.00  0.00    -0.203 F 
ATOM     81  C   UNL A   1      43.902  26.433  25.813  1.00  0.00     0.198 A 
ATOM     82  C   UNL A   1      42.532  24.565  26.439  1.00  0.00     0.198 A 
ATOM     83  F   UNL A   1      41.181  24.691  28.365  1.00  0.00    -0.203 F 
ATOM     84  F   UNL A   1      44.760  27.010  24.961  1.00  0.00    -0.200 F 
ATOM     85  C   UNL A   1      43.440  25.148  25.568  1.00  0.00     0.200 A 
ATOM     86  F   UNL A   1      42.092  23.320  26.212  1.00  0.00    -0.200 F 
ATOM     87  F   UNL A   1      43.864  24.476  24.490  1.00  0.00    -0.200 F 
ENDBRANCH  53  77
BRANCH  65  88
ATOM     88  C   UNL A   1      44.592  27.035  34.455  1.00  0.00     0.064 A 
ATOM     89  C   UNL A   1      45.849  27.623  34.651  1.00  0.00     0.173 A 
ATOM     90  C   UNL A   1      44.330  25.808  35.080  1.00  0.00     0.173 A 
ATOM     91  F   UNL A   1      46.148  28.790  34.060  1.00  0.00    -0.203 F 
ATOM     92  C   UNL A   1      46.811  27.001  35.442  1.00  0.00     0.198 A 
ATOM     93  C   UNL A   1      45.285  25.200  35.889  1.00  0.00     0.198 A 
ATOM     94  F   UNL A   1      43.139  25.210  34.924  1.00  0.00    -0.203 F 
ATOM     95  F   UNL A   1      48.015  27.567  35.598  1.00  0.00    -0.200 F 
ATOM     96  C   UNL A   1      46.525  25.795  36.069  1.00  0.00     0.200 A 
ATOM     97  F   UNL A   1      45.004  24.042  36.502  1.00  0.00    -0.200 F 
ATOM     98  F   UNL A   1      47.446  25.208  36.844  1.00  0.00    -0.200 F 
ENDBRANCH  65  88
ENDBRANCH  39  40
ENDBRANCH  31  34
ENDBRANCH  29  30
ENDBRANCH  28  29
ENDBRANCH   1  28
TORSDOF 15
ENDMDL
MODEL 3
REMARK VINA RESULT:     -12.8      0.583      1.379
REMARK SMILES COc1cccc([C@@H]2C[N@@H+](Cc3nccn3C)C[C@H]2C(=O)NCCCCNC(=O)c2ccc(-c3c4nc(c(-c5c(F)c(F)c(F)c(F)c5F)c5ccc([nH]5)c(-c5c(F)c(F)c(F)c(F)c5F)c5nc(c(-c6c(F)c(F)c(F)c(F)c6F)c6ccc3[nH]6)C=C5)C=C4)cc2)c1
REMARK SMILES IDX 24 1 23 2 22 3 20 4 21 5 19 7 8 8 9 9 10 10 18 11 7 13 3 14
REMARK SMILES IDX 4 15 93 16 5 17 6 18 2 19 1 20 11 21 12 22 13 23 16 24 14 25
REMARK SMILES IDX 15 26 17 27 25 28 26 29 27 30 28 31 29 33 30 34 31 35 92 36
REMARK SMILES IDX 32 37 91 38 33 39 34 40 35 41 85 42 36 43 90 44 84 45 86 46
REMARK SMILES IDX 37 47 89 48 83 49 82 50 38 52 70 53 50 54 69 55 51 56 54 57
REMARK SMILES IDX 68 58 87 59 52 60 53 61 67 63 88 64 55 65 39 66 40 67 48 68
REMARK SMILES IDX 41 69 42 70 46 71 49 72 43 73 44 74 47 75 45 76 71 77 72 78
REMARK SMILES IDX 80 79 73 80 74 81 78 82 81 83 75 84 76 85 79 86 77 87 56 88
REMARK SMILES IDX 57 89 65 90 58 91 59 92 63 93 66 94 60 95 61 96 64 97 62 98
REMARK H PARENT 22 6 10 12 27 32 86 51 54 62
REMARK Flexibility Score: inf
ROOT
ATOM      1  C   UNL A   1      31.865  28.229  27.532  1.00  0.00     0.023 C 
ENDROOT
BRANCH   1   2
ATOM      2  C   UNL A   1      32.075  26.876  26.836  1.00  0.00     0.116 C 
BRANCH   2   3
ATOM      3  N   UNL A   1      30.846  26.096  26.733  1.00  0.00    -0.356 N 
ATOM      4  C   UNL A   1      30.566  24.931  26.091  1.00  0.00     0.229 C 
ATOM      5  O   UNL A   1      30.062  24.054  26.807  1.00  0.00    -0.275 OA
ATOM      6  H   UNL A   1      30.081  26.483  27.217  1.00  0.00     0.163 HD
BRANCH   4   7
ATOM      7  C   UNL A   1      30.740  24.633  24.601  1.00  0.00     0.146 C 
ATOM      8  C   UNL A   1      31.681  25.500  23.771  1.00  0.00     0.092 C 
ATOM      9  C   UNL A   1      31.802  24.679  22.469  1.00  0.00     0.271 C 
ATOM     10  N   UNL A   1      31.652  23.263  22.847  1.00  0.00    -0.327 N 
ATOM     11  C   UNL A   1      31.061  23.204  24.192  1.00  0.00     0.277 C 
ATOM     12  H   UNL A   1      31.001  22.795  22.216  1.00  0.00     0.348 HD
BRANCH   8  13
ATOM     13  C   UNL A   1      31.153  26.897  23.494  1.00  0.00    -0.035 A 
ATOM     14  C   UNL A   1      29.270  28.422  23.163  1.00  0.00     0.119 A 
ATOM     15  C   UNL A   1      30.166  29.458  22.917  1.00  0.00     0.046 A 
ATOM     16  C   UNL A   1      29.767  27.150  23.438  1.00  0.00     0.050 A 
ATOM     17  C   UNL A   1      31.542  29.232  22.975  1.00  0.00     0.004 A 
ATOM     18  C   UNL A   1      32.036  27.957  23.263  1.00  0.00     0.004 A 
BRANCH  14  19
ATOM     19  O   UNL A   1      27.943  28.749  23.080  1.00  0.00    -0.497 OA
ATOM     20  C   UNL A   1      27.653  30.075  22.649  1.00  0.00     0.278 C 
ENDBRANCH  14  19
ENDBRANCH   8  13
BRANCH  10  21
ATOM     21  C   UNL A   1      32.865  22.461  22.627  1.00  0.00     0.339 C 
BRANCH  21  22
ATOM     22  C   UNL A   1      33.361  21.781  23.866  1.00  0.00     0.164 A 
ATOM     23  N   UNL A   1      33.052  20.543  24.218  1.00  0.00    -0.236 NA
ATOM     24  N   UNL A   1      34.307  22.293  24.715  1.00  0.00    -0.333 N 
ATOM     25  C   UNL A   1      33.944  20.190  25.183  1.00  0.00     0.131 A 
ATOM     26  C   UNL A   1      34.769  21.246  25.459  1.00  0.00     0.107 A 
ATOM     27  C   UNL A   1      34.768  23.656  24.815  1.00  0.00     0.151 C 
ENDBRANCH  21  22
ENDBRANCH  10  21
ENDBRANCH   4   7
ENDBRANCH   2   3
ENDBRANCH   1   2
BRANCH   1  28
ATOM     28  C   UNL A   1      31.637  29.466  26.641  1.00  0.00     0.023 C 
BRANCH  28  29
ATOM     29  C   UNL A   1      32.780  30.453  26.401  1.00  0.00     0.116 C 
BRANCH  29  30
ATOM     30  N   UNL A   1      32.634  31.756  27.039  1.00  0.00    -0.352 N 
ATOM     31  C   UNL A   1      33.560  32.545  27.692  1.00  0.00     0.251 C 
ATOM     32  H   UNL A   1      31.726  32.136  26.997  1.00  0.00     0.163 HD
ATOM     33  O   UNL A   1      33.260  33.643  28.126  1.00  0.00    -0.269 OA
BRANCH  31  34
ATOM     34  C   UNL A   1      34.900  31.988  27.929  1.00  0.00     0.039 A 
ATOM     35  C   UNL A   1      35.980  32.872  28.001  1.00  0.00     0.014 A 
ATOM     36  C   UNL A   1      35.037  30.648  28.278  1.00  0.00     0.014 A 
ATOM     37  C   UNL A   1      37.173  32.440  28.577  1.00  0.00     0.010 A 
ATOM     38  C   UNL A   1      36.191  30.251  28.939  1.00  0.00     0.010 A 
ATOM     39  C   UNL A   1      37.254  31.153  29.131  1.00  0.00    -0.014 A 
BRANCH  39  40
ATOM     40  C   UNL A   1      38.409  30.725  29.963  1.00  0.00     0.031 A 
ATOM     41  C   UNL A   1      39.390  29.735  29.404  1.00  0.00     0.074 A 
ATOM     42  C   UNL A   1      38.497  31.109  31.253  1.00  0.00     0.049 A 
ATOM     43  N   UNL A   1      40.315  29.045  30.020  1.00  0.00    -0.248 NA
ATOM     44  C   UNL A   1      39.269  29.436  27.969  1.00  0.00     0.031 C 
ATOM     45  C   UNL A   1      37.575  32.017  31.940  1.00  0.00     0.029 A 
ATOM     46  N   UNL A   1      39.399  30.761  32.228  1.00  0.00    -0.354 N 
ATOM     47  C   UNL A   1      40.842  28.191  29.062  1.00  0.00     0.074 A 
ATOM     48  C   UNL A   1      40.104  28.416  27.839  1.00  0.00     0.031 C 
ATOM     49  C   UNL A   1      37.976  32.178  33.211  1.00  0.00     0.029 A 
ATOM     50  C   UNL A   1      39.151  31.347  33.447  1.00  0.00     0.049 A 
ATOM     51  H   UNL A   1      40.153  30.149  32.069  1.00  0.00     0.167 HD
ATOM     52  C   UNL A   1      41.865  27.314  29.186  1.00  0.00     0.037 A 
ATOM     53  C   UNL A   1      39.795  31.218  34.624  1.00  0.00     0.037 A 
ATOM     54  C   UNL A   1      42.652  27.157  30.379  1.00  0.00     0.049 A 
ATOM     55  C   UNL A   1      40.978  30.291  34.716  1.00  0.00     0.074 A 
ATOM     56  C   UNL A   1      43.764  26.360  30.580  1.00  0.00     0.029 A 
ATOM     57  N   UNL A   1      42.418  27.832  31.568  1.00  0.00    -0.354 N 
ATOM     58  N   UNL A   1      41.495  29.519  33.792  1.00  0.00    -0.248 NA
ATOM     59  C   UNL A   1      41.665  30.217  36.013  1.00  0.00     0.031 C 
ATOM     60  C   UNL A   1      44.195  26.540  31.899  1.00  0.00     0.029 A 
ATOM     61  C   UNL A   1      43.369  27.472  32.508  1.00  0.00     0.049 A 
ATOM     62  H   UNL A   1      41.686  28.471  31.721  1.00  0.00     0.167 HD
ATOM     63  C   UNL A   1      42.583  28.893  34.384  1.00  0.00     0.074 A 
ATOM     64  C   UNL A   1      42.657  29.378  35.745  1.00  0.00     0.031 C 
ATOM     65  C   UNL A   1      43.443  27.994  33.848  1.00  0.00     0.037 A 
BRANCH  52  66
ATOM     66  C   UNL A   1      42.199  26.473  27.990  1.00  0.00     0.064 A 
ATOM     67  C   UNL A   1      43.156  26.878  27.048  1.00  0.00     0.173 A 
ATOM     68  C   UNL A   1      41.557  25.242  27.787  1.00  0.00     0.173 A 
ATOM     69  F   UNL A   1      43.785  28.055  27.190  1.00  0.00    -0.203 F 
ATOM     70  C   UNL A   1      43.426  26.105  25.923  1.00  0.00     0.198 A 
ATOM     71  C   UNL A   1      41.855  24.454  26.677  1.00  0.00     0.198 A 
ATOM     72  F   UNL A   1      40.638  24.804  28.660  1.00  0.00    -0.203 F 
ATOM     73  F   UNL A   1      44.295  26.546  25.003  1.00  0.00    -0.200 F 
ATOM     74  C   UNL A   1      42.780  24.892  25.742  1.00  0.00     0.200 A 
ATOM     75  F   UNL A   1      41.238  23.277  26.508  1.00  0.00    -0.200 F 
ATOM     76  F   UNL A   1      43.041  24.149  24.657  1.00  0.00    -0.200 F 
ENDBRANCH  52  66
BRANCH  53  77
ATOM     77  C   UNL A   1      39.362  32.009  35.805  1.00  0.00     0.064 A 
ATOM     78  C   UNL A   1      39.946  33.253  36.083  1.00  0.00     0.173 A 
ATOM     79  C   UNL A   1      38.374  31.543  36.683  1.00  0.00     0.173 A 
ATOM     80  F   UNL A   1      40.911  33.731  35.282  1.00  0.00    -0.203 F 
ATOM     81  C   UNL A   1      39.578  33.989  37.207  1.00  0.00     0.198 A 
ATOM     82  C   UNL A   1      37.987  32.292  37.794  1.00  0.00     0.198 A 
ATOM     83  F   UNL A   1      37.778  30.362  36.459  1.00  0.00    -0.203 F 
ATOM     84  F   UNL A   1      40.187  35.153  37.472  1.00  0.00    -0.200 F 
ATOM     85  C   UNL A   1      38.595  33.509  38.060  1.00  0.00     0.200 A 
ATOM     86  F   UNL A   1      37.029  31.831  38.610  1.00  0.00    -0.200 F 
ATOM     87  F   UNL A   1      38.241  34.217  39.141  1.00  0.00    -0.200 F 
ENDBRANCH  53  77
BRANCH  65  88
ATOM     88  C   UNL A   1      44.570  27.512  34.709  1.00  0.00     0.064 A 
ATOM     89  C   UNL A   1      44.459  26.345  35.477  1.00  0.00     0.173 A 
ATOM     90  C   UNL A   1      45.801  28.185  34.701  1.00  0.00     0.173 A 
ATOM     91  F   UNL A   1      43.296  25.677  35.525  1.00  0.00    -0.203 F 
ATOM     92  C   UNL A   1      45.541  25.871  36.213  1.00  0.00     0.198 A 
ATOM     93  C   UNL A   1      46.886  27.696  35.420  1.00  0.00     0.198 A 
ATOM     94  F   UNL A   1      45.954  29.304  33.978  1.00  0.00    -0.203 F 
ATOM     95  F   UNL A   1      45.408  24.767  36.960  1.00  0.00    -0.200 F 
ATOM     96  C   UNL A   1      46.756  26.541  36.177  1.00  0.00     0.200 A 
ATOM     97  F   UNL A   1      48.063  28.337  35.375  1.00  0.00    -0.200 F 
ATOM     98  F   UNL A   1      47.801  26.073  36.873  1.00  0.00    -0.200 F 
ENDBRANCH  65  88
ENDBRANCH  39  40
ENDBRANCH  31  34
ENDBRANCH  29  30
ENDBRANCH  28  29
ENDBRANCH   1  28
TORSDOF 15
ENDMDL
