MODEL 1
REMARK VINA RESULT:     -12.5      0.000      0.000
REMARK SMILES O=C(C[C@H](c1ccc(C2CC2)cc1)[NH+]1CCOCC1)NCCCCNC(=O)c1ccc(-c2c3nc(c(-c4c(F)c(F)c(F)c(F)c4F)c4ccc([nH]4)c(-c4c(F)c(F)c(F)c(F)c4F)c4nc(c(-c5c(F)c(F)c(F)c(F)c5F)c5ccc2[nH]5)C=C4)C=C3)cc1
REMARK SMILES IDX 22 1 21 2 20 3 1 4 2 5 3 7 4 8 14 9 15 10 19 11 16 13 18 14
REMARK SMILES IDX 17 15 5 16 6 17 13 18 7 19 12 20 8 21 9 22 10 23 11 24 23 25
REMARK SMILES IDX 24 26 25 27 26 28 27 30 28 31 29 32 90 33 30 34 89 35 31 36
REMARK SMILES IDX 32 37 33 38 83 39 34 40 88 41 82 42 84 43 35 44 87 45 81 46
REMARK SMILES IDX 80 47 36 49 68 50 48 51 67 52 49 53 52 54 66 55 85 56 50 57
REMARK SMILES IDX 51 58 65 60 86 61 53 62 37 63 38 64 46 65 39 66 40 67 44 68
REMARK SMILES IDX 47 69 41 70 42 71 45 72 43 73 69 74 70 75 78 76 71 77 72 78
REMARK SMILES IDX 76 79 79 80 73 81 74 82 77 83 75 84 54 85 55 86 63 87 56 88
REMARK SMILES IDX 57 89 61 90 64 91 58 92 59 93 62 94 60 95
REMARK H PARENT 20 6 14 12 25 29 84 48 52 59
REMARK Flexibility Score: inf
ROOT
ATOM      1  C   UNL A   1      31.577  30.649  26.283  1.00  0.00     0.023 C 
ENDROOT
BRANCH   1   2
ATOM      2  C   UNL A   1      32.510  29.910  27.240  1.00  0.00     0.116 C 
BRANCH   2   3
ATOM      3  N   UNL A   1      32.999  28.653  26.713  1.00  0.00    -0.356 N 
ATOM      4  O   UNL A   1      31.333  27.352  27.574  1.00  0.00    -0.275 OA
ATOM      5  C   UNL A   1      32.288  27.483  26.812  1.00  0.00     0.226 C 
ATOM      6  H   UNL A   1      33.876  28.636  26.266  1.00  0.00     0.163 HD
BRANCH   5   7
ATOM      7  C   UNL A   1      32.796  26.328  25.977  1.00  0.00     0.170 C 
BRANCH   7   8
ATOM      8  C   UNL A   1      31.836  25.701  24.925  1.00  0.00     0.224 C 
BRANCH   8   9
ATOM      9  N   UNL A   1      31.114  24.439  25.182  1.00  0.00    -0.324 N 
ATOM     10  C   UNL A   1      31.070  23.808  26.501  1.00  0.00     0.291 C 
ATOM     11  C   UNL A   1      31.136  23.399  24.140  1.00  0.00     0.291 C 
ATOM     12  H   UNL A   1      30.239  24.963  25.145  1.00  0.00     0.348 HD
ATOM     13  C   UNL A   1      32.192  22.780  26.688  1.00  0.00     0.221 C 
ATOM     14  C   UNL A   1      32.136  22.251  24.396  1.00  0.00     0.221 C 
ATOM     15  O   UNL A   1      32.046  21.726  25.727  1.00  0.00    -0.370 OA
ENDBRANCH   8   9
BRANCH   8  16
ATOM     16  C   UNL A   1      31.110  26.800  24.129  1.00  0.00     0.010 A 
ATOM     17  C   UNL A   1      29.717  26.918  24.082  1.00  0.00     0.010 A 
ATOM     18  C   UNL A   1      31.858  27.820  23.517  1.00  0.00     0.010 A 
ATOM     19  C   UNL A   1      29.100  28.006  23.461  1.00  0.00     0.004 A 
ATOM     20  C   UNL A   1      31.234  28.929  22.929  1.00  0.00     0.004 A 
ATOM     21  C   UNL A   1      29.842  29.056  22.904  1.00  0.00    -0.045 A 
BRANCH  21  22
ATOM     22  C   UNL A   1      29.114  30.273  22.404  1.00  0.00     0.019 C 
ATOM     23  C   UNL A   1      27.700  30.639  22.765  1.00  0.00     0.009 C 
ATOM     24  C   UNL A   1      28.843  31.417  23.348  1.00  0.00     0.009 C 
ENDBRANCH  21  22
ENDBRANCH   8  16
ENDBRANCH   7   8
ENDBRANCH   5   7
ENDBRANCH   2   3
ENDBRANCH   1   2
BRANCH   1  25
ATOM     25  C   UNL A   1      31.444  32.156  26.522  1.00  0.00     0.023 C 
BRANCH  25  26
ATOM     26  C   UNL A   1      32.575  32.802  27.320  1.00  0.00     0.116 C 
BRANCH  26  27
ATOM     27  N   UNL A   1      32.328  34.201  27.628  1.00  0.00    -0.352 N 
ATOM     28  C   UNL A   1      32.930  35.022  28.553  1.00  0.00     0.251 C 
ATOM     29  H   UNL A   1      31.622  34.627  27.090  1.00  0.00     0.163 HD
ATOM     30  O   UNL A   1      32.485  36.147  28.759  1.00  0.00    -0.269 OA
BRANCH  28  31
ATOM     31  C   UNL A   1      34.103  34.553  29.327  1.00  0.00     0.039 A 
ATOM     32  C   UNL A   1      33.921  34.103  30.637  1.00  0.00     0.014 A 
ATOM     33  C   UNL A   1      35.383  34.572  28.778  1.00  0.00     0.014 A 
ATOM     34  C   UNL A   1      35.006  33.586  31.359  1.00  0.00     0.010 A 
ATOM     35  C   UNL A   1      36.447  33.993  29.475  1.00  0.00     0.010 A 
ATOM     36  C   UNL A   1      36.273  33.472  30.765  1.00  0.00    -0.014 A 
BRANCH  36  37
ATOM     37  C   UNL A   1      37.406  32.777  31.448  1.00  0.00     0.031 A 
ATOM     38  C   UNL A   1      38.122  31.619  30.797  1.00  0.00     0.074 A 
ATOM     39  C   UNL A   1      37.739  33.122  32.709  1.00  0.00     0.049 A 
ATOM     40  N   UNL A   1      39.079  30.862  31.276  1.00  0.00    -0.248 NA
ATOM     41  C   UNL A   1      37.676  31.232  29.450  1.00  0.00     0.031 C 
ATOM     42  C   UNL A   1      37.077  34.155  33.508  1.00  0.00     0.029 A 
ATOM     43  N   UNL A   1      38.713  32.634  33.549  1.00  0.00    -0.354 N 
ATOM     44  C   UNL A   1      39.329  29.899  30.306  1.00  0.00     0.074 A 
ATOM     45  C   UNL A   1      38.384  30.131  29.235  1.00  0.00     0.031 C 
ATOM     46  C   UNL A   1      37.689  34.256  34.697  1.00  0.00     0.029 A 
ATOM     47  C   UNL A   1      38.764  33.270  34.766  1.00  0.00     0.049 A 
ATOM     48  H   UNL A   1      39.318  31.898  33.300  1.00  0.00     0.167 HD
ATOM     49  C   UNL A   1      40.276  28.929  30.289  1.00  0.00     0.037 A 
ATOM     50  C   UNL A   1      39.583  33.088  35.821  1.00  0.00     0.037 A 
ATOM     51  C   UNL A   1      41.261  28.728  31.322  1.00  0.00     0.049 A 
ATOM     52  C   UNL A   1      40.658  32.038  35.758  1.00  0.00     0.074 A 
ATOM     53  C   UNL A   1      42.324  27.841  31.338  1.00  0.00     0.029 A 
ATOM     54  N   UNL A   1      41.305  29.424  32.519  1.00  0.00    -0.354 N 
ATOM     55  N   UNL A   1      40.944  31.203  34.791  1.00  0.00    -0.248 NA
ATOM     56  C   UNL A   1      41.530  31.911  36.936  1.00  0.00     0.031 C 
ATOM     57  C   UNL A   1      42.988  27.971  32.561  1.00  0.00     0.029 A 
ATOM     58  C   UNL A   1      42.366  28.972  33.289  1.00  0.00     0.049 A 
ATOM     59  H   UNL A   1      40.677  30.135  32.784  1.00  0.00     0.167 HD
ATOM     60  C   UNL A   1      42.043  30.475  35.228  1.00  0.00     0.074 A 
ATOM     61  C   UNL A   1      42.382  30.975  36.543  1.00  0.00     0.031 C 
ATOM     62  C   UNL A   1      42.709  29.481  34.592  1.00  0.00     0.037 A 
BRANCH  49  63
ATOM     63  C   UNL A   1      40.318  28.014  29.098  1.00  0.00     0.064 A 
ATOM     64  C   UNL A   1      39.597  26.811  29.069  1.00  0.00     0.173 A 
ATOM     65  C   UNL A   1      41.042  28.371  27.951  1.00  0.00     0.173 A 
ATOM     66  F   UNL A   1      38.892  26.420  30.142  1.00  0.00    -0.203 F 
ATOM     67  C   UNL A   1      39.627  25.984  27.950  1.00  0.00     0.198 A 
ATOM     68  C   UNL A   1      41.045  27.557  26.821  1.00  0.00     0.198 A 
ATOM     69  F   UNL A   1      41.739  29.517  27.919  1.00  0.00    -0.203 F 
ATOM     70  F   UNL A   1      38.971  24.815  27.965  1.00  0.00    -0.200 F 
ATOM     71  C   UNL A   1      40.344  26.360  26.824  1.00  0.00     0.200 A 
ATOM     72  F   UNL A   1      41.725  27.930  25.728  1.00  0.00    -0.200 F 
ATOM     73  F   UNL A   1      40.364  25.567  25.745  1.00  0.00    -0.200 F 
ENDBRANCH  49  63
BRANCH  50  74
ATOM     74  C   UNL A   1      39.452  33.957  37.020  1.00  0.00     0.064 A 
ATOM     75  C   UNL A   1      40.058  35.220  37.055  1.00  0.00     0.173 A 
ATOM     76  C   UNL A   1      38.734  33.543  38.151  1.00  0.00     0.173 A 
ATOM     77  F   UNL A   1      40.775  35.648  36.005  1.00  0.00    -0.203 F 
ATOM     78  C   UNL A   1      39.970  36.030  38.186  1.00  0.00     0.198 A 
ATOM     79  C   UNL A   1      38.624  34.365  39.270  1.00  0.00     0.198 A 
ATOM     80  F   UNL A   1      38.132  32.345  38.164  1.00  0.00    -0.203 F 
ATOM     81  F   UNL A   1      40.600  37.212  38.210  1.00  0.00    -0.200 F 
ATOM     82  C   UNL A   1      39.248  35.604  39.291  1.00  0.00     0.200 A 
ATOM     83  F   UNL A   1      37.915  33.956  40.331  1.00  0.00    -0.200 F 
ATOM     84  F   UNL A   1      39.163  36.383  40.377  1.00  0.00    -0.200 F 
ENDBRANCH  50  74
BRANCH  62  85
ATOM     85  C   UNL A   1      43.899  28.889  35.289  1.00  0.00     0.064 A 
ATOM     86  C   UNL A   1      45.197  29.377  35.077  1.00  0.00     0.173 A 
ATOM     87  C   UNL A   1      43.735  27.841  36.208  1.00  0.00     0.173 A 
ATOM     88  F   UNL A   1      45.409  30.366  34.196  1.00  0.00    -0.203 F 
ATOM     89  C   UNL A   1      46.288  28.825  35.743  1.00  0.00     0.198 A 
ATOM     90  C   UNL A   1      44.824  27.310  36.893  1.00  0.00     0.198 A 
ATOM     91  F   UNL A   1      42.514  27.340  36.451  1.00  0.00    -0.203 F 
ATOM     92  F   UNL A   1      47.524  29.279  35.492  1.00  0.00    -0.200 F 
ATOM     93  C   UNL A   1      46.100  27.797  36.655  1.00  0.00     0.200 A 
ATOM     94  F   UNL A   1      44.639  26.326  37.784  1.00  0.00    -0.200 F 
ATOM     95  F   UNL A   1      47.151  27.272  37.301  1.00  0.00    -0.200 F 
ENDBRANCH  62  85
ENDBRANCH  36  37
ENDBRANCH  28  31
ENDBRANCH  26  27
ENDBRANCH  25  26
ENDBRANCH   1  25
TORSDOF 15
ENDMDL
MODEL 2
REMARK VINA RESULT:     -12.5      0.174      1.133
REMARK SMILES O=C(C[C@H](c1ccc(C2CC2)cc1)[NH+]1CCOCC1)NCCCCNC(=O)c1ccc(-c2c3nc(c(-c4c(F)c(F)c(F)c(F)c4F)c4ccc([nH]4)c(-c4c(F)c(F)c(F)c(F)c4F)c4nc(c(-c5c(F)c(F)c(F)c(F)c5F)c5ccc2[nH]5)C=C4)C=C3)cc1
REMARK SMILES IDX 22 1 21 2 20 3 1 4 2 5 3 7 4 8 14 9 15 10 19 11 16 13 18 14
REMARK SMILES IDX 17 15 5 16 6 17 13 18 7 19 12 20 8 21 9 22 10 23 11 24 23 25
REMARK SMILES IDX 24 26 25 27 26 28 27 30 28 31 29 32 90 33 30 34 89 35 31 36
REMARK SMILES IDX 32 37 33 38 83 39 34 40 88 41 82 42 84 43 35 44 87 45 81 46
REMARK SMILES IDX 80 47 36 49 68 50 48 51 67 52 49 53 52 54 66 55 85 56 50 57
REMARK SMILES IDX 51 58 65 60 86 61 53 62 37 63 38 64 46 65 39 66 40 67 44 68
REMARK SMILES IDX 47 69 41 70 42 71 45 72 43 73 69 74 70 75 78 76 71 77 72 78
REMARK SMILES IDX 76 79 79 80 73 81 74 82 77 83 75 84 54 85 55 86 63 87 56 88
REMARK SMILES IDX 57 89 61 90 64 91 58 92 59 93 62 94 60 95
REMARK H PARENT 20 6 14 12 25 29 84 48 52 59
REMARK Flexibility Score: inf
ROOT
ATOM      1  C   UNL A   1      31.655  30.620  26.224  1.00  0.00     0.023 C 
ENDROOT
BRANCH   1   2
ATOM      2  C   UNL A   1      32.413  29.739  27.215  1.00  0.00     0.116 C 
BRANCH   2   3
ATOM      3  N   UNL A   1      32.875  28.492  26.642  1.00  0.00    -0.356 N 
ATOM      4  O   UNL A   1      31.069  27.244  27.264  1.00  0.00    -0.275 OA
ATOM      5  C   UNL A   1      32.093  27.365  26.597  1.00  0.00     0.226 C 
ATOM      6  H   UNL A   1      33.786  28.450  26.271  1.00  0.00     0.163 HD
BRANCH   5   7
ATOM      7  C   UNL A   1      32.607  26.238  25.727  1.00  0.00     0.170 C 
BRANCH   7   8
ATOM      8  C   UNL A   1      31.679  25.696  24.602  1.00  0.00     0.224 C 
BRANCH   8   9
ATOM      9  N   UNL A   1      30.944  24.423  24.742  1.00  0.00    -0.324 N 
ATOM     10  C   UNL A   1      30.744  23.764  26.033  1.00  0.00     0.291 C 
ATOM     11  C   UNL A   1      31.106  23.404  23.692  1.00  0.00     0.291 C 
ATOM     12  H   UNL A   1      30.075  24.940  24.607  1.00  0.00     0.348 HD
ATOM     13  C   UNL A   1      31.844  22.742  26.338  1.00  0.00     0.221 C 
ATOM     14  C   UNL A   1      32.079  22.260  24.047  1.00  0.00     0.221 C 
ATOM     15  O   UNL A   1      31.829  21.707  25.347  1.00  0.00    -0.370 OA
ENDBRANCH   8   9
BRANCH   8  16
ATOM     16  C   UNL A   1      30.985  26.854  23.864  1.00  0.00     0.010 A 
ATOM     17  C   UNL A   1      29.599  27.044  23.871  1.00  0.00     0.010 A 
ATOM     18  C   UNL A   1      31.763  27.852  23.254  1.00  0.00     0.010 A 
ATOM     19  C   UNL A   1      29.018  28.181  23.303  1.00  0.00     0.004 A 
ATOM     20  C   UNL A   1      31.178  29.009  22.721  1.00  0.00     0.004 A 
ATOM     21  C   UNL A   1      29.794  29.208  22.750  1.00  0.00    -0.045 A 
BRANCH  21  22
ATOM     22  C   UNL A   1      29.114  30.474  22.311  1.00  0.00     0.019 C 
ATOM     23  C   UNL A   1      27.686  30.836  22.619  1.00  0.00     0.009 C 
ATOM     24  C   UNL A   1      28.803  31.542  23.330  1.00  0.00     0.009 C 
ENDBRANCH  21  22
ENDBRANCH   8  16
ENDBRANCH   7   8
ENDBRANCH   5   7
ENDBRANCH   2   3
ENDBRANCH   1   2
BRANCH   1  25
ATOM     25  C   UNL A   1      31.410  32.063  26.676  1.00  0.00     0.023 C 
BRANCH  25  26
ATOM     26  C   UNL A   1      32.621  32.788  27.262  1.00  0.00     0.116 C 
BRANCH  26  27
ATOM     27  N   UNL A   1      32.344  34.174  27.602  1.00  0.00    -0.352 N 
ATOM     28  C   UNL A   1      32.927  34.984  28.549  1.00  0.00     0.251 C 
ATOM     29  H   UNL A   1      31.631  34.598  27.073  1.00  0.00     0.163 HD
ATOM     30  O   UNL A   1      32.459  36.095  28.780  1.00  0.00    -0.269 OA
BRANCH  28  31
ATOM     31  C   UNL A   1      34.108  34.521  29.314  1.00  0.00     0.039 A 
ATOM     32  C   UNL A   1      33.942  34.102  30.637  1.00  0.00     0.014 A 
ATOM     33  C   UNL A   1      35.379  34.515  28.744  1.00  0.00     0.014 A 
ATOM     34  C   UNL A   1      35.034  33.590  31.352  1.00  0.00     0.010 A 
ATOM     35  C   UNL A   1      36.448  33.941  29.437  1.00  0.00     0.010 A 
ATOM     36  C   UNL A   1      36.291  33.450  30.741  1.00  0.00    -0.014 A 
BRANCH  36  37
ATOM     37  C   UNL A   1      37.427  32.759  31.421  1.00  0.00     0.031 A 
ATOM     38  C   UNL A   1      38.146  31.604  30.768  1.00  0.00     0.074 A 
ATOM     39  C   UNL A   1      37.762  33.105  32.682  1.00  0.00     0.049 A 
ATOM     40  N   UNL A   1      39.107  30.850  31.245  1.00  0.00    -0.248 NA
ATOM     41  C   UNL A   1      37.699  31.215  29.422  1.00  0.00     0.031 C 
ATOM     42  C   UNL A   1      37.098  34.136  33.483  1.00  0.00     0.029 A 
ATOM     43  N   UNL A   1      38.739  32.620  33.519  1.00  0.00    -0.354 N 
ATOM     44  C   UNL A   1      39.358  29.889  30.274  1.00  0.00     0.074 A 
ATOM     45  C   UNL A   1      38.410  30.118  29.205  1.00  0.00     0.031 C 
ATOM     46  C   UNL A   1      37.713  34.238  34.671  1.00  0.00     0.029 A 
ATOM     47  C   UNL A   1      38.791  33.256  34.736  1.00  0.00     0.049 A 
ATOM     48  H   UNL A   1      39.347  31.886  33.269  1.00  0.00     0.167 HD
ATOM     49  C   UNL A   1      40.309  28.923  30.255  1.00  0.00     0.037 A 
ATOM     50  C   UNL A   1      39.613  33.076  35.790  1.00  0.00     0.037 A 
ATOM     51  C   UNL A   1      41.297  28.725  31.285  1.00  0.00     0.049 A 
ATOM     52  C   UNL A   1      40.692  32.030  35.724  1.00  0.00     0.074 A 
ATOM     53  C   UNL A   1      42.364  27.842  31.298  1.00  0.00     0.029 A 
ATOM     54  N   UNL A   1      41.341  29.421  32.482  1.00  0.00    -0.354 N 
ATOM     55  N   UNL A   1      40.978  31.197  34.756  1.00  0.00    -0.248 NA
ATOM     56  C   UNL A   1      41.567  31.907  36.900  1.00  0.00     0.031 C 
ATOM     57  C   UNL A   1      43.030  27.974  32.520  1.00  0.00     0.029 A 
ATOM     58  C   UNL A   1      42.406  28.972  33.250  1.00  0.00     0.049 A 
ATOM     59  H   UNL A   1      40.711  30.128  32.749  1.00  0.00     0.167 HD
ATOM     60  C   UNL A   1      42.081  30.473  35.190  1.00  0.00     0.074 A 
ATOM     61  C   UNL A   1      42.422  30.974  36.504  1.00  0.00     0.031 C 
ATOM     62  C   UNL A   1      42.750  29.482  34.553  1.00  0.00     0.037 A 
BRANCH  49  63
ATOM     63  C   UNL A   1      40.351  28.008  29.064  1.00  0.00     0.064 A 
ATOM     64  C   UNL A   1      39.633  26.803  29.034  1.00  0.00     0.173 A 
ATOM     65  C   UNL A   1      41.074  28.367  27.915  1.00  0.00     0.173 A 
ATOM     66  F   UNL A   1      38.930  26.411  30.107  1.00  0.00    -0.203 F 
ATOM     67  C   UNL A   1      39.663  25.977  27.915  1.00  0.00     0.198 A 
ATOM     68  C   UNL A   1      41.077  27.553  26.785  1.00  0.00     0.198 A 
ATOM     69  F   UNL A   1      41.768  29.515  27.883  1.00  0.00    -0.203 F 
ATOM     70  F   UNL A   1      39.010  24.807  27.930  1.00  0.00    -0.200 F 
ATOM     71  C   UNL A   1      40.379  26.355  26.788  1.00  0.00     0.200 A 
ATOM     72  F   UNL A   1      41.756  27.928  25.692  1.00  0.00    -0.200 F 
ATOM     73  F   UNL A   1      40.399  25.562  25.709  1.00  0.00    -0.200 F 
ENDBRANCH  49  63
BRANCH  50  74
ATOM     74  C   UNL A   1      39.481  33.944  36.989  1.00  0.00     0.064 A 
ATOM     75  C   UNL A   1      38.772  33.502  38.115  1.00  0.00     0.173 A 
ATOM     76  C   UNL A   1      40.046  35.226  37.033  1.00  0.00     0.173 A 
ATOM     77  F   UNL A   1      38.194  32.292  38.109  1.00  0.00    -0.203 F 
ATOM     78  C   UNL A   1      38.613  34.320  39.232  1.00  0.00     0.198 A 
ATOM     79  C   UNL A   1      39.910  36.032  38.161  1.00  0.00     0.198 A 
ATOM     80  F   UNL A   1      40.738  35.692  35.983  1.00  0.00    -0.203 F 
ATOM     81  F   UNL A   1      37.890  33.890  40.275  1.00  0.00    -0.200 F 
ATOM     82  C   UNL A   1      39.187  35.582  39.257  1.00  0.00     0.200 A 
ATOM     83  F   UNL A   1      40.476  37.246  38.187  1.00  0.00    -0.200 F 
ATOM     84  F   UNL A   1      39.036  36.366  40.332  1.00  0.00    -0.200 F 
ENDBRANCH  50  74
BRANCH  62  85
ATOM     85  C   UNL A   1      43.944  28.894  35.246  1.00  0.00     0.064 A 
ATOM     86  C   UNL A   1      45.236  29.401  35.048  1.00  0.00     0.173 A 
ATOM     87  C   UNL A   1      43.787  27.830  36.150  1.00  0.00     0.173 A 
ATOM     88  F   UNL A   1      45.441  30.405  34.182  1.00  0.00    -0.203 F 
ATOM     89  C   UNL A   1      46.330  28.851  35.711  1.00  0.00     0.198 A 
ATOM     90  C   UNL A   1      44.879  27.302  36.832  1.00  0.00     0.198 A 
ATOM     91  F   UNL A   1      42.571  27.311  36.379  1.00  0.00    -0.203 F 
ATOM     92  F   UNL A   1      47.562  29.324  35.473  1.00  0.00    -0.200 F 
ATOM     93  C   UNL A   1      46.151  27.809  36.607  1.00  0.00     0.200 A 
ATOM     94  F   UNL A   1      44.702  26.303  37.707  1.00  0.00    -0.200 F 
ATOM     95  F   UNL A   1      47.205  27.286  37.250  1.00  0.00    -0.200 F 
ENDBRANCH  62  85
ENDBRANCH  36  37
ENDBRANCH  28  31
ENDBRANCH  26  27
ENDBRANCH  25  26
ENDBRANCH   1  25
TORSDOF 15
ENDMDL
MODEL 3
REMARK VINA RESULT:     -12.4      1.592      8.033
REMARK SMILES O=C(C[C@H](c1ccc(C2CC2)cc1)[NH+]1CCOCC1)NCCCCNC(=O)c1ccc(-c2c3nc(c(-c4c(F)c(F)c(F)c(F)c4F)c4ccc([nH]4)c(-c4c(F)c(F)c(F)c(F)c4F)c4nc(c(-c5c(F)c(F)c(F)c(F)c5F)c5ccc2[nH]5)C=C4)C=C3)cc1
REMARK SMILES IDX 22 1 21 2 20 3 1 4 2 5 3 7 4 8 14 9 15 10 19 11 16 13 18 14
REMARK SMILES IDX 17 15 5 16 6 17 13 18 7 19 12 20 8 21 9 22 10 23 11 24 23 25
REMARK SMILES IDX 24 26 25 27 26 28 27 30 28 31 29 32 90 33 30 34 89 35 31 36
REMARK SMILES IDX 32 37 33 38 83 39 34 40 88 41 82 42 84 43 35 44 87 45 81 46
REMARK SMILES IDX 80 47 36 49 68 50 48 51 67 52 49 53 52 54 66 55 85 56 50 57
REMARK SMILES IDX 51 58 65 60 86 61 53 62 37 63 38 64 46 65 39 66 40 67 44 68
REMARK SMILES IDX 47 69 41 70 42 71 45 72 43 73 69 74 70 75 78 76 71 77 72 78
REMARK SMILES IDX 76 79 79 80 73 81 74 82 77 83 75 84 54 85 55 86 63 87 56 88
REMARK SMILES IDX 57 89 61 90 64 91 58 92 59 93 62 94 60 95
REMARK H PARENT 20 6 14 12 25 29 84 48 52 59
REMARK Flexibility Score: inf
ROOT
ATOM      1  C   UNL A   1      31.419  31.031  26.223  1.00  0.00     0.023 C 
ENDROOT
BRANCH   1   2
ATOM      2  C   UNL A   1      32.779  30.362  26.406  1.00  0.00     0.116 C 
BRANCH   2   3
ATOM      3  N   UNL A   1      33.177  29.545  25.278  1.00  0.00    -0.356 N 
ATOM      4  O   UNL A   1      34.165  27.890  26.501  1.00  0.00    -0.275 OA
ATOM      5  C   UNL A   1      33.725  28.295  25.428  1.00  0.00     0.226 C 
ATOM      6  H   UNL A   1      33.050  29.899  24.369  1.00  0.00     0.163 HD
BRANCH   5   7
ATOM      7  C   UNL A   1      33.826  27.463  24.168  1.00  0.00     0.170 C 
BRANCH   7   8
ATOM      8  C   UNL A   1      33.005  26.143  24.090  1.00  0.00     0.224 C 
BRANCH   8   9
ATOM      9  N   UNL A   1      31.788  26.030  23.263  1.00  0.00    -0.324 N 
ATOM     10  C   UNL A   1      31.332  27.100  22.376  1.00  0.00     0.291 C 
ATOM     11  C   UNL A   1      30.621  25.332  23.830  1.00  0.00     0.291 C 
ATOM     12  H   UNL A   1      32.303  25.411  22.636  1.00  0.00     0.348 HD
ATOM     13  C   UNL A   1      30.335  28.039  23.066  1.00  0.00     0.221 C 
ATOM     14  C   UNL A   1      29.515  26.262  24.373  1.00  0.00     0.221 C 
ATOM     15  O   UNL A   1      29.167  27.303  23.450  1.00  0.00    -0.370 OA
ENDBRANCH   8   9
BRANCH   8  16
ATOM     16  C   UNL A   1      33.933  24.919  24.183  1.00  0.00     0.010 A 
ATOM     17  C   UNL A   1      34.109  24.011  23.133  1.00  0.00     0.010 A 
ATOM     18  C   UNL A   1      34.749  24.753  25.314  1.00  0.00     0.010 A 
ATOM     19  C   UNL A   1      35.060  22.991  23.206  1.00  0.00     0.004 A 
ATOM     20  C   UNL A   1      35.728  23.751  25.367  1.00  0.00     0.004 A 
ATOM     21  C   UNL A   1      35.918  22.859  24.306  1.00  0.00    -0.045 A 
BRANCH  21  22
ATOM     22  C   UNL A   1      37.027  21.846  24.244  1.00  0.00     0.019 C 
ATOM     23  C   UNL A   1      37.967  21.528  25.374  1.00  0.00     0.009 C 
ATOM     24  C   UNL A   1      36.892  20.549  25.001  1.00  0.00     0.009 C 
ENDBRANCH  21  22
ENDBRANCH   8  16
ENDBRANCH   7   8
ENDBRANCH   5   7
ENDBRANCH   2   3
ENDBRANCH   1   2
BRANCH   1  25
ATOM     25  C   UNL A   1      31.382  32.537  26.498  1.00  0.00     0.023 C 
BRANCH  25  26
ATOM     26  C   UNL A   1      32.526  33.083  27.351  1.00  0.00     0.116 C 
BRANCH  26  27
ATOM     27  N   UNL A   1      32.314  34.458  27.776  1.00  0.00    -0.352 N 
ATOM     28  C   UNL A   1      32.950  35.189  28.752  1.00  0.00     0.251 C 
ATOM     29  H   UNL A   1      31.606  34.939  27.290  1.00  0.00     0.163 HD
ATOM     30  O   UNL A   1      32.533  36.301  29.057  1.00  0.00    -0.269 OA
BRANCH  28  31
ATOM     31  C   UNL A   1      34.128  34.636  29.460  1.00  0.00     0.039 A 
ATOM     32  C   UNL A   1      33.977  34.154  30.762  1.00  0.00     0.014 A 
ATOM     33  C   UNL A   1      35.384  34.609  28.857  1.00  0.00     0.014 A 
ATOM     34  C   UNL A   1      35.063  33.559  31.420  1.00  0.00     0.010 A 
ATOM     35  C   UNL A   1      36.445  33.955  29.490  1.00  0.00     0.010 A 
ATOM     36  C   UNL A   1      36.298  33.401  30.770  1.00  0.00    -0.014 A 
BRANCH  36  37
ATOM     37  C   UNL A   1      37.420  32.628  31.381  1.00  0.00     0.031 A 
ATOM     38  C   UNL A   1      37.946  32.962  32.756  1.00  0.00     0.074 A 
ATOM     39  C   UNL A   1      38.045  31.674  30.659  1.00  0.00     0.049 A 
ATOM     40  N   UNL A   1      38.955  32.436  33.407  1.00  0.00    -0.248 NA
ATOM     41  C   UNL A   1      37.280  34.057  33.476  1.00  0.00     0.031 C 
ATOM     42  C   UNL A   1      37.718  31.303  29.281  1.00  0.00     0.029 A 
ATOM     43  N   UNL A   1      39.096  30.847  30.980  1.00  0.00    -0.354 N 
ATOM     44  C   UNL A   1      39.059  33.151  34.594  1.00  0.00     0.074 A 
ATOM     45  C   UNL A   1      38.048  34.186  34.549  1.00  0.00     0.031 C 
ATOM     46  C   UNL A   1      38.514  30.296  28.892  1.00  0.00     0.029 A 
ATOM     47  C   UNL A   1      39.438  29.972  29.976  1.00  0.00     0.049 A 
ATOM     48  H   UNL A   1      39.560  30.878  31.848  1.00  0.00     0.167 HD
ATOM     49  C   UNL A   1      39.897  32.950  35.641  1.00  0.00     0.037 A 
ATOM     50  C   UNL A   1      40.384  29.013  29.928  1.00  0.00     0.037 A 
ATOM     51  C   UNL A   1      40.865  31.885  35.723  1.00  0.00     0.049 A 
ATOM     52  C   UNL A   1      41.268  28.777  31.122  1.00  0.00     0.074 A 
ATOM     53  C   UNL A   1      41.679  31.541  36.789  1.00  0.00     0.029 A 
ATOM     54  N   UNL A   1      41.148  30.994  34.701  1.00  0.00    -0.354 N 
ATOM     55  N   UNL A   1      41.285  29.398  32.275  1.00  0.00    -0.248 NA
ATOM     56  C   UNL A   1      42.261  27.698  31.007  1.00  0.00     0.031 C 
ATOM     57  C   UNL A   1      42.484  30.467  36.399  1.00  0.00     0.029 A 
ATOM     58  C   UNL A   1      42.139  30.112  35.106  1.00  0.00     0.049 A 
ATOM     59  H   UNL A   1      40.711  30.987  33.819  1.00  0.00     0.167 HD
ATOM     60  C   UNL A   1      42.265  28.768  33.032  1.00  0.00     0.074 A 
ATOM     61  C   UNL A   1      42.812  27.708  32.213  1.00  0.00     0.031 C 
ATOM     62  C   UNL A   1      42.672  29.048  34.293  1.00  0.00     0.037 A 
BRANCH  49  63
ATOM     63  C   UNL A   1      39.791  33.888  36.810  1.00  0.00     0.064 A 
ATOM     64  C   UNL A   1      38.974  33.601  37.913  1.00  0.00     0.173 A 
ATOM     65  C   UNL A   1      40.559  35.062  36.852  1.00  0.00     0.173 A 
ATOM     66  F   UNL A   1      38.216  32.494  37.921  1.00  0.00    -0.203 F 
ATOM     67  C   UNL A   1      38.904  34.468  39.000  1.00  0.00     0.198 A 
ATOM     68  C   UNL A   1      40.510  35.913  37.954  1.00  0.00     0.198 A 
ATOM     69  F   UNL A   1      41.368  35.380  35.830  1.00  0.00    -0.203 F 
ATOM     70  F   UNL A   1      38.077  34.197  40.019  1.00  0.00    -0.200 F 
ATOM     71  C   UNL A   1      39.677  35.620  39.023  1.00  0.00     0.200 A 
ATOM     72  F   UNL A   1      41.271  37.016  37.983  1.00  0.00    -0.200 F 
ATOM     73  F   UNL A   1      39.614  36.448  40.073  1.00  0.00    -0.200 F 
ENDBRANCH  49  63
BRANCH  50  74
ATOM     74  C   UNL A   1      40.516  28.162  28.716  1.00  0.00     0.064 A 
ATOM     75  C   UNL A   1      39.834  26.940  28.625  1.00  0.00     0.173 A 
ATOM     76  C   UNL A   1      41.328  28.542  27.639  1.00  0.00     0.173 A 
ATOM     77  F   UNL A   1      39.065  26.526  29.642  1.00  0.00    -0.203 F 
ATOM     78  C   UNL A   1      39.977  26.119  27.509  1.00  0.00     0.198 A 
ATOM     79  C   UNL A   1      41.447  27.732  26.511  1.00  0.00     0.198 A 
ATOM     80  F   UNL A   1      41.996  29.704  27.676  1.00  0.00    -0.203 F 
ATOM     81  F   UNL A   1      39.351  24.935  27.468  1.00  0.00    -0.200 F 
ATOM     82  C   UNL A   1      40.779  26.518  26.450  1.00  0.00     0.200 A 
ATOM     83  F   UNL A   1      42.213  28.126  25.485  1.00  0.00    -0.200 F 
ATOM     84  F   UNL A   1      40.914  25.729  25.376  1.00  0.00    -0.200 F 
ENDBRANCH  50  74
BRANCH  62  85
ATOM     85  C   UNL A   1      43.736  28.173  34.889  1.00  0.00     0.064 A 
ATOM     86  C   UNL A   1      43.421  26.986  35.565  1.00  0.00     0.173 A 
ATOM     87  C   UNL A   1      45.092  28.509  34.749  1.00  0.00     0.173 A 
ATOM     88  F   UNL A   1      42.139  26.629  35.740  1.00  0.00    -0.203 F 
ATOM     89  C   UNL A   1      44.422  26.178  36.099  1.00  0.00     0.198 A 
ATOM     90  C   UNL A   1      46.091  27.685  35.259  1.00  0.00     0.198 A 
ATOM     91  F   UNL A   1      45.448  29.632  34.106  1.00  0.00    -0.203 F 
ATOM     92  F   UNL A   1      44.096  25.070  36.779  1.00  0.00    -0.200 F 
ATOM     93  C   UNL A   1      45.755  26.524  35.939  1.00  0.00     0.200 A 
ATOM     94  F   UNL A   1      47.379  28.015  35.092  1.00  0.00    -0.200 F 
ATOM     95  F   UNL A   1      46.718  25.742  36.447  1.00  0.00    -0.200 F 
ENDBRANCH  62  85
ENDBRANCH  36  37
ENDBRANCH  28  31
ENDBRANCH  26  27
ENDBRANCH  25  26
ENDBRANCH   1  25
TORSDOF 15
ENDMDL
