MODEL 1
REMARK VINA RESULT:     -13.0      0.000      0.000
REMARK SMILES CCNC(=O)c1cccc(-c2ccc(Cl)c(C(=O)NCCCCNC(=O)c3ccc(-c4c5nc(c(-c6c(F)c(F)c(F)c(F)c6F)c6ccc([nH]6)c(-c6c(F)c(F)c(F)c(F)c6F)c6nc(c(-c7c(F)c(F)c(F)c(F)c7F)c7ccc4[nH]7)C=C6)C=C5)cc3)c2)c1
REMARK SMILES IDX 21 1 20 2 19 3 17 4 18 5 16 7 11 8 12 9 90 10 13 11 14 12
REMARK SMILES IDX 15 13 10 14 6 15 7 16 91 17 8 18 9 19 4 20 3 21 5 23 2 24
REMARK SMILES IDX 1 25 22 26 23 27 24 28 25 29 26 31 27 32 28 33 89 34 29 35
REMARK SMILES IDX 88 36 30 37 31 38 32 39 82 40 33 41 87 42 81 43 83 44 34 45
REMARK SMILES IDX 86 46 80 47 79 48 35 50 67 51 47 52 66 53 48 54 51 55 65 56
REMARK SMILES IDX 84 57 49 58 50 59 64 61 85 62 52 63 36 64 37 65 45 66 38 67
REMARK SMILES IDX 39 68 43 69 46 70 40 71 41 72 44 73 42 74 68 75 69 76 77 77
REMARK SMILES IDX 70 78 71 79 75 80 78 81 72 82 73 83 76 84 74 85 53 86 54 87
REMARK SMILES IDX 62 88 55 89 56 90 60 91 63 92 57 93 58 94 61 95 59 96
REMARK H PARENT 19 6 3 22 24 30 83 49 51 60
REMARK Flexibility Score: inf
ROOT
ATOM      1  C   UNL A   1      31.843  30.180  26.875  1.00  0.00     0.023 C 
ENDROOT
BRANCH   1   2
ATOM      2  C   UNL A   1      33.202  29.525  26.674  1.00  0.00     0.116 C 
BRANCH   2   3
ATOM      3  N   UNL A   1      33.681  29.469  25.297  1.00  0.00    -0.352 N 
ATOM      4  C   UNL A   1      33.211  28.768  24.197  1.00  0.00     0.252 C 
ATOM      5  O   UNL A   1      33.714  28.997  23.101  1.00  0.00    -0.269 OA
ATOM      6  H   UNL A   1      34.474  30.024  25.118  1.00  0.00     0.163 HD
BRANCH   4   7
ATOM      7  C   UNL A   1      32.122  27.760  24.334  1.00  0.00     0.059 A 
ATOM      8  C   UNL A   1      31.598  25.371  24.497  1.00  0.00    -0.017 A 
ATOM      9  C   UNL A   1      30.259  25.667  24.224  1.00  0.00     0.010 A 
ATOM     10  C   UNL A   1      32.473  26.452  24.680  1.00  0.00     0.024 A 
ATOM     11  C   UNL A   1      29.846  26.994  24.056  1.00  0.00     0.022 A 
ATOM     12  C   UNL A   1      30.779  28.040  24.069  1.00  0.00     0.053 A 
ATOM     13  Cl  UNL A   1      30.186  29.616  23.691  1.00  0.00    -0.083 Cl
BRANCH   8  14
ATOM     14  C   UNL A   1      32.146  24.002  24.464  1.00  0.00    -0.018 A 
ATOM     15  C   UNL A   1      33.560  22.270  25.455  1.00  0.00     0.040 A 
ATOM     16  C   UNL A   1      33.442  21.493  24.302  1.00  0.00     0.014 A 
ATOM     17  C   UNL A   1      32.951  23.527  25.510  1.00  0.00     0.022 A 
ATOM     18  C   UNL A   1      32.661  21.947  23.242  1.00  0.00     0.001 A 
ATOM     19  C   UNL A   1      32.009  23.184  23.329  1.00  0.00     0.009 A 
BRANCH  15  20
ATOM     20  C   UNL A   1      34.411  21.794  26.567  1.00  0.00     0.251 C 
ATOM     21  N   UNL A   1      35.775  21.719  26.425  1.00  0.00    -0.352 N 
ATOM     22  H   UNL A   1      36.241  21.248  27.153  1.00  0.00     0.163 HD
ATOM     23  O   UNL A   1      33.887  21.455  27.623  1.00  0.00    -0.269 OA
BRANCH  21  24
ATOM     24  C   UNL A   1      36.642  22.224  25.372  1.00  0.00     0.112 C 
ATOM     25  C   UNL A   1      36.919  23.703  25.549  1.00  0.00     0.027 C 
ENDBRANCH  21  24
ENDBRANCH  15  20
ENDBRANCH   8  14
ENDBRANCH   4   7
ENDBRANCH   2   3
ENDBRANCH   1   2
BRANCH   1  26
ATOM     26  C   UNL A   1      31.774  31.686  26.668  1.00  0.00     0.023 C 
BRANCH  26  27
ATOM     27  C   UNL A   1      32.869  32.512  27.332  1.00  0.00     0.116 C 
BRANCH  27  28
ATOM     28  N   UNL A   1      32.487  33.886  27.626  1.00  0.00    -0.352 N 
ATOM     29  C   UNL A   1      33.037  34.787  28.513  1.00  0.00     0.251 C 
ATOM     30  H   UNL A   1      31.718  34.224  27.112  1.00  0.00     0.163 HD
ATOM     31  O   UNL A   1      32.528  35.888  28.669  1.00  0.00    -0.269 OA
BRANCH  29  32
ATOM     32  C   UNL A   1      34.216  34.404  29.322  1.00  0.00     0.039 A 
ATOM     33  C   UNL A   1      34.008  33.861  30.593  1.00  0.00     0.014 A 
ATOM     34  C   UNL A   1      35.513  34.543  28.824  1.00  0.00     0.014 A 
ATOM     35  C   UNL A   1      35.091  33.358  31.318  1.00  0.00     0.010 A 
ATOM     36  C   UNL A   1      36.579  33.968  29.509  1.00  0.00     0.010 A 
ATOM     37  C   UNL A   1      36.378  33.356  30.756  1.00  0.00    -0.014 A 
BRANCH  37  38
ATOM     38  C   UNL A   1      37.520  32.694  31.438  1.00  0.00     0.031 A 
ATOM     39  C   UNL A   1      38.210  31.524  30.798  1.00  0.00     0.074 A 
ATOM     40  C   UNL A   1      37.877  33.092  32.676  1.00  0.00     0.049 A 
ATOM     41  N   UNL A   1      39.156  30.756  31.276  1.00  0.00    -0.248 NA
ATOM     42  C   UNL A   1      37.756  31.147  29.450  1.00  0.00     0.031 C 
ATOM     43  C   UNL A   1      37.248  34.178  33.431  1.00  0.00     0.029 A 
ATOM     44  N   UNL A   1      38.846  32.618  33.525  1.00  0.00    -0.354 N 
ATOM     45  C   UNL A   1      39.393  29.796  30.301  1.00  0.00     0.074 A 
ATOM     46  C   UNL A   1      38.459  30.047  29.225  1.00  0.00     0.031 C 
ATOM     47  C   UNL A   1      37.859  34.300  34.619  1.00  0.00     0.029 A 
ATOM     48  C   UNL A   1      38.896  33.280  34.729  1.00  0.00     0.049 A 
ATOM     49  H   UNL A   1      39.448  31.875  33.294  1.00  0.00     0.167 HD
ATOM     50  C   UNL A   1      40.321  28.809  30.295  1.00  0.00     0.037 A 
ATOM     51  C   UNL A   1      39.685  33.080  35.801  1.00  0.00     0.037 A 
ATOM     52  C   UNL A   1      41.271  28.582  31.353  1.00  0.00     0.049 A 
ATOM     53  C   UNL A   1      40.717  31.986  35.763  1.00  0.00     0.074 A 
ATOM     54  C   UNL A   1      42.293  27.651  31.408  1.00  0.00     0.029 A 
ATOM     55  N   UNL A   1      41.313  29.297  32.541  1.00  0.00    -0.354 N 
ATOM     56  N   UNL A   1      40.978  31.129  34.806  1.00  0.00    -0.248 NA
ATOM     57  C   UNL A   1      41.567  31.834  36.952  1.00  0.00     0.031 C 
ATOM     58  C   UNL A   1      42.929  27.775  32.648  1.00  0.00     0.029 A 
ATOM     59  C   UNL A   1      42.335  28.815  33.344  1.00  0.00     0.049 A 
ATOM     60  H   UNL A   1      40.709  30.036  32.778  1.00  0.00     0.167 HD
ATOM     61  C   UNL A   1      42.038  30.359  35.263  1.00  0.00     0.074 A 
ATOM     62  C   UNL A   1      42.381  30.857  36.579  1.00  0.00     0.031 C 
ATOM     63  C   UNL A   1      42.671  29.330  34.646  1.00  0.00     0.037 A 
BRANCH  50  64
ATOM     64  C   UNL A   1      40.359  27.903  29.099  1.00  0.00     0.064 A 
ATOM     65  C   UNL A   1      39.626  26.709  29.057  1.00  0.00     0.173 A 
ATOM     66  C   UNL A   1      41.110  28.252  27.966  1.00  0.00     0.173 A 
ATOM     67  F   UNL A   1      38.901  26.325  30.119  1.00  0.00    -0.203 F 
ATOM     68  C   UNL A   1      39.666  25.881  27.938  1.00  0.00     0.198 A 
ATOM     69  C   UNL A   1      41.124  27.437  26.837  1.00  0.00     0.198 A 
ATOM     70  F   UNL A   1      41.825  29.388  27.951  1.00  0.00    -0.203 F 
ATOM     71  F   UNL A   1      38.996  24.720  27.941  1.00  0.00    -0.200 F 
ATOM     72  C   UNL A   1      40.410  26.249  26.827  1.00  0.00     0.200 A 
ATOM     73  F   UNL A   1      41.833  27.800  25.758  1.00  0.00    -0.200 F 
ATOM     74  F   UNL A   1      40.442  25.455  25.748  1.00  0.00    -0.200 F 
ENDBRANCH  50  64
BRANCH  51  75
ATOM     75  C   UNL A   1      39.552  33.957  36.995  1.00  0.00     0.064 A 
ATOM     76  C   UNL A   1      38.782  33.559  38.096  1.00  0.00     0.173 A 
ATOM     77  C   UNL A   1      40.184  35.207  37.057  1.00  0.00     0.173 A 
ATOM     78  F   UNL A   1      38.142  32.380  38.072  1.00  0.00    -0.203 F 
ATOM     79  C   UNL A   1      38.633  34.384  39.207  1.00  0.00     0.198 A 
ATOM     80  C   UNL A   1      40.056  36.022  38.181  1.00  0.00     0.198 A 
ATOM     81  F   UNL A   1      40.934  35.634  36.032  1.00  0.00    -0.203 F 
ATOM     82  F   UNL A   1      37.856  33.997  40.227  1.00  0.00    -0.200 F 
ATOM     83  C   UNL A   1      39.274  35.613  39.251  1.00  0.00     0.200 A 
ATOM     84  F   UNL A   1      40.687  37.203  38.226  1.00  0.00    -0.200 F 
ATOM     85  F   UNL A   1      39.134  36.407  40.322  1.00  0.00    -0.200 F 
ENDBRANCH  51  75
BRANCH  63  86
ATOM     86  C   UNL A   1      43.824  28.700  35.370  1.00  0.00     0.064 A 
ATOM     87  C   UNL A   1      43.637  27.654  36.285  1.00  0.00     0.173 A 
ATOM     88  C   UNL A   1      45.138  29.119  35.109  1.00  0.00     0.173 A 
ATOM     89  F   UNL A   1      42.399  27.229  36.579  1.00  0.00    -0.203 F 
ATOM     90  C   UNL A   1      44.722  27.067  36.931  1.00  0.00     0.198 A 
ATOM     91  C   UNL A   1      46.221  28.510  35.736  1.00  0.00     0.198 A 
ATOM     92  F   UNL A   1      45.370  30.112  34.238  1.00  0.00    -0.203 F 
ATOM     93  F   UNL A   1      44.516  26.099  37.834  1.00  0.00    -0.200 F 
ATOM     94  C   UNL A   1      46.012  27.489  36.650  1.00  0.00     0.200 A 
ATOM     95  F   UNL A   1      47.469  28.912  35.453  1.00  0.00    -0.200 F 
ATOM     96  F   UNL A   1      47.055  26.917  37.267  1.00  0.00    -0.200 F 
ENDBRANCH  63  86
ENDBRANCH  37  38
ENDBRANCH  29  32
ENDBRANCH  27  28
ENDBRANCH  26  27
ENDBRANCH   1  26
TORSDOF 14
ENDMDL
MODEL 2
REMARK VINA RESULT:     -13.0      0.227      1.598
REMARK SMILES CCNC(=O)c1cccc(-c2ccc(Cl)c(C(=O)NCCCCNC(=O)c3ccc(-c4c5nc(c(-c6c(F)c(F)c(F)c(F)c6F)c6ccc([nH]6)c(-c6c(F)c(F)c(F)c(F)c6F)c6nc(c(-c7c(F)c(F)c(F)c(F)c7F)c7ccc4[nH]7)C=C6)C=C5)cc3)c2)c1
REMARK SMILES IDX 21 1 20 2 19 3 17 4 18 5 16 7 11 8 12 9 90 10 13 11 14 12
REMARK SMILES IDX 15 13 10 14 6 15 7 16 91 17 8 18 9 19 4 20 3 21 5 23 2 24
REMARK SMILES IDX 1 25 22 26 23 27 24 28 25 29 26 31 27 32 28 33 89 34 29 35
REMARK SMILES IDX 88 36 30 37 31 38 32 39 82 40 33 41 87 42 81 43 83 44 34 45
REMARK SMILES IDX 86 46 80 47 79 48 35 50 67 51 47 52 66 53 48 54 51 55 65 56
REMARK SMILES IDX 84 57 49 58 50 59 64 61 85 62 52 63 36 64 37 65 45 66 38 67
REMARK SMILES IDX 39 68 43 69 46 70 40 71 41 72 44 73 42 74 68 75 69 76 77 77
REMARK SMILES IDX 70 78 71 79 75 80 78 81 72 82 73 83 76 84 74 85 53 86 54 87
REMARK SMILES IDX 62 88 55 89 56 90 60 91 63 92 57 93 58 94 61 95 59 96
REMARK H PARENT 19 6 3 22 24 30 83 49 51 60
REMARK Flexibility Score: inf
ROOT
ATOM      1  C   UNL A   1      31.828  30.224  26.794  1.00  0.00     0.023 C 
ENDROOT
BRANCH   1   2
ATOM      2  C   UNL A   1      33.225  29.689  26.516  1.00  0.00     0.116 C 
BRANCH   2   3
ATOM      3  N   UNL A   1      33.619  29.646  25.112  1.00  0.00    -0.352 N 
ATOM      4  C   UNL A   1      33.099  28.936  24.040  1.00  0.00     0.252 C 
ATOM      5  O   UNL A   1      33.527  29.179  22.917  1.00  0.00    -0.269 OA
ATOM      6  H   UNL A   1      34.386  30.221  24.885  1.00  0.00     0.163 HD
BRANCH   4   7
ATOM      7  C   UNL A   1      32.045  27.901  24.242  1.00  0.00     0.059 A 
ATOM      8  C   UNL A   1      31.598  25.507  24.516  1.00  0.00    -0.017 A 
ATOM      9  C   UNL A   1      30.246  25.750  24.258  1.00  0.00     0.010 A 
ATOM     10  C   UNL A   1      32.442  26.621  24.636  1.00  0.00     0.024 A 
ATOM     11  C   UNL A   1      29.788  27.055  24.043  1.00  0.00     0.022 A 
ATOM     12  C   UNL A   1      30.689  28.129  23.993  1.00  0.00     0.053 A 
ATOM     13  Cl  UNL A   1      30.040  29.669  23.561  1.00  0.00    -0.083 Cl
BRANCH   8  14
ATOM     14  C   UNL A   1      32.189  24.155  24.530  1.00  0.00    -0.018 A 
ATOM     15  C   UNL A   1      33.710  22.527  25.536  1.00  0.00     0.040 A 
ATOM     16  C   UNL A   1      33.555  21.680  24.438  1.00  0.00     0.014 A 
ATOM     17  C   UNL A   1      33.064  23.766  25.555  1.00  0.00     0.022 A 
ATOM     18  C   UNL A   1      32.703  22.049  23.400  1.00  0.00     0.001 A 
ATOM     19  C   UNL A   1      32.017  23.268  23.453  1.00  0.00     0.009 A 
BRANCH  15  20
ATOM     20  C   UNL A   1      34.636  22.142  26.624  1.00  0.00     0.251 C 
ATOM     21  N   UNL A   1      35.950  22.539  26.601  1.00  0.00    -0.352 N 
ATOM     22  H   UNL A   1      36.524  22.110  27.277  1.00  0.00     0.163 HD
ATOM     23  O   UNL A   1      34.222  21.451  27.550  1.00  0.00    -0.269 OA
BRANCH  21  24
ATOM     24  C   UNL A   1      36.631  23.493  25.740  1.00  0.00     0.112 C 
ATOM     25  C   UNL A   1      37.086  22.842  24.449  1.00  0.00     0.027 C 
ENDBRANCH  21  24
ENDBRANCH  15  20
ENDBRANCH   8  14
ENDBRANCH   4   7
ENDBRANCH   2   3
ENDBRANCH   1   2
BRANCH   1  26
ATOM     26  C   UNL A   1      31.652  31.734  26.741  1.00  0.00     0.023 C 
BRANCH  26  27
ATOM     27  C   UNL A   1      32.777  32.569  27.341  1.00  0.00     0.116 C 
BRANCH  27  28
ATOM     28  N   UNL A   1      32.407  33.945  27.639  1.00  0.00    -0.352 N 
ATOM     29  C   UNL A   1      32.977  34.845  28.514  1.00  0.00     0.251 C 
ATOM     30  H   UNL A   1      31.632  34.286  27.137  1.00  0.00     0.163 HD
ATOM     31  O   UNL A   1      32.476  35.949  28.676  1.00  0.00    -0.269 OA
BRANCH  29  32
ATOM     32  C   UNL A   1      34.167  34.458  29.304  1.00  0.00     0.039 A 
ATOM     33  C   UNL A   1      33.978  33.909  30.576  1.00  0.00     0.014 A 
ATOM     34  C   UNL A   1      35.457  34.598  28.788  1.00  0.00     0.014 A 
ATOM     35  C   UNL A   1      35.071  33.402  31.283  1.00  0.00     0.010 A 
ATOM     36  C   UNL A   1      36.533  34.019  29.455  1.00  0.00     0.010 A 
ATOM     37  C   UNL A   1      36.349  33.402  30.702  1.00  0.00    -0.014 A 
BRANCH  37  38
ATOM     38  C   UNL A   1      37.501  32.736  31.365  1.00  0.00     0.031 A 
ATOM     39  C   UNL A   1      38.179  31.566  30.710  1.00  0.00     0.074 A 
ATOM     40  C   UNL A   1      37.877  33.130  32.598  1.00  0.00     0.049 A 
ATOM     41  N   UNL A   1      39.130  30.795  31.172  1.00  0.00    -0.248 NA
ATOM     42  C   UNL A   1      37.703  31.194  29.369  1.00  0.00     0.031 C 
ATOM     43  C   UNL A   1      37.262  34.215  33.365  1.00  0.00     0.029 A 
ATOM     44  N   UNL A   1      38.859  32.652  33.430  1.00  0.00    -0.354 N 
ATOM     45  C   UNL A   1      39.350  29.838  30.191  1.00  0.00     0.074 A 
ATOM     46  C   UNL A   1      38.400  30.094  29.130  1.00  0.00     0.031 C 
ATOM     47  C   UNL A   1      37.892  34.332  34.544  1.00  0.00     0.029 A 
ATOM     48  C   UNL A   1      38.929  33.310  34.635  1.00  0.00     0.049 A 
ATOM     49  H   UNL A   1      39.456  31.908  33.188  1.00  0.00     0.167 HD
ATOM     50  C   UNL A   1      40.276  28.849  30.168  1.00  0.00     0.037 A 
ATOM     51  C   UNL A   1      39.734  33.106  35.694  1.00  0.00     0.037 A 
ATOM     52  C   UNL A   1      41.242  28.617  31.209  1.00  0.00     0.049 A 
ATOM     53  C   UNL A   1      40.763  32.010  35.637  1.00  0.00     0.074 A 
ATOM     54  C   UNL A   1      42.263  27.685  31.247  1.00  0.00     0.029 A 
ATOM     55  N   UNL A   1      41.304  29.329  32.399  1.00  0.00    -0.354 N 
ATOM     56  N   UNL A   1      41.008  31.155  34.674  1.00  0.00    -0.248 NA
ATOM     57  C   UNL A   1      41.631  31.854  36.812  1.00  0.00     0.031 C 
ATOM     58  C   UNL A   1      42.919  27.804  32.477  1.00  0.00     0.029 A 
ATOM     59  C   UNL A   1      42.338  28.843  33.185  1.00  0.00     0.049 A 
ATOM     60  H   UNL A   1      40.705  30.069  32.648  1.00  0.00     0.167 HD
ATOM     61  C   UNL A   1      42.073  30.382  35.112  1.00  0.00     0.074 A 
ATOM     62  C   UNL A   1      42.437  30.876  36.424  1.00  0.00     0.031 C 
ATOM     63  C   UNL A   1      42.694  29.354  34.483  1.00  0.00     0.037 A 
BRANCH  50  64
ATOM     64  C   UNL A   1      40.294  27.947  28.968  1.00  0.00     0.064 A 
ATOM     65  C   UNL A   1      41.039  28.262  27.822  1.00  0.00     0.173 A 
ATOM     66  C   UNL A   1      39.588  26.735  28.978  1.00  0.00     0.173 A 
ATOM     67  F   UNL A   1      41.723  29.415  27.758  1.00  0.00    -0.203 F 
ATOM     68  C   UNL A   1      41.052  27.413  26.719  1.00  0.00     0.198 A 
ATOM     69  C   UNL A   1      39.627  25.873  27.885  1.00  0.00     0.198 A 
ATOM     70  F   UNL A   1      38.865  26.382  30.052  1.00  0.00    -0.203 F 
ATOM     71  F   UNL A   1      41.730  27.760  25.616  1.00  0.00    -0.200 F 
ATOM     72  C   UNL A   1      40.351  26.217  26.754  1.00  0.00     0.200 A 
ATOM     73  F   UNL A   1      38.960  24.711  27.925  1.00  0.00    -0.200 F 
ATOM     74  F   UNL A   1      40.369  25.397  25.694  1.00  0.00    -0.200 F 
ENDBRANCH  50  64
BRANCH  51  75
ATOM     75  C   UNL A   1      39.621  33.980  36.892  1.00  0.00     0.064 A 
ATOM     76  C   UNL A   1      38.833  33.599  37.987  1.00  0.00     0.173 A 
ATOM     77  C   UNL A   1      40.290  35.210  36.965  1.00  0.00     0.173 A 
ATOM     78  F   UNL A   1      38.158  32.440  37.953  1.00  0.00    -0.203 F 
ATOM     79  C   UNL A   1      38.703  34.423  39.102  1.00  0.00     0.198 A 
ATOM     80  C   UNL A   1      40.180  36.022  38.093  1.00  0.00     0.198 A 
ATOM     81  F   UNL A   1      41.058  35.620  35.946  1.00  0.00    -0.203 F 
ATOM     82  F   UNL A   1      37.909  34.053  40.116  1.00  0.00    -0.200 F 
ATOM     83  C   UNL A   1      39.381  35.632  39.157  1.00  0.00     0.200 A 
ATOM     84  F   UNL A   1      40.846  37.183  38.148  1.00  0.00    -0.200 F 
ATOM     85  F   UNL A   1      39.259  36.422  40.231  1.00  0.00    -0.200 F 
ENDBRANCH  51  75
BRANCH  63  86
ATOM     86  C   UNL A   1      43.857  28.720  35.187  1.00  0.00     0.064 A 
ATOM     87  C   UNL A   1      45.166  29.200  35.028  1.00  0.00     0.173 A 
ATOM     88  C   UNL A   1      43.653  27.646  36.067  1.00  0.00     0.173 A 
ATOM     89  F   UNL A   1      45.414  30.215  34.186  1.00  0.00    -0.203 F 
ATOM     90  C   UNL A   1      46.230  28.613  35.707  1.00  0.00     0.198 A 
ATOM     91  C   UNL A   1      44.716  27.080  36.765  1.00  0.00     0.198 A 
ATOM     92  F   UNL A   1      42.420  27.154  36.258  1.00  0.00    -0.203 F 
ATOM     93  F   UNL A   1      47.477  29.059  35.506  1.00  0.00    -0.200 F 
ATOM     94  C   UNL A   1      46.003  27.559  36.580  1.00  0.00     0.200 A 
ATOM     95  F   UNL A   1      44.493  26.070  37.618  1.00  0.00    -0.200 F 
ATOM     96  F   UNL A   1      47.028  27.001  37.238  1.00  0.00    -0.200 F 
ENDBRANCH  63  86
ENDBRANCH  37  38
ENDBRANCH  29  32
ENDBRANCH  27  28
ENDBRANCH  26  27
ENDBRANCH   1  26
TORSDOF 14
ENDMDL
MODEL 3
REMARK VINA RESULT:     -12.9      0.110      1.579
REMARK SMILES CCNC(=O)c1cccc(-c2ccc(Cl)c(C(=O)NCCCCNC(=O)c3ccc(-c4c5nc(c(-c6c(F)c(F)c(F)c(F)c6F)c6ccc([nH]6)c(-c6c(F)c(F)c(F)c(F)c6F)c6nc(c(-c7c(F)c(F)c(F)c(F)c7F)c7ccc4[nH]7)C=C6)C=C5)cc3)c2)c1
REMARK SMILES IDX 21 1 20 2 19 3 17 4 18 5 16 7 11 8 12 9 90 10 13 11 14 12
REMARK SMILES IDX 15 13 10 14 6 15 7 16 91 17 8 18 9 19 4 20 3 21 5 23 2 24
REMARK SMILES IDX 1 25 22 26 23 27 24 28 25 29 26 31 27 32 28 33 89 34 29 35
REMARK SMILES IDX 88 36 30 37 31 38 32 39 82 40 33 41 87 42 81 43 83 44 34 45
REMARK SMILES IDX 86 46 80 47 79 48 35 50 67 51 47 52 66 53 48 54 51 55 65 56
REMARK SMILES IDX 84 57 49 58 50 59 64 61 85 62 52 63 36 64 37 65 45 66 38 67
REMARK SMILES IDX 39 68 43 69 46 70 40 71 41 72 44 73 42 74 68 75 69 76 77 77
REMARK SMILES IDX 70 78 71 79 75 80 78 81 72 82 73 83 76 84 74 85 53 86 54 87
REMARK SMILES IDX 62 88 55 89 56 90 60 91 63 92 57 93 58 94 61 95 59 96
REMARK H PARENT 19 6 3 22 24 30 83 49 51 60
REMARK Flexibility Score: inf
ROOT
ATOM      1  C   UNL A   1      31.815  30.214  26.782  1.00  0.00     0.023 C 
ENDROOT
BRANCH   1   2
ATOM      2  C   UNL A   1      33.168  29.548  26.576  1.00  0.00     0.116 C 
BRANCH   2   3
ATOM      3  N   UNL A   1      33.637  29.482  25.196  1.00  0.00    -0.352 N 
ATOM      4  C   UNL A   1      33.151  28.783  24.101  1.00  0.00     0.252 C 
ATOM      5  O   UNL A   1      33.650  29.002  23.002  1.00  0.00    -0.269 OA
ATOM      6  H   UNL A   1      34.436  30.026  25.010  1.00  0.00     0.163 HD
BRANCH   4   7
ATOM      7  C   UNL A   1      32.050  27.790  24.248  1.00  0.00     0.059 A 
ATOM      8  C   UNL A   1      31.496  25.410  24.438  1.00  0.00    -0.017 A 
ATOM      9  C   UNL A   1      30.161  25.719  24.160  1.00  0.00     0.010 A 
ATOM     10  C   UNL A   1      32.384  26.482  24.610  1.00  0.00     0.024 A 
ATOM     11  C   UNL A   1      29.765  27.048  23.978  1.00  0.00     0.022 A 
ATOM     12  C   UNL A   1      30.711  28.083  23.979  1.00  0.00     0.053 A 
ATOM     13  Cl  UNL A   1      30.138  29.662  23.584  1.00  0.00    -0.083 Cl
BRANCH   8  14
ATOM     14  C   UNL A   1      32.028  24.034  24.421  1.00  0.00    -0.018 A 
ATOM     15  C   UNL A   1      33.395  22.287  25.449  1.00  0.00     0.040 A 
ATOM     16  C   UNL A   1      33.296  21.508  24.295  1.00  0.00     0.014 A 
ATOM     17  C   UNL A   1      32.801  23.551  25.487  1.00  0.00     0.022 A 
ATOM     18  C   UNL A   1      32.547  21.970  23.216  1.00  0.00     0.001 A 
ATOM     19  C   UNL A   1      31.909  23.215  23.284  1.00  0.00     0.009 A 
BRANCH  15  20
ATOM     20  C   UNL A   1      34.214  21.802  26.582  1.00  0.00     0.251 C 
ATOM     21  N   UNL A   1      35.582  21.732  26.481  1.00  0.00    -0.352 N 
ATOM     22  H   UNL A   1      36.027  21.255  27.219  1.00  0.00     0.163 HD
ATOM     23  O   UNL A   1      33.658  21.452  27.619  1.00  0.00    -0.269 OA
BRANCH  21  24
ATOM     24  C   UNL A   1      36.479  22.249  25.460  1.00  0.00     0.112 C 
ATOM     25  C   UNL A   1      36.839  23.697  25.726  1.00  0.00     0.027 C 
ENDBRANCH  21  24
ENDBRANCH  15  20
ENDBRANCH   8  14
ENDBRANCH   4   7
ENDBRANCH   2   3
ENDBRANCH   1   2
BRANCH   1  26
ATOM     26  C   UNL A   1      31.759  31.722  26.590  1.00  0.00     0.023 C 
BRANCH  26  27
ATOM     27  C   UNL A   1      32.849  32.533  27.278  1.00  0.00     0.116 C 
BRANCH  27  28
ATOM     28  N   UNL A   1      32.476  33.909  27.573  1.00  0.00    -0.352 N 
ATOM     29  C   UNL A   1      33.030  34.806  28.461  1.00  0.00     0.251 C 
ATOM     30  H   UNL A   1      31.709  34.252  27.059  1.00  0.00     0.163 HD
ATOM     31  O   UNL A   1      32.528  35.910  28.618  1.00  0.00    -0.269 OA
BRANCH  29  32
ATOM     32  C   UNL A   1      34.207  34.416  29.269  1.00  0.00     0.039 A 
ATOM     33  C   UNL A   1      33.997  33.863  30.536  1.00  0.00     0.014 A 
ATOM     34  C   UNL A   1      35.506  34.558  28.776  1.00  0.00     0.014 A 
ATOM     35  C   UNL A   1      35.078  33.353  31.259  1.00  0.00     0.010 A 
ATOM     36  C   UNL A   1      36.570  33.977  29.458  1.00  0.00     0.010 A 
ATOM     37  C   UNL A   1      36.366  33.355  30.699  1.00  0.00    -0.014 A 
BRANCH  37  38
ATOM     38  C   UNL A   1      37.506  32.687  31.379  1.00  0.00     0.031 A 
ATOM     39  C   UNL A   1      38.200  31.524  30.729  1.00  0.00     0.074 A 
ATOM     40  C   UNL A   1      37.857  33.071  32.622  1.00  0.00     0.049 A 
ATOM     41  N   UNL A   1      39.145  30.752  31.202  1.00  0.00    -0.248 NA
ATOM     42  C   UNL A   1      37.752  31.162  29.375  1.00  0.00     0.031 C 
ATOM     43  C   UNL A   1      37.224  34.148  33.387  1.00  0.00     0.029 A 
ATOM     44  N   UNL A   1      38.824  32.589  33.470  1.00  0.00    -0.354 N 
ATOM     45  C   UNL A   1      39.387  29.804  30.217  1.00  0.00     0.074 A 
ATOM     46  C   UNL A   1      38.457  30.066  29.141  1.00  0.00     0.031 C 
ATOM     47  C   UNL A   1      37.831  34.258  34.579  1.00  0.00     0.029 A 
ATOM     48  C   UNL A   1      38.869  33.238  34.681  1.00  0.00     0.049 A 
ATOM     49  H   UNL A   1      39.428  31.849  33.233  1.00  0.00     0.167 HD
ATOM     50  C   UNL A   1      40.316  28.818  30.204  1.00  0.00     0.037 A 
ATOM     51  C   UNL A   1      39.654  33.027  35.755  1.00  0.00     0.037 A 
ATOM     52  C   UNL A   1      41.261  28.580  31.263  1.00  0.00     0.049 A 
ATOM     53  C   UNL A   1      40.687  31.934  35.708  1.00  0.00     0.074 A 
ATOM     54  C   UNL A   1      42.284  27.650  31.313  1.00  0.00     0.029 A 
ATOM     55  N   UNL A   1      41.299  29.282  32.459  1.00  0.00    -0.354 N 
ATOM     56  N   UNL A   1      40.953  31.088  34.743  1.00  0.00    -0.248 NA
ATOM     57  C   UNL A   1      41.532  31.771  36.899  1.00  0.00     0.031 C 
ATOM     58  C   UNL A   1      42.916  27.761  32.556  1.00  0.00     0.029 A 
ATOM     59  C   UNL A   1      42.318  28.792  33.261  1.00  0.00     0.049 A 
ATOM     60  H   UNL A   1      40.692  30.018  32.702  1.00  0.00     0.167 HD
ATOM     61  C   UNL A   1      42.012  30.314  35.196  1.00  0.00     0.074 A 
ATOM     62  C   UNL A   1      42.349  30.798  36.518  1.00  0.00     0.031 C 
ATOM     63  C   UNL A   1      42.648  29.293  34.570  1.00  0.00     0.037 A 
BRANCH  50  64
ATOM     64  C   UNL A   1      40.360  27.926  28.998  1.00  0.00     0.064 A 
ATOM     65  C   UNL A   1      41.131  28.249  27.872  1.00  0.00     0.173 A 
ATOM     66  C   UNL A   1      39.651  26.715  28.982  1.00  0.00     0.173 A 
ATOM     67  F   UNL A   1      41.819  29.401  27.833  1.00  0.00    -0.203 F 
ATOM     68  C   UNL A   1      41.168  27.409  26.763  1.00  0.00     0.198 A 
ATOM     69  C   UNL A   1      39.714  25.862  27.882  1.00  0.00     0.198 A 
ATOM     70  F   UNL A   1      38.903  26.354  30.036  1.00  0.00    -0.203 F 
ATOM     71  F   UNL A   1      41.872  27.763  25.679  1.00  0.00    -0.200 F 
ATOM     72  C   UNL A   1      40.464  26.214  26.771  1.00  0.00     0.200 A 
ATOM     73  F   UNL A   1      39.044  24.701  27.897  1.00  0.00    -0.200 F 
ATOM     74  F   UNL A   1      40.506  25.403  25.705  1.00  0.00    -0.200 F 
ENDBRANCH  50  64
BRANCH  51  75
ATOM     75  C   UNL A   1      39.515  33.891  36.957  1.00  0.00     0.064 A 
ATOM     76  C   UNL A   1      40.168  35.129  37.030  1.00  0.00     0.173 A 
ATOM     77  C   UNL A   1      38.735  33.498  38.054  1.00  0.00     0.173 A 
ATOM     78  F   UNL A   1      40.942  35.537  36.013  1.00  0.00    -0.203 F 
ATOM     79  C   UNL A   1      40.063  35.933  38.162  1.00  0.00     0.198 A 
ATOM     80  C   UNL A   1      38.608  34.316  39.175  1.00  0.00     0.198 A 
ATOM     81  F   UNL A   1      38.087  32.325  38.032  1.00  0.00    -0.203 F 
ATOM     82  F   UNL A   1      40.733  37.092  38.223  1.00  0.00    -0.200 F 
ATOM     83  C   UNL A   1      39.278  35.528  39.232  1.00  0.00     0.200 A 
ATOM     84  F   UNL A   1      37.840  33.927  40.202  1.00  0.00    -0.200 F 
ATOM     85  F   UNL A   1      39.174  36.304  40.320  1.00  0.00    -0.200 F 
ENDBRANCH  51  75
BRANCH  63  86
ATOM     86  C   UNL A   1      43.799  28.656  35.291  1.00  0.00     0.064 A 
ATOM     87  C   UNL A   1      43.618  27.555  36.141  1.00  0.00     0.173 A 
ATOM     88  C   UNL A   1      45.106  29.127  35.094  1.00  0.00     0.173 A 
ATOM     89  F   UNL A   1      42.385  27.079  36.374  1.00  0.00    -0.203 F 
ATOM     90  C   UNL A   1      44.701  26.964  36.785  1.00  0.00     0.198 A 
ATOM     91  C   UNL A   1      46.190  28.515  35.717  1.00  0.00     0.198 A 
ATOM     92  F   UNL A   1      45.333  30.174  34.286  1.00  0.00    -0.203 F 
ATOM     93  F   UNL A   1      44.500  25.941  37.626  1.00  0.00    -0.200 F 
ATOM     94  C   UNL A   1      45.986  27.438  36.567  1.00  0.00     0.200 A 
ATOM     95  F   UNL A   1      47.432  28.968  35.494  1.00  0.00    -0.200 F 
ATOM     96  F   UNL A   1      47.028  26.862  37.181  1.00  0.00    -0.200 F 
ENDBRANCH  63  86
ENDBRANCH  37  38
ENDBRANCH  29  32
ENDBRANCH  27  28
ENDBRANCH  26  27
ENDBRANCH   1  26
TORSDOF 14
ENDMDL
