MODEL 1
REMARK VINA RESULT:     -13.4      0.000      0.000
REMARK SMILES Cc1c(Cl)cc2c(c1C)O[C@H](C(F)(F)F)C(C(=O)NCCCCNC(=O)c1ccc(-c3c4nc(c(-c5c(F)c(F)c(F)c(F)c5F)c5ccc([nH]5)c(-c5c(F)c(F)c(F)c(F)c5F)c5nc(c(-c6c(F)c(F)c(F)c(F)c6F)c6ccc3[nH]6)C=C5)C=C4)cc1)=C2
REMARK SMILES IDX 22 1 21 2 20 3 19 4 17 5 18 6 16 8 1 9 2 10 3 11 8 12 4 13
REMARK SMILES IDX 5 14 7 15 9 16 6 17 10 18 90 19 11 20 12 21 13 22 14 23
REMARK SMILES IDX 15 24 23 25 24 26 25 27 26 29 27 30 28 31 89 32 29 33 88 34
REMARK SMILES IDX 30 35 31 36 32 37 82 38 33 39 87 40 81 41 83 42 34 43 86 44
REMARK SMILES IDX 80 45 79 46 35 48 67 49 47 50 66 51 48 52 51 53 65 54 84 55
REMARK SMILES IDX 49 56 50 57 64 59 85 60 52 61 36 62 37 63 45 64 38 65 39 66
REMARK SMILES IDX 43 67 46 68 40 69 41 70 44 71 42 72 68 73 69 74 77 75 70 76
REMARK SMILES IDX 71 77 75 78 78 79 72 80 73 81 76 82 74 83 53 84 54 85 62 86
REMARK SMILES IDX 55 87 56 88 60 89 63 90 57 91 58 92 61 93 59 94
REMARK H PARENT 19 7 24 28 83 47 51 58
REMARK Flexibility Score: inf
ROOT
ATOM      1  C   UNL A   1      31.528  32.067  26.818  1.00  0.00     0.023 C 
ENDROOT
BRANCH   1   2
ATOM      2  C   UNL A   1      31.766  30.560  26.701  1.00  0.00     0.023 C 
BRANCH   2   3
ATOM      3  C   UNL A   1      33.128  30.192  26.119  1.00  0.00     0.116 C 
BRANCH   3   4
ATOM      4  N   UNL A   1      33.036  29.816  24.720  1.00  0.00    -0.352 N 
ATOM      5  C   UNL A   1      32.905  28.670  24.013  1.00  0.00     0.251 C 
ATOM      6  O   UNL A   1      32.872  28.813  22.786  1.00  0.00    -0.270 OA
ATOM      7  H   UNL A   1      33.080  30.604  24.131  1.00  0.00     0.163 HD
BRANCH   5   8
ATOM      8  C   UNL A   1      32.803  27.302  24.600  1.00  0.00     0.067 C 
ATOM      9  C   UNL A   1      33.781  21.316  27.053  1.00  0.00     0.046 C 
ATOM     10  C   UNL A   1      33.846  22.702  26.463  1.00  0.00    -0.026 A 
ATOM     11  C   UNL A   1      35.043  23.231  25.935  1.00  0.00     0.045 A 
ATOM     12  C   UNL A   1      32.681  23.505  26.428  1.00  0.00    -0.004 A 
ATOM     13  Cl  UNL A   1      36.526  22.341  25.927  1.00  0.00    -0.084 Cl
ATOM     14  C   UNL A   1      35.088  24.520  25.389  1.00  0.00     0.032 A 
ATOM     15  C   UNL A   1      32.749  24.794  25.865  1.00  0.00     0.131 A 
ATOM     16  C   UNL A   1      31.345  23.034  26.953  1.00  0.00     0.049 C 
ATOM     17  C   UNL A   1      33.940  25.307  25.350  1.00  0.00     0.019 A 
ATOM     18  O   UNL A   1      31.604  25.543  25.892  1.00  0.00    -0.475 OA
ATOM     19  C   UNL A   1      33.968  26.662  24.811  1.00  0.00     0.025 C 
ATOM     20  C   UNL A   1      31.507  26.612  24.917  1.00  0.00     0.314 C 
BRANCH  20  21
ATOM     21  C   UNL A   1      30.784  26.093  23.659  1.00  0.00     0.429 C 
ATOM     22  F   UNL A   1      30.013  27.071  23.121  1.00  0.00    -0.167 F 
ATOM     23  F   UNL A   1      31.646  25.709  22.687  1.00  0.00    -0.167 F 
ATOM     24  F   UNL A   1      29.982  25.036  23.914  1.00  0.00    -0.167 F 
ENDBRANCH  20  21
ENDBRANCH   5   8
ENDBRANCH   3   4
ENDBRANCH   2   3
ENDBRANCH   1   2
BRANCH   1  25
ATOM     25  C   UNL A   1      32.730  32.880  27.294  1.00  0.00     0.116 C 
BRANCH  25  26
ATOM     26  N   UNL A   1      32.402  34.254  27.649  1.00  0.00    -0.352 N 
ATOM     27  C   UNL A   1      32.990  35.049  28.602  1.00  0.00     0.251 C 
ATOM     28  H   UNL A   1      31.666  34.664  27.141  1.00  0.00     0.163 HD
ATOM     29  O   UNL A   1      32.542  36.163  28.853  1.00  0.00    -0.269 OA
BRANCH  27  30
ATOM     30  C   UNL A   1      34.147  34.529  29.350  1.00  0.00     0.039 A 
ATOM     31  C   UNL A   1      33.927  33.875  30.564  1.00  0.00     0.014 A 
ATOM     32  C   UNL A   1      35.438  34.651  28.828  1.00  0.00     0.014 A 
ATOM     33  C   UNL A   1      35.000  33.287  31.231  1.00  0.00     0.010 A 
ATOM     34  C   UNL A   1      36.497  34.013  29.462  1.00  0.00     0.010 A 
ATOM     35  C   UNL A   1      36.286  33.328  30.669  1.00  0.00    -0.014 A 
BRANCH  35  36
ATOM     36  C   UNL A   1      37.441  32.689  31.341  1.00  0.00     0.031 A 
ATOM     37  C   UNL A   1      38.157  31.558  30.662  1.00  0.00     0.074 A 
ATOM     38  C   UNL A   1      37.802  33.085  32.575  1.00  0.00     0.049 A 
ATOM     39  N   UNL A   1      39.115  30.792  31.117  1.00  0.00    -0.248 NA
ATOM     40  C   UNL A   1      37.720  31.229  29.296  1.00  0.00     0.031 C 
ATOM     41  C   UNL A   1      37.167  34.158  33.340  1.00  0.00     0.029 A 
ATOM     42  N   UNL A   1      38.790  32.621  33.408  1.00  0.00    -0.354 N 
ATOM     43  C   UNL A   1      39.386  29.886  30.101  1.00  0.00     0.074 A 
ATOM     44  C   UNL A   1      38.457  30.162  29.026  1.00  0.00     0.031 C 
ATOM     45  C   UNL A   1      37.795  34.285  34.520  1.00  0.00     0.029 A 
ATOM     46  C   UNL A   1      38.849  33.280  34.610  1.00  0.00     0.049 A 
ATOM     47  H   UNL A   1      39.398  31.885  33.165  1.00  0.00     0.167 HD
ATOM     48  C   UNL A   1      40.339  28.928  30.061  1.00  0.00     0.037 A 
ATOM     49  C   UNL A   1      39.661  33.087  35.667  1.00  0.00     0.037 A 
ATOM     50  C   UNL A   1      41.274  28.672  31.123  1.00  0.00     0.049 A 
ATOM     51  C   UNL A   1      40.698  31.999  35.605  1.00  0.00     0.074 A 
ATOM     52  C   UNL A   1      42.296  27.742  31.169  1.00  0.00     0.029 A 
ATOM     53  N   UNL A   1      41.303  29.360  32.327  1.00  0.00    -0.354 N 
ATOM     54  N   UNL A   1      40.959  31.161  34.631  1.00  0.00    -0.248 NA
ATOM     55  C   UNL A   1      41.552  31.829  36.788  1.00  0.00     0.031 C 
ATOM     56  C   UNL A   1      42.924  27.845  32.414  1.00  0.00     0.029 A 
ATOM     57  C   UNL A   1      42.320  28.868  33.128  1.00  0.00     0.049 A 
ATOM     58  H   UNL A   1      40.691  30.091  32.577  1.00  0.00     0.167 HD
ATOM     59  C   UNL A   1      42.018  30.379  35.074  1.00  0.00     0.074 A 
ATOM     60  C   UNL A   1      42.362  30.855  36.399  1.00  0.00     0.031 C 
ATOM     61  C   UNL A   1      42.646  29.357  34.443  1.00  0.00     0.037 A 
BRANCH  48  62
ATOM     62  C   UNL A   1      40.425  28.091  28.819  1.00  0.00     0.064 A 
ATOM     63  C   UNL A   1      41.210  28.485  27.725  1.00  0.00     0.173 A 
ATOM     64  C   UNL A   1      39.749  26.864  28.735  1.00  0.00     0.173 A 
ATOM     65  F   UNL A   1      41.862  29.658  27.750  1.00  0.00    -0.203 F 
ATOM     66  C   UNL A   1      41.297  27.693  26.583  1.00  0.00     0.198 A 
ATOM     67  C   UNL A   1      39.861  26.062  27.602  1.00  0.00     0.198 A 
ATOM     68  F   UNL A   1      38.986  26.441  29.753  1.00  0.00    -0.203 F 
ATOM     69  F   UNL A   1      42.019  28.112  25.535  1.00  0.00    -0.200 F 
ATOM     70  C   UNL A   1      40.631  26.479  26.527  1.00  0.00     0.200 A 
ATOM     71  F   UNL A   1      39.224  24.884  27.552  1.00  0.00    -0.200 F 
ATOM     72  F   UNL A   1      40.724  25.713  25.430  1.00  0.00    -0.200 F 
ENDBRANCH  48  62
BRANCH  49  73
ATOM     73  C   UNL A   1      39.545  33.965  36.860  1.00  0.00     0.064 A 
ATOM     74  C   UNL A   1      38.770  33.576  37.960  1.00  0.00     0.173 A 
ATOM     75  C   UNL A   1      40.211  35.196  36.932  1.00  0.00     0.173 A 
ATOM     76  F   UNL A   1      38.097  32.416  37.927  1.00  0.00    -0.203 F 
ATOM     77  C   UNL A   1      38.656  34.390  39.085  1.00  0.00     0.198 A 
ATOM     78  C   UNL A   1      40.117  35.999  38.067  1.00  0.00     0.198 A 
ATOM     79  F   UNL A   1      40.969  35.612  35.907  1.00  0.00    -0.203 F 
ATOM     80  F   UNL A   1      37.881  34.009  40.109  1.00  0.00    -0.200 F 
ATOM     81  C   UNL A   1      39.335  35.598  39.140  1.00  0.00     0.200 A 
ATOM     82  F   UNL A   1      40.785  37.159  38.122  1.00  0.00    -0.200 F 
ATOM     83  F   UNL A   1      39.233  36.376  40.226  1.00  0.00    -0.200 F 
ENDBRANCH  49  73
BRANCH  61  84
ATOM     84  C   UNL A   1      43.781  28.695  35.167  1.00  0.00     0.064 A 
ATOM     85  C   UNL A   1      45.105  29.126  35.000  1.00  0.00     0.173 A 
ATOM     86  C   UNL A   1      43.534  27.658  36.079  1.00  0.00     0.173 A 
ATOM     87  F   UNL A   1      45.391  30.105  34.129  1.00  0.00    -0.203 F 
ATOM     88  C   UNL A   1      46.144  28.527  35.706  1.00  0.00     0.198 A 
ATOM     89  C   UNL A   1      44.573  27.081  36.804  1.00  0.00     0.198 A 
ATOM     90  F   UNL A   1      42.283  27.216  36.280  1.00  0.00    -0.203 F 
ATOM     91  F   UNL A   1      47.407  28.927  35.502  1.00  0.00    -0.200 F 
ATOM     92  C   UNL A   1      45.877  27.512  36.613  1.00  0.00     0.200 A 
ATOM     93  F   UNL A   1      44.311  26.109  37.688  1.00  0.00    -0.200 F 
ATOM     94  F   UNL A   1      46.878  26.944  37.298  1.00  0.00    -0.200 F 
ENDBRANCH  61  84
ENDBRANCH  35  36
ENDBRANCH  27  30
ENDBRANCH  25  26
ENDBRANCH   1  25
TORSDOF 12
ENDMDL
MODEL 2
REMARK VINA RESULT:     -13.3      0.102      1.193
REMARK SMILES Cc1c(Cl)cc2c(c1C)O[C@H](C(F)(F)F)C(C(=O)NCCCCNC(=O)c1ccc(-c3c4nc(c(-c5c(F)c(F)c(F)c(F)c5F)c5ccc([nH]5)c(-c5c(F)c(F)c(F)c(F)c5F)c5nc(c(-c6c(F)c(F)c(F)c(F)c6F)c6ccc3[nH]6)C=C5)C=C4)cc1)=C2
REMARK SMILES IDX 22 1 21 2 20 3 19 4 17 5 18 6 16 8 1 9 2 10 3 11 8 12 4 13
REMARK SMILES IDX 5 14 7 15 9 16 6 17 10 18 90 19 11 20 12 21 13 22 14 23
REMARK SMILES IDX 15 24 23 25 24 26 25 27 26 29 27 30 28 31 89 32 29 33 88 34
REMARK SMILES IDX 30 35 31 36 32 37 82 38 33 39 87 40 81 41 83 42 34 43 86 44
REMARK SMILES IDX 80 45 79 46 35 48 67 49 47 50 66 51 48 52 51 53 65 54 84 55
REMARK SMILES IDX 49 56 50 57 64 59 85 60 52 61 36 62 37 63 45 64 38 65 39 66
REMARK SMILES IDX 43 67 46 68 40 69 41 70 44 71 42 72 68 73 69 74 77 75 70 76
REMARK SMILES IDX 71 77 75 78 78 79 72 80 73 81 76 82 74 83 53 84 54 85 62 86
REMARK SMILES IDX 55 87 56 88 60 89 63 90 57 91 58 92 61 93 59 94
REMARK H PARENT 19 7 24 28 83 47 51 58
REMARK Flexibility Score: inf
ROOT
ATOM      1  C   UNL A   1      31.531  32.004  26.848  1.00  0.00     0.023 C 
ENDROOT
BRANCH   1   2
ATOM      2  C   UNL A   1      31.795  30.506  26.687  1.00  0.00     0.023 C 
BRANCH   2   3
ATOM      3  C   UNL A   1      33.162  30.179  26.094  1.00  0.00     0.116 C 
BRANCH   3   4
ATOM      4  N   UNL A   1      33.069  29.801  24.696  1.00  0.00    -0.352 N 
ATOM      5  C   UNL A   1      32.933  28.654  23.990  1.00  0.00     0.251 C 
ATOM      6  O   UNL A   1      32.900  28.795  22.763  1.00  0.00    -0.270 OA
ATOM      7  H   UNL A   1      33.117  30.588  24.104  1.00  0.00     0.163 HD
BRANCH   5   8
ATOM      8  C   UNL A   1      32.824  27.288  24.580  1.00  0.00     0.067 C 
ATOM      9  C   UNL A   1      33.775  21.308  27.056  1.00  0.00     0.046 C 
ATOM     10  C   UNL A   1      33.847  22.692  26.464  1.00  0.00    -0.026 A 
ATOM     11  C   UNL A   1      35.049  23.219  25.946  1.00  0.00     0.045 A 
ATOM     12  C   UNL A   1      32.683  23.496  26.416  1.00  0.00    -0.004 A 
ATOM     13  Cl  UNL A   1      36.532  22.328  25.955  1.00  0.00    -0.084 Cl
ATOM     14  C   UNL A   1      35.100  24.507  25.397  1.00  0.00     0.032 A 
ATOM     15  C   UNL A   1      32.757  24.783  25.850  1.00  0.00     0.131 A 
ATOM     16  C   UNL A   1      31.341  23.027  26.929  1.00  0.00     0.049 C 
ATOM     17  C   UNL A   1      33.953  25.294  25.345  1.00  0.00     0.019 A 
ATOM     18  O   UNL A   1      31.612  25.532  25.864  1.00  0.00    -0.475 OA
ATOM     19  C   UNL A   1      33.987  26.648  24.803  1.00  0.00     0.025 C 
ATOM     20  C   UNL A   1      31.525  26.600  24.885  1.00  0.00     0.314 C 
BRANCH  20  21
ATOM     21  C   UNL A   1      30.814  26.077  23.622  1.00  0.00     0.429 C 
ATOM     22  F   UNL A   1      31.724  25.640  22.716  1.00  0.00    -0.167 F 
ATOM     23  F   UNL A   1      30.001  25.025  23.883  1.00  0.00    -0.167 F 
ATOM     24  F   UNL A   1      30.058  27.019  23.018  1.00  0.00    -0.167 F 
ENDBRANCH  20  21
ENDBRANCH   5   8
ENDBRANCH   3   4
ENDBRANCH   2   3
ENDBRANCH   1   2
BRANCH   1  25
ATOM     25  C   UNL A   1      32.741  32.837  27.270  1.00  0.00     0.116 C 
BRANCH  25  26
ATOM     26  N   UNL A   1      32.410  34.210  27.624  1.00  0.00    -0.352 N 
ATOM     27  C   UNL A   1      32.996  35.007  28.576  1.00  0.00     0.251 C 
ATOM     28  H   UNL A   1      31.672  34.619  27.116  1.00  0.00     0.163 HD
ATOM     29  O   UNL A   1      32.546  36.120  28.827  1.00  0.00    -0.269 OA
BRANCH  27  30
ATOM     30  C   UNL A   1      34.155  34.490  29.324  1.00  0.00     0.039 A 
ATOM     31  C   UNL A   1      33.934  33.794  30.514  1.00  0.00     0.014 A 
ATOM     32  C   UNL A   1      35.449  34.656  28.824  1.00  0.00     0.014 A 
ATOM     33  C   UNL A   1      35.011  33.209  31.177  1.00  0.00     0.010 A 
ATOM     34  C   UNL A   1      36.514  34.022  29.453  1.00  0.00     0.010 A 
ATOM     35  C   UNL A   1      36.303  33.296  30.635  1.00  0.00    -0.014 A 
BRANCH  35  36
ATOM     36  C   UNL A   1      37.463  32.662  31.303  1.00  0.00     0.031 A 
ATOM     37  C   UNL A   1      38.183  31.536  30.621  1.00  0.00     0.074 A 
ATOM     38  C   UNL A   1      37.826  33.059  32.537  1.00  0.00     0.049 A 
ATOM     39  N   UNL A   1      39.146  30.774  31.073  1.00  0.00    -0.248 NA
ATOM     40  C   UNL A   1      37.743  31.206  29.256  1.00  0.00     0.031 C 
ATOM     41  C   UNL A   1      37.187  34.128  33.304  1.00  0.00     0.029 A 
ATOM     42  N   UNL A   1      38.818  32.599  33.366  1.00  0.00    -0.354 N 
ATOM     43  C   UNL A   1      39.418  29.871  30.054  1.00  0.00     0.074 A 
ATOM     44  C   UNL A   1      38.485  30.143  28.982  1.00  0.00     0.031 C 
ATOM     45  C   UNL A   1      37.818  34.257  34.483  1.00  0.00     0.029 A 
ATOM     46  C   UNL A   1      38.878  33.258  34.569  1.00  0.00     0.049 A 
ATOM     47  H   UNL A   1      39.429  31.867  33.121  1.00  0.00     0.167 HD
ATOM     48  C   UNL A   1      40.376  28.917  30.011  1.00  0.00     0.037 A 
ATOM     49  C   UNL A   1      39.693  33.067  35.623  1.00  0.00     0.037 A 
ATOM     50  C   UNL A   1      41.315  28.665  31.070  1.00  0.00     0.049 A 
ATOM     51  C   UNL A   1      40.736  31.984  35.557  1.00  0.00     0.074 A 
ATOM     52  C   UNL A   1      42.342  27.740  31.112  1.00  0.00     0.029 A 
ATOM     53  N   UNL A   1      41.344  29.352  32.275  1.00  0.00    -0.354 N 
ATOM     54  N   UNL A   1      40.998  31.148  34.581  1.00  0.00    -0.248 NA
ATOM     55  C   UNL A   1      41.594  31.818  36.738  1.00  0.00     0.031 C 
ATOM     56  C   UNL A   1      42.973  27.845  32.355  1.00  0.00     0.029 A 
ATOM     57  C   UNL A   1      42.367  28.864  33.072  1.00  0.00     0.049 A 
ATOM     58  H   UNL A   1      40.730  30.079  32.527  1.00  0.00     0.167 HD
ATOM     59  C   UNL A   1      42.062  30.371  35.021  1.00  0.00     0.074 A 
ATOM     60  C   UNL A   1      42.408  30.848  36.345  1.00  0.00     0.031 C 
ATOM     61  C   UNL A   1      42.693  29.353  34.387  1.00  0.00     0.037 A 
BRANCH  48  62
ATOM     62  C   UNL A   1      40.463  28.082  28.768  1.00  0.00     0.064 A 
ATOM     63  C   UNL A   1      41.249  28.477  27.675  1.00  0.00     0.173 A 
ATOM     64  C   UNL A   1      39.785  26.855  28.681  1.00  0.00     0.173 A 
ATOM     65  F   UNL A   1      41.903  29.649  27.703  1.00  0.00    -0.203 F 
ATOM     66  C   UNL A   1      41.337  27.686  26.533  1.00  0.00     0.198 A 
ATOM     67  C   UNL A   1      39.898  26.055  27.548  1.00  0.00     0.198 A 
ATOM     68  F   UNL A   1      39.021  26.432  29.699  1.00  0.00    -0.203 F 
ATOM     69  F   UNL A   1      42.060  28.105  25.486  1.00  0.00    -0.200 F 
ATOM     70  C   UNL A   1      40.669  26.473  26.474  1.00  0.00     0.200 A 
ATOM     71  F   UNL A   1      39.260  24.877  27.495  1.00  0.00    -0.200 F 
ATOM     72  F   UNL A   1      40.763  25.708  25.376  1.00  0.00    -0.200 F 
ENDBRANCH  48  62
BRANCH  49  73
ATOM     73  C   UNL A   1      39.576  33.943  36.817  1.00  0.00     0.064 A 
ATOM     74  C   UNL A   1      38.802  33.552  37.917  1.00  0.00     0.173 A 
ATOM     75  C   UNL A   1      40.241  35.175  36.890  1.00  0.00     0.173 A 
ATOM     76  F   UNL A   1      38.131  32.391  37.882  1.00  0.00    -0.203 F 
ATOM     77  C   UNL A   1      38.687  34.364  39.043  1.00  0.00     0.198 A 
ATOM     78  C   UNL A   1      40.145  35.977  38.027  1.00  0.00     0.198 A 
ATOM     79  F   UNL A   1      40.998  35.594  35.865  1.00  0.00    -0.203 F 
ATOM     80  F   UNL A   1      37.913  33.981  40.067  1.00  0.00    -0.200 F 
ATOM     81  C   UNL A   1      39.365  35.573  39.100  1.00  0.00     0.200 A 
ATOM     82  F   UNL A   1      40.812  37.138  38.083  1.00  0.00    -0.200 F 
ATOM     83  F   UNL A   1      39.262  36.350  40.186  1.00  0.00    -0.200 F 
ENDBRANCH  49  73
BRANCH  61  84
ATOM     84  C   UNL A   1      43.834  28.697  35.107  1.00  0.00     0.064 A 
ATOM     85  C   UNL A   1      43.633  27.579  35.930  1.00  0.00     0.173 A 
ATOM     86  C   UNL A   1      45.147  29.157  34.926  1.00  0.00     0.173 A 
ATOM     87  F   UNL A   1      42.394  27.112  36.142  1.00  0.00    -0.203 F 
ATOM     88  C   UNL A   1      44.706  26.958  36.562  1.00  0.00     0.198 A 
ATOM     89  C   UNL A   1      46.220  28.515  35.539  1.00  0.00     0.198 A 
ATOM     90  F   UNL A   1      45.391  30.218  34.143  1.00  0.00    -0.203 F 
ATOM     91  F   UNL A   1      44.487  25.915  37.376  1.00  0.00    -0.200 F 
ATOM     92  C   UNL A   1      45.998  27.420  36.360  1.00  0.00     0.200 A 
ATOM     93  F   UNL A   1      47.468  28.955  35.333  1.00  0.00    -0.200 F 
ATOM     94  F   UNL A   1      47.029  26.813  36.963  1.00  0.00    -0.200 F 
ENDBRANCH  61  84
ENDBRANCH  35  36
ENDBRANCH  27  30
ENDBRANCH  25  26
ENDBRANCH   1  25
TORSDOF 12
ENDMDL
MODEL 3
REMARK VINA RESULT:     -13.2      2.000      3.170
REMARK SMILES Cc1c(Cl)cc2c(c1C)O[C@H](C(F)(F)F)C(C(=O)NCCCCNC(=O)c1ccc(-c3c4nc(c(-c5c(F)c(F)c(F)c(F)c5F)c5ccc([nH]5)c(-c5c(F)c(F)c(F)c(F)c5F)c5nc(c(-c6c(F)c(F)c(F)c(F)c6F)c6ccc3[nH]6)C=C5)C=C4)cc1)=C2
REMARK SMILES IDX 22 1 21 2 20 3 19 4 17 5 18 6 16 8 1 9 2 10 3 11 8 12 4 13
REMARK SMILES IDX 5 14 7 15 9 16 6 17 10 18 90 19 11 20 12 21 13 22 14 23
REMARK SMILES IDX 15 24 23 25 24 26 25 27 26 29 27 30 28 31 89 32 29 33 88 34
REMARK SMILES IDX 30 35 31 36 32 37 82 38 33 39 87 40 81 41 83 42 34 43 86 44
REMARK SMILES IDX 80 45 79 46 35 48 67 49 47 50 66 51 48 52 51 53 65 54 84 55
REMARK SMILES IDX 49 56 50 57 64 59 85 60 52 61 36 62 37 63 45 64 38 65 39 66
REMARK SMILES IDX 43 67 46 68 40 69 41 70 44 71 42 72 68 73 69 74 77 75 70 76
REMARK SMILES IDX 71 77 75 78 78 79 72 80 73 81 76 82 74 83 53 84 54 85 62 86
REMARK SMILES IDX 55 87 56 88 60 89 63 90 57 91 58 92 61 93 59 94
REMARK H PARENT 19 7 24 28 83 47 51 58
REMARK Flexibility Score: inf
ROOT
ATOM      1  C   UNL A   1      33.124  28.956  23.865  1.00  0.00     0.023 C 
ENDROOT
BRANCH   1   2
ATOM      2  C   UNL A   1      32.780  27.521  23.463  1.00  0.00     0.023 C 
BRANCH   2   3
ATOM      3  C   UNL A   1      31.283  27.222  23.458  1.00  0.00     0.116 C 
BRANCH   3   4
ATOM      4  N   UNL A   1      30.801  26.853  24.776  1.00  0.00    -0.352 N 
ATOM      5  C   UNL A   1      31.019  25.854  25.662  1.00  0.00     0.251 C 
ATOM      6  O   UNL A   1      30.363  25.929  26.707  1.00  0.00    -0.270 OA
ATOM      7  H   UNL A   1      30.141  27.501  25.115  1.00  0.00     0.163 HD
BRANCH   5   8
ATOM      8  C   UNL A   1      31.962  24.715  25.463  1.00  0.00     0.067 C 
ATOM      9  C   UNL A   1      37.067  20.640  25.096  1.00  0.00     0.046 C 
ATOM     10  C   UNL A   1      36.085  21.769  25.287  1.00  0.00    -0.026 A 
ATOM     11  C   UNL A   1      36.507  23.075  25.612  1.00  0.00     0.045 A 
ATOM     12  C   UNL A   1      34.700  21.526  25.133  1.00  0.00    -0.004 A 
ATOM     13  Cl  UNL A   1      38.174  23.486  25.826  1.00  0.00    -0.084 Cl
ATOM     14  C   UNL A   1      35.583  24.114  25.784  1.00  0.00     0.032 A 
ATOM     15  C   UNL A   1      33.791  22.589  25.302  1.00  0.00     0.131 A 
ATOM     16  C   UNL A   1      34.140  20.170  24.773  1.00  0.00     0.049 C 
ATOM     17  C   UNL A   1      34.221  23.876  25.628  1.00  0.00     0.019 A 
ATOM     18  O   UNL A   1      32.461  22.292  25.181  1.00  0.00    -0.475 OA
ATOM     19  C   UNL A   1      33.238  24.935  25.828  1.00  0.00     0.025 C 
ATOM     20  C   UNL A   1      31.578  23.396  24.857  1.00  0.00     0.314 C 
BRANCH  20  21
ATOM     21  C   UNL A   1      31.395  23.471  23.329  1.00  0.00     0.429 C 
ATOM     22  F   UNL A   1      31.451  22.229  22.786  1.00  0.00    -0.167 F 
ATOM     23  F   UNL A   1      30.193  23.987  22.975  1.00  0.00    -0.167 F 
ATOM     24  F   UNL A   1      32.339  24.223  22.723  1.00  0.00    -0.167 F 
ENDBRANCH  20  21
ENDBRANCH   5   8
ENDBRANCH   3   4
ENDBRANCH   2   3
ENDBRANCH   1   2
BRANCH   1  25
ATOM     25  C   UNL A   1      33.374  29.172  25.357  1.00  0.00     0.116 C 
BRANCH  25  26
ATOM     26  N   UNL A   1      32.753  30.379  25.884  1.00  0.00    -0.352 N 
ATOM     27  C   UNL A   1      33.181  31.173  26.919  1.00  0.00     0.251 C 
ATOM     28  H   UNL A   1      31.920  30.662  25.442  1.00  0.00     0.163 HD
ATOM     29  O   UNL A   1      32.500  32.113  27.313  1.00  0.00    -0.269 OA
BRANCH  27  30
ATOM     30  C   UNL A   1      34.459  30.856  27.579  1.00  0.00     0.039 A 
ATOM     31  C   UNL A   1      35.410  31.868  27.732  1.00  0.00     0.014 A 
ATOM     32  C   UNL A   1      34.695  29.573  28.081  1.00  0.00     0.014 A 
ATOM     33  C   UNL A   1      36.579  31.609  28.445  1.00  0.00     0.010 A 
ATOM     34  C   UNL A   1      35.833  29.334  28.843  1.00  0.00     0.010 A 
ATOM     35  C   UNL A   1      36.783  30.349  29.029  1.00  0.00    -0.014 A 
BRANCH  35  36
ATOM     36  C   UNL A   1      38.004  30.054  29.815  1.00  0.00     0.031 A 
ATOM     37  C   UNL A   1      39.036  29.121  29.252  1.00  0.00     0.074 A 
ATOM     38  C   UNL A   1      38.151  30.574  31.047  1.00  0.00     0.049 A 
ATOM     39  N   UNL A   1      40.116  28.645  29.815  1.00  0.00    -0.248 NA
ATOM     40  C   UNL A   1      38.809  28.641  27.879  1.00  0.00     0.031 C 
ATOM     41  C   UNL A   1      37.204  31.475  31.704  1.00  0.00     0.029 A 
ATOM     42  N   UNL A   1      39.153  30.411  31.971  1.00  0.00    -0.354 N 
ATOM     43  C   UNL A   1      40.690  27.802  28.872  1.00  0.00     0.074 A 
ATOM     44  C   UNL A   1      39.813  27.790  27.721  1.00  0.00     0.031 C 
ATOM     45  C   UNL A   1      37.681  31.803  32.916  1.00  0.00     0.029 A 
ATOM     46  C   UNL A   1      38.945  31.107  33.135  1.00  0.00     0.049 A 
ATOM     47  H   UNL A   1      39.945  29.848  31.812  1.00  0.00     0.167 HD
ATOM     48  C   UNL A   1      41.855  27.120  28.952  1.00  0.00     0.037 A 
ATOM     49  C   UNL A   1      39.690  31.168  34.255  1.00  0.00     0.037 A 
ATOM     50  C   UNL A   1      42.734  27.153  30.089  1.00  0.00     0.049 A 
ATOM     51  C   UNL A   1      40.971  30.382  34.326  1.00  0.00     0.074 A 
ATOM     52  C   UNL A   1      43.952  26.520  30.258  1.00  0.00     0.029 A 
ATOM     53  N   UNL A   1      42.490  27.869  31.252  1.00  0.00    -0.354 N 
ATOM     54  N   UNL A   1      41.515  29.604  33.421  1.00  0.00    -0.248 NA
ATOM     55  C   UNL A   1      41.741  30.481  35.573  1.00  0.00     0.031 C 
ATOM     56  C   UNL A   1      44.429  26.826  31.536  1.00  0.00     0.029 A 
ATOM     57  C   UNL A   1      43.530  27.684  32.148  1.00  0.00     0.049 A 
ATOM     58  H   UNL A   1      41.695  28.426  31.417  1.00  0.00     0.167 HD
ATOM     59  C   UNL A   1      42.697  29.137  33.980  1.00  0.00     0.074 A 
ATOM     60  C   UNL A   1      42.800  29.734  35.296  1.00  0.00     0.031 C 
ATOM     61  C   UNL A   1      43.613  28.289  33.453  1.00  0.00     0.037 A 
BRANCH  48  62
ATOM     62  C   UNL A   1      42.251  26.289  27.769  1.00  0.00     0.064 A 
ATOM     63  C   UNL A   1      43.199  26.744  26.840  1.00  0.00     0.173 A 
ATOM     64  C   UNL A   1      41.709  25.008  27.580  1.00  0.00     0.173 A 
ATOM     65  F   UNL A   1      43.734  27.969  26.967  1.00  0.00    -0.203 F 
ATOM     66  C   UNL A   1      43.573  25.958  25.753  1.00  0.00     0.198 A 
ATOM     67  C   UNL A   1      42.107  24.213  26.508  1.00  0.00     0.198 A 
ATOM     68  F   UNL A   1      40.800  24.526  28.440  1.00  0.00    -0.203 F 
ATOM     69  F   UNL A   1      44.448  26.433  24.856  1.00  0.00    -0.200 F 
ATOM     70  C   UNL A   1      43.034  24.691  25.594  1.00  0.00     0.200 A 
ATOM     71  F   UNL A   1      41.592  22.985  26.359  1.00  0.00    -0.200 F 
ATOM     72  F   UNL A   1      43.403  23.931  24.552  1.00  0.00    -0.200 F 
ENDBRANCH  48  62
BRANCH  49  73
ATOM     73  C   UNL A   1      39.259  32.030  35.385  1.00  0.00     0.064 A 
ATOM     74  C   UNL A   1      39.616  33.383  35.428  1.00  0.00     0.173 A 
ATOM     75  C   UNL A   1      38.475  31.527  36.433  1.00  0.00     0.173 A 
ATOM     76  F   UNL A   1      40.384  33.903  34.457  1.00  0.00    -0.203 F 
ATOM     77  C   UNL A   1      39.215  34.202  36.481  1.00  0.00     0.198 A 
ATOM     78  C   UNL A   1      38.054  32.352  37.475  1.00  0.00     0.198 A 
ATOM     79  F   UNL A   1      38.103  30.239  36.438  1.00  0.00    -0.203 F 
ATOM     80  F   UNL A   1      39.599  35.485  36.513  1.00  0.00    -0.200 F 
ATOM     81  C   UNL A   1      38.429  33.687  37.500  1.00  0.00     0.200 A 
ATOM     82  F   UNL A   1      37.283  31.854  38.451  1.00  0.00    -0.200 F 
ATOM     83  F   UNL A   1      38.035  34.477  38.508  1.00  0.00    -0.200 F 
ENDBRANCH  49  73
BRANCH  61  84
ATOM     84  C   UNL A   1      44.816  27.968  34.289  1.00  0.00     0.064 A 
ATOM     85  C   UNL A   1      45.967  28.768  34.251  1.00  0.00     0.173 A 
ATOM     86  C   UNL A   1      44.794  26.884  35.179  1.00  0.00     0.173 A 
ATOM     87  F   UNL A   1      46.040  29.807  33.407  1.00  0.00    -0.203 F 
ATOM     88  C   UNL A   1      47.062  28.480  35.061  1.00  0.00     0.198 A 
ATOM     89  C   UNL A   1      45.881  26.616  36.007  1.00  0.00     0.198 A 
ATOM     90  F   UNL A   1      43.713  26.094  35.258  1.00  0.00    -0.203 F 
ATOM     91  F   UNL A   1      48.168  29.233  34.980  1.00  0.00    -0.200 F 
ATOM     92  C   UNL A   1      47.016  27.411  35.943  1.00  0.00     0.200 A 
ATOM     93  F   UNL A   1      45.829  25.591  36.867  1.00  0.00    -0.200 F 
ATOM     94  F   UNL A   1      48.068  27.142  36.728  1.00  0.00    -0.200 F 
ENDBRANCH  61  84
ENDBRANCH  35  36
ENDBRANCH  27  30
ENDBRANCH  25  26
ENDBRANCH   1  25
TORSDOF 12
ENDMDL
