MODEL 1
REMARK VINA RESULT:     -13.4      0.000      0.000
REMARK SMILES CN1C(=O)C[C@H](C(=O)NCCCCNC(=O)c2ccc(-c3c4nc(c(-c5c(F)c(F)c(F)c(F)c5F)c5ccc([nH]5)c(-c5c(F)c(F)c(F)c(F)c5F)c5nc(c(-c6c(F)c(F)c(F)c(F)c6F)c6ccc3[nH]6)C=C5)C=C4)cc2)C12CC[NH+](Cc1ccc(Cl)c(F)c1)CC2
REMARK SMILES IDX 11 1 10 2 9 3 7 4 8 5 6 7 1 8 2 9 3 10 80 11 4 12 5 13 81 14
REMARK SMILES IDX 94 15 82 16 93 17 83 18 84 20 85 21 86 22 92 23 87 24 90 25
REMARK SMILES IDX 88 26 91 27 89 28 12 29 13 30 14 31 15 32 16 34 17 35 18 36
REMARK SMILES IDX 79 37 19 38 78 39 20 40 21 41 22 42 72 43 23 44 77 45 71 46
REMARK SMILES IDX 73 47 24 48 76 49 70 50 69 51 25 53 57 54 37 55 56 56 38 57
REMARK SMILES IDX 41 58 55 59 74 60 39 61 40 62 54 64 75 65 42 66 26 67 27 68
REMARK SMILES IDX 35 69 28 70 29 71 33 72 36 73 30 74 31 75 34 76 32 77 58 78
REMARK SMILES IDX 59 79 67 80 60 81 61 82 65 83 68 84 62 85 63 86 66 87 64 88
REMARK SMILES IDX 43 89 44 90 52 91 45 92 46 93 50 94 53 95 47 96 48 97 51 98
REMARK SMILES IDX 49 99
REMARK H PARENT 9 6 83 19 14 33 73 52 41 63
REMARK Flexibility Score: inf
ROOT
ATOM      1  C   UNL A   1      31.641  28.554  27.556  1.00  0.00     0.023 C 
ENDROOT
BRANCH   1   2
ATOM      2  C   UNL A   1      31.428  27.045  27.483  1.00  0.00     0.116 C 
BRANCH   2   3
ATOM      3  N   UNL A   1      30.504  26.465  26.503  1.00  0.00    -0.356 N 
ATOM      4  C   UNL A   1      30.794  25.221  25.960  1.00  0.00     0.226 C 
ATOM      5  O   UNL A   1      30.514  24.236  26.653  1.00  0.00    -0.275 OA
ATOM      6  H   UNL A   1      29.690  26.950  26.234  1.00  0.00     0.163 HD
BRANCH   4   7
ATOM      7  C   UNL A   1      31.235  24.989  24.466  1.00  0.00     0.114 C 
ATOM      8  C   UNL A   1      33.429  27.178  22.273  1.00  0.00     0.147 C 
ATOM      9  N   UNL A   1      32.398  26.378  22.915  1.00  0.00    -0.339 N 
ATOM     10  C   UNL A   1      31.067  26.660  22.718  1.00  0.00     0.223 C 
ATOM     11  C   UNL A   1      32.657  25.302  23.892  1.00  0.00     0.065 C 
ATOM     12  O   UNL A   1      30.613  27.504  21.955  1.00  0.00    -0.275 OA
ATOM     13  C   UNL A   1      30.242  25.766  23.584  1.00  0.00     0.116 C 
ATOM     14  C   UNL A   1      33.428  24.131  23.154  1.00  0.00     0.091 C 
ATOM     15  C   UNL A   1      33.568  25.768  24.982  1.00  0.00     0.091 C 
ATOM     16  C   UNL A   1      34.554  23.344  23.919  1.00  0.00     0.265 C 
ATOM     17  C   UNL A   1      33.956  24.575  25.867  1.00  0.00     0.265 C 
ATOM     18  N   UNL A   1      34.983  23.810  25.229  1.00  0.00    -0.331 N 
ATOM     19  H   UNL A   1      35.136  22.898  25.662  1.00  0.00     0.348 HD
BRANCH  18  20
ATOM     20  C   UNL A   1      36.339  24.329  25.503  1.00  0.00     0.299 C 
BRANCH  20  21
ATOM     21  C   UNL A   1      37.484  23.326  25.569  1.00  0.00     0.009 A 
ATOM     22  C   UNL A   1      38.605  23.626  26.349  1.00  0.00     0.011 A 
ATOM     23  C   UNL A   1      37.406  22.045  24.973  1.00  0.00     0.050 A 
ATOM     24  C   UNL A   1      39.572  22.651  26.615  1.00  0.00     0.024 A 
ATOM     25  C   UNL A   1      38.342  21.058  25.296  1.00  0.00     0.142 A 
ATOM     26  C   UNL A   1      39.419  21.355  26.123  1.00  0.00     0.076 A 
ATOM     27  F   UNL A   1      38.126  19.801  24.873  1.00  0.00    -0.205 F 
ATOM     28  Cl  UNL A   1      40.530  20.132  26.601  1.00  0.00    -0.081 Cl
ENDBRANCH  20  21
ENDBRANCH  18  20
ENDBRANCH   4   7
ENDBRANCH   2   3
ENDBRANCH   1   2
BRANCH   1  29
ATOM     29  C   UNL A   1      31.768  29.197  26.153  1.00  0.00     0.023 C 
BRANCH  29  30
ATOM     30  C   UNL A   1      32.770  30.345  25.935  1.00  0.00     0.116 C 
BRANCH  30  31
ATOM     31  N   UNL A   1      32.616  31.522  26.784  1.00  0.00    -0.352 N 
ATOM     32  C   UNL A   1      33.556  32.153  27.580  1.00  0.00     0.251 C 
ATOM     33  H   UNL A   1      31.716  31.923  26.791  1.00  0.00     0.163 HD
ATOM     34  O   UNL A   1      33.290  33.200  28.160  1.00  0.00    -0.269 OA
BRANCH  32  35
ATOM     35  C   UNL A   1      34.865  31.501  27.796  1.00  0.00     0.039 A 
ATOM     36  C   UNL A   1      35.989  32.317  27.943  1.00  0.00     0.014 A 
ATOM     37  C   UNL A   1      34.947  30.127  28.023  1.00  0.00     0.014 A 
ATOM     38  C   UNL A   1      37.158  31.778  28.486  1.00  0.00     0.010 A 
ATOM     39  C   UNL A   1      36.083  29.614  28.647  1.00  0.00     0.010 A 
ATOM     40  C   UNL A   1      37.180  30.446  28.930  1.00  0.00    -0.014 A 
BRANCH  40  41
ATOM     41  C   UNL A   1      38.300  29.937  29.767  1.00  0.00     0.031 A 
ATOM     42  C   UNL A   1      38.480  30.429  31.173  1.00  0.00     0.074 A 
ATOM     43  C   UNL A   1      39.208  29.100  29.222  1.00  0.00     0.049 A 
ATOM     44  N   UNL A   1      39.442  30.172  32.022  1.00  0.00    -0.248 NA
ATOM     45  C   UNL A   1      37.458  31.356  31.687  1.00  0.00     0.031 C 
ATOM     46  C   UNL A   1      39.179  28.596  27.847  1.00  0.00     0.029 A 
ATOM     47  N   UNL A   1      40.346  28.537  29.750  1.00  0.00    -0.354 N 
ATOM     48  C   UNL A   1      39.152  30.917  33.157  1.00  0.00     0.074 A 
ATOM     49  C   UNL A   1      37.950  31.670  32.876  1.00  0.00     0.031 C 
ATOM     50  C   UNL A   1      40.233  27.790  27.645  1.00  0.00     0.029 A 
ATOM     51  C   UNL A   1      41.045  27.756  28.857  1.00  0.00     0.049 A 
ATOM     52  H   UNL A   1      40.636  28.679  30.680  1.00  0.00     0.167 HD
ATOM     53  C   UNL A   1      39.822  30.952  34.334  1.00  0.00     0.037 A 
ATOM     54  C   UNL A   1      42.218  27.104  28.991  1.00  0.00     0.037 A 
ATOM     55  C   UNL A   1      40.999  30.175  34.618  1.00  0.00     0.049 A 
ATOM     56  C   UNL A   1      42.946  27.174  30.308  1.00  0.00     0.074 A 
ATOM     57  C   UNL A   1      41.690  30.067  35.811  1.00  0.00     0.029 A 
ATOM     58  N   UNL A   1      41.667  29.385  33.695  1.00  0.00    -0.354 N 
ATOM     59  N   UNL A   1      42.602  27.797  31.410  1.00  0.00    -0.248 NA
ATOM     60  C   UNL A   1      44.225  26.456  30.404  1.00  0.00     0.031 C 
ATOM     61  C   UNL A   1      42.816  29.269  35.592  1.00  0.00     0.029 A 
ATOM     62  C   UNL A   1      42.792  28.826  34.279  1.00  0.00     0.049 A 
ATOM     63  H   UNL A   1      41.384  29.241  32.762  1.00  0.00     0.167 HD
ATOM     64  C   UNL A   1      43.608  27.531  32.329  1.00  0.00     0.074 A 
ATOM     65  C   UNL A   1      44.563  26.669  31.667  1.00  0.00     0.031 C 
ATOM     66  C   UNL A   1      43.732  27.968  33.606  1.00  0.00     0.037 A 
BRANCH  53  67
ATOM     67  C   UNL A   1      39.306  31.862  35.410  1.00  0.00     0.064 A 
ATOM     68  C   UNL A   1      38.459  31.400  36.427  1.00  0.00     0.173 A 
ATOM     69  C   UNL A   1      39.723  33.202  35.461  1.00  0.00     0.173 A 
ATOM     70  F   UNL A   1      38.023  30.131  36.419  1.00  0.00    -0.203 F 
ATOM     71  C   UNL A   1      38.031  32.250  37.444  1.00  0.00     0.198 A 
ATOM     72  C   UNL A   1      39.320  34.040  36.496  1.00  0.00     0.198 A 
ATOM     73  F   UNL A   1      40.539  33.692  34.515  1.00  0.00    -0.203 F 
ATOM     74  F   UNL A   1      37.188  31.797  38.383  1.00  0.00    -0.200 F 
ATOM     75  C   UNL A   1      38.469  33.565  37.483  1.00  0.00     0.200 A 
ATOM     76  F   UNL A   1      39.757  35.305  36.541  1.00  0.00    -0.200 F 
ATOM     77  F   UNL A   1      38.070  34.376  38.472  1.00  0.00    -0.200 F 
ENDBRANCH  53  67
BRANCH  54  78
ATOM     78  C   UNL A   1      42.797  26.349  27.845  1.00  0.00     0.064 A 
ATOM     79  C   UNL A   1      43.629  26.975  26.906  1.00  0.00     0.173 A 
ATOM     80  C   UNL A   1      42.501  24.992  27.642  1.00  0.00     0.173 A 
ATOM     81  F   UNL A   1      43.926  28.277  27.039  1.00  0.00    -0.203 F 
ATOM     82  C   UNL A   1      44.115  26.286  25.795  1.00  0.00     0.198 A 
ATOM     83  C   UNL A   1      43.016  24.294  26.552  1.00  0.00     0.198 A 
ATOM     84  F   UNL A   1      41.713  24.338  28.510  1.00  0.00    -0.203 F 
ATOM     85  F   UNL A   1      44.856  26.928  24.882  1.00  0.00    -0.200 F 
ATOM     86  C   UNL A   1      43.812  24.945  25.622  1.00  0.00     0.200 A 
ATOM     87  F   UNL A   1      42.734  22.993  26.398  1.00  0.00    -0.200 F 
ATOM     88  F   UNL A   1      44.277  24.282  24.555  1.00  0.00    -0.200 F 
ENDBRANCH  54  78
BRANCH  66  89
ATOM     89  C   UNL A   1      44.936  27.516  34.380  1.00  0.00     0.064 A 
ATOM     90  C   UNL A   1      44.936  26.311  35.098  1.00  0.00     0.173 A 
ATOM     91  C   UNL A   1      46.126  28.260  34.345  1.00  0.00     0.173 A 
ATOM     92  F   UNL A   1      43.818  25.572  35.175  1.00  0.00    -0.203 F 
ATOM     93  C   UNL A   1      46.078  25.874  35.762  1.00  0.00     0.198 A 
ATOM     94  C   UNL A   1      47.276  27.802  34.982  1.00  0.00     0.198 A 
ATOM     95  F   UNL A   1      46.182  29.416  33.667  1.00  0.00    -0.203 F 
ATOM     96  F   UNL A   1      46.043  24.738  36.472  1.00  0.00    -0.200 F 
ATOM     97  C   UNL A   1      47.250  26.612  35.693  1.00  0.00     0.200 A 
ATOM     98  F   UNL A   1      48.412  28.509  34.900  1.00  0.00    -0.200 F 
ATOM     99  F   UNL A   1      48.353  26.179  36.317  1.00  0.00    -0.200 F 
ENDBRANCH  66  89
ENDBRANCH  40  41
ENDBRANCH  32  35
ENDBRANCH  30  31
ENDBRANCH  29  30
ENDBRANCH   1  29
TORSDOF 13
ENDMDL
MODEL 2
REMARK VINA RESULT:     -13.3      4.951      8.530
REMARK SMILES CN1C(=O)C[C@H](C(=O)NCCCCNC(=O)c2ccc(-c3c4nc(c(-c5c(F)c(F)c(F)c(F)c5F)c5ccc([nH]5)c(-c5c(F)c(F)c(F)c(F)c5F)c5nc(c(-c6c(F)c(F)c(F)c(F)c6F)c6ccc3[nH]6)C=C5)C=C4)cc2)C12CC[NH+](Cc1ccc(Cl)c(F)c1)CC2
REMARK SMILES IDX 11 1 10 2 9 3 7 4 8 5 6 7 1 8 2 9 3 10 80 11 4 12 5 13 81 14
REMARK SMILES IDX 94 15 82 16 93 17 83 18 84 20 85 21 86 22 92 23 87 24 90 25
REMARK SMILES IDX 88 26 91 27 89 28 12 29 13 30 14 31 15 32 16 34 17 35 18 36
REMARK SMILES IDX 79 37 19 38 78 39 20 40 21 41 22 42 72 43 23 44 77 45 71 46
REMARK SMILES IDX 73 47 24 48 76 49 70 50 69 51 25 53 57 54 37 55 56 56 38 57
REMARK SMILES IDX 41 58 55 59 74 60 39 61 40 62 54 64 75 65 42 66 26 67 27 68
REMARK SMILES IDX 35 69 28 70 29 71 33 72 36 73 30 74 31 75 34 76 32 77 58 78
REMARK SMILES IDX 59 79 67 80 60 81 61 82 65 83 68 84 62 85 63 86 66 87 64 88
REMARK SMILES IDX 43 89 44 90 52 91 45 92 46 93 50 94 53 95 47 96 48 97 51 98
REMARK SMILES IDX 49 99
REMARK H PARENT 9 6 83 19 14 33 73 52 41 63
REMARK Flexibility Score: inf
ROOT
ATOM      1  C   UNL A   1      36.984  20.369  24.943  1.00  0.00     0.023 C 
ENDROOT
BRANCH   1   2
ATOM      2  C   UNL A   1      35.494  20.687  25.001  1.00  0.00     0.116 C 
BRANCH   2   3
ATOM      3  N   UNL A   1      35.009  22.054  24.777  1.00  0.00    -0.356 N 
ATOM      4  C   UNL A   1      33.996  22.549  25.587  1.00  0.00     0.226 C 
ATOM      5  O   UNL A   1      34.333  22.961  26.703  1.00  0.00    -0.275 OA
ATOM      6  H   UNL A   1      35.397  22.611  24.064  1.00  0.00     0.163 HD
BRANCH   4   7
ATOM      7  C   UNL A   1      32.525  22.820  25.097  1.00  0.00     0.114 C 
ATOM      8  C   UNL A   1      30.162  25.614  26.112  1.00  0.00     0.147 C 
ATOM      9  N   UNL A   1      30.868  24.376  25.818  1.00  0.00    -0.339 N 
ATOM     10  C   UNL A   1      30.651  23.248  26.573  1.00  0.00     0.223 C 
ATOM     11  C   UNL A   1      31.925  24.235  24.798  1.00  0.00     0.065 C 
ATOM     12  O   UNL A   1      29.824  23.128  27.470  1.00  0.00    -0.275 OA
ATOM     13  C   UNL A   1      31.586  22.172  26.129  1.00  0.00     0.116 C 
ATOM     14  C   UNL A   1      31.281  24.476  23.371  1.00  0.00     0.091 C 
ATOM     15  C   UNL A   1      32.974  25.290  24.957  1.00  0.00     0.091 C 
ATOM     16  C   UNL A   1      32.104  25.240  22.270  1.00  0.00     0.265 C 
ATOM     17  C   UNL A   1      33.950  25.220  23.773  1.00  0.00     0.265 C 
ATOM     18  N   UNL A   1      33.373  25.856  22.629  1.00  0.00    -0.331 N 
ATOM     19  H   UNL A   1      33.876  25.662  21.762  1.00  0.00     0.348 HD
BRANCH  18  20
ATOM     20  C   UNL A   1      33.603  27.315  22.607  1.00  0.00     0.299 C 
BRANCH  20  21
ATOM     21  C   UNL A   1      32.948  28.154  23.697  1.00  0.00     0.009 A 
ATOM     22  C   UNL A   1      33.733  28.626  24.754  1.00  0.00     0.011 A 
ATOM     23  C   UNL A   1      31.602  28.582  23.621  1.00  0.00     0.050 A 
ATOM     24  C   UNL A   1      33.229  29.574  25.651  1.00  0.00     0.024 A 
ATOM     25  C   UNL A   1      31.127  29.576  24.480  1.00  0.00     0.142 A 
ATOM     26  C   UNL A   1      31.940  30.080  25.488  1.00  0.00     0.076 A 
ATOM     27  F   UNL A   1      29.911  30.100  24.251  1.00  0.00    -0.205 F 
ATOM     28  Cl  UNL A   1      31.403  31.365  26.498  1.00  0.00    -0.081 Cl
ENDBRANCH  20  21
ENDBRANCH  18  20
ENDBRANCH   4   7
ENDBRANCH   2   3
ENDBRANCH   1   2
BRANCH   1  29
ATOM     29  C   UNL A   1      37.859  21.572  25.376  1.00  0.00     0.023 C 
BRANCH  29  30
ATOM     30  C   UNL A   1      39.180  21.316  26.123  1.00  0.00     0.116 C 
BRANCH  30  31
ATOM     31  N   UNL A   1      39.831  20.032  25.885  1.00  0.00    -0.352 N 
ATOM     32  C   UNL A   1      41.151  19.671  26.095  1.00  0.00     0.251 C 
ATOM     33  H   UNL A   1      39.250  19.323  25.526  1.00  0.00     0.163 HD
ATOM     34  O   UNL A   1      41.520  18.513  25.937  1.00  0.00    -0.269 OA
BRANCH  32  35
ATOM     35  C   UNL A   1      42.137  20.722  26.429  1.00  0.00     0.039 A 
ATOM     36  C   UNL A   1      42.698  21.452  25.379  1.00  0.00     0.014 A 
ATOM     37  C   UNL A   1      42.362  21.091  27.755  1.00  0.00     0.014 A 
ATOM     38  C   UNL A   1      43.348  22.657  25.656  1.00  0.00     0.010 A 
ATOM     39  C   UNL A   1      42.930  22.335  28.020  1.00  0.00     0.010 A 
ATOM     40  C   UNL A   1      43.384  23.152  26.970  1.00  0.00    -0.014 A 
BRANCH  40  41
ATOM     41  C   UNL A   1      43.806  24.552  27.248  1.00  0.00     0.031 A 
ATOM     42  C   UNL A   1      42.805  25.566  27.721  1.00  0.00     0.074 A 
ATOM     43  C   UNL A   1      45.075  24.927  26.984  1.00  0.00     0.049 A 
ATOM     44  N   UNL A   1      42.963  26.848  27.928  1.00  0.00    -0.248 NA
ATOM     45  C   UNL A   1      41.437  25.081  27.967  1.00  0.00     0.031 C 
ATOM     46  C   UNL A   1      46.127  24.050  26.463  1.00  0.00     0.029 A 
ATOM     47  N   UNL A   1      45.697  26.148  27.096  1.00  0.00    -0.354 N 
ATOM     48  C   UNL A   1      41.716  27.325  28.309  1.00  0.00     0.074 A 
ATOM     49  C   UNL A   1      40.801  26.206  28.262  1.00  0.00     0.031 C 
ATOM     50  C   UNL A   1      47.262  24.753  26.319  1.00  0.00     0.029 A 
ATOM     51  C   UNL A   1      47.011  26.143  26.686  1.00  0.00     0.049 A 
ATOM     52  H   UNL A   1      45.244  26.953  27.438  1.00  0.00     0.167 HD
ATOM     53  C   UNL A   1      41.373  28.580  28.682  1.00  0.00     0.037 A 
ATOM     54  C   UNL A   1      47.906  27.147  26.594  1.00  0.00     0.037 A 
ATOM     55  C   UNL A   1      42.296  29.682  28.757  1.00  0.00     0.049 A 
ATOM     56  C   UNL A   1      47.490  28.536  27.003  1.00  0.00     0.074 A 
ATOM     57  C   UNL A   1      42.066  30.966  29.218  1.00  0.00     0.029 A 
ATOM     58  N   UNL A   1      43.621  29.633  28.349  1.00  0.00    -0.354 N 
ATOM     59  N   UNL A   1      46.334  28.950  27.465  1.00  0.00    -0.248 NA
ATOM     60  C   UNL A   1      48.497  29.600  26.877  1.00  0.00     0.031 C 
ATOM     61  C   UNL A   1      43.230  31.714  29.022  1.00  0.00     0.029 A 
ATOM     62  C   UNL A   1      44.206  30.880  28.501  1.00  0.00     0.049 A 
ATOM     63  H   UNL A   1      44.078  28.832  28.003  1.00  0.00     0.167 HD
ATOM     64  C   UNL A   1      46.482  30.310  27.700  1.00  0.00     0.074 A 
ATOM     65  C   UNL A   1      47.846  30.650  27.356  1.00  0.00     0.031 C 
ATOM     66  C   UNL A   1      45.567  31.200  28.154  1.00  0.00     0.037 A 
BRANCH  53  67
ATOM     67  C   UNL A   1      39.939  28.843  29.035  1.00  0.00     0.064 A 
ATOM     68  C   UNL A   1      38.996  29.222  28.070  1.00  0.00     0.173 A 
ATOM     69  C   UNL A   1      39.489  28.646  30.351  1.00  0.00     0.173 A 
ATOM     70  F   UNL A   1      39.375  29.433  26.800  1.00  0.00    -0.203 F 
ATOM     71  C   UNL A   1      37.659  29.413  28.411  1.00  0.00     0.198 A 
ATOM     72  C   UNL A   1      38.147  28.807  30.682  1.00  0.00     0.198 A 
ATOM     73  F   UNL A   1      40.350  28.277  31.312  1.00  0.00    -0.203 F 
ATOM     74  F   UNL A   1      36.782  29.815  27.479  1.00  0.00    -0.200 F 
ATOM     75  C   UNL A   1      37.234  29.196  29.712  1.00  0.00     0.200 A 
ATOM     76  F   UNL A   1      37.736  28.581  31.936  1.00  0.00    -0.200 F 
ATOM     77  F   UNL A   1      35.945  29.364  30.035  1.00  0.00    -0.200 F 
ENDBRANCH  53  67
BRANCH  54  78
ATOM     78  C   UNL A   1      49.277  26.890  26.071  1.00  0.00     0.064 A 
ATOM     79  C   UNL A   1      49.580  27.051  24.711  1.00  0.00     0.173 A 
ATOM     80  C   UNL A   1      50.307  26.442  26.913  1.00  0.00     0.173 A 
ATOM     81  F   UNL A   1      48.627  27.455  23.857  1.00  0.00    -0.203 F 
ATOM     82  C   UNL A   1      50.844  26.744  24.210  1.00  0.00     0.198 A 
ATOM     83  C   UNL A   1      51.581  26.170  26.418  1.00  0.00     0.198 A 
ATOM     84  F   UNL A   1      50.078  26.273  28.225  1.00  0.00    -0.203 F 
ATOM     85  F   UNL A   1      51.085  26.848  22.896  1.00  0.00    -0.200 F 
ATOM     86  C   UNL A   1      51.845  26.309  25.065  1.00  0.00     0.200 A 
ATOM     87  F   UNL A   1      52.549  25.767  27.251  1.00  0.00    -0.200 F 
ATOM     88  F   UNL A   1      53.060  26.013  24.583  1.00  0.00    -0.200 F 
ENDBRANCH  54  78
BRANCH  66  89
ATOM     89  C   UNL A   1      46.006  32.626  28.317  1.00  0.00     0.064 A 
ATOM     90  C   UNL A   1      46.616  33.074  29.499  1.00  0.00     0.173 A 
ATOM     91  C   UNL A   1      45.883  33.536  27.256  1.00  0.00     0.173 A 
ATOM     92  F   UNL A   1      46.742  32.247  30.548  1.00  0.00    -0.203 F 
ATOM     93  C   UNL A   1      47.074  34.383  29.615  1.00  0.00     0.198 A 
ATOM     94  C   UNL A   1      46.372  34.834  27.364  1.00  0.00     0.198 A 
ATOM     95  F   UNL A   1      45.314  33.156  26.102  1.00  0.00    -0.203 F 
ATOM     96  F   UNL A   1      47.619  34.799  30.766  1.00  0.00    -0.200 F 
ATOM     97  C   UNL A   1      46.963  35.258  28.545  1.00  0.00     0.200 A 
ATOM     98  F   UNL A   1      46.280  35.672  26.323  1.00  0.00    -0.200 F 
ATOM     99  F   UNL A   1      47.422  36.512  28.653  1.00  0.00    -0.200 F 
ENDBRANCH  66  89
ENDBRANCH  40  41
ENDBRANCH  32  35
ENDBRANCH  30  31
ENDBRANCH  29  30
ENDBRANCH   1  29
TORSDOF 13
ENDMDL
MODEL 3
REMARK VINA RESULT:     -13.3      4.925      8.489
REMARK SMILES CN1C(=O)C[C@H](C(=O)NCCCCNC(=O)c2ccc(-c3c4nc(c(-c5c(F)c(F)c(F)c(F)c5F)c5ccc([nH]5)c(-c5c(F)c(F)c(F)c(F)c5F)c5nc(c(-c6c(F)c(F)c(F)c(F)c6F)c6ccc3[nH]6)C=C5)C=C4)cc2)C12CC[NH+](Cc1ccc(Cl)c(F)c1)CC2
REMARK SMILES IDX 11 1 10 2 9 3 7 4 8 5 6 7 1 8 2 9 3 10 80 11 4 12 5 13 81 14
REMARK SMILES IDX 94 15 82 16 93 17 83 18 84 20 85 21 86 22 92 23 87 24 90 25
REMARK SMILES IDX 88 26 91 27 89 28 12 29 13 30 14 31 15 32 16 34 17 35 18 36
REMARK SMILES IDX 79 37 19 38 78 39 20 40 21 41 22 42 72 43 23 44 77 45 71 46
REMARK SMILES IDX 73 47 24 48 76 49 70 50 69 51 25 53 57 54 37 55 56 56 38 57
REMARK SMILES IDX 41 58 55 59 74 60 39 61 40 62 54 64 75 65 42 66 26 67 27 68
REMARK SMILES IDX 35 69 28 70 29 71 33 72 36 73 30 74 31 75 34 76 32 77 58 78
REMARK SMILES IDX 59 79 67 80 60 81 61 82 65 83 68 84 62 85 63 86 66 87 64 88
REMARK SMILES IDX 43 89 44 90 52 91 45 92 46 93 50 94 53 95 47 96 48 97 51 98
REMARK SMILES IDX 49 99
REMARK H PARENT 9 6 83 19 14 33 73 52 41 63
REMARK Flexibility Score: inf
ROOT
ATOM      1  C   UNL A   1      36.951  20.306  24.917  1.00  0.00     0.023 C 
ENDROOT
BRANCH   1   2
ATOM      2  C   UNL A   1      35.466  20.646  25.001  1.00  0.00     0.116 C 
BRANCH   2   3
ATOM      3  N   UNL A   1      34.996  22.015  24.767  1.00  0.00    -0.356 N 
ATOM      4  C   UNL A   1      33.992  22.529  25.577  1.00  0.00     0.226 C 
ATOM      5  O   UNL A   1      34.339  22.947  26.688  1.00  0.00    -0.275 OA
ATOM      6  H   UNL A   1      35.386  22.562  24.047  1.00  0.00     0.163 HD
BRANCH   4   7
ATOM      7  C   UNL A   1      32.522  22.811  25.091  1.00  0.00     0.114 C 
ATOM      8  C   UNL A   1      30.178  25.614  26.126  1.00  0.00     0.147 C 
ATOM      9  N   UNL A   1      30.876  24.374  25.824  1.00  0.00    -0.339 N 
ATOM     10  C   UNL A   1      30.653  23.244  26.574  1.00  0.00     0.223 C 
ATOM     11  C   UNL A   1      31.930  24.231  24.801  1.00  0.00     0.065 C 
ATOM     12  O   UNL A   1      29.827  23.124  27.471  1.00  0.00    -0.275 OA
ATOM     13  C   UNL A   1      31.581  22.164  26.123  1.00  0.00     0.116 C 
ATOM     14  C   UNL A   1      31.285  24.484  23.377  1.00  0.00     0.091 C 
ATOM     15  C   UNL A   1      32.985  25.279  24.963  1.00  0.00     0.091 C 
ATOM     16  C   UNL A   1      32.110  25.248  22.277  1.00  0.00     0.265 C 
ATOM     17  C   UNL A   1      33.959  25.209  23.777  1.00  0.00     0.265 C 
ATOM     18  N   UNL A   1      33.383  25.854  22.637  1.00  0.00    -0.331 N 
ATOM     19  H   UNL A   1      33.883  25.662  21.768  1.00  0.00     0.348 HD
BRANCH  18  20
ATOM     20  C   UNL A   1      33.622  27.312  22.622  1.00  0.00     0.299 C 
BRANCH  20  21
ATOM     21  C   UNL A   1      32.963  28.151  23.709  1.00  0.00     0.009 A 
ATOM     22  C   UNL A   1      33.743  28.626  24.768  1.00  0.00     0.011 A 
ATOM     23  C   UNL A   1      31.616  28.577  23.628  1.00  0.00     0.050 A 
ATOM     24  C   UNL A   1      33.235  29.574  25.662  1.00  0.00     0.024 A 
ATOM     25  C   UNL A   1      31.136  29.571  24.484  1.00  0.00     0.142 A 
ATOM     26  C   UNL A   1      31.946  30.078  25.494  1.00  0.00     0.076 A 
ATOM     27  F   UNL A   1      29.920  30.093  24.251  1.00  0.00    -0.205 F 
ATOM     28  Cl  UNL A   1      31.403  31.364  26.501  1.00  0.00    -0.081 Cl
ENDBRANCH  20  21
ENDBRANCH  18  20
ENDBRANCH   4   7
ENDBRANCH   2   3
ENDBRANCH   1   2
BRANCH   1  29
ATOM     29  C   UNL A   1      37.850  21.490  25.348  1.00  0.00     0.023 C 
BRANCH  29  30
ATOM     30  C   UNL A   1      39.149  21.210  26.126  1.00  0.00     0.116 C 
BRANCH  30  31
ATOM     31  N   UNL A   1      39.817  19.943  25.853  1.00  0.00    -0.352 N 
ATOM     32  C   UNL A   1      41.143  19.595  26.051  1.00  0.00     0.251 C 
ATOM     33  H   UNL A   1      39.246  19.235  25.475  1.00  0.00     0.163 HD
ATOM     34  O   UNL A   1      41.528  18.447  25.861  1.00  0.00    -0.269 OA
BRANCH  32  35
ATOM     35  C   UNL A   1      42.114  20.650  26.410  1.00  0.00     0.039 A 
ATOM     36  C   UNL A   1      42.706  21.378  25.376  1.00  0.00     0.014 A 
ATOM     37  C   UNL A   1      42.296  21.026  27.741  1.00  0.00     0.014 A 
ATOM     38  C   UNL A   1      43.342  22.586  25.668  1.00  0.00     0.010 A 
ATOM     39  C   UNL A   1      42.852  22.273  28.019  1.00  0.00     0.010 A 
ATOM     40  C   UNL A   1      43.336  23.087  26.980  1.00  0.00    -0.014 A 
BRANCH  40  41
ATOM     41  C   UNL A   1      43.744  24.489  27.266  1.00  0.00     0.031 A 
ATOM     42  C   UNL A   1      42.735  25.490  27.747  1.00  0.00     0.074 A 
ATOM     43  C   UNL A   1      45.009  24.879  27.000  1.00  0.00     0.049 A 
ATOM     44  N   UNL A   1      42.881  26.772  27.962  1.00  0.00    -0.248 NA
ATOM     45  C   UNL A   1      41.372  24.990  27.994  1.00  0.00     0.031 C 
ATOM     46  C   UNL A   1      46.069  24.016  26.471  1.00  0.00     0.029 A 
ATOM     47  N   UNL A   1      45.619  26.106  27.118  1.00  0.00    -0.354 N 
ATOM     48  C   UNL A   1      41.630  27.234  28.349  1.00  0.00     0.074 A 
ATOM     49  C   UNL A   1      40.726  26.106  28.298  1.00  0.00     0.031 C 
ATOM     50  C   UNL A   1      47.196  24.731  26.328  1.00  0.00     0.029 A 
ATOM     51  C   UNL A   1      46.931  26.116  26.704  1.00  0.00     0.049 A 
ATOM     52  H   UNL A   1      45.159  26.904  27.466  1.00  0.00     0.167 HD
ATOM     53  C   UNL A   1      41.276  28.484  28.731  1.00  0.00     0.037 A 
ATOM     54  C   UNL A   1      47.816  27.129  26.615  1.00  0.00     0.037 A 
ATOM     55  C   UNL A   1      42.188  29.594  28.810  1.00  0.00     0.049 A 
ATOM     56  C   UNL A   1      47.388  28.512  27.034  1.00  0.00     0.074 A 
ATOM     57  C   UNL A   1      41.946  30.873  29.280  1.00  0.00     0.029 A 
ATOM     58  N   UNL A   1      43.511  29.562  28.398  1.00  0.00    -0.354 N 
ATOM     59  N   UNL A   1      46.229  28.911  27.501  1.00  0.00    -0.248 NA
ATOM     60  C   UNL A   1      48.383  29.586  26.911  1.00  0.00     0.031 C 
ATOM     61  C   UNL A   1      43.102  31.634  29.085  1.00  0.00     0.029 A 
ATOM     62  C   UNL A   1      44.084  30.813  28.555  1.00  0.00     0.049 A 
ATOM     63  H   UNL A   1      43.976  28.767  28.046  1.00  0.00     0.167 HD
ATOM     64  C   UNL A   1      46.364  30.272  27.745  1.00  0.00     0.074 A 
ATOM     65  C   UNL A   1      47.723  30.627  27.398  1.00  0.00     0.031 C 
ATOM     66  C   UNL A   1      45.441  31.149  28.206  1.00  0.00     0.037 A 
BRANCH  53  67
ATOM     67  C   UNL A   1      39.840  28.730  29.090  1.00  0.00     0.064 A 
ATOM     68  C   UNL A   1      39.371  28.593  30.404  1.00  0.00     0.173 A 
ATOM     69  C   UNL A   1      38.934  29.175  28.114  1.00  0.00     0.173 A 
ATOM     70  F   UNL A   1      40.194  28.161  31.373  1.00  0.00    -0.203 F 
ATOM     71  C   UNL A   1      38.045  28.873  30.725  1.00  0.00     0.198 A 
ATOM     72  C   UNL A   1      37.618  29.485  28.444  1.00  0.00     0.198 A 
ATOM     73  F   UNL A   1      39.333  29.328  26.842  1.00  0.00    -0.203 F 
ATOM     74  F   UNL A   1      37.610  28.697  31.981  1.00  0.00    -0.200 F 
ATOM     75  C   UNL A   1      37.173  29.328  29.748  1.00  0.00     0.200 A 
ATOM     76  F   UNL A   1      36.782  29.939  27.501  1.00  0.00    -0.200 F 
ATOM     77  F   UNL A   1      35.903  29.614  30.062  1.00  0.00    -0.200 F 
ENDBRANCH  53  67
BRANCH  54  78
ATOM     78  C   UNL A   1      49.188  26.890  26.087  1.00  0.00     0.064 A 
ATOM     79  C   UNL A   1      49.484  27.057  24.726  1.00  0.00     0.173 A 
ATOM     80  C   UNL A   1      50.226  26.452  26.924  1.00  0.00     0.173 A 
ATOM     81  F   UNL A   1      48.524  27.452  23.877  1.00  0.00    -0.203 F 
ATOM     82  C   UNL A   1      50.750  26.766  24.219  1.00  0.00     0.198 A 
ATOM     83  C   UNL A   1      51.501  26.196  26.424  1.00  0.00     0.198 A 
ATOM     84  F   UNL A   1      50.004  26.277  28.236  1.00  0.00    -0.203 F 
ATOM     85  F   UNL A   1      50.985  26.876  22.905  1.00  0.00    -0.200 F 
ATOM     86  C   UNL A   1      51.759  26.341  25.070  1.00  0.00     0.200 A 
ATOM     87  F   UNL A   1      52.477  25.801  27.252  1.00  0.00    -0.200 F 
ATOM     88  F   UNL A   1      52.975  26.060  24.583  1.00  0.00    -0.200 F 
ENDBRANCH  54  78
BRANCH  66  89
ATOM     89  C   UNL A   1      45.866  32.578  28.377  1.00  0.00     0.064 A 
ATOM     90  C   UNL A   1      45.675  33.527  27.361  1.00  0.00     0.173 A 
ATOM     91  C   UNL A   1      46.405  33.021  29.596  1.00  0.00     0.173 A 
ATOM     92  F   UNL A   1      45.180  33.151  26.172  1.00  0.00    -0.203 F 
ATOM     93  C   UNL A   1      46.019  34.861  27.555  1.00  0.00     0.198 A 
ATOM     94  C   UNL A   1      46.715  34.363  29.797  1.00  0.00     0.198 A 
ATOM     95  F   UNL A   1      46.600  32.156  30.603  1.00  0.00    -0.203 F 
ATOM     96  F   UNL A   1      45.863  35.741  26.557  1.00  0.00    -0.200 F 
ATOM     97  C   UNL A   1      46.527  35.281  28.775  1.00  0.00     0.200 A 
ATOM     98  F   UNL A   1      47.190  34.768  30.983  1.00  0.00    -0.200 F 
ATOM     99  F   UNL A   1      46.838  36.569  28.965  1.00  0.00    -0.200 F 
ENDBRANCH  66  89
ENDBRANCH  40  41
ENDBRANCH  32  35
ENDBRANCH  30  31
ENDBRANCH  29  30
ENDBRANCH   1  29
TORSDOF 13
ENDMDL
