MODEL 1
REMARK VINA RESULT:     -14.9      0.000      0.000
REMARK SMILES Cc1ccc(-c2cnnc(-n3nc(C)c4c3NC(=O)C[C@@H]4c3ccc(C(=O)NCCCCNC(=O)c4ccc(-c5c6nc(c(-c7c(F)c(F)c(F)c(F)c7F)c7ccc([nH]7)c(-c7c(F)c(F)c(F)c(F)c7F)c7nc(c(-c8c(F)c(F)c(F)c(F)c8F)c8ccc5[nH]8)C=C7)C=C6)cc4)cc3)n2)cc1
REMARK SMILES IDX 30 1 29 2 28 3 26 4 27 5 25 7 22 8 23 9 100 10 24 11 99 12
REMARK SMILES IDX 21 13 11 14 12 15 16 16 13 17 15 18 17 19 14 20 18 21 20 23
REMARK SMILES IDX 19 24 10 25 6 26 7 27 101 28 8 29 9 30 5 31 1 32 2 33 3 34
REMARK SMILES IDX 103 35 4 36 102 37 31 38 32 39 33 40 34 41 35 43 36 44 37 45
REMARK SMILES IDX 98 46 38 47 97 48 39 49 40 50 41 51 91 52 42 53 96 54 90 55
REMARK SMILES IDX 92 56 43 57 95 58 89 59 88 60 44 62 76 63 56 64 75 65 57 66
REMARK SMILES IDX 60 67 74 68 93 69 58 70 59 71 73 73 94 74 61 75 45 76 46 77
REMARK SMILES IDX 54 78 47 79 48 80 52 81 55 82 49 83 50 84 53 85 51 86 77 87
REMARK SMILES IDX 78 88 86 89 79 90 80 91 84 92 87 93 81 94 82 95 85 96 83 97
REMARK SMILES IDX 62 98 63 99 71 100 64 101 65 102 69 103 72 104 66 105 67 106
REMARK SMILES IDX 70 107 68 108
REMARK H PARENT 28 6 17 22 33 42 92 61 60 72
REMARK Flexibility Score: inf
ROOT
ATOM      1  C   UNL A   1      36.455  20.491  24.765  1.00  0.00     0.023 C 
ENDROOT
BRANCH   1   2
ATOM      2  C   UNL A   1      36.698  18.977  24.629  1.00  0.00     0.116 C 
BRANCH   2   3
ATOM      3  N   UNL A   1      35.544  18.166  25.004  1.00  0.00    -0.352 N 
ATOM      4  C   UNL A   1      34.194  18.440  24.995  1.00  0.00     0.251 C 
ATOM      5  O   UNL A   1      33.393  17.522  25.154  1.00  0.00    -0.269 OA
ATOM      6  H   UNL A   1      35.770  17.261  25.320  1.00  0.00     0.163 HD
BRANCH   4   7
ATOM      7  C   UNL A   1      33.685  19.806  24.737  1.00  0.00     0.039 A 
ATOM      8  C   UNL A   1      32.371  22.263  24.383  1.00  0.00    -0.040 A 
ATOM      9  C   UNL A   1      33.021  21.965  25.596  1.00  0.00     0.005 A 
ATOM     10  C   UNL A   1      32.580  21.402  23.302  1.00  0.00     0.005 A 
ATOM     11  C   UNL A   1      33.681  20.745  25.770  1.00  0.00     0.014 A 
ATOM     12  C   UNL A   1      33.221  20.186  23.483  1.00  0.00     0.014 A 
BRANCH   8  13
ATOM     13  C   UNL A   1      31.456  23.467  24.330  1.00  0.00     0.064 C 
ATOM     14  N   UNL A   1      32.602  26.656  25.605  1.00  0.00    -0.180 N 
ATOM     15  N   UNL A   1      33.695  26.435  24.824  1.00  0.00    -0.168 NA
ATOM     16  C   UNL A   1      31.966  25.444  25.825  1.00  0.00     0.143 A 
ATOM     17  C   UNL A   1      33.404  25.312  24.161  1.00  0.00     0.066 A 
ATOM     18  C   UNL A   1      32.222  24.705  24.682  1.00  0.00     0.026 A 
ATOM     19  N   UNL A   1      31.253  24.892  26.872  1.00  0.00    -0.310 N 
ATOM     20  C   UNL A   1      34.389  24.833  23.159  1.00  0.00     0.069 C 
ATOM     21  C   UNL A   1      30.602  23.625  26.659  1.00  0.00     0.226 C 
ATOM     22  H   UNL A   1      31.193  25.351  27.741  1.00  0.00     0.171 HD
ATOM     23  C   UNL A   1      30.228  23.319  25.228  1.00  0.00     0.113 C 
ATOM     24  O   UNL A   1      30.321  22.960  27.626  1.00  0.00    -0.275 OA
BRANCH  14  25
ATOM     25  C   UNL A   1      32.034  27.963  25.688  1.00  0.00     0.272 A 
ATOM     26  C   UNL A   1      31.043  29.825  24.816  1.00  0.00     0.095 A 
ATOM     27  C   UNL A   1      31.404  30.535  25.949  1.00  0.00     0.164 A 
ATOM     28  N   UNL A   1      31.404  28.521  24.630  1.00  0.00    -0.208 NA
ATOM     29  N   UNL A   1      32.061  29.945  26.953  1.00  0.00    -0.153 NA
ATOM     30  N   UNL A   1      32.337  28.631  26.833  1.00  0.00    -0.109 NA
BRANCH  26  31
ATOM     31  C   UNL A   1      30.144  30.429  23.826  1.00  0.00     0.002 A 
ATOM     32  C   UNL A   1      27.653  32.389  20.874  1.00  0.00     0.044 C 
ATOM     33  C   UNL A   1      28.535  31.728  21.893  1.00  0.00    -0.051 A 
ATOM     34  C   UNL A   1      29.200  30.538  21.579  1.00  0.00     0.004 A 
ATOM     35  C   UNL A   1      28.690  32.275  23.169  1.00  0.00     0.004 A 
ATOM     36  C   UNL A   1      29.996  29.897  22.533  1.00  0.00     0.011 A 
ATOM     37  C   UNL A   1      29.481  31.629  24.123  1.00  0.00     0.011 A 
ENDBRANCH  26  31
ENDBRANCH  14  25
ENDBRANCH   8  13
ENDBRANCH   4   7
ENDBRANCH   2   3
ENDBRANCH   1   2
BRANCH   1  38
ATOM     38  C   UNL A   1      37.237  21.181  25.880  1.00  0.00     0.023 C 
BRANCH  38  39
ATOM     39  C   UNL A   1      38.297  22.143  25.384  1.00  0.00     0.116 C 
BRANCH  39  40
ATOM     40  N   UNL A   1      39.567  22.081  26.095  1.00  0.00    -0.352 N 
ATOM     41  C   UNL A   1      40.363  23.116  26.559  1.00  0.00     0.251 C 
ATOM     42  H   UNL A   1      39.909  21.175  26.269  1.00  0.00     0.163 HD
ATOM     43  O   UNL A   1      41.507  22.882  26.938  1.00  0.00    -0.269 OA
BRANCH  41  44
ATOM     44  C   UNL A   1      39.771  24.458  26.798  1.00  0.00     0.039 A 
ATOM     45  C   UNL A   1      40.364  25.531  26.116  1.00  0.00     0.014 A 
ATOM     46  C   UNL A   1      38.980  24.693  27.912  1.00  0.00     0.014 A 
ATOM     47  C   UNL A   1      40.450  26.764  26.744  1.00  0.00     0.010 A 
ATOM     48  C   UNL A   1      39.202  25.843  28.616  1.00  0.00     0.010 A 
ATOM     49  C   UNL A   1      39.992  26.844  28.051  1.00  0.00    -0.014 A 
BRANCH  49  50
ATOM     50  C   UNL A   1      40.217  27.962  28.933  1.00  0.00     0.031 A 
ATOM     51  C   UNL A   1      39.232  29.048  28.866  1.00  0.00     0.074 A 
ATOM     52  C   UNL A   1      41.171  27.822  29.877  1.00  0.00     0.049 A 
ATOM     53  N   UNL A   1      39.436  30.248  29.262  1.00  0.00    -0.248 NA
ATOM     54  C   UNL A   1      37.912  28.856  28.271  1.00  0.00     0.031 C 
ATOM     55  C   UNL A   1      41.419  28.627  31.065  1.00  0.00     0.029 A 
ATOM     56  N   UNL A   1      42.268  26.944  29.824  1.00  0.00    -0.354 N 
ATOM     57  C   UNL A   1      38.213  30.888  29.276  1.00  0.00     0.074 A 
ATOM     58  C   UNL A   1      37.331  30.028  28.533  1.00  0.00     0.031 C 
ATOM     59  C   UNL A   1      42.704  28.461  31.436  1.00  0.00     0.029 A 
ATOM     60  C   UNL A   1      43.342  27.651  30.408  1.00  0.00     0.049 A 
ATOM     61  H   UNL A   1      42.285  26.030  29.458  1.00  0.00     0.167 HD
ATOM     62  C   UNL A   1      38.079  31.983  30.080  1.00  0.00     0.037 A 
ATOM     63  C   UNL A   1      44.374  28.068  29.614  1.00  0.00     0.037 A 
ATOM     64  C   UNL A   1      39.384  32.301  30.667  1.00  0.00     0.049 A 
ATOM     65  C   UNL A   1      44.418  29.575  29.512  1.00  0.00     0.074 A 
ATOM     66  C   UNL A   1      39.955  31.944  31.879  1.00  0.00     0.029 A 
ATOM     67  N   UNL A   1      40.434  32.683  29.833  1.00  0.00    -0.354 N 
ATOM     68  N   UNL A   1      43.369  30.345  29.637  1.00  0.00    -0.248 NA
ATOM     69  C   UNL A   1      45.656  30.325  29.334  1.00  0.00     0.031 C 
ATOM     70  C   UNL A   1      41.366  32.003  31.725  1.00  0.00     0.029 A 
ATOM     71  C   UNL A   1      41.652  32.425  30.436  1.00  0.00     0.049 A 
ATOM     72  H   UNL A   1      40.322  33.081  28.940  1.00  0.00     0.167 HD
ATOM     73  C   UNL A   1      43.766  31.655  29.601  1.00  0.00     0.074 A 
ATOM     74  C   UNL A   1      45.206  31.588  29.407  1.00  0.00     0.031 C 
ATOM     75  C   UNL A   1      42.905  32.705  29.750  1.00  0.00     0.037 A 
BRANCH  62  76
ATOM     76  C   UNL A   1      36.768  32.547  30.595  1.00  0.00     0.064 A 
ATOM     77  C   UNL A   1      36.040  33.463  29.801  1.00  0.00     0.173 A 
ATOM     78  C   UNL A   1      36.197  32.303  31.860  1.00  0.00     0.173 A 
ATOM     79  F   UNL A   1      36.406  33.741  28.542  1.00  0.00    -0.203 F 
ATOM     80  C   UNL A   1      34.903  34.136  30.265  1.00  0.00     0.198 A 
ATOM     81  C   UNL A   1      35.078  32.998  32.337  1.00  0.00     0.198 A 
ATOM     82  F   UNL A   1      36.658  31.354  32.676  1.00  0.00    -0.203 F 
ATOM     83  F   UNL A   1      34.274  35.006  29.463  1.00  0.00    -0.200 F 
ATOM     84  C   UNL A   1      34.435  33.921  31.543  1.00  0.00     0.200 A 
ATOM     85  F   UNL A   1      34.628  32.756  33.578  1.00  0.00    -0.200 F 
ATOM     86  F   UNL A   1      33.362  34.580  31.997  1.00  0.00    -0.200 F 
ENDBRANCH  62  76
BRANCH  63  87
ATOM     87  C   UNL A   1      44.666  27.091  28.519  1.00  0.00     0.064 A 
ATOM     88  C   UNL A   1      44.266  27.458  27.215  1.00  0.00     0.173 A 
ATOM     89  C   UNL A   1      45.663  26.114  28.631  1.00  0.00     0.173 A 
ATOM     90  F   UNL A   1      43.299  28.375  27.045  1.00  0.00    -0.203 F 
ATOM     91  C   UNL A   1      44.961  27.017  26.090  1.00  0.00     0.198 A 
ATOM     92  C   UNL A   1      46.325  25.638  27.493  1.00  0.00     0.198 A 
ATOM     93  F   UNL A   1      46.085  25.708  29.836  1.00  0.00    -0.203 F 
ATOM     94  F   UNL A   1      44.671  27.531  24.885  1.00  0.00    -0.200 F 
ATOM     95  C   UNL A   1      46.012  26.133  26.234  1.00  0.00     0.200 A 
ATOM     96  F   UNL A   1      47.342  24.774  27.627  1.00  0.00    -0.200 F 
ATOM     97  F   UNL A   1      46.749  25.792  25.167  1.00  0.00    -0.200 F 
ENDBRANCH  63  87
BRANCH  75  98
ATOM     98  C   UNL A   1      43.232  34.129  29.373  1.00  0.00     0.064 A 
ATOM     99  C   UNL A   1      43.380  35.160  30.314  1.00  0.00     0.173 A 
ATOM    100  C   UNL A   1      43.554  34.471  28.038  1.00  0.00     0.173 A 
ATOM    101  F   UNL A   1      43.267  34.930  31.629  1.00  0.00    -0.203 F 
ATOM    102  C   UNL A   1      43.708  36.463  29.936  1.00  0.00     0.198 A 
ATOM    103  C   UNL A   1      43.961  35.753  27.677  1.00  0.00     0.198 A 
ATOM    104  F   UNL A   1      43.514  33.568  27.047  1.00  0.00    -0.203 F 
ATOM    105  F   UNL A   1      43.756  37.428  30.865  1.00  0.00    -0.200 F 
ATOM    106  C   UNL A   1      44.006  36.757  28.620  1.00  0.00     0.200 A 
ATOM    107  F   UNL A   1      44.325  36.002  26.411  1.00  0.00    -0.200 F 
ATOM    108  F   UNL A   1      44.359  37.999  28.268  1.00  0.00    -0.200 F 
ENDBRANCH  75  98
ENDBRANCH  49  50
ENDBRANCH  41  44
ENDBRANCH  39  40
ENDBRANCH  38  39
ENDBRANCH   1  38
TORSDOF 14
ENDMDL
MODEL 2
REMARK VINA RESULT:     -14.1      8.512     15.669
REMARK SMILES Cc1ccc(-c2cnnc(-n3nc(C)c4c3NC(=O)C[C@@H]4c3ccc(C(=O)NCCCCNC(=O)c4ccc(-c5c6nc(c(-c7c(F)c(F)c(F)c(F)c7F)c7ccc([nH]7)c(-c7c(F)c(F)c(F)c(F)c7F)c7nc(c(-c8c(F)c(F)c(F)c(F)c8F)c8ccc5[nH]8)C=C7)C=C6)cc4)cc3)n2)cc1
REMARK SMILES IDX 30 1 29 2 28 3 26 4 27 5 25 7 22 8 23 9 100 10 24 11 99 12
REMARK SMILES IDX 21 13 11 14 12 15 16 16 13 17 15 18 17 19 14 20 18 21 20 23
REMARK SMILES IDX 19 24 10 25 6 26 7 27 101 28 8 29 9 30 5 31 1 32 2 33 3 34
REMARK SMILES IDX 103 35 4 36 102 37 31 38 32 39 33 40 34 41 35 43 36 44 37 45
REMARK SMILES IDX 98 46 38 47 97 48 39 49 40 50 41 51 91 52 42 53 96 54 90 55
REMARK SMILES IDX 92 56 43 57 95 58 89 59 88 60 44 62 76 63 56 64 75 65 57 66
REMARK SMILES IDX 60 67 74 68 93 69 58 70 59 71 73 73 94 74 61 75 45 76 46 77
REMARK SMILES IDX 54 78 47 79 48 80 52 81 55 82 49 83 50 84 53 85 51 86 77 87
REMARK SMILES IDX 78 88 86 89 79 90 80 91 84 92 87 93 81 94 82 95 85 96 83 97
REMARK SMILES IDX 62 98 63 99 71 100 64 101 65 102 69 103 72 104 66 105 67 106
REMARK SMILES IDX 70 107 68 108
REMARK H PARENT 28 6 17 22 33 42 92 61 60 72
REMARK Flexibility Score: inf
ROOT
ATOM      1  C   UNL A   1      46.392  41.530  33.424  1.00  0.00     0.023 C 
ENDROOT
BRANCH   1   2
ATOM      2  C   UNL A   1      45.288  42.327  32.706  1.00  0.00     0.116 C 
BRANCH   2   3
ATOM      3  N   UNL A   1      43.973  42.185  33.324  1.00  0.00    -0.352 N 
ATOM      4  C   UNL A   1      42.831  41.540  32.904  1.00  0.00     0.251 C 
ATOM      5  O   UNL A   1      41.907  41.377  33.696  1.00  0.00    -0.269 OA
ATOM      6  H   UNL A   1      43.886  42.632  34.197  1.00  0.00     0.163 HD
BRANCH   4   7
ATOM      7  C   UNL A   1      42.719  40.984  31.536  1.00  0.00     0.039 A 
ATOM      8  C   UNL A   1      42.830  40.145  28.858  1.00  0.00    -0.040 A 
ATOM      9  C   UNL A   1      43.503  39.425  29.864  1.00  0.00     0.005 A 
ATOM     10  C   UNL A   1      41.943  41.149  29.256  1.00  0.00     0.005 A 
ATOM     11  C   UNL A   1      43.442  39.838  31.198  1.00  0.00     0.014 A 
ATOM     12  C   UNL A   1      41.898  41.567  30.578  1.00  0.00     0.014 A 
BRANCH   8  13
ATOM     13  C   UNL A   1      43.134  39.822  27.411  1.00  0.00     0.064 C 
ATOM     14  N   UNL A   1      44.379  42.415  25.213  1.00  0.00    -0.180 N 
ATOM     15  N   UNL A   1      45.289  42.642  26.200  1.00  0.00    -0.168 NA
ATOM     16  C   UNL A   1      43.305  41.727  25.754  1.00  0.00     0.143 A 
ATOM     17  C   UNL A   1      45.054  41.676  27.092  1.00  0.00     0.066 A 
ATOM     18  C   UNL A   1      43.856  40.969  26.774  1.00  0.00     0.026 A 
ATOM     19  N   UNL A   1      41.943  41.704  25.521  1.00  0.00    -0.310 N 
ATOM     20  C   UNL A   1      45.944  41.608  28.279  1.00  0.00     0.069 C 
ATOM     21  C   UNL A   1      41.151  40.718  26.209  1.00  0.00     0.226 C 
ATOM     22  H   UNL A   1      41.525  42.346  24.902  1.00  0.00     0.171 HD
ATOM     23  C   UNL A   1      41.885  39.459  26.609  1.00  0.00     0.113 C 
ATOM     24  O   UNL A   1      39.967  40.919  26.327  1.00  0.00    -0.275 OA
BRANCH  14  25
ATOM     25  C   UNL A   1      44.782  42.458  23.844  1.00  0.00     0.272 A 
ATOM     26  C   UNL A   1      44.413  42.711  21.606  1.00  0.00     0.095 A 
ATOM     27  C   UNL A   1      45.621  42.087  21.346  1.00  0.00     0.164 A 
ATOM     28  N   UNL A   1      43.931  42.861  22.875  1.00  0.00    -0.208 NA
ATOM     29  N   UNL A   1      46.411  41.671  22.342  1.00  0.00    -0.153 NA
ATOM     30  N   UNL A   1      46.001  41.903  23.604  1.00  0.00    -0.109 NA
BRANCH  26  31
ATOM     31  C   UNL A   1      43.664  43.346  20.515  1.00  0.00     0.002 A 
ATOM     32  C   UNL A   1      41.587  45.091  17.139  1.00  0.00     0.044 C 
ATOM     33  C   UNL A   1      42.320  44.471  18.292  1.00  0.00    -0.051 A 
ATOM     34  C   UNL A   1      41.674  43.545  19.117  1.00  0.00     0.004 A 
ATOM     35  C   UNL A   1      43.644  44.821  18.571  1.00  0.00     0.004 A 
ATOM     36  C   UNL A   1      42.339  42.987  20.215  1.00  0.00     0.011 A 
ATOM     37  C   UNL A   1      44.304  44.268  19.672  1.00  0.00     0.011 A 
ENDBRANCH  26  31
ENDBRANCH  14  25
ENDBRANCH   8  13
ENDBRANCH   4   7
ENDBRANCH   2   3
ENDBRANCH   1   2
BRANCH   1  38
ATOM     38  C   UNL A   1      46.393  40.027  33.156  1.00  0.00     0.023 C 
BRANCH  38  39
ATOM     39  C   UNL A   1      45.799  39.200  34.278  1.00  0.00     0.116 C 
BRANCH  39  40
ATOM     40  N   UNL A   1      46.023  39.727  35.617  1.00  0.00    -0.352 N 
ATOM     41  C   UNL A   1      45.418  39.371  36.812  1.00  0.00     0.251 C 
ATOM     42  H   UNL A   1      46.701  40.437  35.683  1.00  0.00     0.163 HD
ATOM     43  O   UNL A   1      45.571  40.075  37.805  1.00  0.00    -0.269 OA
BRANCH  41  44
ATOM     44  C   UNL A   1      44.766  38.042  36.947  1.00  0.00     0.039 A 
ATOM     45  C   UNL A   1      45.586  36.923  36.743  1.00  0.00     0.014 A 
ATOM     46  C   UNL A   1      43.387  37.920  36.864  1.00  0.00     0.014 A 
ATOM     47  C   UNL A   1      45.054  35.801  36.125  1.00  0.00     0.010 A 
ATOM     48  C   UNL A   1      42.885  36.901  36.105  1.00  0.00     0.010 A 
ATOM     49  C   UNL A   1      43.741  35.882  35.685  1.00  0.00    -0.014 A 
BRANCH  49  50
ATOM     50  C   UNL A   1      43.103  34.919  34.822  1.00  0.00     0.031 A 
ATOM     51  C   UNL A   1      43.042  35.267  33.398  1.00  0.00     0.074 A 
ATOM     52  C   UNL A   1      42.815  33.712  35.350  1.00  0.00     0.049 A 
ATOM     53  N   UNL A   1      42.221  34.762  32.555  1.00  0.00    -0.248 NA
ATOM     54  C   UNL A   1      43.904  36.293  32.816  1.00  0.00     0.031 C 
ATOM     55  C   UNL A   1      42.458  32.471  34.676  1.00  0.00     0.029 A 
ATOM     56  N   UNL A   1      42.625  33.426  36.714  1.00  0.00    -0.354 N 
ATOM     57  C   UNL A   1      42.644  35.140  31.296  1.00  0.00     0.074 A 
ATOM     58  C   UNL A   1      43.604  36.188  31.521  1.00  0.00     0.031 C 
ATOM     59  C   UNL A   1      41.792  31.686  35.546  1.00  0.00     0.029 A 
ATOM     60  C   UNL A   1      41.588  32.470  36.756  1.00  0.00     0.049 A 
ATOM     61  H   UNL A   1      43.113  33.812  37.479  1.00  0.00     0.167 HD
ATOM     62  C   UNL A   1      42.245  34.377  30.237  1.00  0.00     0.037 A 
ATOM     63  C   UNL A   1      40.368  32.832  37.256  1.00  0.00     0.037 A 
ATOM     64  C   UNL A   1      41.308  33.357  30.716  1.00  0.00     0.049 A 
ATOM     65  C   UNL A   1      39.309  32.832  36.178  1.00  0.00     0.074 A 
ATOM     66  C   UNL A   1      41.506  32.043  31.110  1.00  0.00     0.029 A 
ATOM     67  N   UNL A   1      40.087  33.753  31.260  1.00  0.00    -0.354 N 
ATOM     68  N   UNL A   1      39.558  33.039  34.911  1.00  0.00    -0.248 NA
ATOM     69  C   UNL A   1      37.906  32.530  36.440  1.00  0.00     0.031 C 
ATOM     70  C   UNL A   1      40.449  31.693  31.994  1.00  0.00     0.029 A 
ATOM     71  C   UNL A   1      39.595  32.778  32.111  1.00  0.00     0.049 A 
ATOM     72  H   UNL A   1      39.638  34.607  31.066  1.00  0.00     0.167 HD
ATOM     73  C   UNL A   1      38.405  32.867  34.193  1.00  0.00     0.074 A 
ATOM     74  C   UNL A   1      37.401  32.552  35.196  1.00  0.00     0.031 C 
ATOM     75  C   UNL A   1      38.345  32.971  32.832  1.00  0.00     0.037 A 
BRANCH  62  76
ATOM     76  C   UNL A   1      42.926  34.320  28.881  1.00  0.00     0.064 A 
ATOM     77  C   UNL A   1      42.667  35.330  27.926  1.00  0.00     0.173 A 
ATOM     78  C   UNL A   1      43.775  33.295  28.419  1.00  0.00     0.173 A 
ATOM     79  F   UNL A   1      41.944  36.415  28.234  1.00  0.00    -0.203 F 
ATOM     80  C   UNL A   1      43.139  35.270  26.609  1.00  0.00     0.198 A 
ATOM     81  C   UNL A   1      44.222  33.218  27.093  1.00  0.00     0.198 A 
ATOM     82  F   UNL A   1      44.252  32.349  29.229  1.00  0.00    -0.203 F 
ATOM     83  F   UNL A   1      42.838  36.254  25.752  1.00  0.00    -0.200 F 
ATOM     84  C   UNL A   1      43.898  34.201  26.186  1.00  0.00     0.200 A 
ATOM     85  F   UNL A   1      44.978  32.177  26.709  1.00  0.00    -0.200 F 
ATOM     86  F   UNL A   1      44.331  34.129  24.921  1.00  0.00    -0.200 F 
ENDBRANCH  62  76
BRANCH  63  87
ATOM     87  C   UNL A   1      40.494  33.807  38.383  1.00  0.00     0.064 A 
ATOM     88  C   UNL A   1      40.045  35.124  38.140  1.00  0.00     0.173 A 
ATOM     89  C   UNL A   1      40.588  33.401  39.720  1.00  0.00     0.173 A 
ATOM     90  F   UNL A   1      39.954  35.578  36.879  1.00  0.00    -0.203 F 
ATOM     91  C   UNL A   1      39.532  35.919  39.164  1.00  0.00     0.198 A 
ATOM     92  C   UNL A   1      40.116  34.224  40.749  1.00  0.00     0.198 A 
ATOM     93  F   UNL A   1      41.017  32.169  40.028  1.00  0.00    -0.203 F 
ATOM     94  F   UNL A   1      38.945  37.088  38.868  1.00  0.00    -0.200 F 
ATOM     95  C   UNL A   1      39.538  35.453  40.464  1.00  0.00     0.200 A 
ATOM     96  F   UNL A   1      40.126  33.778  42.016  1.00  0.00    -0.200 F 
ATOM     97  F   UNL A   1      38.950  36.169  41.432  1.00  0.00    -0.200 F 
ENDBRANCH  63  87
BRANCH  75  98
ATOM     98  C   UNL A   1      37.066  33.135  32.050  1.00  0.00     0.064 A 
ATOM     99  C   UNL A   1      36.257  34.280  32.129  1.00  0.00     0.173 A 
ATOM    100  C   UNL A   1      36.685  32.187  31.071  1.00  0.00     0.173 A 
ATOM    101  F   UNL A   1      36.597  35.326  32.894  1.00  0.00    -0.203 F 
ATOM    102  C   UNL A   1      35.091  34.415  31.374  1.00  0.00     0.198 A 
ATOM    103  C   UNL A   1      35.567  32.363  30.261  1.00  0.00     0.198 A 
ATOM    104  F   UNL A   1      37.402  31.075  30.848  1.00  0.00    -0.203 F 
ATOM    105  F   UNL A   1      34.312  35.491  31.547  1.00  0.00    -0.200 F 
ATOM    106  C   UNL A   1      34.751  33.461  30.435  1.00  0.00     0.200 A 
ATOM    107  F   UNL A   1      35.295  31.468  29.300  1.00  0.00    -0.200 F 
ATOM    108  F   UNL A   1      33.653  33.612  29.684  1.00  0.00    -0.200 F 
ENDBRANCH  75  98
ENDBRANCH  49  50
ENDBRANCH  41  44
ENDBRANCH  39  40
ENDBRANCH  38  39
ENDBRANCH   1  38
TORSDOF 14
ENDMDL
MODEL 3
REMARK VINA RESULT:     -13.9      2.493      4.009
REMARK SMILES Cc1ccc(-c2cnnc(-n3nc(C)c4c3NC(=O)C[C@@H]4c3ccc(C(=O)NCCCCNC(=O)c4ccc(-c5c6nc(c(-c7c(F)c(F)c(F)c(F)c7F)c7ccc([nH]7)c(-c7c(F)c(F)c(F)c(F)c7F)c7nc(c(-c8c(F)c(F)c(F)c(F)c8F)c8ccc5[nH]8)C=C7)C=C6)cc4)cc3)n2)cc1
REMARK SMILES IDX 30 1 29 2 28 3 26 4 27 5 25 7 22 8 23 9 100 10 24 11 99 12
REMARK SMILES IDX 21 13 11 14 12 15 16 16 13 17 15 18 17 19 14 20 18 21 20 23
REMARK SMILES IDX 19 24 10 25 6 26 7 27 101 28 8 29 9 30 5 31 1 32 2 33 3 34
REMARK SMILES IDX 103 35 4 36 102 37 31 38 32 39 33 40 34 41 35 43 36 44 37 45
REMARK SMILES IDX 98 46 38 47 97 48 39 49 40 50 41 51 91 52 42 53 96 54 90 55
REMARK SMILES IDX 92 56 43 57 95 58 89 59 88 60 44 62 76 63 56 64 75 65 57 66
REMARK SMILES IDX 60 67 74 68 93 69 58 70 59 71 73 73 94 74 61 75 45 76 46 77
REMARK SMILES IDX 54 78 47 79 48 80 52 81 55 82 49 83 50 84 53 85 51 86 77 87
REMARK SMILES IDX 78 88 86 89 79 90 80 91 84 92 87 93 81 94 82 95 85 96 83 97
REMARK SMILES IDX 62 98 63 99 71 100 64 101 65 102 69 103 72 104 66 105 67 106
REMARK SMILES IDX 70 107 68 108
REMARK H PARENT 28 6 17 22 33 42 92 61 60 72
REMARK Flexibility Score: inf
ROOT
ATOM      1  C   UNL A   1      39.178  24.077  27.041  1.00  0.00     0.023 C 
ENDROOT
BRANCH   1   2
ATOM      2  C   UNL A   1      38.047  23.635  26.094  1.00  0.00     0.116 C 
BRANCH   2   3
ATOM      3  N   UNL A   1      38.214  22.279  25.581  1.00  0.00    -0.352 N 
ATOM      4  C   UNL A   1      37.305  21.376  25.077  1.00  0.00     0.251 C 
ATOM      5  O   UNL A   1      37.713  20.368  24.505  1.00  0.00    -0.269 OA
ATOM      6  H   UNL A   1      39.142  21.951  25.598  1.00  0.00     0.163 HD
BRANCH   4   7
ATOM      7  C   UNL A   1      35.847  21.623  25.155  1.00  0.00     0.039 A 
ATOM      8  C   UNL A   1      33.111  22.216  24.926  1.00  0.00    -0.040 A 
ATOM      9  C   UNL A   1      33.598  20.936  24.597  1.00  0.00     0.005 A 
ATOM     10  C   UNL A   1      33.984  23.102  25.565  1.00  0.00     0.005 A 
ATOM     11  C   UNL A   1      34.959  20.639  24.717  1.00  0.00     0.014 A 
ATOM     12  C   UNL A   1      35.336  22.809  25.667  1.00  0.00     0.014 A 
BRANCH   8  13
ATOM     13  C   UNL A   1      31.693  22.573  24.534  1.00  0.00     0.064 C 
ATOM     14  N   UNL A   1      30.730  26.052  24.250  1.00  0.00    -0.180 N 
ATOM     15  N   UNL A   1      31.838  26.166  23.468  1.00  0.00    -0.168 NA
ATOM     16  C   UNL A   1      30.854  24.909  25.025  1.00  0.00     0.143 A 
ATOM     17  C   UNL A   1      32.294  24.915  23.358  1.00  0.00     0.066 A 
ATOM     18  C   UNL A   1      31.600  24.040  24.247  1.00  0.00     0.026 A 
ATOM     19  N   UNL A   1      30.459  24.547  26.299  1.00  0.00    -0.310 N 
ATOM     20  C   UNL A   1      33.481  24.691  22.495  1.00  0.00     0.069 C 
ATOM     21  C   UNL A   1      30.649  23.179  26.707  1.00  0.00     0.226 C 
ATOM     22  H   UNL A   1      30.060  25.206  26.912  1.00  0.00     0.171 HD
ATOM     23  C   UNL A   1      30.666  22.164  25.589  1.00  0.00     0.113 C 
ATOM     24  O   UNL A   1      30.682  22.937  27.889  1.00  0.00    -0.275 OA
BRANCH  14  25
ATOM     25  C   UNL A   1      29.526  26.730  23.889  1.00  0.00     0.272 A 
ATOM     26  C   UNL A   1      28.307  28.569  23.308  1.00  0.00     0.095 A 
ATOM     27  C   UNL A   1      27.146  27.895  23.647  1.00  0.00     0.164 A 
ATOM     28  N   UNL A   1      29.544  28.017  23.478  1.00  0.00    -0.208 NA
ATOM     29  N   UNL A   1      27.185  26.632  24.087  1.00  0.00    -0.153 NA
ATOM     30  N   UNL A   1      28.390  26.034  24.164  1.00  0.00    -0.109 NA
BRANCH  26  31
ATOM     31  C   UNL A   1      28.230  29.869  22.631  1.00  0.00     0.002 A 
ATOM     32  C   UNL A   1      27.771  33.658  20.582  1.00  0.00     0.044 C 
ATOM     33  C   UNL A   1      27.905  32.340  21.288  1.00  0.00    -0.051 A 
ATOM     34  C   UNL A   1      28.007  32.299  22.682  1.00  0.00     0.004 A 
ATOM     35  C   UNL A   1      27.948  31.143  20.569  1.00  0.00     0.004 A 
ATOM     36  C   UNL A   1      28.166  31.078  23.347  1.00  0.00     0.011 A 
ATOM     37  C   UNL A   1      28.114  29.925  21.234  1.00  0.00     0.011 A 
ENDBRANCH  26  31
ENDBRANCH  14  25
ENDBRANCH   8  13
ENDBRANCH   4   7
ENDBRANCH   2   3
ENDBRANCH   1   2
BRANCH   1  38
ATOM     38  C   UNL A   1      40.416  23.184  27.042  1.00  0.00     0.023 C 
BRANCH  38  39
ATOM     39  C   UNL A   1      41.389  23.478  25.917  1.00  0.00     0.116 C 
BRANCH  39  40
ATOM     40  N   UNL A   1      42.169  22.335  25.462  1.00  0.00    -0.352 N 
ATOM     41  C   UNL A   1      43.534  22.236  25.244  1.00  0.00     0.251 C 
ATOM     42  H   UNL A   1      41.652  21.516  25.283  1.00  0.00     0.163 HD
ATOM     43  O   UNL A   1      43.986  21.264  24.647  1.00  0.00    -0.269 OA
BRANCH  41  44
ATOM     44  C   UNL A   1      44.462  23.187  25.908  1.00  0.00     0.039 A 
ATOM     45  C   UNL A   1      44.702  22.973  27.274  1.00  0.00     0.014 A 
ATOM     46  C   UNL A   1      44.737  24.421  25.338  1.00  0.00     0.014 A 
ATOM     47  C   UNL A   1      44.872  24.067  28.108  1.00  0.00     0.010 A 
ATOM     48  C   UNL A   1      44.731  25.514  26.159  1.00  0.00     0.010 A 
ATOM     49  C   UNL A   1      44.732  25.326  27.541  1.00  0.00    -0.014 A 
BRANCH  49  50
ATOM     50  C   UNL A   1      44.637  26.557  28.286  1.00  0.00     0.031 A 
ATOM     51  C   UNL A   1      43.289  27.108  28.458  1.00  0.00     0.074 A 
ATOM     52  C   UNL A   1      45.746  26.974  28.930  1.00  0.00     0.049 A 
ATOM     53  N   UNL A   1      43.026  28.329  28.738  1.00  0.00    -0.248 NA
ATOM     54  C   UNL A   1      42.091  26.294  28.261  1.00  0.00     0.031 C 
ATOM     55  C   UNL A   1      45.883  27.981  29.973  1.00  0.00     0.029 A 
ATOM     56  N   UNL A   1      47.073  26.638  28.604  1.00  0.00    -0.354 N 
ATOM     57  C   UNL A   1      41.688  28.394  29.071  1.00  0.00     0.074 A 
ATOM     58  C   UNL A   1      41.131  27.142  28.633  1.00  0.00     0.031 C 
ATOM     59  C   UNL A   1      47.156  28.425  29.977  1.00  0.00     0.029 A 
ATOM     60  C   UNL A   1      47.825  27.808  28.841  1.00  0.00     0.049 A 
ATOM     61  H   UNL A   1      47.406  25.769  28.280  1.00  0.00     0.167 HD
ATOM     62  C   UNL A   1      41.276  29.442  29.841  1.00  0.00     0.037 A 
ATOM     63  C   UNL A   1      48.347  28.491  27.777  1.00  0.00     0.037 A 
ATOM     64  C   UNL A   1      42.401  30.362  30.030  1.00  0.00     0.049 A 
ATOM     65  C   UNL A   1      47.693  29.843  27.615  1.00  0.00     0.074 A 
ATOM     66  C   UNL A   1      43.338  30.467  31.046  1.00  0.00     0.029 A 
ATOM     67  N   UNL A   1      42.944  31.014  28.924  1.00  0.00    -0.354 N 
ATOM     68  N   UNL A   1      46.474  30.114  28.000  1.00  0.00    -0.248 NA
ATOM     69  C   UNL A   1      48.390  31.004  27.073  1.00  0.00     0.031 C 
ATOM     70  C   UNL A   1      44.497  31.085  30.504  1.00  0.00     0.029 A 
ATOM     71  C   UNL A   1      44.254  31.384  29.173  1.00  0.00     0.049 A 
ATOM     72  H   UNL A   1      42.462  31.187  28.083  1.00  0.00     0.167 HD
ATOM     73  C   UNL A   1      46.228  31.448  27.808  1.00  0.00     0.074 A 
ATOM     74  C   UNL A   1      47.457  31.959  27.224  1.00  0.00     0.031 C 
ATOM     75  C   UNL A   1      45.053  32.052  28.155  1.00  0.00     0.037 A 
BRANCH  62  76
ATOM     76  C   UNL A   1      40.012  29.480  30.681  1.00  0.00     0.064 A 
ATOM     77  C   UNL A   1      38.755  29.618  30.048  1.00  0.00     0.173 A 
ATOM     78  C   UNL A   1      39.948  29.458  32.089  1.00  0.00     0.173 A 
ATOM     79  F   UNL A   1      38.635  29.576  28.715  1.00  0.00    -0.203 F 
ATOM     80  C   UNL A   1      37.563  29.807  30.758  1.00  0.00     0.198 A 
ATOM     81  C   UNL A   1      38.761  29.677  32.800  1.00  0.00     0.198 A 
ATOM     82  F   UNL A   1      41.011  29.177  32.843  1.00  0.00    -0.203 F 
ATOM     83  F   UNL A   1      36.410  29.950  30.092  1.00  0.00    -0.200 F 
ATOM     84  C   UNL A   1      37.570  29.860  32.135  1.00  0.00     0.200 A 
ATOM     85  F   UNL A   1      38.789  29.704  34.142  1.00  0.00    -0.200 F 
ATOM     86  F   UNL A   1      36.435  30.064  32.816  1.00  0.00    -0.200 F 
ENDBRANCH  62  76
BRANCH  63  87
ATOM     87  C   UNL A   1      48.775  27.569  26.679  1.00  0.00     0.064 A 
ATOM     88  C   UNL A   1      47.971  27.545  25.517  1.00  0.00     0.173 A 
ATOM     89  C   UNL A   1      50.093  27.111  26.554  1.00  0.00     0.173 A 
ATOM     90  F   UNL A   1      46.693  27.952  25.580  1.00  0.00    -0.203 F 
ATOM     91  C   UNL A   1      48.513  27.268  24.264  1.00  0.00     0.198 A 
ATOM     92  C   UNL A   1      50.618  26.786  25.298  1.00  0.00     0.198 A 
ATOM     93  F   UNL A   1      50.910  27.094  27.616  1.00  0.00    -0.203 F 
ATOM     94  F   UNL A   1      47.765  27.436  23.163  1.00  0.00    -0.200 F 
ATOM     95  C   UNL A   1      49.846  26.920  24.152  1.00  0.00     0.200 A 
ATOM     96  F   UNL A   1      51.910  26.442  25.186  1.00  0.00    -0.200 F 
ATOM     97  F   UNL A   1      50.394  26.758  22.940  1.00  0.00    -0.200 F 
ENDBRANCH  63  87
BRANCH  75  98
ATOM     98  C   UNL A   1      44.616  33.406  27.652  1.00  0.00     0.064 A 
ATOM     99  C   UNL A   1      43.982  33.600  26.415  1.00  0.00     0.173 A 
ATOM    100  C   UNL A   1      44.695  34.550  28.482  1.00  0.00     0.173 A 
ATOM    101  F   UNL A   1      43.695  32.571  25.606  1.00  0.00    -0.203 F 
ATOM    102  C   UNL A   1      43.566  34.861  25.987  1.00  0.00     0.198 A 
ATOM    103  C   UNL A   1      44.204  35.791  28.085  1.00  0.00     0.198 A 
ATOM    104  F   UNL A   1      45.223  34.494  29.714  1.00  0.00    -0.203 F 
ATOM    105  F   UNL A   1      43.041  35.004  24.763  1.00  0.00    -0.200 F 
ATOM    106  C   UNL A   1      43.670  35.954  26.826  1.00  0.00     0.200 A 
ATOM    107  F   UNL A   1      44.239  36.823  28.940  1.00  0.00    -0.200 F 
ATOM    108  F   UNL A   1      43.234  37.155  26.427  1.00  0.00    -0.200 F 
ENDBRANCH  75  98
ENDBRANCH  49  50
ENDBRANCH  41  44
ENDBRANCH  39  40
ENDBRANCH  38  39
ENDBRANCH   1  38
TORSDOF 14
ENDMDL
