MODEL 1
REMARK VINA RESULT:     -13.1      0.000      0.000
REMARK SMILES O=C(NCCCCNC(=O)[C@@H]1CCCN(C(=O)c2ccc3ncsc3c2)C1)c1ccc(-c2c3nc(c(-c4c(F)c(F)c(F)c(F)c4F)c4ccc([nH]4)c(-c4c(F)c(F)c(F)c(F)c4F)c4nc(c(-c5c(F)c(F)c(F)c(F)c5F)c5ccc2[nH]5)C=C4)C=C3)cc1
REMARK SMILES IDX 5 1 4 2 3 3 1 4 2 5 28 7 29 8 90 9 30 10 89 11 31 12 32 13
REMARK SMILES IDX 33 14 83 15 34 16 88 17 82 18 84 19 35 20 87 21 81 22 80 23
REMARK SMILES IDX 36 25 68 26 48 27 67 28 49 29 52 30 66 31 85 32 50 33 51 34
REMARK SMILES IDX 65 36 86 37 53 38 37 39 38 40 46 41 39 42 40 43 44 44 47 45
REMARK SMILES IDX 41 46 42 47 45 48 43 49 69 50 70 51 78 52 71 53 72 54 76 55
REMARK SMILES IDX 79 56 73 57 74 58 77 59 75 60 54 61 55 62 63 63 56 64 57 65
REMARK SMILES IDX 61 66 64 67 58 68 59 69 62 70 60 71 6 72 7 73 8 74 9 75
REMARK SMILES IDX 10 77 11 78 12 79 27 80 13 81 15 82 14 83 16 84 17 85 18 86
REMARK SMILES IDX 19 87 26 88 20 89 25 90 21 91 24 92 22 93 23 94
REMARK H PARENT 3 6 84 24 52 35 8 76
REMARK Flexibility Score: inf
ROOT
ATOM      1  C   UNL A   1      31.310  32.272  26.511  1.00  0.00     0.023 C 
ENDROOT
BRANCH   1   2
ATOM      2  C   UNL A   1      32.518  32.839  27.246  1.00  0.00     0.116 C 
BRANCH   2   3
ATOM      3  N   UNL A   1      32.335  34.228  27.637  1.00  0.00    -0.352 N 
ATOM      4  O   UNL A   1      32.617  36.068  28.912  1.00  0.00    -0.269 OA
ATOM      5  C   UNL A   1      32.999  34.945  28.600  1.00  0.00     0.251 C 
ATOM      6  H   UNL A   1      31.640  34.720  27.144  1.00  0.00     0.163 HD
BRANCH   5   7
ATOM      7  C   UNL A   1      34.170  34.348  29.276  1.00  0.00     0.039 A 
ATOM      8  C   UNL A   1      34.007  33.562  30.421  1.00  0.00     0.014 A 
ATOM      9  C   UNL A   1      35.445  34.564  28.744  1.00  0.00     0.014 A 
ATOM     10  C   UNL A   1      35.123  33.085  31.097  1.00  0.00     0.010 A 
ATOM     11  C   UNL A   1      36.561  34.020  29.383  1.00  0.00     0.010 A 
ATOM     12  C   UNL A   1      36.408  33.286  30.570  1.00  0.00    -0.014 A 
BRANCH  12  13
ATOM     13  C   UNL A   1      37.571  32.624  31.208  1.00  0.00     0.031 A 
ATOM     14  C   UNL A   1      38.288  31.489  30.539  1.00  0.00     0.074 A 
ATOM     15  C   UNL A   1      37.958  33.055  32.424  1.00  0.00     0.049 A 
ATOM     16  N   UNL A   1      39.290  30.773  30.985  1.00  0.00    -0.248 NA
ATOM     17  C   UNL A   1      37.820  31.097  29.201  1.00  0.00     0.031 C 
ATOM     18  C   UNL A   1      37.316  34.140  33.174  1.00  0.00     0.029 A 
ATOM     19  N   UNL A   1      38.971  32.638  33.249  1.00  0.00    -0.354 N 
ATOM     20  C   UNL A   1      39.557  29.834  29.997  1.00  0.00     0.074 A 
ATOM     21  C   UNL A   1      38.606  30.062  28.930  1.00  0.00     0.031 C 
ATOM     22  C   UNL A   1      37.960  34.313  34.336  1.00  0.00     0.029 A 
ATOM     23  C   UNL A   1      39.014  33.312  34.445  1.00  0.00     0.049 A 
ATOM     24  H   UNL A   1      39.606  31.926  33.006  1.00  0.00     0.167 HD
ATOM     25  C   UNL A   1      40.515  28.876  29.991  1.00  0.00     0.037 A 
ATOM     26  C   UNL A   1      39.790  33.121  35.527  1.00  0.00     0.037 A 
ATOM     27  C   UNL A   1      41.473  28.681  31.049  1.00  0.00     0.049 A 
ATOM     28  C   UNL A   1      40.818  32.027  35.498  1.00  0.00     0.074 A 
ATOM     29  C   UNL A   1      42.538  27.798  31.093  1.00  0.00     0.029 A 
ATOM     30  N   UNL A   1      41.472  29.367  32.255  1.00  0.00    -0.354 N 
ATOM     31  N   UNL A   1      41.110  31.195  34.528  1.00  0.00    -0.248 NA
ATOM     32  C   UNL A   1      41.618  31.839  36.715  1.00  0.00     0.031 C 
ATOM     33  C   UNL A   1      43.144  27.906  32.349  1.00  0.00     0.029 A 
ATOM     34  C   UNL A   1      42.489  28.894  33.068  1.00  0.00     0.049 A 
ATOM     35  H   UNL A   1      40.843  30.084  32.497  1.00  0.00     0.167 HD
ATOM     36  C   UNL A   1      42.132  30.392  35.012  1.00  0.00     0.074 A 
ATOM     37  C   UNL A   1      42.427  30.853  36.353  1.00  0.00     0.031 C 
ATOM     38  C   UNL A   1      42.763  29.360  34.403  1.00  0.00     0.037 A 
BRANCH  25  39
ATOM     39  C   UNL A   1      40.578  27.942  28.818  1.00  0.00     0.064 A 
ATOM     40  C   UNL A   1      39.819  26.765  28.768  1.00  0.00     0.173 A 
ATOM     41  C   UNL A   1      41.337  28.283  27.687  1.00  0.00     0.173 A 
ATOM     42  F   UNL A   1      39.081  26.391  29.823  1.00  0.00    -0.203 F 
ATOM     43  C   UNL A   1      39.826  25.957  27.632  1.00  0.00     0.198 A 
ATOM     44  C   UNL A   1      41.323  27.486  26.545  1.00  0.00     0.198 A 
ATOM     45  F   UNL A   1      42.074  29.404  27.680  1.00  0.00    -0.203 F 
ATOM     46  F   UNL A   1      39.110  24.824  27.614  1.00  0.00    -0.200 F 
ATOM     47  C   UNL A   1      40.568  26.323  26.520  1.00  0.00     0.200 A 
ATOM     48  F   UNL A   1      42.031  27.849  25.467  1.00  0.00    -0.200 F 
ATOM     49  F   UNL A   1      40.558  25.555  25.421  1.00  0.00    -0.200 F 
ENDBRANCH  25  39
BRANCH  26  50
ATOM     50  C   UNL A   1      39.588  33.957  36.737  1.00  0.00     0.064 A 
ATOM     51  C   UNL A   1      40.197  35.213  36.861  1.00  0.00     0.173 A 
ATOM     52  C   UNL A   1      38.781  33.516  37.798  1.00  0.00     0.173 A 
ATOM     53  F   UNL A   1      40.992  35.671  35.883  1.00  0.00    -0.203 F 
ATOM     54  C   UNL A   1      40.021  35.986  38.006  1.00  0.00     0.198 A 
ATOM     55  C   UNL A   1      38.580  34.303  38.927  1.00  0.00     0.198 A 
ATOM     56  F   UNL A   1      38.172  32.323  37.727  1.00  0.00    -0.203 F 
ATOM     57  F   UNL A   1      40.653  37.162  38.120  1.00  0.00    -0.200 F 
ATOM     58  C   UNL A   1      39.208  35.534  39.035  1.00  0.00     0.200 A 
ATOM     59  F   UNL A   1      37.780  33.870  39.911  1.00  0.00    -0.200 F 
ATOM     60  F   UNL A   1      39.038  36.281  40.135  1.00  0.00    -0.200 F 
ENDBRANCH  26  50
BRANCH  38  61
ATOM     61  C   UNL A   1      43.838  28.664  35.181  1.00  0.00     0.064 A 
ATOM     62  C   UNL A   1      43.553  27.547  35.981  1.00  0.00     0.173 A 
ATOM     63  C   UNL A   1      45.173  29.089  35.094  1.00  0.00     0.173 A 
ATOM     64  F   UNL A   1      42.290  27.116  36.111  1.00  0.00    -0.203 F 
ATOM     65  C   UNL A   1      44.564  26.893  36.679  1.00  0.00     0.198 A 
ATOM     66  C   UNL A   1      46.184  28.414  35.770  1.00  0.00     0.198 A 
ATOM     67  F   UNL A   1      45.496  30.150  34.339  1.00  0.00    -0.203 F 
ATOM     68  F   UNL A   1      44.263  25.854  37.472  1.00  0.00    -0.200 F 
ATOM     69  C   UNL A   1      45.879  27.321  36.567  1.00  0.00     0.200 A 
ATOM     70  F   UNL A   1      47.455  28.821  35.650  1.00  0.00    -0.200 F 
ATOM     71  F   UNL A   1      46.851  26.682  37.231  1.00  0.00    -0.200 F 
ENDBRANCH  38  61
ENDBRANCH  12  13
ENDBRANCH   5   7
ENDBRANCH   2   3
ENDBRANCH   1   2
BRANCH   1  72
ATOM     72  C   UNL A   1      31.449  30.816  26.061  1.00  0.00     0.023 C 
BRANCH  72  73
ATOM     73  C   UNL A   1      32.777  30.157  26.427  1.00  0.00     0.116 C 
BRANCH  73  74
ATOM     74  N   UNL A   1      33.481  29.684  25.252  1.00  0.00    -0.356 N 
ATOM     75  C   UNL A   1      33.658  28.425  24.765  1.00  0.00     0.224 C 
ATOM     76  H   UNL A   1      33.902  30.393  24.715  1.00  0.00     0.163 HD
ATOM     77  O   UNL A   1      34.378  28.305  23.773  1.00  0.00    -0.275 OA
BRANCH  75  78
ATOM     78  C   UNL A   1      33.036  27.236  25.488  1.00  0.00     0.098 C 
ATOM     79  C   UNL A   1      33.986  26.033  25.448  1.00  0.00     0.017 C 
ATOM     80  C   UNL A   1      31.655  26.908  24.916  1.00  0.00     0.133 C 
ATOM     81  C   UNL A   1      33.979  25.324  24.092  1.00  0.00     0.022 C 
ATOM     82  N   UNL A   1      31.720  26.204  23.642  1.00  0.00    -0.338 N 
ATOM     83  C   UNL A   1      32.560  25.007  23.626  1.00  0.00     0.120 C 
BRANCH  82  84
ATOM     84  C   UNL A   1      31.071  26.772  22.549  1.00  0.00     0.253 C 
ATOM     85  O   UNL A   1      31.343  26.522  21.377  1.00  0.00    -0.269 OA
BRANCH  84  86
ATOM     86  C   UNL A   1      29.992  27.746  22.787  1.00  0.00     0.041 A 
ATOM     87  C   UNL A   1      28.762  27.316  23.287  1.00  0.00     0.016 A 
ATOM     88  C   UNL A   1      30.261  29.101  22.557  1.00  0.00     0.035 A 
ATOM     89  C   UNL A   1      27.745  28.243  23.522  1.00  0.00     0.030 A 
ATOM     90  C   UNL A   1      29.228  30.018  22.806  1.00  0.00     0.055 A 
ATOM     91  C   UNL A   1      27.973  29.613  23.276  1.00  0.00     0.081 A 
ATOM     92  S   UNL A   1      29.229  31.731  22.619  1.00  0.00    -0.122 S 
ATOM     93  N   UNL A   1      27.053  30.631  23.464  1.00  0.00    -0.245 NA
ATOM     94  C   UNL A   1      27.604  31.782  23.154  1.00  0.00     0.176 A 
ENDBRANCH  84  86
ENDBRANCH  82  84
ENDBRANCH  75  78
ENDBRANCH  73  74
ENDBRANCH  72  73
ENDBRANCH   1  72
TORSDOF 13
ENDMDL
MODEL 2
REMARK VINA RESULT:     -13.0      6.322     11.594
REMARK SMILES O=C(NCCCCNC(=O)[C@@H]1CCCN(C(=O)c2ccc3ncsc3c2)C1)c1ccc(-c2c3nc(c(-c4c(F)c(F)c(F)c(F)c4F)c4ccc([nH]4)c(-c4c(F)c(F)c(F)c(F)c4F)c4nc(c(-c5c(F)c(F)c(F)c(F)c5F)c5ccc2[nH]5)C=C4)C=C3)cc1
REMARK SMILES IDX 5 1 4 2 3 3 1 4 2 5 28 7 29 8 90 9 30 10 89 11 31 12 32 13
REMARK SMILES IDX 33 14 83 15 34 16 88 17 82 18 84 19 35 20 87 21 81 22 80 23
REMARK SMILES IDX 36 25 68 26 48 27 67 28 49 29 52 30 66 31 85 32 50 33 51 34
REMARK SMILES IDX 65 36 86 37 53 38 37 39 38 40 46 41 39 42 40 43 44 44 47 45
REMARK SMILES IDX 41 46 42 47 45 48 43 49 69 50 70 51 78 52 71 53 72 54 76 55
REMARK SMILES IDX 79 56 73 57 74 58 77 59 75 60 54 61 55 62 63 63 56 64 57 65
REMARK SMILES IDX 61 66 64 67 58 68 59 69 62 70 60 71 6 72 7 73 8 74 9 75
REMARK SMILES IDX 10 77 11 78 12 79 27 80 13 81 15 82 14 83 16 84 17 85 18 86
REMARK SMILES IDX 19 87 26 88 20 89 25 90 21 91 24 92 22 93 23 94
REMARK H PARENT 3 6 84 24 52 35 8 76
REMARK Flexibility Score: inf
ROOT
ATOM      1  C   UNL A   1      38.231  19.623  24.977  1.00  0.00     0.023 C 
ENDROOT
BRANCH   1   2
ATOM      2  C   UNL A   1      39.317  19.971  25.986  1.00  0.00     0.116 C 
BRANCH   2   3
ATOM      3  N   UNL A   1      40.411  19.013  25.986  1.00  0.00    -0.352 N 
ATOM      4  O   UNL A   1      42.562  18.335  25.916  1.00  0.00    -0.269 OA
ATOM      5  C   UNL A   1      41.759  19.246  26.088  1.00  0.00     0.251 C 
ATOM      6  H   UNL A   1      40.148  18.069  25.899  1.00  0.00     0.163 HD
BRANCH   5   7
ATOM      7  C   UNL A   1      42.242  20.610  26.391  1.00  0.00     0.039 A 
ATOM      8  C   UNL A   1      42.516  21.512  25.359  1.00  0.00     0.014 A 
ATOM      9  C   UNL A   1      42.405  20.993  27.725  1.00  0.00     0.014 A 
ATOM     10  C   UNL A   1      43.057  22.758  25.655  1.00  0.00     0.010 A 
ATOM     11  C   UNL A   1      42.877  22.273  28.024  1.00  0.00     0.010 A 
ATOM     12  C   UNL A   1      43.216  23.160  26.990  1.00  0.00    -0.014 A 
BRANCH  12  13
ATOM     13  C   UNL A   1      43.629  24.552  27.289  1.00  0.00     0.031 A 
ATOM     14  C   UNL A   1      42.649  25.565  27.802  1.00  0.00     0.074 A 
ATOM     15  C   UNL A   1      44.913  24.895  27.067  1.00  0.00     0.049 A 
ATOM     16  N   UNL A   1      42.839  26.833  28.066  1.00  0.00    -0.248 NA
ATOM     17  C   UNL A   1      41.273  25.102  28.044  1.00  0.00     0.031 C 
ATOM     18  C   UNL A   1      45.945  23.991  26.550  1.00  0.00     0.029 A 
ATOM     19  N   UNL A   1      45.571  26.085  27.236  1.00  0.00    -0.354 N 
ATOM     20  C   UNL A   1      41.610  27.326  28.481  1.00  0.00     0.074 A 
ATOM     21  C   UNL A   1      40.673  26.223  28.425  1.00  0.00     0.031 C 
ATOM     22  C   UNL A   1      47.106  24.654  26.460  1.00  0.00     0.029 A 
ATOM     23  C   UNL A   1      46.888  26.042  26.849  1.00  0.00     0.049 A 
ATOM     24  H   UNL A   1      45.141  26.893  27.601  1.00  0.00     0.167 HD
ATOM     25  C   UNL A   1      41.302  28.585  28.875  1.00  0.00     0.037 A 
ATOM     26  C   UNL A   1      47.809  27.019  26.776  1.00  0.00     0.037 A 
ATOM     27  C   UNL A   1      42.253  29.665  28.952  1.00  0.00     0.049 A 
ATOM     28  C   UNL A   1      47.424  28.411  27.189  1.00  0.00     0.074 A 
ATOM     29  C   UNL A   1      42.058  30.950  29.425  1.00  0.00     0.029 A 
ATOM     30  N   UNL A   1      43.573  29.590  28.531  1.00  0.00    -0.354 N 
ATOM     31  N   UNL A   1      46.277  28.847  27.650  1.00  0.00    -0.248 NA
ATOM     32  C   UNL A   1      48.456  29.448  27.061  1.00  0.00     0.031 C 
ATOM     33  C   UNL A   1      43.241  31.671  29.234  1.00  0.00     0.029 A 
ATOM     34  C   UNL A   1      44.190  30.820  28.690  1.00  0.00     0.049 A 
ATOM     35  H   UNL A   1      44.007  28.782  28.172  1.00  0.00     0.167 HD
ATOM     36  C   UNL A   1      46.451  30.204  27.877  1.00  0.00     0.074 A 
ATOM     37  C   UNL A   1      47.822  30.514  27.527  1.00  0.00     0.031 C 
ATOM     38  C   UNL A   1      45.553  31.112  28.328  1.00  0.00     0.037 A 
BRANCH  25  39
ATOM     39  C   UNL A   1      39.878  28.888  29.238  1.00  0.00     0.064 A 
ATOM     40  C   UNL A   1      38.936  29.279  28.276  1.00  0.00     0.173 A 
ATOM     41  C   UNL A   1      39.431  28.690  30.554  1.00  0.00     0.173 A 
ATOM     42  F   UNL A   1      39.313  29.487  27.006  1.00  0.00    -0.203 F 
ATOM     43  C   UNL A   1      37.599  29.471  28.621  1.00  0.00     0.198 A 
ATOM     44  C   UNL A   1      38.090  28.860  30.890  1.00  0.00     0.198 A 
ATOM     45  F   UNL A   1      40.290  28.307  31.510  1.00  0.00    -0.203 F 
ATOM     46  F   UNL A   1      36.719  29.866  27.691  1.00  0.00    -0.200 F 
ATOM     47  C   UNL A   1      37.176  29.251  29.923  1.00  0.00     0.200 A 
ATOM     48  F   UNL A   1      37.681  28.633  32.146  1.00  0.00    -0.200 F 
ATOM     49  F   UNL A   1      35.886  29.417  30.248  1.00  0.00    -0.200 F 
ENDBRANCH  25  39
BRANCH  26  50
ATOM     50  C   UNL A   1      49.166  26.718  26.253  1.00  0.00     0.064 A 
ATOM     51  C   UNL A   1      49.496  26.961  24.913  1.00  0.00     0.173 A 
ATOM     52  C   UNL A   1      50.160  26.178  27.083  1.00  0.00     0.173 A 
ATOM     53  F   UNL A   1      48.574  27.458  24.075  1.00  0.00    -0.203 F 
ATOM     54  C   UNL A   1      50.763  26.658  24.420  1.00  0.00     0.198 A 
ATOM     55  C   UNL A   1      51.436  25.907  26.598  1.00  0.00     0.198 A 
ATOM     56  F   UNL A   1      49.896  25.931  28.375  1.00  0.00    -0.203 F 
ATOM     57  F   UNL A   1      51.039  26.855  23.124  1.00  0.00    -0.200 F 
ATOM     58  C   UNL A   1      51.734  26.138  25.264  1.00  0.00     0.200 A 
ATOM     59  F   UNL A   1      52.375  25.421  27.421  1.00  0.00    -0.200 F 
ATOM     60  F   UNL A   1      52.954  25.850  24.789  1.00  0.00    -0.200 F 
ENDBRANCH  26  50
BRANCH  38  61
ATOM     61  C   UNL A   1      46.028  32.527  28.472  1.00  0.00     0.064 A 
ATOM     62  C   UNL A   1      46.625  32.978  29.658  1.00  0.00     0.173 A 
ATOM     63  C   UNL A   1      45.925  33.427  27.401  1.00  0.00     0.173 A 
ATOM     64  F   UNL A   1      46.728  32.160  30.716  1.00  0.00    -0.203 F 
ATOM     65  C   UNL A   1      47.085  34.287  29.772  1.00  0.00     0.198 A 
ATOM     66  C   UNL A   1      46.413  34.725  27.509  1.00  0.00     0.198 A 
ATOM     67  F   UNL A   1      45.365  33.041  26.245  1.00  0.00    -0.203 F 
ATOM     68  F   UNL A   1      47.614  34.711  30.929  1.00  0.00    -0.200 F 
ATOM     69  C   UNL A   1      46.987  35.156  28.695  1.00  0.00     0.200 A 
ATOM     70  F   UNL A   1      46.329  35.560  26.464  1.00  0.00    -0.200 F 
ATOM     71  F   UNL A   1      47.442  36.412  28.804  1.00  0.00    -0.200 F 
ENDBRANCH  38  61
ENDBRANCH  12  13
ENDBRANCH   5   7
ENDBRANCH   2   3
ENDBRANCH   1   2
BRANCH   1  72
ATOM     72  C   UNL A   1      37.199  20.725  24.729  1.00  0.00     0.023 C 
BRANCH  72  73
ATOM     73  C   UNL A   1      37.418  22.002  25.536  1.00  0.00     0.116 C 
BRANCH  73  74
ATOM     74  N   UNL A   1      36.340  22.233  26.476  1.00  0.00    -0.356 N 
ATOM     75  C   UNL A   1      35.199  22.967  26.361  1.00  0.00     0.224 C 
ATOM     76  H   UNL A   1      36.451  21.783  27.344  1.00  0.00     0.163 HD
ATOM     77  O   UNL A   1      34.485  23.053  27.361  1.00  0.00    -0.275 OA
BRANCH  75  78
ATOM     78  C   UNL A   1      34.891  23.694  25.058  1.00  0.00     0.098 C 
ATOM     79  C   UNL A   1      34.474  25.142  25.342  1.00  0.00     0.017 C 
ATOM     80  C   UNL A   1      33.843  22.935  24.240  1.00  0.00     0.133 C 
ATOM     81  C   UNL A   1      33.033  25.249  25.844  1.00  0.00     0.022 C 
ATOM     82  N   UNL A   1      32.490  23.107  24.751  1.00  0.00    -0.338 N 
ATOM     83  C   UNL A   1      32.061  24.492  24.943  1.00  0.00     0.120 C 
BRANCH  82  84
ATOM     84  C   UNL A   1      31.773  21.965  25.097  1.00  0.00     0.253 C 
ATOM     85  O   UNL A   1      30.851  21.947  25.908  1.00  0.00    -0.269 OA
BRANCH  84  86
ATOM     86  C   UNL A   1      32.132  20.681  24.471  1.00  0.00     0.041 A 
ATOM     87  C   UNL A   1      32.070  20.540  23.084  1.00  0.00     0.016 A 
ATOM     88  C   UNL A   1      32.588  19.646  25.297  1.00  0.00     0.035 A 
ATOM     89  C   UNL A   1      32.421  19.325  22.492  1.00  0.00     0.030 A 
ATOM     90  C   UNL A   1      32.943  18.435  24.684  1.00  0.00     0.055 A 
ATOM     91  C   UNL A   1      32.860  18.253  23.298  1.00  0.00     0.081 A 
ATOM     92  S   UNL A   1      33.525  16.982  25.404  1.00  0.00    -0.122 S 
ATOM     93  N   UNL A   1      33.233  17.001  22.840  1.00  0.00    -0.245 NA
ATOM     94  C   UNL A   1      33.604  16.256  23.857  1.00  0.00     0.176 A 
ENDBRANCH  84  86
ENDBRANCH  82  84
ENDBRANCH  75  78
ENDBRANCH  73  74
ENDBRANCH  72  73
ENDBRANCH   1  72
TORSDOF 13
ENDMDL
MODEL 3
REMARK VINA RESULT:     -12.9      6.323     11.581
REMARK SMILES O=C(NCCCCNC(=O)[C@@H]1CCCN(C(=O)c2ccc3ncsc3c2)C1)c1ccc(-c2c3nc(c(-c4c(F)c(F)c(F)c(F)c4F)c4ccc([nH]4)c(-c4c(F)c(F)c(F)c(F)c4F)c4nc(c(-c5c(F)c(F)c(F)c(F)c5F)c5ccc2[nH]5)C=C4)C=C3)cc1
REMARK SMILES IDX 5 1 4 2 3 3 1 4 2 5 28 7 29 8 90 9 30 10 89 11 31 12 32 13
REMARK SMILES IDX 33 14 83 15 34 16 88 17 82 18 84 19 35 20 87 21 81 22 80 23
REMARK SMILES IDX 36 25 68 26 48 27 67 28 49 29 52 30 66 31 85 32 50 33 51 34
REMARK SMILES IDX 65 36 86 37 53 38 37 39 38 40 46 41 39 42 40 43 44 44 47 45
REMARK SMILES IDX 41 46 42 47 45 48 43 49 69 50 70 51 78 52 71 53 72 54 76 55
REMARK SMILES IDX 79 56 73 57 74 58 77 59 75 60 54 61 55 62 63 63 56 64 57 65
REMARK SMILES IDX 61 66 64 67 58 68 59 69 62 70 60 71 6 72 7 73 8 74 9 75
REMARK SMILES IDX 10 77 11 78 12 79 27 80 13 81 15 82 14 83 16 84 17 85 18 86
REMARK SMILES IDX 19 87 26 88 20 89 25 90 21 91 24 92 22 93 23 94
REMARK H PARENT 3 6 84 24 52 35 8 76
REMARK Flexibility Score: inf
ROOT
ATOM      1  C   UNL A   1      38.138  19.284  25.001  1.00  0.00     0.023 C 
ENDROOT
BRANCH   1   2
ATOM      2  C   UNL A   1      39.339  19.846  25.751  1.00  0.00     0.116 C 
BRANCH   2   3
ATOM      3  N   UNL A   1      40.429  18.889  25.860  1.00  0.00    -0.352 N 
ATOM      4  O   UNL A   1      42.578  18.212  25.977  1.00  0.00    -0.269 OA
ATOM      5  C   UNL A   1      41.765  19.126  26.063  1.00  0.00     0.251 C 
ATOM      6  H   UNL A   1      40.173  17.942  25.776  1.00  0.00     0.163 HD
BRANCH   5   7
ATOM      7  C   UNL A   1      42.223  20.498  26.369  1.00  0.00     0.039 A 
ATOM      8  C   UNL A   1      42.586  21.372  25.340  1.00  0.00     0.014 A 
ATOM      9  C   UNL A   1      42.274  20.916  27.702  1.00  0.00     0.014 A 
ATOM     10  C   UNL A   1      43.103  22.625  25.648  1.00  0.00     0.010 A 
ATOM     11  C   UNL A   1      42.721  22.204  28.005  1.00  0.00     0.010 A 
ATOM     12  C   UNL A   1      43.149  23.063  26.980  1.00  0.00    -0.014 A 
BRANCH  12  13
ATOM     13  C   UNL A   1      43.538  24.462  27.276  1.00  0.00     0.031 A 
ATOM     14  C   UNL A   1      42.536  25.466  27.764  1.00  0.00     0.074 A 
ATOM     15  C   UNL A   1      44.821  24.821  27.073  1.00  0.00     0.049 A 
ATOM     16  N   UNL A   1      42.705  26.738  28.021  1.00  0.00    -0.248 NA
ATOM     17  C   UNL A   1      41.163  24.986  27.986  1.00  0.00     0.031 C 
ATOM     18  C   UNL A   1      45.874  23.928  26.581  1.00  0.00     0.029 A 
ATOM     19  N   UNL A   1      45.460  26.021  27.245  1.00  0.00    -0.354 N 
ATOM     20  C   UNL A   1      41.462  27.218  28.411  1.00  0.00     0.074 A 
ATOM     21  C   UNL A   1      40.541  26.102  28.348  1.00  0.00     0.031 C 
ATOM     22  C   UNL A   1      47.027  24.605  26.506  1.00  0.00     0.029 A 
ATOM     23  C   UNL A   1      46.784  25.992  26.881  1.00  0.00     0.049 A 
ATOM     24  H   UNL A   1      45.013  26.825  27.596  1.00  0.00     0.167 HD
ATOM     25  C   UNL A   1      41.131  28.475  28.790  1.00  0.00     0.037 A 
ATOM     26  C   UNL A   1      47.694  26.981  26.817  1.00  0.00     0.037 A 
ATOM     27  C   UNL A   1      42.066  29.568  28.876  1.00  0.00     0.049 A 
ATOM     28  C   UNL A   1      47.283  28.371  27.212  1.00  0.00     0.074 A 
ATOM     29  C   UNL A   1      41.846  30.855  29.336  1.00  0.00     0.029 A 
ATOM     30  N   UNL A   1      43.394  29.508  28.478  1.00  0.00    -0.354 N 
ATOM     31  N   UNL A   1      46.123  28.795  27.650  1.00  0.00    -0.248 NA
ATOM     32  C   UNL A   1      48.303  29.421  27.094  1.00  0.00     0.031 C 
ATOM     33  C   UNL A   1      43.022  31.590  29.160  1.00  0.00     0.029 A 
ATOM     34  C   UNL A   1      43.991  30.747  28.639  1.00  0.00     0.049 A 
ATOM     35  H   UNL A   1      43.844  28.703  28.133  1.00  0.00     0.167 HD
ATOM     36  C   UNL A   1      46.275  30.155  27.870  1.00  0.00     0.074 A 
ATOM     37  C   UNL A   1      47.647  30.482  27.541  1.00  0.00     0.031 C 
ATOM     38  C   UNL A   1      45.357  31.055  28.299  1.00  0.00     0.037 A 
BRANCH  25  39
ATOM     39  C   UNL A   1      39.697  28.762  29.127  1.00  0.00     0.064 A 
ATOM     40  C   UNL A   1      39.205  28.642  30.434  1.00  0.00     0.173 A 
ATOM     41  C   UNL A   1      38.828  29.255  28.141  1.00  0.00     0.173 A 
ATOM     42  F   UNL A   1      39.993  28.171  31.412  1.00  0.00    -0.203 F 
ATOM     43  C   UNL A   1      37.892  28.997  30.740  1.00  0.00     0.198 A 
ATOM     44  C   UNL A   1      37.524  29.631  28.455  1.00  0.00     0.198 A 
ATOM     45  F   UNL A   1      39.252  29.397  26.876  1.00  0.00    -0.203 F 
ATOM     46  F   UNL A   1      37.436  28.854  31.992  1.00  0.00    -0.200 F 
ATOM     47  C   UNL A   1      37.058  29.500  29.754  1.00  0.00     0.200 A 
ATOM     48  F   UNL A   1      36.724  30.130  27.503  1.00  0.00    -0.200 F 
ATOM     49  F   UNL A   1      35.802  29.859  30.054  1.00  0.00    -0.200 F 
ENDBRANCH  25  39
BRANCH  26  50
ATOM     50  C   UNL A   1      49.063  26.695  26.319  1.00  0.00     0.064 A 
ATOM     51  C   UNL A   1      49.394  26.866  24.968  1.00  0.00     0.173 A 
ATOM     52  C   UNL A   1      50.069  26.240  27.185  1.00  0.00     0.173 A 
ATOM     53  F   UNL A   1      48.461  27.280  24.097  1.00  0.00    -0.203 F 
ATOM     54  C   UNL A   1      50.674  26.577  24.501  1.00  0.00     0.198 A 
ATOM     55  C   UNL A   1      51.357  25.983  26.723  1.00  0.00     0.198 A 
ATOM     56  F   UNL A   1      49.805  26.064  28.488  1.00  0.00    -0.203 F 
ATOM     57  F   UNL A   1      50.951  26.703  23.196  1.00  0.00    -0.200 F 
ATOM     58  C   UNL A   1      51.656  26.142  25.379  1.00  0.00     0.200 A 
ATOM     59  F   UNL A   1      52.306  25.580  27.579  1.00  0.00    -0.200 F 
ATOM     60  F   UNL A   1      52.887  25.867  24.928  1.00  0.00    -0.200 F 
ENDBRANCH  26  50
BRANCH  38  61
ATOM     61  C   UNL A   1      45.810  32.477  28.440  1.00  0.00     0.064 A 
ATOM     62  C   UNL A   1      45.653  33.400  27.396  1.00  0.00     0.173 A 
ATOM     63  C   UNL A   1      46.368  32.932  29.644  1.00  0.00     0.173 A 
ATOM     64  F   UNL A   1      45.142  33.007  26.219  1.00  0.00    -0.203 F 
ATOM     65  C   UNL A   1      46.054  34.724  27.547  1.00  0.00     0.198 A 
ATOM     66  C   UNL A   1      46.741  34.263  29.801  1.00  0.00     0.198 A 
ATOM     67  F   UNL A   1      46.536  32.088  30.673  1.00  0.00    -0.203 F 
ATOM     68  F   UNL A   1      45.933  35.580  26.522  1.00  0.00    -0.200 F 
ATOM     69  C   UNL A   1      46.589  35.157  28.752  1.00  0.00     0.200 A 
ATOM     70  F   UNL A   1      47.246  34.682  30.969  1.00  0.00    -0.200 F 
ATOM     71  F   UNL A   1      46.964  36.434  28.898  1.00  0.00    -0.200 F 
ENDBRANCH  38  61
ENDBRANCH  12  13
ENDBRANCH   5   7
ENDBRANCH   2   3
ENDBRANCH   1   2
BRANCH   1  72
ATOM     72  C   UNL A   1      36.955  20.244  24.861  1.00  0.00     0.023 C 
BRANCH  72  73
ATOM     73  C   UNL A   1      37.208  21.655  25.385  1.00  0.00     0.116 C 
BRANCH  73  74
ATOM     74  N   UNL A   1      36.222  22.044  26.374  1.00  0.00    -0.356 N 
ATOM     75  C   UNL A   1      35.180  22.916  26.297  1.00  0.00     0.224 C 
ATOM     76  H   UNL A   1      36.323  21.602  27.247  1.00  0.00     0.163 HD
ATOM     77  O   UNL A   1      34.540  23.115  27.330  1.00  0.00    -0.275 OA
BRANCH  75  78
ATOM     78  C   UNL A   1      34.896  23.648  24.992  1.00  0.00     0.098 C 
ATOM     79  C   UNL A   1      34.476  25.096  25.274  1.00  0.00     0.017 C 
ATOM     80  C   UNL A   1      33.860  22.895  24.154  1.00  0.00     0.133 C 
ATOM     81  C   UNL A   1      33.027  25.205  25.752  1.00  0.00     0.022 C 
ATOM     82  N   UNL A   1      32.499  23.068  24.642  1.00  0.00    -0.338 N 
ATOM     83  C   UNL A   1      32.069  24.453  24.832  1.00  0.00     0.120 C 
BRANCH  82  84
ATOM     84  C   UNL A   1      31.773  21.925  24.972  1.00  0.00     0.253 C 
ATOM     85  O   UNL A   1      30.825  21.911  25.752  1.00  0.00    -0.269 OA
BRANCH  84  86
ATOM     86  C   UNL A   1      32.157  20.638  24.368  1.00  0.00     0.041 A 
ATOM     87  C   UNL A   1      32.153  20.491  22.981  1.00  0.00     0.016 A 
ATOM     88  C   UNL A   1      32.576  19.607  25.218  1.00  0.00     0.035 A 
ATOM     89  C   UNL A   1      32.528  19.272  22.410  1.00  0.00     0.030 A 
ATOM     90  C   UNL A   1      32.956  18.393  24.626  1.00  0.00     0.055 A 
ATOM     91  C   UNL A   1      32.932  18.204  23.239  1.00  0.00     0.081 A 
ATOM     92  S   UNL A   1      33.505  16.942  25.377  1.00  0.00    -0.122 S 
ATOM     93  N   UNL A   1      33.322  16.949  22.803  1.00  0.00    -0.245 NA
ATOM     94  C   UNL A   1      33.648  16.209  23.838  1.00  0.00     0.176 A 
ENDBRANCH  84  86
ENDBRANCH  82  84
ENDBRANCH  75  78
ENDBRANCH  73  74
ENDBRANCH  72  73
ENDBRANCH   1  72
TORSDOF 13
ENDMDL
