MODEL 1
REMARK VINA RESULT:     -13.9      0.000      0.000
REMARK SMILES Cc1nn2c(nnc3c(=O)n(CCCC(=O)NCCCCNC(=O)c4ccc(-c5c6nc(c(-c7c(F)c(F)c(F)c(F)c7F)c7ccc([nH]7)c(-c7c(F)c(F)c(F)c(F)c7F)c7nc(c(-c8c(F)c(F)c(F)c(F)c8F)c8ccc5[nH]8)C=C7)C=C6)cc4)ccc32)c1-c1ccc(F)cc1
REMARK SMILES IDX 18 1 17 2 15 3 16 4 14 6 13 7 12 8 11 9 1 10 2 11 3 12 91 13
REMARK SMILES IDX 4 14 5 15 90 16 6 17 8 18 89 19 7 20 9 21 88 22 10 23 92 24
REMARK SMILES IDX 93 25 98 26 94 27 97 28 95 29 96 30 19 31 20 32 21 33 22 34
REMARK SMILES IDX 23 35 24 37 25 38 26 39 87 40 27 41 86 42 28 43 29 44 30 45
REMARK SMILES IDX 80 46 31 47 85 48 79 49 81 50 32 51 84 52 78 53 77 54 33 56
REMARK SMILES IDX 65 57 45 58 64 59 46 60 49 61 63 62 82 63 47 64 48 65 62 67
REMARK SMILES IDX 83 68 50 69 34 70 35 71 43 72 36 73 37 74 41 75 44 76 38 77
REMARK SMILES IDX 39 78 42 79 40 80 66 81 67 82 75 83 68 84 69 85 73 86 76 87
REMARK SMILES IDX 70 88 71 89 74 90 72 91 51 92 52 93 60 94 53 95 54 96 58 97
REMARK SMILES IDX 61 98 55 99 56 100 59 101 57 102
REMARK H PARENT 17 5 22 36 81 55 49 66
REMARK Flexibility Score: inf
ROOT
ATOM      1  C   UNL A   1      34.194  28.409  26.163  1.00  0.00     0.116 C 
ENDROOT
BRANCH   1   2
ATOM      2  N   UNL A   1      33.205  27.469  26.634  1.00  0.00    -0.356 N 
ATOM      3  C   UNL A   1      31.915  27.223  26.317  1.00  0.00     0.220 C 
ATOM      4  O   UNL A   1      31.430  26.231  26.884  1.00  0.00    -0.275 OA
ATOM      5  H   UNL A   1      33.547  26.875  27.341  1.00  0.00     0.163 HD
BRANCH   3   6
ATOM      6  C   UNL A   1      31.050  27.966  25.305  1.00  0.00     0.102 C 
BRANCH   6   7
ATOM      7  C   UNL A   1      31.358  28.152  23.818  1.00  0.00     0.032 C 
BRANCH   7   8
ATOM      8  C   UNL A   1      31.595  27.033  22.793  1.00  0.00     0.126 C 
BRANCH   8   9
ATOM      9  N   UNL A   1      32.262  25.750  23.112  1.00  0.00    -0.313 N 
ATOM     10  C   UNL A   1      37.018  20.116  25.050  1.00  0.00     0.069 C 
ATOM     11  C   UNL A   1      35.692  20.738  24.810  1.00  0.00     0.070 A 
ATOM     12  N   UNL A   1      35.600  22.065  24.634  1.00  0.00    -0.170 NA
ATOM     13  C   UNL A   1      34.435  20.100  24.709  1.00  0.00     0.051 A 
ATOM     14  N   UNL A   1      34.286  22.289  24.357  1.00  0.00    -0.210 N 
ATOM     15  C   UNL A   1      33.549  21.115  24.433  1.00  0.00     0.186 A 
ATOM     16  C   UNL A   1      33.644  23.472  23.992  1.00  0.00     0.102 A 
ATOM     17  N   UNL A   1      32.205  21.119  24.219  1.00  0.00    -0.129 NA
ATOM     18  C   UNL A   1      32.334  23.356  23.725  1.00  0.00     0.177 A 
ATOM     19  C   UNL A   1      34.300  24.754  23.880  1.00  0.00     0.049 A 
ATOM     20  N   UNL A   1      31.631  22.175  23.863  1.00  0.00    -0.141 NA
ATOM     21  C   UNL A   1      31.566  24.549  23.266  1.00  0.00     0.280 A 
ATOM     22  C   UNL A   1      33.613  25.823  23.457  1.00  0.00     0.091 A 
ATOM     23  O   UNL A   1      30.362  24.405  23.103  1.00  0.00    -0.267 OA
BRANCH  13  24
ATOM     24  C   UNL A   1      34.011  18.722  24.825  1.00  0.00    -0.012 A 
ATOM     25  C   UNL A   1      32.954  18.380  25.676  1.00  0.00     0.012 A 
ATOM     26  C   UNL A   1      34.603  17.736  24.020  1.00  0.00     0.012 A 
ATOM     27  C   UNL A   1      32.487  17.064  25.709  1.00  0.00     0.040 A 
ATOM     28  C   UNL A   1      34.136  16.423  24.057  1.00  0.00     0.040 A 
ATOM     29  C   UNL A   1      33.080  16.101  24.898  1.00  0.00     0.123 A 
ATOM     30  F   UNL A   1      32.615  14.844  24.920  1.00  0.00    -0.207 F 
ENDBRANCH  13  24
ENDBRANCH   8   9
ENDBRANCH   7   8
ENDBRANCH   6   7
ENDBRANCH   3   6
ENDBRANCH   1   2
BRANCH   1  31
ATOM     31  C   UNL A   1      34.799  29.230  27.310  1.00  0.00     0.023 C 
BRANCH  31  32
ATOM     32  C   UNL A   1      34.229  30.642  27.472  1.00  0.00     0.023 C 
BRANCH  32  33
ATOM     33  C   UNL A   1      35.280  31.667  27.867  1.00  0.00     0.116 C 
BRANCH  33  34
ATOM     34  N   UNL A   1      34.973  32.368  29.116  1.00  0.00    -0.352 N 
ATOM     35  C   UNL A   1      35.430  32.042  30.384  1.00  0.00     0.251 C 
ATOM     36  H   UNL A   1      34.382  33.153  29.047  1.00  0.00     0.163 HD
ATOM     37  O   UNL A   1      34.906  32.460  31.395  1.00  0.00    -0.269 OA
BRANCH  35  38
ATOM     38  C   UNL A   1      36.629  31.192  30.450  1.00  0.00     0.039 A 
ATOM     39  C   UNL A   1      36.561  29.796  30.480  1.00  0.00     0.014 A 
ATOM     40  C   UNL A   1      37.846  31.866  30.406  1.00  0.00     0.014 A 
ATOM     41  C   UNL A   1      37.751  29.076  30.424  1.00  0.00     0.010 A 
ATOM     42  C   UNL A   1      38.988  31.162  30.162  1.00  0.00     0.010 A 
ATOM     43  C   UNL A   1      38.953  29.777  30.269  1.00  0.00    -0.014 A 
BRANCH  43  44
ATOM     44  C   UNL A   1      40.241  29.111  30.216  1.00  0.00     0.031 A 
ATOM     45  C   UNL A   1      40.892  28.861  31.529  1.00  0.00     0.074 A 
ATOM     46  C   UNL A   1      40.633  28.522  29.065  1.00  0.00     0.049 A 
ATOM     47  N   UNL A   1      42.038  29.293  31.945  1.00  0.00    -0.248 NA
ATOM     48  C   UNL A   1      40.134  28.118  32.552  1.00  0.00     0.031 C 
ATOM     49  C   UNL A   1      39.903  28.409  27.792  1.00  0.00     0.029 A 
ATOM     50  N   UNL A   1      41.745  27.784  28.829  1.00  0.00    -0.354 N 
ATOM     51  C   UNL A   1      42.221  28.751  33.215  1.00  0.00     0.074 A 
ATOM     52  C   UNL A   1      40.962  28.167  33.598  1.00  0.00     0.031 C 
ATOM     53  C   UNL A   1      40.482  27.465  27.017  1.00  0.00     0.029 A 
ATOM     54  C   UNL A   1      41.709  27.037  27.658  1.00  0.00     0.049 A 
ATOM     55  H   UNL A   1      42.517  27.777  29.439  1.00  0.00     0.167 HD
ATOM     56  C   UNL A   1      43.458  28.644  33.777  1.00  0.00     0.037 A 
ATOM     57  C   UNL A   1      42.616  26.097  27.294  1.00  0.00     0.037 A 
ATOM     58  C   UNL A   1      44.431  29.427  33.065  1.00  0.00     0.049 A 
ATOM     59  C   UNL A   1      43.840  26.354  28.101  1.00  0.00     0.074 A 
ATOM     60  C   UNL A   1      44.603  30.779  32.848  1.00  0.00     0.029 A 
ATOM     61  N   UNL A   1      45.178  28.795  32.100  1.00  0.00    -0.354 N 
ATOM     62  N   UNL A   1      44.568  27.434  27.983  1.00  0.00    -0.248 NA
ATOM     63  C   UNL A   1      43.957  25.657  29.373  1.00  0.00     0.031 C 
ATOM     64  C   UNL A   1      45.019  30.880  31.488  1.00  0.00     0.029 A 
ATOM     65  C   UNL A   1      45.152  29.588  30.979  1.00  0.00     0.049 A 
ATOM     66  H   UNL A   1      45.647  27.935  32.195  1.00  0.00     0.167 HD
ATOM     67  C   UNL A   1      44.911  27.776  29.284  1.00  0.00     0.074 A 
ATOM     68  C   UNL A   1      44.552  26.613  30.093  1.00  0.00     0.031 C 
ATOM     69  C   UNL A   1      45.176  29.072  29.628  1.00  0.00     0.037 A 
BRANCH  56  70
ATOM     70  C   UNL A   1      43.849  27.599  34.783  1.00  0.00     0.064 A 
ATOM     71  C   UNL A   1      43.869  26.241  34.419  1.00  0.00     0.173 A 
ATOM     72  C   UNL A   1      43.951  27.867  36.164  1.00  0.00     0.173 A 
ATOM     73  F   UNL A   1      43.740  25.877  33.134  1.00  0.00    -0.203 F 
ATOM     74  C   UNL A   1      43.953  25.223  35.375  1.00  0.00     0.198 A 
ATOM     75  C   UNL A   1      44.089  26.854  37.111  1.00  0.00     0.198 A 
ATOM     76  F   UNL A   1      43.815  29.107  36.651  1.00  0.00    -0.203 F 
ATOM     77  F   UNL A   1      43.871  23.942  34.995  1.00  0.00    -0.200 F 
ATOM     78  C   UNL A   1      44.066  25.531  36.720  1.00  0.00     0.200 A 
ATOM     79  F   UNL A   1      44.174  27.173  38.410  1.00  0.00    -0.200 F 
ATOM     80  F   UNL A   1      44.104  24.560  37.640  1.00  0.00    -0.200 F 
ENDBRANCH  56  70
BRANCH  57  81
ATOM     81  C   UNL A   1      42.352  24.795  26.635  1.00  0.00     0.064 A 
ATOM     82  C   UNL A   1      43.114  24.379  25.530  1.00  0.00     0.173 A 
ATOM     83  C   UNL A   1      41.555  23.808  27.251  1.00  0.00     0.173 A 
ATOM     84  F   UNL A   1      43.931  25.246  24.915  1.00  0.00    -0.203 F 
ATOM     85  C   UNL A   1      43.106  23.051  25.091  1.00  0.00     0.198 A 
ATOM     86  C   UNL A   1      41.546  22.483  26.809  1.00  0.00     0.198 A 
ATOM     87  F   UNL A   1      40.850  24.086  28.357  1.00  0.00    -0.203 F 
ATOM     88  F   UNL A   1      43.899  22.678  24.076  1.00  0.00    -0.200 F 
ATOM     89  C   UNL A   1      42.333  22.101  25.739  1.00  0.00     0.200 A 
ATOM     90  F   UNL A   1      40.826  21.566  27.471  1.00  0.00    -0.200 F 
ATOM     91  F   UNL A   1      42.381  20.815  25.364  1.00  0.00    -0.200 F 
ENDBRANCH  57  81
BRANCH  69  92
ATOM     92  C   UNL A   1      45.272  30.091  28.521  1.00  0.00     0.064 A 
ATOM     93  C   UNL A   1      44.206  30.914  28.114  1.00  0.00     0.173 A 
ATOM     94  C   UNL A   1      46.532  30.366  27.976  1.00  0.00     0.173 A 
ATOM     95  F   UNL A   1      42.992  30.786  28.656  1.00  0.00    -0.203 F 
ATOM     96  C   UNL A   1      44.387  31.939  27.186  1.00  0.00     0.198 A 
ATOM     97  C   UNL A   1      46.720  31.412  27.076  1.00  0.00     0.198 A 
ATOM     98  F   UNL A   1      47.600  29.654  28.367  1.00  0.00    -0.203 F 
ATOM     99  F   UNL A   1      43.350  32.708  26.820  1.00  0.00    -0.200 F 
ATOM    100  C   UNL A   1      45.647  32.194  26.675  1.00  0.00     0.200 A 
ATOM    101  F   UNL A   1      47.950  31.687  26.623  1.00  0.00    -0.200 F 
ATOM    102  F   UNL A   1      45.835  33.210  25.822  1.00  0.00    -0.200 F 
ENDBRANCH  69  92
ENDBRANCH  43  44
ENDBRANCH  35  38
ENDBRANCH  33  34
ENDBRANCH  32  33
ENDBRANCH  31  32
ENDBRANCH   1  31
TORSDOF 15
ENDMDL
MODEL 2
REMARK VINA RESULT:     -13.5      3.606      9.426
REMARK SMILES Cc1nn2c(nnc3c(=O)n(CCCC(=O)NCCCCNC(=O)c4ccc(-c5c6nc(c(-c7c(F)c(F)c(F)c(F)c7F)c7ccc([nH]7)c(-c7c(F)c(F)c(F)c(F)c7F)c7nc(c(-c8c(F)c(F)c(F)c(F)c8F)c8ccc5[nH]8)C=C7)C=C6)cc4)ccc32)c1-c1ccc(F)cc1
REMARK SMILES IDX 18 1 17 2 15 3 16 4 14 6 13 7 12 8 11 9 1 10 2 11 3 12 91 13
REMARK SMILES IDX 4 14 5 15 90 16 6 17 8 18 89 19 7 20 9 21 88 22 10 23 92 24
REMARK SMILES IDX 93 25 98 26 94 27 97 28 95 29 96 30 19 31 20 32 21 33 22 34
REMARK SMILES IDX 23 35 24 37 25 38 26 39 87 40 27 41 86 42 28 43 29 44 30 45
REMARK SMILES IDX 80 46 31 47 85 48 79 49 81 50 32 51 84 52 78 53 77 54 33 56
REMARK SMILES IDX 65 57 45 58 64 59 46 60 49 61 63 62 82 63 47 64 48 65 62 67
REMARK SMILES IDX 83 68 50 69 34 70 35 71 43 72 36 73 37 74 41 75 44 76 38 77
REMARK SMILES IDX 39 78 42 79 40 80 66 81 67 82 75 83 68 84 69 85 73 86 76 87
REMARK SMILES IDX 70 88 71 89 74 90 72 91 51 92 52 93 60 94 53 95 54 96 58 97
REMARK SMILES IDX 61 98 55 99 56 100 59 101 57 102
REMARK H PARENT 17 5 22 36 81 55 49 66
REMARK Flexibility Score: inf
ROOT
ATOM      1  C   UNL A   1      35.802  20.905  25.377  1.00  0.00     0.116 C 
ENDROOT
BRANCH   1   2
ATOM      2  N   UNL A   1      35.491  19.546  25.004  1.00  0.00    -0.356 N 
ATOM      3  C   UNL A   1      34.377  18.923  24.560  1.00  0.00     0.220 C 
ATOM      4  O   UNL A   1      34.549  17.738  24.235  1.00  0.00    -0.275 OA
ATOM      5  H   UNL A   1      36.262  18.939  25.090  1.00  0.00     0.163 HD
BRANCH   3   6
ATOM      6  C   UNL A   1      32.996  19.534  24.346  1.00  0.00     0.102 C 
BRANCH   6   7
ATOM      7  C   UNL A   1      32.666  21.026  24.294  1.00  0.00     0.032 C 
BRANCH   7   8
ATOM      8  C   UNL A   1      32.034  21.856  25.420  1.00  0.00     0.126 C 
BRANCH   8   9
ATOM      9  N   UNL A   1      31.784  23.313  25.332  1.00  0.00    -0.313 N 
ATOM     10  C   UNL A   1      31.662  30.900  26.065  1.00  0.00     0.069 C 
ATOM     11  C   UNL A   1      31.412  29.608  25.378  1.00  0.00     0.070 A 
ATOM     12  N   UNL A   1      31.972  28.484  25.851  1.00  0.00    -0.170 NA
ATOM     13  C   UNL A   1      30.605  29.365  24.244  1.00  0.00     0.051 A 
ATOM     14  N   UNL A   1      31.480  27.492  25.059  1.00  0.00    -0.210 N 
ATOM     15  C   UNL A   1      30.676  28.005  24.051  1.00  0.00     0.186 A 
ATOM     16  C   UNL A   1      31.646  26.110  25.158  1.00  0.00     0.102 A 
ATOM     17  N   UNL A   1      30.103  27.184  23.127  1.00  0.00    -0.129 NA
ATOM     18  C   UNL A   1      30.978  25.384  24.249  1.00  0.00     0.177 A 
ATOM     19  C   UNL A   1      32.457  25.458  26.159  1.00  0.00     0.049 A 
ATOM     20  N   UNL A   1      30.229  25.942  23.232  1.00  0.00    -0.141 NA
ATOM     21  C   UNL A   1      31.038  23.895  24.304  1.00  0.00     0.280 A 
ATOM     22  C   UNL A   1      32.502  24.119  26.216  1.00  0.00     0.091 A 
ATOM     23  O   UNL A   1      30.468  23.283  23.411  1.00  0.00    -0.267 OA
BRANCH  13  24
ATOM     24  C   UNL A   1      29.815  30.222  23.388  1.00  0.00    -0.012 A 
ATOM     25  C   UNL A   1      29.941  30.136  21.997  1.00  0.00     0.012 A 
ATOM     26  C   UNL A   1      28.857  31.082  23.949  1.00  0.00     0.012 A 
ATOM     27  C   UNL A   1      29.106  30.897  21.176  1.00  0.00     0.040 A 
ATOM     28  C   UNL A   1      28.027  31.842  23.126  1.00  0.00     0.040 A 
ATOM     29  C   UNL A   1      28.156  31.739  21.747  1.00  0.00     0.123 A 
ATOM     30  F   UNL A   1      27.345  32.451  20.954  1.00  0.00    -0.207 F 
ENDBRANCH  13  24
ENDBRANCH   8   9
ENDBRANCH   7   8
ENDBRANCH   6   7
ENDBRANCH   3   6
ENDBRANCH   1   2
BRANCH   1  31
ATOM     31  C   UNL A   1      36.986  21.466  24.577  1.00  0.00     0.023 C 
BRANCH  31  32
ATOM     32  C   UNL A   1      37.396  22.896  24.938  1.00  0.00     0.023 C 
BRANCH  32  33
ATOM     33  C   UNL A   1      38.278  22.968  26.174  1.00  0.00     0.116 C 
BRANCH  33  34
ATOM     34  N   UNL A   1      39.571  22.297  26.010  1.00  0.00    -0.352 N 
ATOM     35  C   UNL A   1      40.825  22.860  26.187  1.00  0.00     0.251 C 
ATOM     36  H   UNL A   1      39.545  21.348  25.749  1.00  0.00     0.163 HD
ATOM     37  O   UNL A   1      41.837  22.356  25.746  1.00  0.00    -0.269 OA
BRANCH  35  38
ATOM     38  C   UNL A   1      40.884  24.091  26.990  1.00  0.00     0.039 A 
ATOM     39  C   UNL A   1      41.652  24.196  28.153  1.00  0.00     0.014 A 
ATOM     40  C   UNL A   1      40.179  25.177  26.477  1.00  0.00     0.014 A 
ATOM     41  C   UNL A   1      41.737  25.435  28.780  1.00  0.00     0.010 A 
ATOM     42  C   UNL A   1      40.415  26.422  26.982  1.00  0.00     0.010 A 
ATOM     43  C   UNL A   1      41.109  26.535  28.181  1.00  0.00    -0.014 A 
BRANCH  43  44
ATOM     44  C   UNL A   1      41.131  27.860  28.771  1.00  0.00     0.031 A 
ATOM     45  C   UNL A   1      42.202  28.767  28.279  1.00  0.00     0.074 A 
ATOM     46  C   UNL A   1      40.063  28.285  29.481  1.00  0.00     0.049 A 
ATOM     47  N   UNL A   1      43.146  29.327  28.962  1.00  0.00    -0.248 NA
ATOM     48  C   UNL A   1      42.301  29.005  26.827  1.00  0.00     0.031 C 
ATOM     49  C   UNL A   1      38.791  27.590  29.738  1.00  0.00     0.029 A 
ATOM     50  N   UNL A   1      39.846  29.502  30.036  1.00  0.00    -0.354 N 
ATOM     51  C   UNL A   1      43.862  30.114  28.064  1.00  0.00     0.074 A 
ATOM     52  C   UNL A   1      43.398  29.761  26.747  1.00  0.00     0.031 C 
ATOM     53  C   UNL A   1      37.871  28.473  30.186  1.00  0.00     0.029 A 
ATOM     54  C   UNL A   1      38.530  29.744  30.410  1.00  0.00     0.049 A 
ATOM     55  H   UNL A   1      40.564  30.162  30.164  1.00  0.00     0.167 HD
ATOM     56  C   UNL A   1      44.645  31.149  28.482  1.00  0.00     0.037 A 
ATOM     57  C   UNL A   1      38.034  30.937  30.822  1.00  0.00     0.037 A 
ATOM     58  C   UNL A   1      44.876  31.096  29.900  1.00  0.00     0.049 A 
ATOM     59  C   UNL A   1      39.202  31.760  31.240  1.00  0.00     0.074 A 
ATOM     60  C   UNL A   1      45.530  30.212  30.734  1.00  0.00     0.029 A 
ATOM     61  N   UNL A   1      44.045  31.830  30.712  1.00  0.00    -0.354 N 
ATOM     62  N   UNL A   1      39.965  31.465  32.259  1.00  0.00    -0.248 NA
ATOM     63  C   UNL A   1      39.811  32.612  30.228  1.00  0.00     0.031 C 
ATOM     64  C   UNL A   1      44.700  30.119  31.890  1.00  0.00     0.029 A 
ATOM     65  C   UNL A   1      43.634  31.006  31.730  1.00  0.00     0.049 A 
ATOM     66  H   UNL A   1      43.792  32.773  30.587  1.00  0.00     0.167 HD
ATOM     67  C   UNL A   1      41.256  31.743  31.831  1.00  0.00     0.074 A 
ATOM     68  C   UNL A   1      41.092  32.500  30.591  1.00  0.00     0.031 C 
ATOM     69  C   UNL A   1      42.333  31.085  32.355  1.00  0.00     0.037 A 
BRANCH  56  70
ATOM     70  C   UNL A   1      44.950  32.371  27.664  1.00  0.00     0.064 A 
ATOM     71  C   UNL A   1      46.197  32.501  27.027  1.00  0.00     0.173 A 
ATOM     72  C   UNL A   1      44.155  33.536  27.703  1.00  0.00     0.173 A 
ATOM     73  F   UNL A   1      47.046  31.462  26.969  1.00  0.00    -0.203 F 
ATOM     74  C   UNL A   1      46.629  33.720  26.494  1.00  0.00     0.198 A 
ATOM     75  C   UNL A   1      44.564  34.735  27.124  1.00  0.00     0.198 A 
ATOM     76  F   UNL A   1      43.007  33.580  28.391  1.00  0.00    -0.203 F 
ATOM     77  F   UNL A   1      47.862  33.826  25.983  1.00  0.00    -0.200 F 
ATOM     78  C   UNL A   1      45.811  34.835  26.541  1.00  0.00     0.200 A 
ATOM     79  F   UNL A   1      43.766  35.810  27.201  1.00  0.00    -0.200 F 
ATOM     80  F   UNL A   1      46.237  36.014  26.071  1.00  0.00    -0.200 F 
ENDBRANCH  56  70
BRANCH  57  81
ATOM     81  C   UNL A   1      36.715  31.530  30.489  1.00  0.00     0.064 A 
ATOM     82  C   UNL A   1      35.864  32.004  31.501  1.00  0.00     0.173 A 
ATOM     83  C   UNL A   1      36.394  31.913  29.171  1.00  0.00     0.173 A 
ATOM     84  F   UNL A   1      36.125  31.720  32.785  1.00  0.00    -0.203 F 
ATOM     85  C   UNL A   1      34.778  32.839  31.215  1.00  0.00     0.198 A 
ATOM     86  C   UNL A   1      35.307  32.743  28.887  1.00  0.00     0.198 A 
ATOM     87  F   UNL A   1      37.187  31.574  28.145  1.00  0.00    -0.203 F 
ATOM     88  F   UNL A   1      34.028  33.327  32.213  1.00  0.00    -0.200 F 
ATOM     89  C   UNL A   1      34.509  33.218  29.909  1.00  0.00     0.200 A 
ATOM     90  F   UNL A   1      35.084  33.137  27.625  1.00  0.00    -0.200 F 
ATOM     91  F   UNL A   1      33.513  34.076  29.643  1.00  0.00    -0.200 F 
ENDBRANCH  57  81
BRANCH  69  92
ATOM     92  C   UNL A   1      42.101  30.188  33.543  1.00  0.00     0.064 A 
ATOM     93  C   UNL A   1      41.787  28.820  33.447  1.00  0.00     0.173 A 
ATOM     94  C   UNL A   1      42.381  30.688  34.821  1.00  0.00     0.173 A 
ATOM     95  F   UNL A   1      41.603  28.238  32.259  1.00  0.00    -0.203 F 
ATOM     96  C   UNL A   1      41.727  28.003  34.575  1.00  0.00     0.198 A 
ATOM     97  C   UNL A   1      42.355  29.863  35.944  1.00  0.00     0.198 A 
ATOM     98  F   UNL A   1      42.743  31.971  34.973  1.00  0.00    -0.203 F 
ATOM     99  F   UNL A   1      41.427  26.701  34.449  1.00  0.00    -0.200 F 
ATOM    100  C   UNL A   1      42.021  28.523  35.822  1.00  0.00     0.200 A 
ATOM    101  F   UNL A   1      42.689  30.361  37.142  1.00  0.00    -0.200 F 
ATOM    102  F   UNL A   1      42.014  27.730  36.903  1.00  0.00    -0.200 F 
ENDBRANCH  69  92
ENDBRANCH  43  44
ENDBRANCH  35  38
ENDBRANCH  33  34
ENDBRANCH  32  33
ENDBRANCH  31  32
ENDBRANCH   1  31
TORSDOF 15
ENDMDL
MODEL 3
REMARK VINA RESULT:     -13.3      2.733      7.174
REMARK SMILES Cc1nn2c(nnc3c(=O)n(CCCC(=O)NCCCCNC(=O)c4ccc(-c5c6nc(c(-c7c(F)c(F)c(F)c(F)c7F)c7ccc([nH]7)c(-c7c(F)c(F)c(F)c(F)c7F)c7nc(c(-c8c(F)c(F)c(F)c(F)c8F)c8ccc5[nH]8)C=C7)C=C6)cc4)ccc32)c1-c1ccc(F)cc1
REMARK SMILES IDX 18 1 17 2 15 3 16 4 14 6 13 7 12 8 11 9 1 10 2 11 3 12 91 13
REMARK SMILES IDX 4 14 5 15 90 16 6 17 8 18 89 19 7 20 9 21 88 22 10 23 92 24
REMARK SMILES IDX 93 25 98 26 94 27 97 28 95 29 96 30 19 31 20 32 21 33 22 34
REMARK SMILES IDX 23 35 24 37 25 38 26 39 87 40 27 41 86 42 28 43 29 44 30 45
REMARK SMILES IDX 80 46 31 47 85 48 79 49 81 50 32 51 84 52 78 53 77 54 33 56
REMARK SMILES IDX 65 57 45 58 64 59 46 60 49 61 63 62 82 63 47 64 48 65 62 67
REMARK SMILES IDX 83 68 50 69 34 70 35 71 43 72 36 73 37 74 41 75 44 76 38 77
REMARK SMILES IDX 39 78 42 79 40 80 66 81 67 82 75 83 68 84 69 85 73 86 76 87
REMARK SMILES IDX 70 88 71 89 74 90 72 91 51 92 52 93 60 94 53 95 54 96 58 97
REMARK SMILES IDX 61 98 55 99 56 100 59 101 57 102
REMARK H PARENT 17 5 22 36 81 55 49 66
REMARK Flexibility Score: inf
ROOT
ATOM      1  C   UNL A   1      32.600  29.978  26.815  1.00  0.00     0.116 C 
ENDROOT
BRANCH   1   2
ATOM      2  N   UNL A   1      32.262  28.617  27.157  1.00  0.00    -0.356 N 
ATOM      3  C   UNL A   1      31.577  27.633  26.534  1.00  0.00     0.220 C 
ATOM      4  O   UNL A   1      31.603  26.541  27.122  1.00  0.00    -0.275 OA
ATOM      5  H   UNL A   1      32.609  28.345  28.037  1.00  0.00     0.163 HD
BRANCH   3   6
ATOM      6  C   UNL A   1      30.870  27.705  25.184  1.00  0.00     0.102 C 
BRANCH   6   7
ATOM      7  C   UNL A   1      31.513  28.072  23.846  1.00  0.00     0.032 C 
BRANCH   7   8
ATOM      8  C   UNL A   1      32.021  27.088  22.783  1.00  0.00     0.126 C 
BRANCH   8   9
ATOM      9  N   UNL A   1      32.597  25.760  23.094  1.00  0.00    -0.313 N 
ATOM     10  C   UNL A   1      36.921  19.807  25.090  1.00  0.00     0.069 C 
ATOM     11  C   UNL A   1      35.646  20.512  24.806  1.00  0.00     0.070 A 
ATOM     12  N   UNL A   1      35.639  21.846  24.665  1.00  0.00    -0.170 NA
ATOM     13  C   UNL A   1      34.361  19.952  24.626  1.00  0.00     0.051 A 
ATOM     14  N   UNL A   1      34.356  22.154  24.332  1.00  0.00    -0.210 N 
ATOM     15  C   UNL A   1      33.549  21.024  24.339  1.00  0.00     0.186 A 
ATOM     16  C   UNL A   1      33.801  23.382  23.972  1.00  0.00     0.102 A 
ATOM     17  N   UNL A   1      32.219  21.113  24.060  1.00  0.00    -0.129 NA
ATOM     18  C   UNL A   1      32.501  23.351  23.639  1.00  0.00     0.177 A 
ATOM     19  C   UNL A   1      34.534  24.626  23.929  1.00  0.00     0.049 A 
ATOM     20  N   UNL A   1      31.726  22.210  23.710  1.00  0.00    -0.141 NA
ATOM     21  C   UNL A   1      31.826  24.599  23.180  1.00  0.00     0.280 A 
ATOM     22  C   UNL A   1      33.931  25.745  23.505  1.00  0.00     0.091 A 
ATOM     23  O   UNL A   1      30.625  24.530  22.956  1.00  0.00    -0.267 OA
BRANCH  13  24
ATOM     24  C   UNL A   1      33.853  18.599  24.682  1.00  0.00    -0.012 A 
ATOM     25  C   UNL A   1      34.390  17.610  23.849  1.00  0.00     0.012 A 
ATOM     26  C   UNL A   1      32.878  18.255  25.632  1.00  0.00     0.012 A 
ATOM     27  C   UNL A   1      33.963  16.287  23.978  1.00  0.00     0.040 A 
ATOM     28  C   UNL A   1      32.452  16.933  25.756  1.00  0.00     0.040 A 
ATOM     29  C   UNL A   1      33.001  15.961  24.930  1.00  0.00     0.123 A 
ATOM     30  F   UNL A   1      32.610  14.687  25.062  1.00  0.00    -0.207 F 
ENDBRANCH  13  24
ENDBRANCH   8   9
ENDBRANCH   7   8
ENDBRANCH   6   7
ENDBRANCH   3   6
ENDBRANCH   1   2
BRANCH   1  31
ATOM     31  C   UNL A   1      31.450  30.693  26.094  1.00  0.00     0.023 C 
BRANCH  31  32
ATOM     32  C   UNL A   1      31.230  32.151  26.505  1.00  0.00     0.023 C 
BRANCH  32  33
ATOM     33  C   UNL A   1      32.397  32.731  27.289  1.00  0.00     0.116 C 
BRANCH  33  34
ATOM     34  N   UNL A   1      32.214  34.138  27.655  1.00  0.00    -0.352 N 
ATOM     35  C   UNL A   1      32.922  34.843  28.617  1.00  0.00     0.251 C 
ATOM     36  H   UNL A   1      31.519  34.634  27.166  1.00  0.00     0.163 HD
ATOM     37  O   UNL A   1      32.527  35.892  29.081  1.00  0.00    -0.269 OA
BRANCH  35  38
ATOM     38  C   UNL A   1      34.220  34.279  29.020  1.00  0.00     0.039 A 
ATOM     39  C   UNL A   1      34.447  33.748  30.293  1.00  0.00     0.014 A 
ATOM     40  C   UNL A   1      35.193  34.241  28.025  1.00  0.00     0.014 A 
ATOM     41  C   UNL A   1      35.669  33.131  30.543  1.00  0.00     0.010 A 
ATOM     42  C   UNL A   1      36.306  33.476  28.213  1.00  0.00     0.010 A 
ATOM     43  C   UNL A   1      36.587  33.009  29.492  1.00  0.00    -0.014 A 
BRANCH  43  44
ATOM     44  C   UNL A   1      37.890  32.396  29.664  1.00  0.00     0.031 A 
ATOM     45  C   UNL A   1      38.010  30.991  29.191  1.00  0.00     0.074 A 
ATOM     46  C   UNL A   1      38.954  33.176  29.958  1.00  0.00     0.049 A 
ATOM     47  N   UNL A   1      38.320  29.943  29.882  1.00  0.00    -0.248 NA
ATOM     48  C   UNL A   1      37.641  30.692  27.796  1.00  0.00     0.031 C 
ATOM     49  C   UNL A   1      39.010  34.640  30.105  1.00  0.00     0.029 A 
ATOM     50  N   UNL A   1      40.256  32.822  30.074  1.00  0.00    -0.354 N 
ATOM     51  C   UNL A   1      38.344  28.878  28.985  1.00  0.00     0.074 A 
ATOM     52  C   UNL A   1      37.772  29.364  27.756  1.00  0.00     0.031 C 
ATOM     53  C   UNL A   1      40.296  35.053  30.057  1.00  0.00     0.029 A 
ATOM     54  C   UNL A   1      41.152  33.884  30.051  1.00  0.00     0.049 A 
ATOM     55  H   UNL A   1      40.545  31.886  30.167  1.00  0.00     0.167 HD
ATOM     56  C   UNL A   1      39.021  27.726  29.256  1.00  0.00     0.037 A 
ATOM     57  C   UNL A   1      42.502  33.775  29.977  1.00  0.00     0.037 A 
ATOM     58  C   UNL A   1      39.392  27.646  30.643  1.00  0.00     0.049 A 
ATOM     59  C   UNL A   1      42.839  32.388  30.396  1.00  0.00     0.074 A 
ATOM     60  C   UNL A   1      38.681  27.553  31.822  1.00  0.00     0.029 A 
ATOM     61  N   UNL A   1      40.648  28.078  30.995  1.00  0.00    -0.354 N 
ATOM     62  N   UNL A   1      42.638  31.930  31.604  1.00  0.00    -0.248 NA
ATOM     63  C   UNL A   1      42.922  31.378  29.350  1.00  0.00     0.031 C 
ATOM     64  C   UNL A   1      39.375  28.403  32.734  1.00  0.00     0.029 A 
ATOM     65  C   UNL A   1      40.506  28.900  32.085  1.00  0.00     0.049 A 
ATOM     66  H   UNL A   1      41.492  27.840  30.550  1.00  0.00     0.167 HD
ATOM     67  C   UNL A   1      42.166  30.637  31.422  1.00  0.00     0.074 A 
ATOM     68  C   UNL A   1      42.415  30.335  30.014  1.00  0.00     0.031 C 
ATOM     69  C   UNL A   1      41.351  30.045  32.345  1.00  0.00     0.037 A 
BRANCH  56  70
ATOM     70  C   UNL A   1      39.610  26.819  28.214  1.00  0.00     0.064 A 
ATOM     71  C   UNL A   1      39.454  25.425  28.321  1.00  0.00     0.173 A 
ATOM     72  C   UNL A   1      40.546  27.261  27.255  1.00  0.00     0.173 A 
ATOM     73  F   UNL A   1      38.617  24.900  29.230  1.00  0.00    -0.203 F 
ATOM     74  C   UNL A   1      40.206  24.538  27.544  1.00  0.00     0.198 A 
ATOM     75  C   UNL A   1      41.254  26.376  26.444  1.00  0.00     0.198 A 
ATOM     76  F   UNL A   1      40.881  28.552  27.144  1.00  0.00    -0.203 F 
ATOM     77  F   UNL A   1      40.098  23.218  27.746  1.00  0.00    -0.200 F 
ATOM     78  C   UNL A   1      41.103  25.014  26.605  1.00  0.00     0.200 A 
ATOM     79  F   UNL A   1      42.136  26.858  25.556  1.00  0.00    -0.200 F 
ATOM     80  F   UNL A   1      41.855  24.168  25.890  1.00  0.00    -0.200 F 
ENDBRANCH  56  70
BRANCH  57  81
ATOM     81  C   UNL A   1      43.434  34.624  29.195  1.00  0.00     0.064 A 
ATOM     82  C   UNL A   1      43.635  34.396  27.823  1.00  0.00     0.173 A 
ATOM     83  C   UNL A   1      43.914  35.849  29.702  1.00  0.00     0.173 A 
ATOM     84  F   UNL A   1      43.171  33.275  27.254  1.00  0.00    -0.203 F 
ATOM     85  C   UNL A   1      44.248  35.351  27.003  1.00  0.00     0.198 A 
ATOM     86  C   UNL A   1      44.528  36.799  28.883  1.00  0.00     0.198 A 
ATOM     87  F   UNL A   1      43.703  36.192  30.981  1.00  0.00    -0.203 F 
ATOM     88  F   UNL A   1      44.361  35.127  25.686  1.00  0.00    -0.200 F 
ATOM     89  C   UNL A   1      44.681  36.557  27.532  1.00  0.00     0.200 A 
ATOM     90  F   UNL A   1      44.903  37.978  29.399  1.00  0.00    -0.200 F 
ATOM     91  F   UNL A   1      45.201  37.500  26.733  1.00  0.00    -0.200 F 
ENDBRANCH  57  81
BRANCH  69  92
ATOM     92  C   UNL A   1      41.134  30.757  33.655  1.00  0.00     0.064 A 
ATOM     93  C   UNL A   1      42.039  30.718  34.732  1.00  0.00     0.173 A 
ATOM     94  C   UNL A   1      40.061  31.651  33.758  1.00  0.00     0.173 A 
ATOM     95  F   UNL A   1      43.143  29.968  34.676  1.00  0.00    -0.203 F 
ATOM     96  C   UNL A   1      41.861  31.511  35.865  1.00  0.00     0.198 A 
ATOM     97  C   UNL A   1      39.903  32.468  34.876  1.00  0.00     0.198 A 
ATOM     98  F   UNL A   1      39.195  31.777  32.741  1.00  0.00    -0.203 F 
ATOM     99  F   UNL A   1      42.744  31.452  36.874  1.00  0.00    -0.200 F 
ATOM    100  C   UNL A   1      40.799  32.393  35.932  1.00  0.00     0.200 A 
ATOM    101  F   UNL A   1      38.901  33.356  34.914  1.00  0.00    -0.200 F 
ATOM    102  F   UNL A   1      40.652  33.193  36.997  1.00  0.00    -0.200 F 
ENDBRANCH  69  92
ENDBRANCH  43  44
ENDBRANCH  35  38
ENDBRANCH  33  34
ENDBRANCH  32  33
ENDBRANCH  31  32
ENDBRANCH   1  31
TORSDOF 15
ENDMDL
