MODEL 1
REMARK VINA RESULT:     -11.4      0.000      0.000
REMARK SMILES C[NH+](C)CC(C)(C)CNc1cccc(F)c1C(=O)NCCCCNC(=O)c1ccc(-c2c3nc(c(-c4c(F)c(F)c(F)c(F)c4F)c4ccc([nH]4)c(-c4c(F)c(F)c(F)c(F)c4F)c4nc(c(-c5c(F)c(F)c(F)c(F)c5F)c5ccc2[nH]5)C=C4)C=C3)cc1
REMARK SMILES IDX 20 1 19 2 17 3 18 4 16 6 10 7 11 8 12 9 14 10 13 11 15 12
REMARK SMILES IDX 9 13 8 15 5 16 6 17 7 18 4 19 2 20 1 21 3 22 21 24 22 25
REMARK SMILES IDX 23 26 24 27 25 28 26 30 27 31 28 32 89 33 29 34 88 35 30 36
REMARK SMILES IDX 31 37 32 38 82 39 33 40 87 41 81 42 83 43 34 44 86 45 80 46
REMARK SMILES IDX 79 47 35 49 67 50 47 51 66 52 48 53 51 54 65 55 84 56 49 57
REMARK SMILES IDX 50 58 64 60 85 61 52 62 36 63 37 64 45 65 38 66 39 67 43 68
REMARK SMILES IDX 46 69 40 70 41 71 44 72 42 73 68 74 69 75 77 76 70 77 71 78
REMARK SMILES IDX 75 79 78 80 72 81 73 82 76 83 74 84 53 85 54 86 62 87 55 88
REMARK SMILES IDX 56 89 60 90 63 91 57 92 58 93 61 94 59 95
REMARK H PARENT 19 5 9 14 2 23 24 29 83 48 51 59
REMARK Flexibility Score: inf
ROOT
ATOM      1  C   UNL A   1      36.852  22.576  25.254  1.00  0.00     0.116 C 
ENDROOT
BRANCH   1   2
ATOM      2  N   UNL A   1      36.018  22.183  26.373  1.00  0.00    -0.352 N 
ATOM      3  C   UNL A   1      34.670  21.937  26.482  1.00  0.00     0.256 C 
ATOM      4  O   UNL A   1      34.265  21.716  27.627  1.00  0.00    -0.269 OA
ATOM      5  H   UNL A   1      36.512  22.070  27.217  1.00  0.00     0.163 HD
BRANCH   3   6
ATOM      6  C   UNL A   1      33.703  22.006  25.340  1.00  0.00     0.098 A 
ATOM      7  C   UNL A   1      33.011  23.219  25.071  1.00  0.00     0.050 A 
ATOM      8  C   UNL A   1      32.231  23.309  23.901  1.00  0.00     0.027 A 
ATOM      9  C   UNL A   1      32.039  22.211  23.066  1.00  0.00     0.005 A 
ATOM     10  C   UNL A   1      33.382  20.888  24.564  1.00  0.00     0.138 A 
ATOM     11  C   UNL A   1      32.581  20.987  23.425  1.00  0.00     0.040 A 
ATOM     12  F   UNL A   1      33.755  19.652  24.928  1.00  0.00    -0.206 F 
BRANCH   7  13
ATOM     13  N   UNL A   1      32.990  24.278  25.986  1.00  0.00    -0.384 N 
ATOM     14  H   UNL A   1      32.512  24.176  26.840  1.00  0.00     0.160 HD
BRANCH  13  15
ATOM     15  C   UNL A   1      33.676  25.536  25.683  1.00  0.00     0.125 C 
BRANCH  15  16
ATOM     16  C   UNL A   1      32.734  26.773  25.599  1.00  0.00     0.031 C 
ATOM     17  C   UNL A   1      33.274  27.839  26.575  1.00  0.00     0.019 C 
ATOM     18  C   UNL A   1      31.330  26.378  26.130  1.00  0.00     0.019 C 
BRANCH  16  19
ATOM     19  C   UNL A   1      32.541  27.367  24.160  1.00  0.00     0.269 C 
BRANCH  19  20
ATOM     20  N   UNL A   1      33.529  27.306  23.078  1.00  0.00    -0.339 N 
ATOM     21  C   UNL A   1      33.279  26.351  22.016  1.00  0.00     0.332 C 
ATOM     22  C   UNL A   1      34.025  28.573  22.585  1.00  0.00     0.332 C 
ATOM     23  H   UNL A   1      34.310  26.905  23.596  1.00  0.00     0.347 HD
ENDBRANCH  19  20
ENDBRANCH  16  19
ENDBRANCH  15  16
ENDBRANCH  13  15
ENDBRANCH   7  13
ENDBRANCH   3   6
ENDBRANCH   1   2
BRANCH   1  24
ATOM     24  C   UNL A   1      37.220  21.415  24.337  1.00  0.00     0.023 C 
BRANCH  24  25
ATOM     25  C   UNL A   1      37.858  20.197  25.000  1.00  0.00     0.023 C 
BRANCH  25  26
ATOM     26  C   UNL A   1      39.057  20.469  25.901  1.00  0.00     0.116 C 
BRANCH  26  27
ATOM     27  N   UNL A   1      40.031  19.387  25.921  1.00  0.00    -0.352 N 
ATOM     28  C   UNL A   1      41.391  19.422  26.124  1.00  0.00     0.251 C 
ATOM     29  H   UNL A   1      39.659  18.491  25.764  1.00  0.00     0.163 HD
ATOM     30  O   UNL A   1      42.056  18.396  26.012  1.00  0.00    -0.269 OA
BRANCH  28  31
ATOM     31  C   UNL A   1      42.067  20.701  26.434  1.00  0.00     0.039 A 
ATOM     32  C   UNL A   1      42.485  21.513  25.375  1.00  0.00     0.014 A 
ATOM     33  C   UNL A   1      42.276  21.109  27.753  1.00  0.00     0.014 A 
ATOM     34  C   UNL A   1      43.023  22.775  25.637  1.00  0.00     0.010 A 
ATOM     35  C   UNL A   1      42.737  22.397  28.012  1.00  0.00     0.010 A 
ATOM     36  C   UNL A   1      43.106  23.247  26.958  1.00  0.00    -0.014 A 
BRANCH  36  37
ATOM     37  C   UNL A   1      43.545  24.635  27.254  1.00  0.00     0.031 A 
ATOM     38  C   UNL A   1      42.559  25.655  27.747  1.00  0.00     0.074 A 
ATOM     39  C   UNL A   1      44.816  24.998  26.995  1.00  0.00     0.049 A 
ATOM     40  N   UNL A   1      42.736  26.931  27.978  1.00  0.00    -0.248 NA
ATOM     41  C   UNL A   1      41.185  25.187  27.982  1.00  0.00     0.031 C 
ATOM     42  C   UNL A   1      45.852  24.117  26.455  1.00  0.00     0.029 A 
ATOM     43  N   UNL A   1      45.451  26.208  27.137  1.00  0.00    -0.354 N 
ATOM     44  C   UNL A   1      41.495  27.422  28.359  1.00  0.00     0.074 A 
ATOM     45  C   UNL A   1      40.563  26.318  28.287  1.00  0.00     0.031 C 
ATOM     46  C   UNL A   1      46.996  24.808  26.331  1.00  0.00     0.029 A 
ATOM     47  C   UNL A   1      46.767  26.189  26.747  1.00  0.00     0.049 A 
ATOM     48  H   UNL A   1      45.003  27.014  27.484  1.00  0.00     0.167 HD
ATOM     49  C   UNL A   1      41.169  28.675  28.754  1.00  0.00     0.037 A 
ATOM     50  C   UNL A   1      47.688  27.172  26.721  1.00  0.00     0.037 A 
ATOM     51  C   UNL A   1      42.109  29.758  28.867  1.00  0.00     0.049 A 
ATOM     52  C   UNL A   1      47.310  28.549  27.191  1.00  0.00     0.074 A 
ATOM     53  C   UNL A   1      41.893  31.036  29.352  1.00  0.00     0.029 A 
ATOM     54  N   UNL A   1      43.441  29.693  28.489  1.00  0.00    -0.354 N 
ATOM     55  N   UNL A   1      46.151  28.982  27.624  1.00  0.00    -0.248 NA
ATOM     56  C   UNL A   1      48.365  29.573  27.175  1.00  0.00     0.031 C 
ATOM     57  C   UNL A   1      43.082  31.759  29.222  1.00  0.00     0.029 A 
ATOM     58  C   UNL A   1      44.053  30.917  28.704  1.00  0.00     0.049 A 
ATOM     59  H   UNL A   1      43.886  28.895  28.122  1.00  0.00     0.167 HD
ATOM     60  C   UNL A   1      46.338  30.319  27.945  1.00  0.00     0.074 A 
ATOM     61  C   UNL A   1      47.727  30.624  27.671  1.00  0.00     0.031 C 
ATOM     62  C   UNL A   1      45.436  31.211  28.423  1.00  0.00     0.037 A 
BRANCH  49  63
ATOM     63  C   UNL A   1      39.736  28.945  29.107  1.00  0.00     0.064 A 
ATOM     64  C   UNL A   1      39.274  28.734  30.416  1.00  0.00     0.173 A 
ATOM     65  C   UNL A   1      38.804  29.356  28.142  1.00  0.00     0.173 A 
ATOM     66  F   UNL A   1      40.123  28.334  31.376  1.00  0.00    -0.203 F 
ATOM     67  C   UNL A   1      37.934  28.919  30.743  1.00  0.00     0.198 A 
ATOM     68  C   UNL A   1      37.471  29.568  28.479  1.00  0.00     0.198 A 
ATOM     69  F   UNL A   1      39.196  29.580  26.879  1.00  0.00    -0.203 F 
ATOM     70  F   UNL A   1      37.512  28.685  31.993  1.00  0.00    -0.200 F 
ATOM     71  C   UNL A   1      37.035  29.342  29.776  1.00  0.00     0.200 A 
ATOM     72  F   UNL A   1      36.608  30.001  27.549  1.00  0.00    -0.200 F 
ATOM     73  F   UNL A   1      35.748  29.534  30.095  1.00  0.00    -0.200 F 
ENDBRANCH  49  63
BRANCH  50  74
ATOM     74  C   UNL A   1      49.066  26.864  26.263  1.00  0.00     0.064 A 
ATOM     75  C   UNL A   1      49.435  26.994  24.916  1.00  0.00     0.173 A 
ATOM     76  C   UNL A   1      50.027  26.376  27.159  1.00  0.00     0.173 A 
ATOM     77  F   UNL A   1      48.547  27.450  24.019  1.00  0.00    -0.203 F 
ATOM     78  C   UNL A   1      50.704  26.625  24.480  1.00  0.00     0.198 A 
ATOM     79  C   UNL A   1      51.304  26.028  26.725  1.00  0.00     0.198 A 
ATOM     80  F   UNL A   1      49.726  26.253  28.461  1.00  0.00    -0.203 F 
ATOM     81  F   UNL A   1      51.019  26.722  23.180  1.00  0.00    -0.200 F 
ATOM     82  C   UNL A   1      51.639  26.144  25.384  1.00  0.00     0.200 A 
ATOM     83  F   UNL A   1      52.210  25.582  27.606  1.00  0.00    -0.200 F 
ATOM     84  F   UNL A   1      52.861  25.790  24.964  1.00  0.00    -0.200 F 
ENDBRANCH  50  74
BRANCH  62  85
ATOM     85  C   UNL A   1      45.912  32.607  28.694  1.00  0.00     0.064 A 
ATOM     86  C   UNL A   1      46.391  32.962  29.964  1.00  0.00     0.173 A 
ATOM     87  C   UNL A   1      45.810  33.615  27.724  1.00  0.00     0.173 A 
ATOM     88  F   UNL A   1      46.499  32.035  30.929  1.00  0.00    -0.203 F 
ATOM     89  C   UNL A   1      46.729  34.280  30.260  1.00  0.00     0.198 A 
ATOM     90  C   UNL A   1      46.174  34.926  28.016  1.00  0.00     0.198 A 
ATOM     91  F   UNL A   1      45.369  33.322  26.491  1.00  0.00    -0.203 F 
ATOM     92  F   UNL A   1      47.146  34.602  31.492  1.00  0.00    -0.200 F 
ATOM     93  C   UNL A   1      46.622  35.259  29.285  1.00  0.00     0.200 A 
ATOM     94  F   UNL A   1      46.092  35.868  27.067  1.00  0.00    -0.200 F 
ATOM     95  F   UNL A   1      46.952  36.527  29.569  1.00  0.00    -0.200 F 
ENDBRANCH  62  85
ENDBRANCH  36  37
ENDBRANCH  28  31
ENDBRANCH  26  27
ENDBRANCH  25  26
ENDBRANCH  24  25
ENDBRANCH   1  24
TORSDOF 16
ENDMDL
MODEL 2
REMARK VINA RESULT:     -11.3      5.665     11.079
REMARK SMILES C[NH+](C)CC(C)(C)CNc1cccc(F)c1C(=O)NCCCCNC(=O)c1ccc(-c2c3nc(c(-c4c(F)c(F)c(F)c(F)c4F)c4ccc([nH]4)c(-c4c(F)c(F)c(F)c(F)c4F)c4nc(c(-c5c(F)c(F)c(F)c(F)c5F)c5ccc2[nH]5)C=C4)C=C3)cc1
REMARK SMILES IDX 20 1 19 2 17 3 18 4 16 6 10 7 11 8 12 9 14 10 13 11 15 12
REMARK SMILES IDX 9 13 8 15 5 16 6 17 7 18 4 19 2 20 1 21 3 22 21 24 22 25
REMARK SMILES IDX 23 26 24 27 25 28 26 30 27 31 28 32 89 33 29 34 88 35 30 36
REMARK SMILES IDX 31 37 32 38 82 39 33 40 87 41 81 42 83 43 34 44 86 45 80 46
REMARK SMILES IDX 79 47 35 49 67 50 47 51 66 52 48 53 51 54 65 55 84 56 49 57
REMARK SMILES IDX 50 58 64 60 85 61 52 62 36 63 37 64 45 65 38 66 39 67 43 68
REMARK SMILES IDX 46 69 40 70 41 71 44 72 42 73 68 74 69 75 77 76 70 77 71 78
REMARK SMILES IDX 75 79 78 80 72 81 73 82 76 83 74 84 53 85 54 86 62 87 55 88
REMARK SMILES IDX 56 89 60 90 63 91 57 92 58 93 61 94 59 95
REMARK H PARENT 19 5 9 14 2 23 24 29 83 48 51 59
REMARK Flexibility Score: inf
ROOT
ATOM      1  C   UNL A   1      32.818  29.870  25.819  1.00  0.00     0.116 C 
ENDROOT
BRANCH   1   2
ATOM      2  N   UNL A   1      33.338  29.522  24.512  1.00  0.00    -0.352 N 
ATOM      3  C   UNL A   1      32.853  28.723  23.504  1.00  0.00     0.256 C 
ATOM      4  O   UNL A   1      33.614  28.562  22.546  1.00  0.00    -0.269 OA
ATOM      5  H   UNL A   1      34.206  29.938  24.306  1.00  0.00     0.163 HD
BRANCH   3   6
ATOM      6  C   UNL A   1      31.540  28.004  23.554  1.00  0.00     0.098 A 
ATOM      7  C   UNL A   1      31.484  26.664  24.025  1.00  0.00     0.050 A 
ATOM      8  C   UNL A   1      30.223  26.064  24.214  1.00  0.00     0.027 A 
ATOM      9  C   UNL A   1      29.045  26.711  23.850  1.00  0.00     0.005 A 
ATOM     10  C   UNL A   1      30.357  28.572  23.069  1.00  0.00     0.138 A 
ATOM     11  C   UNL A   1      29.119  27.951  23.234  1.00  0.00     0.040 A 
ATOM     12  F   UNL A   1      30.369  29.700  22.343  1.00  0.00    -0.206 F 
BRANCH   7  13
ATOM     13  N   UNL A   1      32.638  25.891  24.199  1.00  0.00    -0.384 N 
ATOM     14  H   UNL A   1      33.522  26.323  24.180  1.00  0.00     0.160 HD
BRANCH  13  15
ATOM     15  C   UNL A   1      32.541  24.445  24.408  1.00  0.00     0.125 C 
BRANCH  15  16
ATOM     16  C   UNL A   1      33.914  23.730  24.572  1.00  0.00     0.031 C 
ATOM     17  C   UNL A   1      34.838  24.669  25.375  1.00  0.00     0.019 C 
ATOM     18  C   UNL A   1      34.573  23.572  23.176  1.00  0.00     0.019 C 
BRANCH  16  19
ATOM     19  C   UNL A   1      33.851  22.305  25.223  1.00  0.00     0.269 C 
BRANCH  19  20
ATOM     20  N   UNL A   1      34.579  21.122  24.750  1.00  0.00    -0.339 N 
ATOM     21  C   UNL A   1      35.933  20.948  25.239  1.00  0.00     0.332 C 
ATOM     22  C   UNL A   1      33.836  19.881  24.707  1.00  0.00     0.332 C 
ATOM     23  H   UNL A   1      34.698  21.388  23.773  1.00  0.00     0.347 HD
ENDBRANCH  19  20
ENDBRANCH  16  19
ENDBRANCH  15  16
ENDBRANCH  13  15
ENDBRANCH   7  13
ENDBRANCH   3   6
ENDBRANCH   1   2
BRANCH   1  24
ATOM     24  C   UNL A   1      31.611  30.802  25.761  1.00  0.00     0.023 C 
BRANCH  24  25
ATOM     25  C   UNL A   1      31.458  31.792  26.912  1.00  0.00     0.023 C 
BRANCH  25  26
ATOM     26  C   UNL A   1      32.689  32.624  27.256  1.00  0.00     0.116 C 
BRANCH  26  27
ATOM     27  N   UNL A   1      32.384  34.004  27.604  1.00  0.00    -0.352 N 
ATOM     28  C   UNL A   1      32.986  34.844  28.511  1.00  0.00     0.251 C 
ATOM     29  H   UNL A   1      31.629  34.399  27.112  1.00  0.00     0.163 HD
ATOM     30  O   UNL A   1      32.517  35.959  28.722  1.00  0.00    -0.269 OA
BRANCH  28  31
ATOM     31  C   UNL A   1      34.173  34.395  29.272  1.00  0.00     0.039 A 
ATOM     32  C   UNL A   1      33.981  33.771  30.508  1.00  0.00     0.014 A 
ATOM     33  C   UNL A   1      35.464  34.569  28.768  1.00  0.00     0.014 A 
ATOM     34  C   UNL A   1      35.074  33.237  31.193  1.00  0.00     0.010 A 
ATOM     35  C   UNL A   1      36.542  33.967  29.412  1.00  0.00     0.010 A 
ATOM     36  C   UNL A   1      36.358  33.287  30.625  1.00  0.00    -0.014 A 
BRANCH  36  37
ATOM     37  C   UNL A   1      37.512  32.607  31.267  1.00  0.00     0.031 A 
ATOM     38  C   UNL A   1      38.199  31.463  30.578  1.00  0.00     0.074 A 
ATOM     39  C   UNL A   1      37.885  32.965  32.511  1.00  0.00     0.049 A 
ATOM     40  N   UNL A   1      39.164  30.694  31.015  1.00  0.00    -0.248 NA
ATOM     41  C   UNL A   1      37.719  31.116  29.233  1.00  0.00     0.031 C 
ATOM     42  C   UNL A   1      37.256  34.017  33.311  1.00  0.00     0.029 A 
ATOM     43  N   UNL A   1      38.873  32.473  33.329  1.00  0.00    -0.354 N 
ATOM     44  C   UNL A   1      39.388  29.761  30.013  1.00  0.00     0.074 A 
ATOM     45  C   UNL A   1      38.429  30.030  28.963  1.00  0.00     0.031 C 
ATOM     46  C   UNL A   1      37.886  34.106  34.492  1.00  0.00     0.029 A 
ATOM     47  C   UNL A   1      38.938  33.096  34.551  1.00  0.00     0.049 A 
ATOM     48  H   UNL A   1      39.478  31.743  33.064  1.00  0.00     0.167 HD
ATOM     49  C   UNL A   1      40.323  28.783  29.965  1.00  0.00     0.037 A 
ATOM     50  C   UNL A   1      39.748  32.876  35.605  1.00  0.00     0.037 A 
ATOM     51  C   UNL A   1      41.302  28.548  30.992  1.00  0.00     0.049 A 
ATOM     52  C   UNL A   1      40.797  31.803  35.517  1.00  0.00     0.074 A 
ATOM     53  C   UNL A   1      42.352  27.646  30.989  1.00  0.00     0.029 A 
ATOM     54  N   UNL A   1      41.354  29.218  32.205  1.00  0.00    -0.354 N 
ATOM     55  N   UNL A   1      41.050  30.976  34.531  1.00  0.00    -0.248 NA
ATOM     56  C   UNL A   1      41.676  31.633  36.683  1.00  0.00     0.031 C 
ATOM     57  C   UNL A   1      43.008  27.735  32.219  1.00  0.00     0.029 A 
ATOM     58  C   UNL A   1      42.400  28.729  32.970  1.00  0.00     0.049 A 
ATOM     59  H   UNL A   1      40.738  29.935  32.481  1.00  0.00     0.167 HD
ATOM     60  C   UNL A   1      42.122  30.200  34.948  1.00  0.00     0.074 A 
ATOM     61  C   UNL A   1      42.483  30.663  36.272  1.00  0.00     0.031 C 
ATOM     62  C   UNL A   1      42.747  29.195  34.289  1.00  0.00     0.037 A 
BRANCH  49  63
ATOM     63  C   UNL A   1      40.342  27.895  28.756  1.00  0.00     0.064 A 
ATOM     64  C   UNL A   1      39.642  26.678  28.756  1.00  0.00     0.173 A 
ATOM     65  C   UNL A   1      41.099  28.215  27.619  1.00  0.00     0.173 A 
ATOM     66  F   UNL A   1      38.908  26.321  29.822  1.00  0.00    -0.203 F 
ATOM     67  C   UNL A   1      39.703  25.815  27.666  1.00  0.00     0.198 A 
ATOM     68  C   UNL A   1      41.134  27.363  26.518  1.00  0.00     0.198 A 
ATOM     69  F   UNL A   1      41.780  29.369  27.564  1.00  0.00    -0.203 F 
ATOM     70  F   UNL A   1      39.047  24.647  27.700  1.00  0.00    -0.200 F 
ATOM     71  C   UNL A   1      40.443  26.161  26.546  1.00  0.00     0.200 A 
ATOM     72  F   UNL A   1      41.830  27.710  25.427  1.00  0.00    -0.200 F 
ATOM     73  F   UNL A   1      40.489  25.336  25.491  1.00  0.00    -0.200 F 
ENDBRANCH  49  63
BRANCH  50  74
ATOM     74  C   UNL A   1      39.611  33.725  36.815  1.00  0.00     0.064 A 
ATOM     75  C   UNL A   1      38.788  33.343  37.885  1.00  0.00     0.173 A 
ATOM     76  C   UNL A   1      40.258  34.965  36.898  1.00  0.00     0.173 A 
ATOM     77  F   UNL A   1      38.142  32.168  37.848  1.00  0.00    -0.203 F 
ATOM     78  C   UNL A   1      38.599  34.181  38.980  1.00  0.00     0.198 A 
ATOM     79  C   UNL A   1      40.086  35.793  38.006  1.00  0.00     0.198 A 
ATOM     80  F   UNL A   1      41.070  35.364  35.908  1.00  0.00    -0.203 F 
ATOM     81  F   UNL A   1      37.777  33.811  39.972  1.00  0.00    -0.200 F 
ATOM     82  C   UNL A   1      39.249  35.405  39.041  1.00  0.00     0.200 A 
ATOM     83  F   UNL A   1      40.731  36.966  38.069  1.00  0.00    -0.200 F 
ATOM     84  F   UNL A   1      39.068  36.211  40.096  1.00  0.00    -0.200 F 
ENDBRANCH  50  74
BRANCH  62  85
ATOM     85  C   UNL A   1      43.898  28.521  34.977  1.00  0.00     0.064 A 
ATOM     86  C   UNL A   1      45.209  28.981  34.786  1.00  0.00     0.173 A 
ATOM     87  C   UNL A   1      43.711  27.365  35.749  1.00  0.00     0.173 A 
ATOM     88  F   UNL A   1      45.440  30.078  34.047  1.00  0.00    -0.203 F 
ATOM     89  C   UNL A   1      46.294  28.297  35.327  1.00  0.00     0.198 A 
ATOM     90  C   UNL A   1      44.797  26.699  36.310  1.00  0.00     0.198 A 
ATOM     91  F   UNL A   1      42.475  26.893  35.970  1.00  0.00    -0.203 F 
ATOM     92  F   UNL A   1      47.541  28.733  35.098  1.00  0.00    -0.200 F 
ATOM     93  C   UNL A   1      46.087  27.158  36.090  1.00  0.00     0.200 A 
ATOM     94  F   UNL A   1      44.594  25.611  37.065  1.00  0.00    -0.200 F 
ATOM     95  F   UNL A   1      47.132  26.502  36.613  1.00  0.00    -0.200 F 
ENDBRANCH  62  85
ENDBRANCH  36  37
ENDBRANCH  28  31
ENDBRANCH  26  27
ENDBRANCH  25  26
ENDBRANCH  24  25
ENDBRANCH   1  24
TORSDOF 16
ENDMDL
MODEL 3
REMARK VINA RESULT:     -11.2      5.949     11.136
REMARK SMILES C[NH+](C)CC(C)(C)CNc1cccc(F)c1C(=O)NCCCCNC(=O)c1ccc(-c2c3nc(c(-c4c(F)c(F)c(F)c(F)c4F)c4ccc([nH]4)c(-c4c(F)c(F)c(F)c(F)c4F)c4nc(c(-c5c(F)c(F)c(F)c(F)c5F)c5ccc2[nH]5)C=C4)C=C3)cc1
REMARK SMILES IDX 20 1 19 2 17 3 18 4 16 6 10 7 11 8 12 9 14 10 13 11 15 12
REMARK SMILES IDX 9 13 8 15 5 16 6 17 7 18 4 19 2 20 1 21 3 22 21 24 22 25
REMARK SMILES IDX 23 26 24 27 25 28 26 30 27 31 28 32 89 33 29 34 88 35 30 36
REMARK SMILES IDX 31 37 32 38 82 39 33 40 87 41 81 42 83 43 34 44 86 45 80 46
REMARK SMILES IDX 79 47 35 49 67 50 47 51 66 52 48 53 51 54 65 55 84 56 49 57
REMARK SMILES IDX 50 58 64 60 85 61 52 62 36 63 37 64 45 65 38 66 39 67 43 68
REMARK SMILES IDX 46 69 40 70 41 71 44 72 42 73 68 74 69 75 77 76 70 77 71 78
REMARK SMILES IDX 75 79 78 80 72 81 73 82 76 83 74 84 53 85 54 86 62 87 55 88
REMARK SMILES IDX 56 89 60 90 63 91 57 92 58 93 61 94 59 95
REMARK H PARENT 19 5 9 14 2 23 24 29 83 48 51 59
REMARK Flexibility Score: inf
ROOT
ATOM      1  C   UNL A   1      33.258  29.833  26.678  1.00  0.00     0.116 C 
ENDROOT
BRANCH   1   2
ATOM      2  N   UNL A   1      33.705  29.590  25.320  1.00  0.00    -0.352 N 
ATOM      3  C   UNL A   1      33.462  28.568  24.435  1.00  0.00     0.256 C 
ATOM      4  O   UNL A   1      34.095  28.626  23.376  1.00  0.00    -0.269 OA
ATOM      5  H   UNL A   1      34.295  30.293  24.965  1.00  0.00     0.163 HD
BRANCH   3   6
ATOM      6  C   UNL A   1      32.573  27.397  24.717  1.00  0.00     0.098 A 
ATOM      7  C   UNL A   1      31.208  27.432  24.320  1.00  0.00     0.050 A 
ATOM      8  C   UNL A   1      30.433  26.263  24.451  1.00  0.00     0.027 A 
ATOM      9  C   UNL A   1      30.940  25.115  25.055  1.00  0.00     0.005 A 
ATOM     10  C   UNL A   1      33.009  26.284  25.443  1.00  0.00     0.138 A 
ATOM     11  C   UNL A   1      32.218  25.144  25.592  1.00  0.00     0.040 A 
ATOM     12  F   UNL A   1      34.175  26.293  26.106  1.00  0.00    -0.206 F 
BRANCH   7  13
ATOM     13  N   UNL A   1      30.587  28.618  23.911  1.00  0.00    -0.384 N 
ATOM     14  H   UNL A   1      30.742  29.449  24.415  1.00  0.00     0.160 HD
BRANCH  13  15
ATOM     15  C   UNL A   1      29.708  28.632  22.739  1.00  0.00     0.125 C 
BRANCH  15  16
ATOM     16  C   UNL A   1      28.708  29.824  22.705  1.00  0.00     0.031 C 
ATOM     17  C   UNL A   1      29.167  30.851  23.762  1.00  0.00     0.019 C 
ATOM     18  C   UNL A   1      27.312  29.328  23.169  1.00  0.00     0.019 C 
BRANCH  16  19
ATOM     19  C   UNL A   1      28.522  30.500  21.302  1.00  0.00     0.269 C 
BRANCH  19  20
ATOM     20  N   UNL A   1      28.609  31.940  21.036  1.00  0.00    -0.339 N 
ATOM     21  C   UNL A   1      27.976  32.421  19.824  1.00  0.00     0.332 C 
ATOM     22  C   UNL A   1      28.394  32.819  22.166  1.00  0.00     0.332 C 
ATOM     23  H   UNL A   1      29.607  32.007  20.841  1.00  0.00     0.347 HD
ENDBRANCH  19  20
ENDBRANCH  16  19
ENDBRANCH  15  16
ENDBRANCH  13  15
ENDBRANCH   7  13
ENDBRANCH   3   6
ENDBRANCH   1   2
BRANCH   1  24
ATOM     24  C   UNL A   1      31.827  30.357  26.759  1.00  0.00     0.023 C 
BRANCH  24  25
ATOM     25  C   UNL A   1      31.655  31.874  26.762  1.00  0.00     0.023 C 
BRANCH  25  26
ATOM     26  C   UNL A   1      32.832  32.686  27.290  1.00  0.00     0.116 C 
BRANCH  26  27
ATOM     27  N   UNL A   1      32.481  34.049  27.662  1.00  0.00    -0.352 N 
ATOM     28  C   UNL A   1      33.042  34.885  28.599  1.00  0.00     0.251 C 
ATOM     29  H   UNL A   1      31.725  34.434  27.164  1.00  0.00     0.163 HD
ATOM     30  O   UNL A   1      32.538  35.981  28.825  1.00  0.00    -0.269 OA
BRANCH  28  31
ATOM     31  C   UNL A   1      34.226  34.451  29.373  1.00  0.00     0.039 A 
ATOM     32  C   UNL A   1      34.031  33.859  30.624  1.00  0.00     0.014 A 
ATOM     33  C   UNL A   1      35.519  34.610  28.868  1.00  0.00     0.014 A 
ATOM     34  C   UNL A   1      35.121  33.339  31.324  1.00  0.00     0.010 A 
ATOM     35  C   UNL A   1      36.594  34.021  29.527  1.00  0.00     0.010 A 
ATOM     36  C   UNL A   1      36.406  33.372  30.757  1.00  0.00    -0.014 A 
BRANCH  36  37
ATOM     37  C   UNL A   1      37.558  32.705  31.417  1.00  0.00     0.031 A 
ATOM     38  C   UNL A   1      38.256  31.556  30.749  1.00  0.00     0.074 A 
ATOM     39  C   UNL A   1      37.918  33.080  32.660  1.00  0.00     0.049 A 
ATOM     40  N   UNL A   1      39.220  30.796  31.205  1.00  0.00    -0.248 NA
ATOM     41  C   UNL A   1      37.788  31.189  29.404  1.00  0.00     0.031 C 
ATOM     42  C   UNL A   1      37.278  34.139  33.441  1.00  0.00     0.029 A 
ATOM     43  N   UNL A   1      38.901  32.603  33.493  1.00  0.00    -0.354 N 
ATOM     44  C   UNL A   1      39.456  29.851  30.216  1.00  0.00     0.074 A 
ATOM     45  C   UNL A   1      38.506  30.103  29.155  1.00  0.00     0.031 C 
ATOM     46  C   UNL A   1      37.897  34.247  34.627  1.00  0.00     0.029 A 
ATOM     47  C   UNL A   1      38.953  33.242  34.707  1.00  0.00     0.049 A 
ATOM     48  H   UNL A   1      39.512  31.872  33.242  1.00  0.00     0.167 HD
ATOM     49  C   UNL A   1      40.396  28.877  30.189  1.00  0.00     0.037 A 
ATOM     50  C   UNL A   1      39.755  33.039  35.771  1.00  0.00     0.037 A 
ATOM     51  C   UNL A   1      41.367  28.660  31.227  1.00  0.00     0.049 A 
ATOM     52  C   UNL A   1      40.809  31.969  35.705  1.00  0.00     0.074 A 
ATOM     53  C   UNL A   1      42.421  27.762  31.245  1.00  0.00     0.029 A 
ATOM     54  N   UNL A   1      41.406  29.345  32.432  1.00  0.00    -0.354 N 
ATOM     55  N   UNL A   1      41.074  31.131  34.733  1.00  0.00    -0.248 NA
ATOM     56  C   UNL A   1      41.679  31.817  36.881  1.00  0.00     0.031 C 
ATOM     57  C   UNL A   1      43.066  27.870  32.480  1.00  0.00     0.029 A 
ATOM     58  C   UNL A   1      42.447  28.870  33.212  1.00  0.00     0.049 A 
ATOM     59  H   UNL A   1      40.784  30.063  32.694  1.00  0.00     0.167 HD
ATOM     60  C   UNL A   1      42.145  30.365  35.168  1.00  0.00     0.074 A 
ATOM     61  C   UNL A   1      42.493  30.847  36.490  1.00  0.00     0.031 C 
ATOM     62  C   UNL A   1      42.781  29.355  34.528  1.00  0.00     0.037 A 
BRANCH  49  63
ATOM     63  C   UNL A   1      40.430  27.974  28.991  1.00  0.00     0.064 A 
ATOM     64  C   UNL A   1      41.168  28.331  27.852  1.00  0.00     0.173 A 
ATOM     65  C   UNL A   1      39.688  26.784  28.944  1.00  0.00     0.173 A 
ATOM     66  F   UNL A   1      41.890  29.463  27.841  1.00  0.00    -0.203 F 
ATOM     67  C   UNL A   1      41.157  27.535  26.711  1.00  0.00     0.198 A 
ATOM     68  C   UNL A   1      39.702  25.975  27.812  1.00  0.00     0.198 A 
ATOM     69  F   UNL A   1      38.972  26.393  30.009  1.00  0.00    -0.203 F 
ATOM     70  F   UNL A   1      41.849  27.910  25.626  1.00  0.00    -0.200 F 
ATOM     71  C   UNL A   1      40.430  26.354  26.694  1.00  0.00     0.200 A 
ATOM     72  F   UNL A   1      39.019  24.822  27.806  1.00  0.00    -0.200 F 
ATOM     73  F   UNL A   1      40.432  25.580  25.600  1.00  0.00    -0.200 F 
ENDBRANCH  49  63
BRANCH  50  74
ATOM     74  C   UNL A   1      39.603  33.902  36.968  1.00  0.00     0.064 A 
ATOM     75  C   UNL A   1      38.820  33.503  38.062  1.00  0.00     0.173 A 
ATOM     76  C   UNL A   1      40.195  35.171  37.017  1.00  0.00     0.173 A 
ATOM     77  F   UNL A   1      38.227  32.300  38.059  1.00  0.00    -0.203 F 
ATOM     78  C   UNL A   1      38.615  34.352  39.147  1.00  0.00     0.198 A 
ATOM     79  C   UNL A   1      40.007  36.011  38.114  1.00  0.00     0.198 A 
ATOM     80  F   UNL A   1      40.968  35.588  36.004  1.00  0.00    -0.203 F 
ATOM     81  F   UNL A   1      37.830  33.962  40.161  1.00  0.00    -0.200 F 
ATOM     82  C   UNL A   1      39.210  35.604  39.173  1.00  0.00     0.200 A 
ATOM     83  F   UNL A   1      40.600  37.212  38.143  1.00  0.00    -0.200 F 
ATOM     84  F   UNL A   1      39.013  36.420  40.217  1.00  0.00    -0.200 F 
ENDBRANCH  50  74
BRANCH  62  85
ATOM     85  C   UNL A   1      43.928  28.694  35.234  1.00  0.00     0.064 A 
ATOM     86  C   UNL A   1      45.244  29.124  35.009  1.00  0.00     0.173 A 
ATOM     87  C   UNL A   1      43.732  27.578  36.061  1.00  0.00     0.173 A 
ATOM     88  F   UNL A   1      45.485  30.182  34.219  1.00  0.00    -0.203 F 
ATOM     89  C   UNL A   1      46.324  28.448  35.570  1.00  0.00     0.198 A 
ATOM     90  C   UNL A   1      44.813  26.921  36.640  1.00  0.00     0.198 A 
ATOM     91  F   UNL A   1      42.491  27.137  36.315  1.00  0.00    -0.203 F 
ATOM     92  F   UNL A   1      47.575  28.853  35.309  1.00  0.00    -0.200 F 
ATOM     93  C   UNL A   1      46.107  27.349  36.386  1.00  0.00     0.200 A 
ATOM     94  F   UNL A   1      44.602  25.872  37.447  1.00  0.00    -0.200 F 
ATOM     95  F   UNL A   1      47.148  26.701  36.929  1.00  0.00    -0.200 F 
ENDBRANCH  62  85
ENDBRANCH  36  37
ENDBRANCH  28  31
ENDBRANCH  26  27
ENDBRANCH  25  26
ENDBRANCH  24  25
ENDBRANCH   1  24
TORSDOF 16
ENDMDL
