MODEL 1
REMARK VINA RESULT:     -12.3      0.000      0.000
REMARK SMILES CCCC1CN(c2ccc(C(=O)NCC(=O)NCCCCNC(=O)c3ccc(-c4c5nc(c(-c6c(F)c(F)c(F)c(F)c6F)c6ccc([nH]6)c(-c6c(F)c(F)c(F)c(F)c6F)c6nc(c(-c7c(F)c(F)c(F)c(F)c7F)c7ccc4[nH]7)C=C6)C=C5)cc3)cc2)C1
REMARK SMILES IDX 18 1 17 2 15 3 16 4 14 6 13 7 11 8 12 9 10 11 7 12 8 13
REMARK SMILES IDX 89 14 9 15 88 16 6 17 4 18 5 19 90 20 3 21 2 22 1 23 19 24
REMARK SMILES IDX 20 25 21 26 22 27 23 28 24 30 25 31 26 32 87 33 27 34 86 35
REMARK SMILES IDX 28 36 29 37 30 38 80 39 31 40 85 41 79 42 81 43 32 44 84 45
REMARK SMILES IDX 78 46 77 47 33 49 65 50 45 51 64 52 46 53 49 54 63 55 82 56
REMARK SMILES IDX 47 57 48 58 62 60 83 61 50 62 34 63 35 64 43 65 36 66 37 67
REMARK SMILES IDX 41 68 44 69 38 70 39 71 42 72 40 73 66 74 67 75 75 76 68 77
REMARK SMILES IDX 69 78 73 79 76 80 70 81 71 82 74 83 72 84 51 85 52 86 60 87
REMARK SMILES IDX 53 88 54 89 58 90 61 91 55 92 56 93 59 94 57 95
REMARK H PARENT 17 5 13 10 22 29 81 48 49 59
REMARK Flexibility Score: inf
ROOT
ATOM      1  C   UNL A   1      36.807  22.287  25.747  1.00  0.00     0.116 C 
ENDROOT
BRANCH   1   2
ATOM      2  N   UNL A   1      36.247  23.549  25.321  1.00  0.00    -0.355 N 
ATOM      3  C   UNL A   1      34.965  23.921  25.065  1.00  0.00     0.239 C 
ATOM      4  O   UNL A   1      34.773  25.131  24.888  1.00  0.00    -0.273 OA
ATOM      5  H   UNL A   1      36.911  24.265  25.194  1.00  0.00     0.163 HD
BRANCH   3   6
ATOM      6  C   UNL A   1      33.757  22.966  25.122  1.00  0.00     0.216 C 
BRANCH   6   7
ATOM      7  N   UNL A   1      32.751  23.122  26.158  1.00  0.00    -0.343 N 
ATOM      8  C   UNL A   1      31.660  23.923  26.358  1.00  0.00     0.251 C 
ATOM      9  O   UNL A   1      30.979  23.651  27.351  1.00  0.00    -0.269 OA
ATOM     10  H   UNL A   1      32.890  22.495  26.904  1.00  0.00     0.164 HD
BRANCH   8  11
ATOM     11  C   UNL A   1      31.276  25.114  25.533  1.00  0.00     0.039 A 
ATOM     12  C   UNL A   1      30.316  27.227  23.881  1.00  0.00     0.037 A 
ATOM     13  C   UNL A   1      30.102  25.895  23.528  1.00  0.00     0.027 A 
ATOM     14  C   UNL A   1      31.003  27.487  25.067  1.00  0.00     0.027 A 
ATOM     15  C   UNL A   1      30.592  24.855  24.331  1.00  0.00     0.016 A 
ATOM     16  C   UNL A   1      31.456  26.450  25.893  1.00  0.00     0.016 A 
BRANCH  12  17
ATOM     17  N   UNL A   1      29.857  28.271  23.074  1.00  0.00    -0.371 N 
ATOM     18  C   UNL A   1      29.300  30.167  22.480  1.00  0.00     0.028 C 
ATOM     19  C   UNL A   1      28.601  28.947  23.111  1.00  0.00     0.122 C 
ATOM     20  C   UNL A   1      30.565  29.302  22.392  1.00  0.00     0.122 C 
BRANCH  18  21
ATOM     21  C   UNL A   1      28.721  30.870  21.255  1.00  0.00     0.007 C 
BRANCH  21  22
ATOM     22  C   UNL A   1      28.279  32.320  21.440  1.00  0.00    -0.003 C 
ATOM     23  C   UNL A   1      28.768  32.983  22.716  1.00  0.00     0.004 C 
ENDBRANCH  21  22
ENDBRANCH  18  21
ENDBRANCH  12  17
ENDBRANCH   8  11
ENDBRANCH   6   7
ENDBRANCH   3   6
ENDBRANCH   1   2
BRANCH   1  24
ATOM     24  C   UNL A   1      37.220  21.390  24.586  1.00  0.00     0.023 C 
BRANCH  24  25
ATOM     25  C   UNL A   1      37.977  20.129  25.005  1.00  0.00     0.023 C 
BRANCH  25  26
ATOM     26  C   UNL A   1      39.257  20.366  25.803  1.00  0.00     0.116 C 
BRANCH  26  27
ATOM     27  N   UNL A   1      40.160  19.225  25.812  1.00  0.00    -0.352 N 
ATOM     28  C   UNL A   1      41.518  19.205  26.038  1.00  0.00     0.251 C 
ATOM     29  H   UNL A   1      39.745  18.350  25.631  1.00  0.00     0.163 HD
ATOM     30  O   UNL A   1      42.157  18.169  25.920  1.00  0.00    -0.269 OA
BRANCH  28  31
ATOM     31  C   UNL A   1      42.211  20.464  26.386  1.00  0.00     0.039 A 
ATOM     32  C   UNL A   1      42.867  21.172  25.376  1.00  0.00     0.014 A 
ATOM     33  C   UNL A   1      42.170  20.966  27.690  1.00  0.00     0.014 A 
ATOM     34  C   UNL A   1      43.410  22.428  25.654  1.00  0.00     0.010 A 
ATOM     35  C   UNL A   1      42.655  22.244  27.950  1.00  0.00     0.010 A 
ATOM     36  C   UNL A   1      43.268  22.992  26.932  1.00  0.00    -0.014 A 
BRANCH  36  37
ATOM     37  C   UNL A   1      43.722  24.377  27.220  1.00  0.00     0.031 A 
ATOM     38  C   UNL A   1      42.747  25.406  27.716  1.00  0.00     0.074 A 
ATOM     39  C   UNL A   1      44.993  24.730  26.944  1.00  0.00     0.049 A 
ATOM     40  N   UNL A   1      42.926  26.686  27.920  1.00  0.00    -0.248 NA
ATOM     41  C   UNL A   1      41.379  24.939  27.992  1.00  0.00     0.031 C 
ATOM     42  C   UNL A   1      46.021  23.838  26.405  1.00  0.00     0.029 A 
ATOM     43  N   UNL A   1      45.632  25.942  27.056  1.00  0.00    -0.354 N 
ATOM     44  C   UNL A   1      41.693  27.181  28.322  1.00  0.00     0.074 A 
ATOM     45  C   UNL A   1      40.763  26.071  28.299  1.00  0.00     0.031 C 
ATOM     46  C   UNL A   1      47.162  24.529  26.238  1.00  0.00     0.029 A 
ATOM     47  C   UNL A   1      46.936  25.919  26.624  1.00  0.00     0.049 A 
ATOM     48  H   UNL A   1      45.196  26.749  27.411  1.00  0.00     0.167 HD
ATOM     49  C   UNL A   1      41.371  28.443  28.693  1.00  0.00     0.037 A 
ATOM     50  C   UNL A   1      47.843  26.911  26.533  1.00  0.00     0.037 A 
ATOM     51  C   UNL A   1      42.306  29.535  28.756  1.00  0.00     0.049 A 
ATOM     52  C   UNL A   1      47.462  28.298  26.971  1.00  0.00     0.074 A 
ATOM     53  C   UNL A   1      42.096  30.825  29.210  1.00  0.00     0.029 A 
ATOM     54  N   UNL A   1      43.631  29.464  28.348  1.00  0.00    -0.354 N 
ATOM     55  N   UNL A   1      46.315  28.735  27.431  1.00  0.00    -0.248 NA
ATOM     56  C   UNL A   1      48.504  29.332  26.881  1.00  0.00     0.031 C 
ATOM     57  C   UNL A   1      43.280  31.549  29.033  1.00  0.00     0.029 A 
ATOM     58  C   UNL A   1      44.241  30.697  28.515  1.00  0.00     0.049 A 
ATOM     59  H   UNL A   1      44.070  28.658  27.993  1.00  0.00     0.167 HD
ATOM     60  C   UNL A   1      46.503  30.082  27.708  1.00  0.00     0.074 A 
ATOM     61  C   UNL A   1      47.879  30.389  27.380  1.00  0.00     0.031 C 
ATOM     62  C   UNL A   1      45.614  30.985  28.189  1.00  0.00     0.037 A 
BRANCH  49  63
ATOM     63  C   UNL A   1      39.944  28.718  29.067  1.00  0.00     0.064 A 
ATOM     64  C   UNL A   1      38.996  29.115  28.113  1.00  0.00     0.173 A 
ATOM     65  C   UNL A   1      39.508  28.526  30.387  1.00  0.00     0.173 A 
ATOM     66  F   UNL A   1      39.365  29.322  26.839  1.00  0.00    -0.203 F 
ATOM     67  C   UNL A   1      37.667  29.332  28.471  1.00  0.00     0.198 A 
ATOM     68  C   UNL A   1      38.173  28.718  30.736  1.00  0.00     0.198 A 
ATOM     69  F   UNL A   1      40.373  28.142  31.336  1.00  0.00    -0.203 F 
ATOM     70  F   UNL A   1      36.787  29.750  27.551  1.00  0.00    -0.200 F 
ATOM     71  C   UNL A   1      37.256  29.125  29.780  1.00  0.00     0.200 A 
ATOM     72  F   UNL A   1      37.775  28.506  31.997  1.00  0.00    -0.200 F 
ATOM     73  F   UNL A   1      35.975  29.324  30.120  1.00  0.00    -0.200 F 
ENDBRANCH  49  63
BRANCH  50  74
ATOM     74  C   UNL A   1      49.206  26.627  26.012  1.00  0.00     0.064 A 
ATOM     75  C   UNL A   1      49.548  26.929  24.686  1.00  0.00     0.173 A 
ATOM     76  C   UNL A   1      50.186  26.033  26.819  1.00  0.00     0.173 A 
ATOM     77  F   UNL A   1      48.637  27.477  23.868  1.00  0.00    -0.203 F 
ATOM     78  C   UNL A   1      50.811  26.625  24.182  1.00  0.00     0.198 A 
ATOM     79  C   UNL A   1      51.457  25.756  26.322  1.00  0.00     0.198 A 
ATOM     80  F   UNL A   1      49.910  25.728  28.096  1.00  0.00    -0.203 F 
ATOM     81  F   UNL A   1      51.094  26.877  22.897  1.00  0.00    -0.200 F 
ATOM     82  C   UNL A   1      51.766  26.043  25.002  1.00  0.00     0.200 A 
ATOM     83  F   UNL A   1      52.381  25.204  27.122  1.00  0.00    -0.200 F 
ATOM     84  F   UNL A   1      52.980  25.750  24.516  1.00  0.00    -0.200 F 
ENDBRANCH  50  74
BRANCH  62  85
ATOM     85  C   UNL A   1      46.108  32.383  28.418  1.00  0.00     0.064 A 
ATOM     86  C   UNL A   1      46.700  32.763  29.632  1.00  0.00     0.173 A 
ATOM     87  C   UNL A   1      46.026  33.342  27.397  1.00  0.00     0.173 A 
ATOM     88  F   UNL A   1      46.786  31.887  30.644  1.00  0.00    -0.203 F 
ATOM     89  C   UNL A   1      47.170  34.059  29.822  1.00  0.00     0.198 A 
ATOM     90  C   UNL A   1      46.524  34.628  27.582  1.00  0.00     0.198 A 
ATOM     91  F   UNL A   1      45.475  33.027  26.215  1.00  0.00    -0.203 F 
ATOM     92  F   UNL A   1      47.692  34.414  31.005  1.00  0.00    -0.200 F 
ATOM     93  C   UNL A   1      47.090  34.988  28.796  1.00  0.00     0.200 A 
ATOM     94  F   UNL A   1      46.457  35.521  26.584  1.00  0.00    -0.200 F 
ATOM     95  F   UNL A   1      47.551  36.233  28.979  1.00  0.00    -0.200 F 
ENDBRANCH  62  85
ENDBRANCH  36  37
ENDBRANCH  28  31
ENDBRANCH  26  27
ENDBRANCH  25  26
ENDBRANCH  24  25
ENDBRANCH   1  24
TORSDOF 16
ENDMDL
MODEL 2
REMARK VINA RESULT:     -12.2      1.945      2.774
REMARK SMILES CCCC1CN(c2ccc(C(=O)NCC(=O)NCCCCNC(=O)c3ccc(-c4c5nc(c(-c6c(F)c(F)c(F)c(F)c6F)c6ccc([nH]6)c(-c6c(F)c(F)c(F)c(F)c6F)c6nc(c(-c7c(F)c(F)c(F)c(F)c7F)c7ccc4[nH]7)C=C6)C=C5)cc3)cc2)C1
REMARK SMILES IDX 18 1 17 2 15 3 16 4 14 6 13 7 11 8 12 9 10 11 7 12 8 13
REMARK SMILES IDX 89 14 9 15 88 16 6 17 4 18 5 19 90 20 3 21 2 22 1 23 19 24
REMARK SMILES IDX 20 25 21 26 22 27 23 28 24 30 25 31 26 32 87 33 27 34 86 35
REMARK SMILES IDX 28 36 29 37 30 38 80 39 31 40 85 41 79 42 81 43 32 44 84 45
REMARK SMILES IDX 78 46 77 47 33 49 65 50 45 51 64 52 46 53 49 54 63 55 82 56
REMARK SMILES IDX 47 57 48 58 62 60 83 61 50 62 34 63 35 64 43 65 36 66 37 67
REMARK SMILES IDX 41 68 44 69 38 70 39 71 42 72 40 73 66 74 67 75 75 76 68 77
REMARK SMILES IDX 69 78 73 79 76 80 70 81 71 82 74 83 72 84 51 85 52 86 60 87
REMARK SMILES IDX 53 88 54 89 58 90 61 91 55 92 56 93 59 94 57 95
REMARK H PARENT 17 5 13 10 22 29 81 48 49 59
REMARK Flexibility Score: inf
ROOT
ATOM      1  C   UNL A   1      35.378  20.634  25.274  1.00  0.00     0.116 C 
ENDROOT
BRANCH   1   2
ATOM      2  N   UNL A   1      35.317  19.235  24.920  1.00  0.00    -0.355 N 
ATOM      3  C   UNL A   1      34.276  18.455  24.521  1.00  0.00     0.239 C 
ATOM      4  O   UNL A   1      34.568  17.324  24.112  1.00  0.00    -0.273 OA
ATOM      5  H   UNL A   1      36.178  18.763  24.979  1.00  0.00     0.163 HD
BRANCH   3   6
ATOM      6  C   UNL A   1      32.818  18.940  24.421  1.00  0.00     0.216 C 
BRANCH   6   7
ATOM      7  N   UNL A   1      32.337  19.563  23.199  1.00  0.00    -0.343 N 
ATOM      8  C   UNL A   1      32.246  20.839  22.715  1.00  0.00     0.251 C 
ATOM      9  O   UNL A   1      31.868  20.935  21.544  1.00  0.00    -0.269 OA
ATOM     10  H   UNL A   1      31.989  18.900  22.560  1.00  0.00     0.164 HD
BRANCH   8  11
ATOM     11  C   UNL A   1      32.491  22.097  23.492  1.00  0.00     0.039 A 
ATOM     12  C   UNL A   1      32.995  24.621  24.714  1.00  0.00     0.037 A 
ATOM     13  C   UNL A   1      33.627  24.269  23.522  1.00  0.00     0.027 A 
ATOM     14  C   UNL A   1      32.106  23.705  25.277  1.00  0.00     0.027 A 
ATOM     15  C   UNL A   1      33.395  23.019  22.932  1.00  0.00     0.016 A 
ATOM     16  C   UNL A   1      31.838  22.474  24.666  1.00  0.00     0.016 A 
BRANCH  12  17
ATOM     17  N   UNL A   1      33.240  25.853  25.326  1.00  0.00    -0.371 N 
ATOM     18  C   UNL A   1      33.045  27.842  25.836  1.00  0.00     0.028 C 
ATOM     19  C   UNL A   1      33.804  27.037  24.765  1.00  0.00     0.122 C 
ATOM     20  C   UNL A   1      32.589  26.497  26.418  1.00  0.00     0.122 C 
BRANCH  18  21
ATOM     21  C   UNL A   1      33.750  28.890  26.694  1.00  0.00     0.007 C 
BRANCH  21  22
ATOM     22  C   UNL A   1      32.903  30.065  27.177  1.00  0.00    -0.003 C 
ATOM     23  C   UNL A   1      31.858  30.554  26.188  1.00  0.00     0.004 C 
ENDBRANCH  21  22
ENDBRANCH  18  21
ENDBRANCH  12  17
ENDBRANCH   8  11
ENDBRANCH   6   7
ENDBRANCH   3   6
ENDBRANCH   1   2
BRANCH   1  24
ATOM     24  C   UNL A   1      36.775  21.229  25.134  1.00  0.00     0.023 C 
BRANCH  24  25
ATOM     25  C   UNL A   1      37.883  20.191  24.952  1.00  0.00     0.023 C 
BRANCH  25  26
ATOM     26  C   UNL A   1      39.155  20.440  25.759  1.00  0.00     0.116 C 
BRANCH  26  27
ATOM     27  N   UNL A   1      40.052  19.295  25.806  1.00  0.00    -0.352 N 
ATOM     28  C   UNL A   1      41.402  19.269  26.078  1.00  0.00     0.251 C 
ATOM     29  H   UNL A   1      39.639  18.421  25.618  1.00  0.00     0.163 HD
ATOM     30  O   UNL A   1      42.039  18.229  25.988  1.00  0.00    -0.269 OA
BRANCH  28  31
ATOM     31  C   UNL A   1      42.088  20.527  26.440  1.00  0.00     0.039 A 
ATOM     32  C   UNL A   1      42.654  21.302  25.424  1.00  0.00     0.014 A 
ATOM     33  C   UNL A   1      42.130  20.963  27.768  1.00  0.00     0.014 A 
ATOM     34  C   UNL A   1      43.187  22.556  25.727  1.00  0.00     0.010 A 
ATOM     35  C   UNL A   1      42.603  22.239  28.058  1.00  0.00     0.010 A 
ATOM     36  C   UNL A   1      43.125  23.053  27.039  1.00  0.00    -0.014 A 
BRANCH  36  37
ATOM     37  C   UNL A   1      43.567  24.433  27.365  1.00  0.00     0.031 A 
ATOM     38  C   UNL A   1      42.579  25.445  27.870  1.00  0.00     0.074 A 
ATOM     39  C   UNL A   1      44.840  24.799  27.115  1.00  0.00     0.049 A 
ATOM     40  N   UNL A   1      42.748  26.721  28.106  1.00  0.00    -0.248 NA
ATOM     41  C   UNL A   1      41.210  24.964  28.117  1.00  0.00     0.031 C 
ATOM     42  C   UNL A   1      45.880  23.925  26.570  1.00  0.00     0.029 A 
ATOM     43  N   UNL A   1      45.470  26.011  27.263  1.00  0.00    -0.354 N 
ATOM     44  C   UNL A   1      41.507  27.200  28.502  1.00  0.00     0.074 A 
ATOM     45  C   UNL A   1      40.583  26.086  28.440  1.00  0.00     0.031 C 
ATOM     46  C   UNL A   1      47.019  24.626  26.435  1.00  0.00     0.029 A 
ATOM     47  C   UNL A   1      46.780  26.005  26.849  1.00  0.00     0.049 A 
ATOM     48  H   UNL A   1      45.025  26.807  27.631  1.00  0.00     0.167 HD
ATOM     49  C   UNL A   1      41.173  28.451  28.897  1.00  0.00     0.037 A 
ATOM     50  C   UNL A   1      47.682  27.003  26.794  1.00  0.00     0.037 A 
ATOM     51  C   UNL A   1      42.101  29.546  28.997  1.00  0.00     0.049 A 
ATOM     52  C   UNL A   1      47.288  28.379  27.258  1.00  0.00     0.074 A 
ATOM     53  C   UNL A   1      41.877  30.825  29.478  1.00  0.00     0.029 A 
ATOM     54  N   UNL A   1      43.431  29.492  28.607  1.00  0.00    -0.354 N 
ATOM     55  N   UNL A   1      46.133  28.798  27.712  1.00  0.00    -0.248 NA
ATOM     56  C   UNL A   1      48.325  29.419  27.206  1.00  0.00     0.031 C 
ATOM     57  C   UNL A   1      43.059  31.559  29.335  1.00  0.00     0.029 A 
ATOM     58  C   UNL A   1      44.032  30.724  28.810  1.00  0.00     0.049 A 
ATOM     59  H   UNL A   1      43.880  28.697  28.240  1.00  0.00     0.167 HD
ATOM     60  C   UNL A   1      46.308  30.140  28.022  1.00  0.00     0.074 A 
ATOM     61  C   UNL A   1      47.687  30.462  27.720  1.00  0.00     0.031 C 
ATOM     62  C   UNL A   1      45.408  31.027  28.511  1.00  0.00     0.037 A 
BRANCH  49  63
ATOM     63  C   UNL A   1      39.739  28.710  29.257  1.00  0.00     0.064 A 
ATOM     64  C   UNL A   1      39.254  28.492  30.555  1.00  0.00     0.173 A 
ATOM     65  C   UNL A   1      38.854  29.238  28.305  1.00  0.00     0.173 A 
ATOM     66  F   UNL A   1      40.059  27.979  31.499  1.00  0.00    -0.203 F 
ATOM     67  C   UNL A   1      37.929  28.771  30.881  1.00  0.00     0.198 A 
ATOM     68  C   UNL A   1      37.537  29.541  28.642  1.00  0.00     0.198 A 
ATOM     69  F   UNL A   1      39.269  29.470  27.051  1.00  0.00    -0.203 F 
ATOM     70  F   UNL A   1      37.477  28.517  32.116  1.00  0.00    -0.200 F 
ATOM     71  C   UNL A   1      37.075  29.303  29.926  1.00  0.00     0.200 A 
ATOM     72  F   UNL A   1      36.716  30.067  27.722  1.00  0.00    -0.200 F 
ATOM     73  F   UNL A   1      35.803  29.582  30.245  1.00  0.00    -0.200 F 
ENDBRANCH  49  63
BRANCH  50  74
ATOM     74  C   UNL A   1      49.054  26.739  26.286  1.00  0.00     0.064 A 
ATOM     75  C   UNL A   1      49.395  27.015  24.954  1.00  0.00     0.173 A 
ATOM     76  C   UNL A   1      50.044  26.189  27.112  1.00  0.00     0.173 A 
ATOM     77  F   UNL A   1      48.475  27.520  24.119  1.00  0.00    -0.203 F 
ATOM     78  C   UNL A   1      50.668  26.728  24.463  1.00  0.00     0.198 A 
ATOM     79  C   UNL A   1      51.324  25.930  26.627  1.00  0.00     0.198 A 
ATOM     80  F   UNL A   1      49.770  25.911  28.395  1.00  0.00    -0.203 F 
ATOM     81  F   UNL A   1      50.950  26.954  23.173  1.00  0.00    -0.200 F 
ATOM     82  C   UNL A   1      51.632  26.190  25.301  1.00  0.00     0.200 A 
ATOM     83  F   UNL A   1      52.257  25.421  27.444  1.00  0.00    -0.200 F 
ATOM     84  F   UNL A   1      52.855  25.914  24.827  1.00  0.00    -0.200 F 
ENDBRANCH  50  74
BRANCH  62  85
ATOM     85  C   UNL A   1      45.891  32.421  28.779  1.00  0.00     0.064 A 
ATOM     86  C   UNL A   1      46.459  32.778  30.010  1.00  0.00     0.173 A 
ATOM     87  C   UNL A   1      45.823  33.402  27.777  1.00  0.00     0.173 A 
ATOM     88  F   UNL A   1      46.532  31.881  31.005  1.00  0.00    -0.203 F 
ATOM     89  C   UNL A   1      46.919  34.073  30.237  1.00  0.00     0.198 A 
ATOM     90  C   UNL A   1      46.310  34.686  27.998  1.00  0.00     0.198 A 
ATOM     91  F   UNL A   1      45.294  33.110  26.579  1.00  0.00    -0.203 F 
ATOM     92  F   UNL A   1      47.418  34.404  31.436  1.00  0.00    -0.200 F 
ATOM     93  C   UNL A   1      46.852  35.023  29.229  1.00  0.00     0.200 A 
ATOM     94  F   UNL A   1      46.256  35.600  27.019  1.00  0.00    -0.200 F 
ATOM     95  F   UNL A   1      47.304  36.265  29.447  1.00  0.00    -0.200 F 
ENDBRANCH  62  85
ENDBRANCH  36  37
ENDBRANCH  28  31
ENDBRANCH  26  27
ENDBRANCH  25  26
ENDBRANCH  24  25
ENDBRANCH   1  24
TORSDOF 16
ENDMDL
MODEL 3
REMARK VINA RESULT:     -12.1      5.093     10.189
REMARK SMILES CCCC1CN(c2ccc(C(=O)NCC(=O)NCCCCNC(=O)c3ccc(-c4c5nc(c(-c6c(F)c(F)c(F)c(F)c6F)c6ccc([nH]6)c(-c6c(F)c(F)c(F)c(F)c6F)c6nc(c(-c7c(F)c(F)c(F)c(F)c7F)c7ccc4[nH]7)C=C6)C=C5)cc3)cc2)C1
REMARK SMILES IDX 18 1 17 2 15 3 16 4 14 6 13 7 11 8 12 9 10 11 7 12 8 13
REMARK SMILES IDX 89 14 9 15 88 16 6 17 4 18 5 19 90 20 3 21 2 22 1 23 19 24
REMARK SMILES IDX 20 25 21 26 22 27 23 28 24 30 25 31 26 32 87 33 27 34 86 35
REMARK SMILES IDX 28 36 29 37 30 38 80 39 31 40 85 41 79 42 81 43 32 44 84 45
REMARK SMILES IDX 78 46 77 47 33 49 65 50 45 51 64 52 46 53 49 54 63 55 82 56
REMARK SMILES IDX 47 57 48 58 62 60 83 61 50 62 34 63 35 64 43 65 36 66 37 67
REMARK SMILES IDX 41 68 44 69 38 70 39 71 42 72 40 73 66 74 67 75 75 76 68 77
REMARK SMILES IDX 69 78 73 79 76 80 70 81 71 82 74 83 72 84 51 85 52 86 60 87
REMARK SMILES IDX 53 88 54 89 58 90 61 91 55 92 56 93 59 94 57 95
REMARK H PARENT 17 5 13 10 22 29 81 48 49 59
REMARK Flexibility Score: inf
ROOT
ATOM      1  C   UNL A   1      33.941  34.411  27.981  1.00  0.00     0.116 C 
ENDROOT
BRANCH   1   2
ATOM      2  N   UNL A   1      33.633  35.781  28.320  1.00  0.00    -0.355 N 
ATOM      3  C   UNL A   1      33.229  36.347  29.489  1.00  0.00     0.239 C 
ATOM      4  O   UNL A   1      33.216  37.584  29.520  1.00  0.00    -0.273 OA
ATOM      5  H   UNL A   1      33.731  36.416  27.574  1.00  0.00     0.163 HD
BRANCH   3   6
ATOM      6  C   UNL A   1      32.935  35.557  30.778  1.00  0.00     0.216 C 
BRANCH   6   7
ATOM      7  N   UNL A   1      33.278  36.118  32.073  1.00  0.00    -0.343 N 
ATOM      8  C   UNL A   1      34.231  35.883  33.027  1.00  0.00     0.251 C 
ATOM      9  O   UNL A   1      34.249  36.685  33.965  1.00  0.00    -0.269 OA
ATOM     10  H   UNL A   1      32.673  36.852  32.329  1.00  0.00     0.164 HD
BRANCH   8  11
ATOM     11  C   UNL A   1      35.177  34.722  33.061  1.00  0.00     0.039 A 
ATOM     12  C   UNL A   1      37.183  32.704  33.200  1.00  0.00     0.037 A 
ATOM     13  C   UNL A   1      37.504  33.998  32.794  1.00  0.00     0.027 A 
ATOM     14  C   UNL A   1      35.858  32.436  33.542  1.00  0.00     0.027 A 
ATOM     15  C   UNL A   1      36.513  34.987  32.706  1.00  0.00     0.016 A 
ATOM     16  C   UNL A   1      34.874  33.432  33.497  1.00  0.00     0.016 A 
BRANCH  12  17
ATOM     17  N   UNL A   1      38.157  31.704  33.264  1.00  0.00    -0.371 N 
ATOM     18  C   UNL A   1      39.387  30.235  34.031  1.00  0.00     0.028 C 
ATOM     19  C   UNL A   1      39.465  31.761  33.829  1.00  0.00     0.122 C 
ATOM     20  C   UNL A   1      38.035  30.285  33.307  1.00  0.00     0.122 C 
BRANCH  18  21
ATOM     21  C   UNL A   1      40.512  29.313  33.569  1.00  0.00     0.007 C 
BRANCH  21  22
ATOM     22  C   UNL A   1      41.393  28.706  34.658  1.00  0.00    -0.003 C 
ATOM     23  C   UNL A   1      42.882  28.709  34.356  1.00  0.00     0.004 C 
ENDBRANCH  21  22
ENDBRANCH  18  21
ENDBRANCH  12  17
ENDBRANCH   8  11
ENDBRANCH   6   7
ENDBRANCH   3   6
ENDBRANCH   1   2
BRANCH   1  24
ATOM     24  C   UNL A   1      35.430  34.092  28.061  1.00  0.00     0.023 C 
BRANCH  24  25
ATOM     25  C   UNL A   1      35.876  33.514  29.404  1.00  0.00     0.023 C 
BRANCH  25  26
ATOM     26  C   UNL A   1      35.029  32.362  29.939  1.00  0.00     0.116 C 
BRANCH  26  27
ATOM     27  N   UNL A   1      34.282  31.658  28.908  1.00  0.00    -0.352 N 
ATOM     28  C   UNL A   1      34.685  30.596  28.128  1.00  0.00     0.251 C 
ATOM     29  H   UNL A   1      33.367  31.983  28.744  1.00  0.00     0.163 HD
ATOM     30  O   UNL A   1      33.968  30.169  27.233  1.00  0.00    -0.269 OA
BRANCH  28  31
ATOM     31  C   UNL A   1      36.018  29.999  28.355  1.00  0.00     0.039 A 
ATOM     32  C   UNL A   1      36.991  30.128  27.361  1.00  0.00     0.014 A 
ATOM     33  C   UNL A   1      36.319  29.359  29.561  1.00  0.00     0.014 A 
ATOM     34  C   UNL A   1      38.294  29.691  27.609  1.00  0.00     0.010 A 
ATOM     35  C   UNL A   1      37.632  28.983  29.831  1.00  0.00     0.010 A 
ATOM     36  C   UNL A   1      38.634  29.156  28.863  1.00  0.00    -0.014 A 
BRANCH  36  37
ATOM     37  C   UNL A   1      40.038  28.803  29.197  1.00  0.00     0.031 A 
ATOM     38  C   UNL A   1      40.914  29.786  29.919  1.00  0.00     0.074 A 
ATOM     39  C   UNL A   1      40.549  27.633  28.765  1.00  0.00     0.049 A 
ATOM     40  N   UNL A   1      42.189  29.706  30.203  1.00  0.00    -0.248 NA
ATOM     41  C   UNL A   1      40.279  31.039  30.356  1.00  0.00     0.031 C 
ATOM     42  C   UNL A   1      39.818  26.620  28.003  1.00  0.00     0.029 A 
ATOM     43  N   UNL A   1      41.814  27.109  28.884  1.00  0.00    -0.354 N 
ATOM     44  C   UNL A   1      42.513  30.903  30.826  1.00  0.00     0.074 A 
ATOM     45  C   UNL A   1      41.311  31.710  30.847  1.00  0.00     0.031 C 
ATOM     46  C   UNL A   1      40.642  25.595  27.728  1.00  0.00     0.029 A 
ATOM     47  C   UNL A   1      41.967  25.894  28.261  1.00  0.00     0.049 A 
ATOM     48  H   UNL A   1      42.541  27.562  29.368  1.00  0.00     0.167 HD
ATOM     49  C   UNL A   1      43.703  31.287  31.348  1.00  0.00     0.037 A 
ATOM     50  C   UNL A   1      43.058  25.117  28.121  1.00  0.00     0.037 A 
ATOM     51  C   UNL A   1      44.886  30.467  31.363  1.00  0.00     0.049 A 
ATOM     52  C   UNL A   1      44.361  25.561  28.728  1.00  0.00     0.074 A 
ATOM     53  C   UNL A   1      46.110  30.731  31.952  1.00  0.00     0.029 A 
ATOM     54  N   UNL A   1      44.992  29.223  30.758  1.00  0.00    -0.354 N 
ATOM     55  N   UNL A   1      44.633  26.658  29.390  1.00  0.00    -0.248 NA
ATOM     56  C   UNL A   1      45.508  24.655  28.572  1.00  0.00     0.031 C 
ATOM     57  C   UNL A   1      46.972  29.669  31.664  1.00  0.00     0.029 A 
ATOM     58  C   UNL A   1      46.271  28.721  30.936  1.00  0.00     0.049 A 
ATOM     59  H   UNL A   1      44.267  28.767  30.273  1.00  0.00     0.167 HD
ATOM     60  C   UNL A   1      45.970  26.565  29.750  1.00  0.00     0.074 A 
ATOM     61  C   UNL A   1      46.452  25.296  29.248  1.00  0.00     0.031 C 
ATOM     62  C   UNL A   1      46.733  27.452  30.435  1.00  0.00     0.037 A 
BRANCH  49  63
ATOM     63  C   UNL A   1      43.790  32.657  31.953  1.00  0.00     0.064 A 
ATOM     64  C   UNL A   1      43.440  32.896  33.290  1.00  0.00     0.173 A 
ATOM     65  C   UNL A   1      44.284  33.734  31.201  1.00  0.00     0.173 A 
ATOM     66  F   UNL A   1      42.954  31.901  34.049  1.00  0.00    -0.203 F 
ATOM     67  C   UNL A   1      43.561  34.167  33.846  1.00  0.00     0.198 A 
ATOM     68  C   UNL A   1      44.428  34.998  31.768  1.00  0.00     0.198 A 
ATOM     69  F   UNL A   1      44.637  33.558  29.919  1.00  0.00    -0.203 F 
ATOM     70  F   UNL A   1      43.183  34.381  35.114  1.00  0.00    -0.200 F 
ATOM     71  C   UNL A   1      44.062  35.214  33.087  1.00  0.00     0.200 A 
ATOM     72  F   UNL A   1      44.925  36.005  31.037  1.00  0.00    -0.200 F 
ATOM     73  F   UNL A   1      44.188  36.435  33.627  1.00  0.00    -0.200 F 
ENDBRANCH  49  63
BRANCH  50  74
ATOM     74  C   UNL A   1      42.966  23.832  27.380  1.00  0.00     0.064 A 
ATOM     75  C   UNL A   1      42.542  22.659  28.021  1.00  0.00     0.173 A 
ATOM     76  C   UNL A   1      43.316  23.745  26.025  1.00  0.00     0.173 A 
ATOM     77  F   UNL A   1      42.218  22.687  29.322  1.00  0.00    -0.203 F 
ATOM     78  C   UNL A   1      42.496  21.443  27.340  1.00  0.00     0.198 A 
ATOM     79  C   UNL A   1      43.243  22.535  25.339  1.00  0.00     0.198 A 
ATOM     80  F   UNL A   1      43.725  24.839  25.365  1.00  0.00    -0.203 F 
ATOM     81  F   UNL A   1      42.136  20.329  27.990  1.00  0.00    -0.200 F 
ATOM     82  C   UNL A   1      42.842  21.384  25.999  1.00  0.00     0.200 A 
ATOM     83  F   UNL A   1      43.566  22.484  24.039  1.00  0.00    -0.200 F 
ATOM     84  F   UNL A   1      42.798  20.215  25.345  1.00  0.00    -0.200 F 
ENDBRANCH  50  74
BRANCH  62  85
ATOM     85  C   UNL A   1      48.158  27.070  30.706  1.00  0.00     0.064 A 
ATOM     86  C   UNL A   1      48.506  26.255  31.793  1.00  0.00     0.173 A 
ATOM     87  C   UNL A   1      49.183  27.491  29.845  1.00  0.00     0.173 A 
ATOM     88  F   UNL A   1      47.564  25.842  32.654  1.00  0.00    -0.203 F 
ATOM     89  C   UNL A   1      49.831  25.895  32.021  1.00  0.00     0.198 A 
ATOM     90  C   UNL A   1      50.502  27.105  30.060  1.00  0.00     0.198 A 
ATOM     91  F   UNL A   1      48.902  28.267  28.787  1.00  0.00    -0.203 F 
ATOM     92  F   UNL A   1      50.146  25.152  33.092  1.00  0.00    -0.200 F 
ATOM     93  C   UNL A   1      50.827  26.312  31.151  1.00  0.00     0.200 A 
ATOM     94  F   UNL A   1      51.462  27.498  29.211  1.00  0.00    -0.200 F 
ATOM     95  F   UNL A   1      52.100  25.957  31.368  1.00  0.00    -0.200 F 
ENDBRANCH  62  85
ENDBRANCH  36  37
ENDBRANCH  28  31
ENDBRANCH  26  27
ENDBRANCH  25  26
ENDBRANCH  24  25
ENDBRANCH   1  24
TORSDOF 16
ENDMDL
