MODEL 1
REMARK VINA RESULT:     -12.4      0.000      0.000
REMARK SMILES O=C(NCCCCNC(=O)[C@@H]1C=C[C@H](NC(=O)C2CCOCC2)C1)c1ccc(-c2c3nc(c(-c4c(F)c(F)c(F)c(F)c4F)c4ccc([nH]4)c(-c4c(F)c(F)c(F)c(F)c4F)c4nc(c(-c5c(F)c(F)c(F)c(F)c5F)c5ccc2[nH]5)C=C4)C=C3)cc1
REMARK SMILES IDX 5 1 4 2 3 3 1 4 2 5 25 7 26 8 87 9 27 10 86 11 28 12 29 13
REMARK SMILES IDX 30 14 80 15 31 16 85 17 79 18 81 19 32 20 84 21 78 22 77 23
REMARK SMILES IDX 33 25 65 26 45 27 64 28 46 29 49 30 63 31 82 32 47 33 48 34
REMARK SMILES IDX 62 36 83 37 50 38 34 39 35 40 43 41 36 42 37 43 41 44 44 45
REMARK SMILES IDX 38 46 39 47 42 48 40 49 66 50 67 51 75 52 68 53 69 54 73 55
REMARK SMILES IDX 76 56 70 57 71 58 74 59 72 60 51 61 52 62 60 63 53 64 54 65
REMARK SMILES IDX 58 66 61 67 55 68 56 69 59 70 57 71 6 72 7 73 8 74 9 75
REMARK SMILES IDX 10 77 11 78 12 79 24 80 13 81 14 82 15 83 16 84 17 86 18 87
REMARK SMILES IDX 19 88 23 89 20 90 22 91 21 92
REMARK H PARENT 3 6 81 24 49 35 8 76 15 85
REMARK Flexibility Score: inf
ROOT
ATOM      1  C   UNL A   1      32.444  27.852  26.099  1.00  0.00     0.023 C 
ENDROOT
BRANCH   1   2
ATOM      2  C   UNL A   1      33.272  29.027  25.596  1.00  0.00     0.116 C 
BRANCH   2   3
ATOM      3  N   UNL A   1      32.744  30.321  25.999  1.00  0.00    -0.352 N 
ATOM      4  O   UNL A   1      32.611  32.199  27.251  1.00  0.00    -0.269 OA
ATOM      5  C   UNL A   1      33.238  31.190  26.945  1.00  0.00     0.251 C 
ATOM      6  H   UNL A   1      31.928  30.614  25.534  1.00  0.00     0.163 HD
BRANCH   5   7
ATOM      7  C   UNL A   1      34.519  30.882  27.619  1.00  0.00     0.039 A 
ATOM      8  C   UNL A   1      34.732  29.628  28.193  1.00  0.00     0.014 A 
ATOM      9  C   UNL A   1      35.512  31.864  27.688  1.00  0.00     0.014 A 
ATOM     10  C   UNL A   1      35.871  29.405  28.957  1.00  0.00     0.010 A 
ATOM     11  C   UNL A   1      36.697  31.608  28.388  1.00  0.00     0.010 A 
ATOM     12  C   UNL A   1      36.872  30.387  29.054  1.00  0.00    -0.014 A 
BRANCH  12  13
ATOM     13  C   UNL A   1      38.113  30.065  29.802  1.00  0.00     0.031 A 
ATOM     14  C   UNL A   1      38.346  30.572  31.196  1.00  0.00     0.074 A 
ATOM     15  C   UNL A   1      39.009  29.242  29.222  1.00  0.00     0.049 A 
ATOM     16  N   UNL A   1      39.340  30.314  32.010  1.00  0.00    -0.248 NA
ATOM     17  C   UNL A   1      37.342  31.492  31.753  1.00  0.00     0.031 C 
ATOM     18  C   UNL A   1      38.898  28.708  27.862  1.00  0.00     0.029 A 
ATOM     19  N   UNL A   1      40.163  28.682  29.705  1.00  0.00    -0.354 N 
ATOM     20  C   UNL A   1      39.088  31.042  33.166  1.00  0.00     0.074 A 
ATOM     21  C   UNL A   1      37.861  31.775  32.940  1.00  0.00     0.031 C 
ATOM     22  C   UNL A   1      39.907  27.853  27.641  1.00  0.00     0.029 A 
ATOM     23  C   UNL A   1      40.764  27.821  28.820  1.00  0.00     0.049 A 
ATOM     24  H   UNL A   1      40.525  28.878  30.599  1.00  0.00     0.167 HD
ATOM     25  C   UNL A   1      39.812  31.083  34.311  1.00  0.00     0.037 A 
ATOM     26  C   UNL A   1      41.887  27.089  28.940  1.00  0.00     0.037 A 
ATOM     27  C   UNL A   1      41.028  30.341  34.533  1.00  0.00     0.049 A 
ATOM     28  C   UNL A   1      42.660  27.150  30.225  1.00  0.00     0.074 A 
ATOM     29  C   UNL A   1      41.828  30.311  35.664  1.00  0.00     0.029 A 
ATOM     30  N   UNL A   1      41.619  29.496  33.605  1.00  0.00    -0.354 N 
ATOM     31  N   UNL A   1      42.397  27.828  31.316  1.00  0.00    -0.248 NA
ATOM     32  C   UNL A   1      43.886  26.344  30.296  1.00  0.00     0.031 C 
ATOM     33  C   UNL A   1      42.920  29.473  35.408  1.00  0.00     0.029 A 
ATOM     34  C   UNL A   1      42.779  28.949  34.133  1.00  0.00     0.049 A 
ATOM     35  H   UNL A   1      41.267  29.312  32.705  1.00  0.00     0.167 HD
ATOM     36  C   UNL A   1      43.422  27.533  32.201  1.00  0.00     0.074 A 
ATOM     37  C   UNL A   1      44.290  26.583  31.535  1.00  0.00     0.031 C 
ATOM     38  C   UNL A   1      43.635  28.016  33.449  1.00  0.00     0.037 A 
BRANCH  25  39
ATOM     39  C   UNL A   1      39.316  31.961  35.423  1.00  0.00     0.064 A 
ATOM     40  C   UNL A   1      38.491  31.459  36.440  1.00  0.00     0.173 A 
ATOM     41  C   UNL A   1      39.730  33.299  35.514  1.00  0.00     0.173 A 
ATOM     42  F   UNL A   1      38.059  30.190  36.395  1.00  0.00    -0.203 F 
ATOM     43  C   UNL A   1      38.092  32.267  37.502  1.00  0.00     0.198 A 
ATOM     44  C   UNL A   1      39.347  34.097  36.589  1.00  0.00     0.198 A 
ATOM     45  F   UNL A   1      40.524  33.826  34.569  1.00  0.00    -0.203 F 
ATOM     46  F   UNL A   1      37.282  31.774  38.450  1.00  0.00    -0.200 F 
ATOM     47  C   UNL A   1      38.527  33.582  37.581  1.00  0.00     0.200 A 
ATOM     48  F   UNL A   1      39.778  35.364  36.669  1.00  0.00    -0.200 F 
ATOM     49  F   UNL A   1      38.153  34.353  38.611  1.00  0.00    -0.200 F 
ENDBRANCH  25  39
BRANCH  26  50
ATOM     50  C   UNL A   1      42.342  26.245  27.806  1.00  0.00     0.064 A 
ATOM     51  C   UNL A   1      41.795  24.974  27.584  1.00  0.00     0.173 A 
ATOM     52  C   UNL A   1      43.327  26.698  26.917  1.00  0.00     0.173 A 
ATOM     53  F   UNL A   1      40.863  24.491  28.417  1.00  0.00    -0.203 F 
ATOM     54  C   UNL A   1      42.231  24.181  26.524  1.00  0.00     0.198 A 
ATOM     55  C   UNL A   1      43.738  25.918  25.840  1.00  0.00     0.198 A 
ATOM     56  F   UNL A   1      43.876  27.911  27.083  1.00  0.00    -0.203 F 
ATOM     57  F   UNL A   1      41.723  22.952  26.358  1.00  0.00    -0.200 F 
ATOM     58  C   UNL A   1      43.196  24.657  25.650  1.00  0.00     0.200 A 
ATOM     59  F   UNL A   1      44.658  26.389  24.987  1.00  0.00    -0.200 F 
ATOM     60  F   UNL A   1      43.609  23.897  24.626  1.00  0.00    -0.200 F 
ENDBRANCH  26  50
BRANCH  38  61
ATOM     61  C   UNL A   1      44.857  27.520  34.163  1.00  0.00     0.064 A 
ATOM     62  C   UNL A   1      46.082  28.195  34.068  1.00  0.00     0.173 A 
ATOM     63  C   UNL A   1      44.803  26.358  34.947  1.00  0.00     0.173 A 
ATOM     64  F   UNL A   1      46.186  29.301  33.315  1.00  0.00    -0.203 F 
ATOM     65  C   UNL A   1      47.219  27.708  34.706  1.00  0.00     0.198 A 
ATOM     66  C   UNL A   1      45.936  25.888  35.605  1.00  0.00     0.198 A 
ATOM     67  F   UNL A   1      43.653  25.679  35.072  1.00  0.00    -0.203 F 
ATOM     68  F   UNL A   1      48.392  28.339  34.555  1.00  0.00    -0.200 F 
ATOM     69  C   UNL A   1      47.144  26.557  35.477  1.00  0.00     0.200 A 
ATOM     70  F   UNL A   1      45.861  24.781  36.357  1.00  0.00    -0.200 F 
ATOM     71  F   UNL A   1      48.241  26.086  36.086  1.00  0.00    -0.200 F 
ENDBRANCH  38  61
ENDBRANCH  12  13
ENDBRANCH   5   7
ENDBRANCH   2   3
ENDBRANCH   1   2
BRANCH   1  72
ATOM     72  C   UNL A   1      32.516  26.585  25.240  1.00  0.00     0.023 C 
BRANCH  72  73
ATOM     73  C   UNL A   1      33.919  26.231  24.747  1.00  0.00     0.116 C 
BRANCH  73  74
ATOM     74  N   UNL A   1      33.874  25.330  23.611  1.00  0.00    -0.356 N 
ATOM     75  C   UNL A   1      34.402  24.076  23.478  1.00  0.00     0.227 C 
ATOM     76  H   UNL A   1      33.393  25.671  22.822  1.00  0.00     0.163 HD
ATOM     77  O   UNL A   1      34.332  23.534  22.376  1.00  0.00    -0.274 OA
BRANCH  75  78
ATOM     78  C   UNL A   1      34.990  23.391  24.713  1.00  0.00     0.103 C 
ATOM     79  C   UNL A   1      35.919  22.270  24.374  1.00  0.00    -0.016 C 
ATOM     80  C   UNL A   1      33.872  22.703  25.513  1.00  0.00     0.047 C 
ATOM     81  C   UNL A   1      35.413  21.082  24.715  1.00  0.00    -0.006 C 
ATOM     82  C   UNL A   1      34.045  21.191  25.308  1.00  0.00     0.106 C 
BRANCH  82  83
ATOM     83  N   UNL A   1      33.119  20.588  24.378  1.00  0.00    -0.350 N 
ATOM     84  C   UNL A   1      32.903  19.298  24.014  1.00  0.00     0.223 C 
ATOM     85  H   UNL A   1      32.534  21.235  23.921  1.00  0.00     0.164 HD
ATOM     86  O   UNL A   1      32.170  19.117  23.037  1.00  0.00    -0.275 OA
BRANCH  84  87
ATOM     87  C   UNL A   1      33.445  18.122  24.831  1.00  0.00     0.083 C 
ATOM     88  C   UNL A   1      34.685  17.439  24.251  1.00  0.00     0.042 C 
ATOM     89  C   UNL A   1      32.329  17.069  25.001  1.00  0.00     0.042 C 
ATOM     90  C   UNL A   1      35.046  16.190  25.045  1.00  0.00     0.161 C 
ATOM     91  C   UNL A   1      32.820  15.844  25.751  1.00  0.00     0.161 C 
ATOM     92  O   UNL A   1      33.953  15.280  25.098  1.00  0.00    -0.381 OA
ENDBRANCH  84  87
ENDBRANCH  82  83
ENDBRANCH  75  78
ENDBRANCH  73  74
ENDBRANCH  72  73
ENDBRANCH   1  72
TORSDOF 13
ENDMDL
MODEL 2
REMARK VINA RESULT:     -12.4      1.931      3.481
REMARK SMILES O=C(NCCCCNC(=O)[C@@H]1C=C[C@H](NC(=O)C2CCOCC2)C1)c1ccc(-c2c3nc(c(-c4c(F)c(F)c(F)c(F)c4F)c4ccc([nH]4)c(-c4c(F)c(F)c(F)c(F)c4F)c4nc(c(-c5c(F)c(F)c(F)c(F)c5F)c5ccc2[nH]5)C=C4)C=C3)cc1
REMARK SMILES IDX 5 1 4 2 3 3 1 4 2 5 25 7 26 8 87 9 27 10 86 11 28 12 29 13
REMARK SMILES IDX 30 14 80 15 31 16 85 17 79 18 81 19 32 20 84 21 78 22 77 23
REMARK SMILES IDX 33 25 65 26 45 27 64 28 46 29 49 30 63 31 82 32 47 33 48 34
REMARK SMILES IDX 62 36 83 37 50 38 34 39 35 40 43 41 36 42 37 43 41 44 44 45
REMARK SMILES IDX 38 46 39 47 42 48 40 49 66 50 67 51 75 52 68 53 69 54 73 55
REMARK SMILES IDX 76 56 70 57 71 58 74 59 72 60 51 61 52 62 60 63 53 64 54 65
REMARK SMILES IDX 58 66 61 67 55 68 56 69 59 70 57 71 6 72 7 73 8 74 9 75
REMARK SMILES IDX 10 77 11 78 12 79 24 80 13 81 14 82 15 83 16 84 17 86 18 87
REMARK SMILES IDX 19 88 23 89 20 90 22 91 21 92
REMARK H PARENT 3 6 81 24 49 35 8 76 15 85
REMARK Flexibility Score: inf
ROOT
ATOM      1  C   UNL A   1      31.363  32.219  26.560  1.00  0.00     0.023 C 
ENDROOT
BRANCH   1   2
ATOM      2  C   UNL A   1      32.562  32.858  27.248  1.00  0.00     0.116 C 
BRANCH   2   3
ATOM      3  N   UNL A   1      32.325  34.230  27.667  1.00  0.00    -0.352 N 
ATOM      4  O   UNL A   1      32.598  36.078  28.940  1.00  0.00    -0.269 OA
ATOM      5  C   UNL A   1      32.994  34.962  28.621  1.00  0.00     0.251 C 
ATOM      6  H   UNL A   1      31.591  34.698  27.207  1.00  0.00     0.163 HD
BRANCH   5   7
ATOM      7  C   UNL A   1      34.178  34.378  29.288  1.00  0.00     0.039 A 
ATOM      8  C   UNL A   1      35.461  34.636  28.804  1.00  0.00     0.014 A 
ATOM      9  C   UNL A   1      34.001  33.550  30.402  1.00  0.00     0.014 A 
ATOM     10  C   UNL A   1      36.549  33.957  29.339  1.00  0.00     0.010 A 
ATOM     11  C   UNL A   1      35.109  32.933  30.994  1.00  0.00     0.010 A 
ATOM     12  C   UNL A   1      36.389  33.108  30.448  1.00  0.00    -0.014 A 
BRANCH  12  13
ATOM     13  C   UNL A   1      37.595  32.481  31.043  1.00  0.00     0.031 A 
ATOM     14  C   UNL A   1      38.067  32.837  32.424  1.00  0.00     0.074 A 
ATOM     15  C   UNL A   1      38.229  31.526  30.335  1.00  0.00     0.049 A 
ATOM     16  N   UNL A   1      39.055  32.321  33.114  1.00  0.00    -0.248 NA
ATOM     17  C   UNL A   1      37.347  33.911  33.124  1.00  0.00     0.031 C 
ATOM     18  C   UNL A   1      37.873  31.117  28.974  1.00  0.00     0.029 A 
ATOM     19  N   UNL A   1      39.274  30.703  30.666  1.00  0.00    -0.354 N 
ATOM     20  C   UNL A   1      39.081  33.009  34.320  1.00  0.00     0.074 A 
ATOM     21  C   UNL A   1      38.028  34.000  34.260  1.00  0.00     0.031 C 
ATOM     22  C   UNL A   1      38.644  30.083  28.610  1.00  0.00     0.029 A 
ATOM     23  C   UNL A   1      39.584  29.793  29.686  1.00  0.00     0.049 A 
ATOM     24  H   UNL A   1      39.755  30.759  31.524  1.00  0.00     0.167 HD
ATOM     25  C   UNL A   1      39.903  32.821  35.380  1.00  0.00     0.037 A 
ATOM     26  C   UNL A   1      40.526  28.832  29.652  1.00  0.00     0.037 A 
ATOM     27  C   UNL A   1      40.943  31.824  35.438  1.00  0.00     0.049 A 
ATOM     28  C   UNL A   1      41.414  28.643  30.848  1.00  0.00     0.074 A 
ATOM     29  C   UNL A   1      41.823  31.551  36.473  1.00  0.00     0.029 A 
ATOM     30  N   UNL A   1      41.243  30.934  34.417  1.00  0.00    -0.354 N 
ATOM     31  N   UNL A   1      41.412  29.290  31.988  1.00  0.00    -0.248 NA
ATOM     32  C   UNL A   1      42.434  27.592  30.751  1.00  0.00     0.031 C 
ATOM     33  C   UNL A   1      42.675  30.518  36.065  1.00  0.00     0.029 A 
ATOM     34  C   UNL A   1      42.300  30.120  34.792  1.00  0.00     0.049 A 
ATOM     35  H   UNL A   1      40.774  30.887  33.553  1.00  0.00     0.167 HD
ATOM     36  C   UNL A   1      42.429  28.727  32.744  1.00  0.00     0.074 A 
ATOM     37  C   UNL A   1      42.999  27.659  31.948  1.00  0.00     0.031 C 
ATOM     38  C   UNL A   1      42.861  29.072  33.981  1.00  0.00     0.037 A 
BRANCH  25  39
ATOM     39  C   UNL A   1      39.722  33.710  36.575  1.00  0.00     0.064 A 
ATOM     40  C   UNL A   1      40.324  34.976  36.645  1.00  0.00     0.173 A 
ATOM     41  C   UNL A   1      38.878  33.327  37.629  1.00  0.00     0.173 A 
ATOM     42  F   UNL A   1      41.147  35.386  35.669  1.00  0.00    -0.203 F 
ATOM     43  C   UNL A   1      40.095  35.819  37.729  1.00  0.00     0.198 A 
ATOM     44  C   UNL A   1      38.634  34.182  38.700  1.00  0.00     0.198 A 
ATOM     45  F   UNL A   1      38.274  32.129  37.608  1.00  0.00    -0.203 F 
ATOM     46  F   UNL A   1      40.702  37.013  37.788  1.00  0.00    -0.200 F 
ATOM     47  C   UNL A   1      39.244  35.426  38.752  1.00  0.00     0.200 A 
ATOM     48  F   UNL A   1      37.802  33.804  39.682  1.00  0.00    -0.200 F 
ATOM     49  F   UNL A   1      39.014  36.245  39.787  1.00  0.00    -0.200 F 
ENDBRANCH  25  39
BRANCH  26  50
ATOM     50  C   UNL A   1      40.673  27.985  28.442  1.00  0.00     0.064 A 
ATOM     51  C   UNL A   1      41.464  28.397  27.361  1.00  0.00     0.173 A 
ATOM     52  C   UNL A   1      40.032  26.742  28.347  1.00  0.00     0.173 A 
ATOM     53  F   UNL A   1      42.083  29.586  27.399  1.00  0.00    -0.203 F 
ATOM     54  C   UNL A   1      41.593  27.604  26.223  1.00  0.00     0.198 A 
ATOM     55  C   UNL A   1      40.188  25.936  27.222  1.00  0.00     0.198 A 
ATOM     56  F   UNL A   1      39.270  26.299  29.358  1.00  0.00    -0.203 F 
ATOM     57  F   UNL A   1      42.320  28.040  25.185  1.00  0.00    -0.200 F 
ATOM     58  C   UNL A   1      40.961  26.372  26.158  1.00  0.00     0.200 A 
ATOM     59  F   UNL A   1      39.590  24.738  27.172  1.00  0.00    -0.200 F 
ATOM     60  F   UNL A   1      41.092  25.606  25.066  1.00  0.00    -0.200 F 
ENDBRANCH  26  50
BRANCH  38  61
ATOM     61  C   UNL A   1      44.008  28.281  34.537  1.00  0.00     0.064 A 
ATOM     62  C   UNL A   1      45.336  28.688  34.344  1.00  0.00     0.173 A 
ATOM     63  C   UNL A   1      43.777  27.106  35.266  1.00  0.00     0.173 A 
ATOM     64  F   UNL A   1      45.606  29.796  33.636  1.00  0.00    -0.203 F 
ATOM     65  C   UNL A   1      46.395  27.930  34.834  1.00  0.00     0.198 A 
ATOM     66  C   UNL A   1      44.838  26.363  35.778  1.00  0.00     0.198 A 
ATOM     67  F   UNL A   1      42.525  26.677  35.481  1.00  0.00    -0.203 F 
ATOM     68  F   UNL A   1      47.657  28.308  34.589  1.00  0.00    -0.200 F 
ATOM     69  C   UNL A   1      46.146  26.771  35.553  1.00  0.00     0.200 A 
ATOM     70  F   UNL A   1      44.597  25.248  36.480  1.00  0.00    -0.200 F 
ATOM     71  F   UNL A   1      47.166  26.038  36.019  1.00  0.00    -0.200 F 
ENDBRANCH  38  61
ENDBRANCH  12  13
ENDBRANCH   5   7
ENDBRANCH   2   3
ENDBRANCH   1   2
BRANCH   1  72
ATOM     72  C   UNL A   1      31.557  30.763  26.124  1.00  0.00     0.023 C 
BRANCH  72  73
ATOM     73  C   UNL A   1      33.018  30.330  25.990  1.00  0.00     0.116 C 
BRANCH  73  74
ATOM     74  N   UNL A   1      33.256  29.639  24.736  1.00  0.00    -0.356 N 
ATOM     75  C   UNL A   1      33.121  28.311  24.441  1.00  0.00     0.227 C 
ATOM     76  H   UNL A   1      33.557  30.208  23.993  1.00  0.00     0.163 HD
ATOM     77  O   UNL A   1      33.483  27.927  23.329  1.00  0.00    -0.274 OA
BRANCH  75  78
ATOM     78  C   UNL A   1      32.471  27.389  25.474  1.00  0.00     0.103 C 
ATOM     79  C   UNL A   1      33.447  26.469  26.133  1.00  0.00    -0.016 C 
ATOM     80  C   UNL A   1      31.487  26.434  24.779  1.00  0.00     0.047 C 
ATOM     81  C   UNL A   1      33.249  25.196  25.780  1.00  0.00    -0.006 C 
ATOM     82  C   UNL A   1      32.133  25.040  24.798  1.00  0.00     0.106 C 
BRANCH  82  83
ATOM     83  N   UNL A   1      32.712  24.616  23.545  1.00  0.00    -0.350 N 
ATOM     84  C   UNL A   1      33.383  23.491  23.186  1.00  0.00     0.223 C 
ATOM     85  H   UNL A   1      32.600  25.265  22.814  1.00  0.00     0.164 HD
ATOM     86  O   UNL A   1      33.933  23.508  22.081  1.00  0.00    -0.275 OA
BRANCH  84  87
ATOM     87  C   UNL A   1      33.369  22.226  24.049  1.00  0.00     0.083 C 
ATOM     88  C   UNL A   1      34.741  21.610  24.327  1.00  0.00     0.042 C 
ATOM     89  C   UNL A   1      32.472  21.166  23.375  1.00  0.00     0.042 C 
ATOM     90  C   UNL A   1      34.607  20.275  25.051  1.00  0.00     0.161 C 
ATOM     91  C   UNL A   1      32.465  19.861  24.151  1.00  0.00     0.161 C 
ATOM     92  O   UNL A   1      33.792  19.370  24.315  1.00  0.00    -0.381 OA
ENDBRANCH  84  87
ENDBRANCH  82  83
ENDBRANCH  75  78
ENDBRANCH  73  74
ENDBRANCH  72  73
ENDBRANCH   1  72
TORSDOF 13
ENDMDL
MODEL 3
REMARK VINA RESULT:     -12.4      2.007      3.553
REMARK SMILES O=C(NCCCCNC(=O)[C@@H]1C=C[C@H](NC(=O)C2CCOCC2)C1)c1ccc(-c2c3nc(c(-c4c(F)c(F)c(F)c(F)c4F)c4ccc([nH]4)c(-c4c(F)c(F)c(F)c(F)c4F)c4nc(c(-c5c(F)c(F)c(F)c(F)c5F)c5ccc2[nH]5)C=C4)C=C3)cc1
REMARK SMILES IDX 5 1 4 2 3 3 1 4 2 5 25 7 26 8 87 9 27 10 86 11 28 12 29 13
REMARK SMILES IDX 30 14 80 15 31 16 85 17 79 18 81 19 32 20 84 21 78 22 77 23
REMARK SMILES IDX 33 25 65 26 45 27 64 28 46 29 49 30 63 31 82 32 47 33 48 34
REMARK SMILES IDX 62 36 83 37 50 38 34 39 35 40 43 41 36 42 37 43 41 44 44 45
REMARK SMILES IDX 38 46 39 47 42 48 40 49 66 50 67 51 75 52 68 53 69 54 73 55
REMARK SMILES IDX 76 56 70 57 71 58 74 59 72 60 51 61 52 62 60 63 53 64 54 65
REMARK SMILES IDX 58 66 61 67 55 68 56 69 59 70 57 71 6 72 7 73 8 74 9 75
REMARK SMILES IDX 10 77 11 78 12 79 24 80 13 81 14 82 15 83 16 84 17 86 18 87
REMARK SMILES IDX 19 88 23 89 20 90 22 91 21 92
REMARK H PARENT 3 6 81 24 49 35 8 76 15 85
REMARK Flexibility Score: inf
ROOT
ATOM      1  C   UNL A   1      31.434  32.107  26.740  1.00  0.00     0.023 C 
ENDROOT
BRANCH   1   2
ATOM      2  C   UNL A   1      32.668  32.872  27.195  1.00  0.00     0.116 C 
BRANCH   2   3
ATOM      3  N   UNL A   1      32.374  34.217  27.665  1.00  0.00    -0.352 N 
ATOM      4  O   UNL A   1      32.554  36.018  29.020  1.00  0.00    -0.269 OA
ATOM      5  C   UNL A   1      32.995  34.930  28.665  1.00  0.00     0.251 C 
ATOM      6  H   UNL A   1      31.635  34.679  27.207  1.00  0.00     0.163 HD
BRANCH   5   7
ATOM      7  C   UNL A   1      34.184  34.359  29.336  1.00  0.00     0.039 A 
ATOM      8  C   UNL A   1      35.461  34.581  28.821  1.00  0.00     0.014 A 
ATOM      9  C   UNL A   1      34.016  33.579  30.485  1.00  0.00     0.014 A 
ATOM     10  C   UNL A   1      36.549  33.911  29.365  1.00  0.00     0.010 A 
ATOM     11  C   UNL A   1      35.126  32.973  31.084  1.00  0.00     0.010 A 
ATOM     12  C   UNL A   1      36.398  33.109  30.510  1.00  0.00    -0.014 A 
BRANCH  12  13
ATOM     13  C   UNL A   1      37.607  32.492  31.111  1.00  0.00     0.031 A 
ATOM     14  C   UNL A   1      38.067  32.848  32.496  1.00  0.00     0.074 A 
ATOM     15  C   UNL A   1      38.254  31.545  30.404  1.00  0.00     0.049 A 
ATOM     16  N   UNL A   1      39.055  32.339  33.190  1.00  0.00    -0.248 NA
ATOM     17  C   UNL A   1      37.333  33.913  33.195  1.00  0.00     0.031 C 
ATOM     18  C   UNL A   1      37.910  31.137  29.039  1.00  0.00     0.029 A 
ATOM     19  N   UNL A   1      39.304  30.731  30.739  1.00  0.00    -0.354 N 
ATOM     20  C   UNL A   1      39.067  33.023  34.399  1.00  0.00     0.074 A 
ATOM     21  C   UNL A   1      38.005  34.005  34.335  1.00  0.00     0.031 C 
ATOM     22  C   UNL A   1      38.693  30.111  28.677  1.00  0.00     0.029 A 
ATOM     23  C   UNL A   1      39.629  29.827  29.758  1.00  0.00     0.049 A 
ATOM     24  H   UNL A   1      39.780  30.789  31.599  1.00  0.00     0.167 HD
ATOM     25  C   UNL A   1      39.885  32.840  35.463  1.00  0.00     0.037 A 
ATOM     26  C   UNL A   1      40.580  28.875  29.727  1.00  0.00     0.037 A 
ATOM     27  C   UNL A   1      40.934  31.852  35.524  1.00  0.00     0.049 A 
ATOM     28  C   UNL A   1      41.462  28.691  30.927  1.00  0.00     0.074 A 
ATOM     29  C   UNL A   1      41.810  31.584  36.564  1.00  0.00     0.029 A 
ATOM     30  N   UNL A   1      41.248  30.969  34.502  1.00  0.00    -0.354 N 
ATOM     31  N   UNL A   1      41.448  29.334  32.069  1.00  0.00    -0.248 NA
ATOM     32  C   UNL A   1      42.494  27.649  30.834  1.00  0.00     0.031 C 
ATOM     33  C   UNL A   1      42.674  30.561  36.158  1.00  0.00     0.029 A 
ATOM     34  C   UNL A   1      42.311  30.163  34.882  1.00  0.00     0.049 A 
ATOM     35  H   UNL A   1      40.785  30.920  33.635  1.00  0.00     0.167 HD
ATOM     36  C   UNL A   1      42.465  28.778  32.830  1.00  0.00     0.074 A 
ATOM     37  C   UNL A   1      43.050  27.718  32.034  1.00  0.00     0.031 C 
ATOM     38  C   UNL A   1      42.887  29.123  34.070  1.00  0.00     0.037 A 
BRANCH  25  39
ATOM     39  C   UNL A   1      39.688  33.724  36.660  1.00  0.00     0.064 A 
ATOM     40  C   UNL A   1      40.283  34.992  36.740  1.00  0.00     0.173 A 
ATOM     41  C   UNL A   1      38.837  33.331  37.704  1.00  0.00     0.173 A 
ATOM     42  F   UNL A   1      41.113  35.410  35.773  1.00  0.00    -0.203 F 
ATOM     43  C   UNL A   1      40.039  35.830  37.825  1.00  0.00     0.198 A 
ATOM     44  C   UNL A   1      38.578  34.181  38.777  1.00  0.00     0.198 A 
ATOM     45  F   UNL A   1      38.239  32.131  37.674  1.00  0.00    -0.203 F 
ATOM     46  F   UNL A   1      40.639  37.027  37.894  1.00  0.00    -0.200 F 
ATOM     47  C   UNL A   1      39.181  35.428  38.838  1.00  0.00     0.200 A 
ATOM     48  F   UNL A   1      37.739  33.796  39.749  1.00  0.00    -0.200 F 
ATOM     49  F   UNL A   1      38.937  36.242  39.875  1.00  0.00    -0.200 F 
ENDBRANCH  25  39
BRANCH  26  50
ATOM     50  C   UNL A   1      40.743  28.034  28.515  1.00  0.00     0.064 A 
ATOM     51  C   UNL A   1      40.111  26.787  28.407  1.00  0.00     0.173 A 
ATOM     52  C   UNL A   1      41.527  28.465  27.435  1.00  0.00     0.173 A 
ATOM     53  F   UNL A   1      39.365  26.325  29.420  1.00  0.00    -0.203 F 
ATOM     54  C   UNL A   1      40.273  25.997  27.271  1.00  0.00     0.198 A 
ATOM     55  C   UNL A   1      41.663  27.688  26.288  1.00  0.00     0.198 A 
ATOM     56  F   UNL A   1      42.146  29.654  27.487  1.00  0.00    -0.203 F 
ATOM     57  F   UNL A   1      39.694  24.790  27.210  1.00  0.00    -0.200 F 
ATOM     58  C   UNL A   1      41.042  26.451  26.210  1.00  0.00     0.200 A 
ATOM     59  F   UNL A   1      42.391  28.140  25.258  1.00  0.00    -0.200 F 
ATOM     60  F   UNL A   1      41.191  25.693  25.115  1.00  0.00    -0.200 F 
ENDBRANCH  26  50
BRANCH  38  61
ATOM     61  C   UNL A   1      44.037  28.341  34.631  1.00  0.00     0.064 A 
ATOM     62  C   UNL A   1      43.832  27.150  35.342  1.00  0.00     0.173 A 
ATOM     63  C   UNL A   1      45.355  28.788  34.458  1.00  0.00     0.173 A 
ATOM     64  F   UNL A   1      42.587  26.693  35.548  1.00  0.00    -0.203 F 
ATOM     65  C   UNL A   1      44.903  26.449  35.888  1.00  0.00     0.198 A 
ATOM     66  C   UNL A   1      46.427  28.071  34.983  1.00  0.00     0.198 A 
ATOM     67  F   UNL A   1      45.603  29.919  33.782  1.00  0.00    -0.203 F 
ATOM     68  F   UNL A   1      44.679  25.344  36.612  1.00  0.00    -0.200 F 
ATOM     69  C   UNL A   1      46.199  26.908  35.706  1.00  0.00     0.200 A 
ATOM     70  F   UNL A   1      47.679  28.509  34.800  1.00  0.00    -0.200 F 
ATOM     71  F   UNL A   1      47.230  26.236  36.238  1.00  0.00    -0.200 F 
ENDBRANCH  38  61
ENDBRANCH  12  13
ENDBRANCH   5   7
ENDBRANCH   2   3
ENDBRANCH   1   2
BRANCH   1  72
ATOM     72  C   UNL A   1      31.696  30.687  26.227  1.00  0.00     0.023 C 
BRANCH  72  73
ATOM     73  C   UNL A   1      32.232  29.719  27.283  1.00  0.00     0.116 C 
BRANCH  73  74
ATOM     74  N   UNL A   1      31.549  28.441  27.229  1.00  0.00    -0.356 N 
ATOM     75  C   UNL A   1      31.920  27.286  26.597  1.00  0.00     0.227 C 
ATOM     76  H   UNL A   1      30.696  28.398  27.719  1.00  0.00     0.163 HD
ATOM     77  O   UNL A   1      31.126  26.346  26.599  1.00  0.00    -0.274 OA
BRANCH  75  78
ATOM     78  C   UNL A   1      33.318  27.201  25.983  1.00  0.00     0.103 C 
ATOM     79  C   UNL A   1      33.379  27.742  24.590  1.00  0.00    -0.016 C 
ATOM     80  C   UNL A   1      33.729  25.729  25.816  1.00  0.00     0.047 C 
ATOM     81  C   UNL A   1      33.595  26.779  23.690  1.00  0.00    -0.006 C 
ATOM     82  C   UNL A   1      33.681  25.422  24.312  1.00  0.00     0.106 C 
BRANCH  82  83
ATOM     83  N   UNL A   1      32.528  24.670  23.875  1.00  0.00    -0.350 N 
ATOM     84  C   UNL A   1      32.261  23.339  23.856  1.00  0.00     0.223 C 
ATOM     85  H   UNL A   1      31.797  25.229  23.524  1.00  0.00     0.164 HD
ATOM     86  O   UNL A   1      31.256  22.987  23.232  1.00  0.00    -0.275 OA
BRANCH  84  87
ATOM     87  C   UNL A   1      33.095  22.332  24.656  1.00  0.00     0.083 C 
ATOM     88  C   UNL A   1      34.513  22.097  24.131  1.00  0.00     0.042 C 
ATOM     89  C   UNL A   1      32.348  20.983  24.701  1.00  0.00     0.042 C 
ATOM     90  C   UNL A   1      35.198  20.967  24.892  1.00  0.00     0.161 C 
ATOM     91  C   UNL A   1      33.152  19.919  25.427  1.00  0.00     0.161 C 
ATOM     92  O   UNL A   1      34.435  19.768  24.828  1.00  0.00    -0.381 OA
ENDBRANCH  84  87
ENDBRANCH  82  83
ENDBRANCH  75  78
ENDBRANCH  73  74
ENDBRANCH  72  73
ENDBRANCH   1  72
TORSDOF 13
ENDMDL
