MODEL 1
REMARK VINA RESULT:     -12.0      0.000      0.000
REMARK SMILES CC1(C)[C@@](C)(C(=O)NCCCCNC(=O)c2ccc(-c3c4nc(c(-c5c(F)c(F)c(F)c(F)c5F)c5ccc([nH]5)c(-c5c(F)c(F)c(F)c(F)c5F)c5nc(c(-c6c(F)c(F)c(F)c(F)c6F)c6ccc3[nH]6)C=C5)C=C4)cc2)[C@@]12CC[C@@H]2C(=O)NCc1ccco1
REMARK SMILES IDX 10 1 9 2 8 3 6 4 7 5 4 7 1 8 2 9 3 10 79 11 5 12 80 13 82 14
REMARK SMILES IDX 81 15 83 16 84 17 85 18 86 20 87 21 88 22 91 23 89 24 90 25
REMARK SMILES IDX 11 26 12 27 13 28 14 29 15 31 16 32 17 33 78 34 18 35 77 36
REMARK SMILES IDX 19 37 20 38 21 39 71 40 22 41 76 42 70 43 72 44 23 45 75 46
REMARK SMILES IDX 69 47 68 48 24 50 56 51 36 52 55 53 37 54 40 55 54 56 73 57
REMARK SMILES IDX 38 58 39 59 53 61 74 62 41 63 25 64 26 65 34 66 27 67 28 68
REMARK SMILES IDX 32 69 35 70 29 71 30 72 33 73 31 74 57 75 58 76 66 77 59 78
REMARK SMILES IDX 60 79 64 80 67 81 61 82 62 83 65 84 63 85 42 86 43 87 51 88
REMARK SMILES IDX 44 89 45 90 49 91 52 92 46 93 47 94 50 95 48 96
REMARK H PARENT 8 6 85 19 13 30 72 49 40 60
REMARK Flexibility Score: inf
ROOT
ATOM      1  C   UNL A   1      31.732  27.752  26.110  1.00  0.00     0.023 C 
ENDROOT
BRANCH   1   2
ATOM      2  C   UNL A   1      30.654  26.687  25.869  1.00  0.00     0.116 C 
BRANCH   2   3
ATOM      3  N   UNL A   1      30.917  25.544  26.700  1.00  0.00    -0.356 N 
ATOM      4  C   UNL A   1      31.585  24.382  26.473  1.00  0.00     0.227 C 
ATOM      5  O   UNL A   1      31.364  23.478  27.276  1.00  0.00    -0.274 OA
ATOM      6  H   UNL A   1      30.542  25.616  27.607  1.00  0.00     0.163 HD
BRANCH   4   7
ATOM      7  C   UNL A   1      32.721  24.228  25.495  1.00  0.00     0.059 C 
ATOM      8  C   UNL A   1      31.478  24.518  23.144  1.00  0.00     0.013 C 
ATOM      9  C   UNL A   1      32.710  24.173  23.949  1.00  0.00    -0.013 C 
ATOM     10  C   UNL A   1      33.957  24.529  23.155  1.00  0.00     0.013 C 
ATOM     11  C   UNL A   1      32.704  22.878  24.747  1.00  0.00     0.003 C 
ATOM     12  C   UNL A   1      34.028  24.713  26.124  1.00  0.00     0.023 C 
ATOM     13  C   UNL A   1      31.600  21.894  24.503  1.00  0.00     0.010 C 
ATOM     14  C   UNL A   1      33.746  21.798  24.829  1.00  0.00     0.086 C 
ATOM     15  C   UNL A   1      32.684  20.839  24.287  1.00  0.00     0.015 C 
BRANCH  14  16
ATOM     16  C   UNL A   1      34.490  21.484  26.148  1.00  0.00     0.224 C 
ATOM     17  O   UNL A   1      33.866  21.078  27.145  1.00  0.00    -0.275 OA
ATOM     18  N   UNL A   1      35.832  21.686  26.363  1.00  0.00    -0.349 N 
ATOM     19  H   UNL A   1      36.099  21.652  27.310  1.00  0.00     0.163 HD
BRANCH  18  20
ATOM     20  C   UNL A   1      36.923  21.941  25.450  1.00  0.00     0.191 C 
BRANCH  20  21
ATOM     21  C   UNL A   1      38.005  22.740  26.069  1.00  0.00     0.122 A 
ATOM     22  C   UNL A   1      38.194  24.075  26.361  1.00  0.00     0.047 A 
ATOM     23  O   UNL A   1      39.135  22.038  26.390  1.00  0.00    -0.467 OA
ATOM     24  C   UNL A   1      39.507  24.194  26.878  1.00  0.00     0.042 A 
ATOM     25  C   UNL A   1      40.036  22.926  26.878  1.00  0.00     0.195 A 
ENDBRANCH  20  21
ENDBRANCH  18  20
ENDBRANCH  14  16
ENDBRANCH   4   7
ENDBRANCH   2   3
ENDBRANCH   1   2
BRANCH   1  26
ATOM     26  C   UNL A   1      32.675  28.001  24.922  1.00  0.00     0.023 C 
BRANCH  26  27
ATOM     27  C   UNL A   1      33.704  29.099  25.139  1.00  0.00     0.116 C 
BRANCH  27  28
ATOM     28  N   UNL A   1      33.118  30.284  25.738  1.00  0.00    -0.352 N 
ATOM     29  C   UNL A   1      33.486  30.965  26.875  1.00  0.00     0.251 C 
ATOM     30  H   UNL A   1      32.342  30.656  25.260  1.00  0.00     0.163 HD
ATOM     31  O   UNL A   1      32.763  31.844  27.316  1.00  0.00    -0.269 OA
BRANCH  29  32
ATOM     32  C   UNL A   1      34.743  30.619  27.579  1.00  0.00     0.039 A 
ATOM     33  C   UNL A   1      35.713  31.613  27.731  1.00  0.00     0.014 A 
ATOM     34  C   UNL A   1      34.984  29.329  28.061  1.00  0.00     0.014 A 
ATOM     35  C   UNL A   1      36.902  31.328  28.408  1.00  0.00     0.010 A 
ATOM     36  C   UNL A   1      36.139  29.064  28.795  1.00  0.00     0.010 A 
ATOM     37  C   UNL A   1      37.112  30.059  28.972  1.00  0.00    -0.014 A 
BRANCH  37  38
ATOM     38  C   UNL A   1      38.344  29.766  29.750  1.00  0.00     0.031 A 
ATOM     39  C   UNL A   1      38.522  30.320  31.137  1.00  0.00     0.074 A 
ATOM     40  C   UNL A   1      39.326  29.035  29.187  1.00  0.00     0.049 A 
ATOM     41  N   UNL A   1      39.538  30.192  31.956  1.00  0.00    -0.248 NA
ATOM     42  C   UNL A   1      37.426  31.144  31.668  1.00  0.00     0.031 C 
ATOM     43  C   UNL A   1      39.297  28.484  27.832  1.00  0.00     0.029 A 
ATOM     44  N   UNL A   1      40.543  28.636  29.682  1.00  0.00    -0.354 N 
ATOM     45  C   UNL A   1      39.207  30.927  33.087  1.00  0.00     0.074 A 
ATOM     46  C   UNL A   1      37.922  31.541  32.830  1.00  0.00     0.031 C 
ATOM     47  C   UNL A   1      40.428  27.794  27.614  1.00  0.00     0.029 A 
ATOM     48  C   UNL A   1      41.278  27.885  28.797  1.00  0.00     0.049 A 
ATOM     49  H   UNL A   1      40.859  28.865  30.587  1.00  0.00     0.167 HD
ATOM     50  C   UNL A   1      39.900  31.059  34.243  1.00  0.00     0.037 A 
ATOM     51  C   UNL A   1      42.501  27.336  28.924  1.00  0.00     0.037 A 
ATOM     52  C   UNL A   1      41.170  30.430  34.505  1.00  0.00     0.049 A 
ATOM     53  C   UNL A   1      43.252  27.503  30.218  1.00  0.00     0.074 A 
ATOM     54  C   UNL A   1      41.922  30.454  35.668  1.00  0.00     0.029 A 
ATOM     55  N   UNL A   1      41.879  29.668  33.589  1.00  0.00    -0.354 N 
ATOM     56  N   UNL A   1      42.894  28.135  31.309  1.00  0.00    -0.248 NA
ATOM     57  C   UNL A   1      44.574  26.867  30.300  1.00  0.00     0.031 C 
ATOM     58  C   UNL A   1      43.108  29.750  35.437  1.00  0.00     0.029 A 
ATOM     59  C   UNL A   1      43.070  29.237  34.151  1.00  0.00     0.049 A 
ATOM     60  H   UNL A   1      41.580  29.463  32.674  1.00  0.00     0.167 HD
ATOM     61  C   UNL A   1      43.928  27.947  32.215  1.00  0.00     0.074 A 
ATOM     62  C   UNL A   1      44.920  27.126  31.553  1.00  0.00     0.031 C 
ATOM     63  C   UNL A   1      44.046  28.413  33.484  1.00  0.00     0.037 A 
BRANCH  50  64
ATOM     64  C   UNL A   1      39.301  31.919  35.320  1.00  0.00     0.064 A 
ATOM     65  C   UNL A   1      38.473  31.381  36.318  1.00  0.00     0.173 A 
ATOM     66  C   UNL A   1      39.592  33.290  35.382  1.00  0.00     0.173 A 
ATOM     67  F   UNL A   1      38.156  30.077  36.302  1.00  0.00    -0.203 F 
ATOM     68  C   UNL A   1      37.935  32.188  37.317  1.00  0.00     0.198 A 
ATOM     69  C   UNL A   1      39.078  34.088  36.401  1.00  0.00     0.198 A 
ATOM     70  F   UNL A   1      40.383  33.856  34.458  1.00  0.00    -0.203 F 
ATOM     71  F   UNL A   1      37.106  31.660  38.228  1.00  0.00    -0.200 F 
ATOM     72  C   UNL A   1      38.244  33.539  37.362  1.00  0.00     0.200 A 
ATOM     73  F   UNL A   1      39.390  35.391  36.451  1.00  0.00    -0.200 F 
ATOM     74  F   UNL A   1      37.732  34.313  38.329  1.00  0.00    -0.200 F 
ENDBRANCH  50  64
BRANCH  51  75
ATOM     75  C   UNL A   1      43.084  26.551  27.805  1.00  0.00     0.064 A 
ATOM     76  C   UNL A   1      43.784  27.185  26.769  1.00  0.00     0.173 A 
ATOM     77  C   UNL A   1      42.945  25.157  27.739  1.00  0.00     0.173 A 
ATOM     78  F   UNL A   1      43.926  28.519  26.776  1.00  0.00    -0.203 F 
ATOM     79  C   UNL A   1      44.298  26.459  25.696  1.00  0.00     0.198 A 
ATOM     80  C   UNL A   1      43.487  24.428  26.682  1.00  0.00     0.198 A 
ATOM     81  F   UNL A   1      42.290  24.500  28.707  1.00  0.00    -0.203 F 
ATOM     82  F   UNL A   1      44.914  27.098  24.692  1.00  0.00    -0.200 F 
ATOM     83  C   UNL A   1      44.153  25.081  25.656  1.00  0.00     0.200 A 
ATOM     84  F   UNL A   1      43.358  23.095  26.654  1.00  0.00    -0.200 F 
ATOM     85  F   UNL A   1      44.648  24.383  24.625  1.00  0.00    -0.200 F 
ENDBRANCH  51  75
BRANCH  63  86
ATOM     86  C   UNL A   1      45.272  28.008  34.254  1.00  0.00     0.064 A 
ATOM     87  C   UNL A   1      45.306  26.840  35.029  1.00  0.00     0.173 A 
ATOM     88  C   UNL A   1      46.435  28.791  34.196  1.00  0.00     0.173 A 
ATOM     89  F   UNL A   1      44.216  26.064  35.130  1.00  0.00    -0.203 F 
ATOM     90  C   UNL A   1      46.447  26.489  35.746  1.00  0.00     0.198 A 
ATOM     91  C   UNL A   1      47.585  28.419  34.887  1.00  0.00     0.198 A 
ATOM     92  F   UNL A   1      46.459  29.914  33.464  1.00  0.00    -0.203 F 
ATOM     93  F   UNL A   1      46.437  25.400  36.528  1.00  0.00    -0.200 F 
ATOM     94  C   UNL A   1      47.587  27.275  35.669  1.00  0.00     0.200 A 
ATOM     95  F   UNL A   1      48.691  29.172  34.799  1.00  0.00    -0.200 F 
ATOM     96  F   UNL A   1      48.685  26.935  36.358  1.00  0.00    -0.200 F 
ENDBRANCH  63  86
ENDBRANCH  37  38
ENDBRANCH  29  32
ENDBRANCH  27  28
ENDBRANCH  26  27
ENDBRANCH   1  26
TORSDOF 14
ENDMDL
MODEL 2
REMARK VINA RESULT:     -11.9      2.801      3.919
REMARK SMILES CC1(C)[C@@](C)(C(=O)NCCCCNC(=O)c2ccc(-c3c4nc(c(-c5c(F)c(F)c(F)c(F)c5F)c5ccc([nH]5)c(-c5c(F)c(F)c(F)c(F)c5F)c5nc(c(-c6c(F)c(F)c(F)c(F)c6F)c6ccc3[nH]6)C=C5)C=C4)cc2)[C@@]12CC[C@@H]2C(=O)NCc1ccco1
REMARK SMILES IDX 10 1 9 2 8 3 6 4 7 5 4 7 1 8 2 9 3 10 79 11 5 12 80 13 82 14
REMARK SMILES IDX 81 15 83 16 84 17 85 18 86 20 87 21 88 22 91 23 89 24 90 25
REMARK SMILES IDX 11 26 12 27 13 28 14 29 15 31 16 32 17 33 78 34 18 35 77 36
REMARK SMILES IDX 19 37 20 38 21 39 71 40 22 41 76 42 70 43 72 44 23 45 75 46
REMARK SMILES IDX 69 47 68 48 24 50 56 51 36 52 55 53 37 54 40 55 54 56 73 57
REMARK SMILES IDX 38 58 39 59 53 61 74 62 41 63 25 64 26 65 34 66 27 67 28 68
REMARK SMILES IDX 32 69 35 70 29 71 30 72 33 73 31 74 57 75 58 76 66 77 59 78
REMARK SMILES IDX 60 79 64 80 67 81 61 82 62 83 65 84 63 85 42 86 43 87 51 88
REMARK SMILES IDX 44 89 45 90 49 91 52 92 46 93 47 94 50 95 48 96
REMARK H PARENT 8 6 85 19 13 30 72 49 40 60
REMARK Flexibility Score: inf
ROOT
ATOM      1  C   UNL A   1      31.444  27.315  26.756  1.00  0.00     0.023 C 
ENDROOT
BRANCH   1   2
ATOM      2  C   UNL A   1      30.448  26.553  25.873  1.00  0.00     0.116 C 
BRANCH   2   3
ATOM      3  N   UNL A   1      30.386  25.180  26.297  1.00  0.00    -0.356 N 
ATOM      4  C   UNL A   1      31.040  24.064  25.879  1.00  0.00     0.227 C 
ATOM      5  O   UNL A   1      30.539  22.996  26.224  1.00  0.00    -0.274 OA
ATOM      6  H   UNL A   1      29.749  25.017  27.029  1.00  0.00     0.163 HD
BRANCH   4   7
ATOM      7  C   UNL A   1      32.418  24.060  25.269  1.00  0.00     0.059 C 
ATOM      8  C   UNL A   1      32.036  25.455  23.018  1.00  0.00     0.013 C 
ATOM      9  C   UNL A   1      32.908  24.591  23.901  1.00  0.00    -0.013 C 
ATOM     10  C   UNL A   1      34.369  24.958  23.694  1.00  0.00     0.013 C 
ATOM     11  C   UNL A   1      32.544  23.123  24.050  1.00  0.00     0.003 C 
ATOM     12  C   UNL A   1      33.482  23.999  26.367  1.00  0.00     0.023 C 
ATOM     13  C   UNL A   1      31.509  22.547  23.132  1.00  0.00     0.010 C 
ATOM     14  C   UNL A   1      33.417  21.904  23.947  1.00  0.00     0.086 C 
ATOM     15  C   UNL A   1      32.521  21.454  22.792  1.00  0.00     0.015 C 
BRANCH  14  16
ATOM     16  C   UNL A   1      33.664  20.975  25.159  1.00  0.00     0.224 C 
ATOM     17  O   UNL A   1      32.712  20.578  25.856  1.00  0.00    -0.275 OA
ATOM     18  N   UNL A   1      34.900  20.580  25.611  1.00  0.00    -0.349 N 
ATOM     19  H   UNL A   1      34.893  20.183  26.511  1.00  0.00     0.163 HD
BRANCH  18  20
ATOM     20  C   UNL A   1      36.209  20.641  25.000  1.00  0.00     0.191 C 
BRANCH  20  21
ATOM     21  C   UNL A   1      37.014  21.778  25.502  1.00  0.00     0.122 A 
ATOM     22  C   UNL A   1      36.779  23.117  25.740  1.00  0.00     0.047 A 
ATOM     23  O   UNL A   1      38.330  21.496  25.744  1.00  0.00    -0.467 OA
ATOM     24  C   UNL A   1      38.016  23.679  26.138  1.00  0.00     0.042 A 
ATOM     25  C   UNL A   1      38.927  22.651  26.128  1.00  0.00     0.195 A 
ENDBRANCH  20  21
ENDBRANCH  18  20
ENDBRANCH  14  16
ENDBRANCH   4   7
ENDBRANCH   2   3
ENDBRANCH   1   2
BRANCH   1  26
ATOM     26  C   UNL A   1      32.741  27.742  26.052  1.00  0.00     0.023 C 
BRANCH  26  27
ATOM     27  C   UNL A   1      33.848  28.221  26.979  1.00  0.00     0.116 C 
BRANCH  27  28
ATOM     28  N   UNL A   1      33.697  29.622  27.328  1.00  0.00    -0.352 N 
ATOM     29  C   UNL A   1      34.563  30.457  27.994  1.00  0.00     0.251 C 
ATOM     30  H   UNL A   1      32.850  30.036  27.044  1.00  0.00     0.163 HD
ATOM     31  O   UNL A   1      34.188  31.564  28.345  1.00  0.00    -0.269 OA
BRANCH  29  32
ATOM     32  C   UNL A   1      35.940  30.009  28.308  1.00  0.00     0.039 A 
ATOM     33  C   UNL A   1      36.912  30.102  27.308  1.00  0.00     0.014 A 
ATOM     34  C   UNL A   1      36.272  29.477  29.557  1.00  0.00     0.014 A 
ATOM     35  C   UNL A   1      38.225  29.707  27.576  1.00  0.00     0.010 A 
ATOM     36  C   UNL A   1      37.596  29.150  29.845  1.00  0.00     0.010 A 
ATOM     37  C   UNL A   1      38.586  29.256  28.856  1.00  0.00    -0.014 A 
BRANCH  37  38
ATOM     38  C   UNL A   1      39.993  28.897  29.169  1.00  0.00     0.031 A 
ATOM     39  C   UNL A   1      40.870  29.843  29.944  1.00  0.00     0.074 A 
ATOM     40  C   UNL A   1      40.498  27.733  28.715  1.00  0.00     0.049 A 
ATOM     41  N   UNL A   1      42.128  29.713  30.288  1.00  0.00    -0.248 NA
ATOM     42  C   UNL A   1      40.261  31.112  30.369  1.00  0.00     0.031 C 
ATOM     43  C   UNL A   1      39.767  26.753  27.911  1.00  0.00     0.029 A 
ATOM     44  N   UNL A   1      41.747  27.180  28.859  1.00  0.00    -0.354 N 
ATOM     45  C   UNL A   1      42.461  30.883  30.956  1.00  0.00     0.074 A 
ATOM     46  C   UNL A   1      41.291  31.735  30.923  1.00  0.00     0.031 C 
ATOM     47  C   UNL A   1      40.570  25.707  27.657  1.00  0.00     0.029 A 
ATOM     48  C   UNL A   1      41.881  25.957  28.248  1.00  0.00     0.049 A 
ATOM     49  H   UNL A   1      42.476  27.618  29.355  1.00  0.00     0.167 HD
ATOM     50  C   UNL A   1      43.627  31.210  31.562  1.00  0.00     0.037 A 
ATOM     51  C   UNL A   1      42.943  25.134  28.168  1.00  0.00     0.037 A 
ATOM     52  C   UNL A   1      44.784  30.352  31.612  1.00  0.00     0.049 A 
ATOM     53  C   UNL A   1      44.229  25.523  28.846  1.00  0.00     0.074 A 
ATOM     54  C   UNL A   1      45.992  30.569  32.254  1.00  0.00     0.029 A 
ATOM     55  N   UNL A   1      44.879  29.117  30.991  1.00  0.00    -0.354 N 
ATOM     56  N   UNL A   1      44.507  26.598  29.541  1.00  0.00    -0.248 NA
ATOM     57  C   UNL A   1      45.347  24.575  28.736  1.00  0.00     0.031 C 
ATOM     58  C   UNL A   1      46.835  29.487  31.977  1.00  0.00     0.029 A 
ATOM     59  C   UNL A   1      46.133  28.570  31.213  1.00  0.00     0.049 A 
ATOM     60  H   UNL A   1      44.162  28.690  30.468  1.00  0.00     0.167 HD
ATOM     61  C   UNL A   1      45.815  26.443  29.978  1.00  0.00     0.074 A 
ATOM     62  C   UNL A   1      46.271  25.160  29.484  1.00  0.00     0.031 C 
ATOM     63  C   UNL A   1      46.573  27.288  30.722  1.00  0.00     0.037 A 
BRANCH  50  64
ATOM     64  C   UNL A   1      43.715  32.556  32.225  1.00  0.00     0.064 A 
ATOM     65  C   UNL A   1      44.091  33.706  31.512  1.00  0.00     0.173 A 
ATOM     66  C   UNL A   1      43.379  32.707  33.578  1.00  0.00     0.173 A 
ATOM     67  F   UNL A   1      44.431  33.616  30.218  1.00  0.00    -0.203 F 
ATOM     68  C   UNL A   1      44.156  34.948  32.137  1.00  0.00     0.198 A 
ATOM     69  C   UNL A   1      43.414  33.957  34.192  1.00  0.00     0.198 A 
ATOM     70  F   UNL A   1      43.006  31.643  34.306  1.00  0.00    -0.203 F 
ATOM     71  F   UNL A   1      44.567  36.022  31.448  1.00  0.00    -0.200 F 
ATOM     72  C   UNL A   1      43.810  35.075  33.474  1.00  0.00     0.200 A 
ATOM     73  F   UNL A   1      43.064  34.079  35.480  1.00  0.00    -0.200 F 
ATOM     74  F   UNL A   1      43.864  36.273  34.072  1.00  0.00    -0.200 F 
ENDBRANCH  50  64
BRANCH  51  75
ATOM     75  C   UNL A   1      42.830  23.841  27.442  1.00  0.00     0.064 A 
ATOM     76  C   UNL A   1      43.215  23.735  26.098  1.00  0.00     0.173 A 
ATOM     77  C   UNL A   1      42.325  22.692  28.067  1.00  0.00     0.173 A 
ATOM     78  F   UNL A   1      43.686  24.812  25.450  1.00  0.00    -0.203 F 
ATOM     79  C   UNL A   1      43.074  22.538  25.400  1.00  0.00     0.198 A 
ATOM     80  C   UNL A   1      42.214  21.486  27.377  1.00  0.00     0.198 A 
ATOM     81  F   UNL A   1      41.947  22.738  29.353  1.00  0.00    -0.203 F 
ATOM     82  F   UNL A   1      43.399  22.479  24.101  1.00  0.00    -0.200 F 
ATOM     83  C   UNL A   1      42.579  21.413  26.041  1.00  0.00     0.200 A 
ATOM     84  F   UNL A   1      41.748  20.398  28.004  1.00  0.00    -0.200 F 
ATOM     85  F   UNL A   1      42.444  20.261  25.370  1.00  0.00    -0.200 F 
ENDBRANCH  51  75
BRANCH  63  86
ATOM     86  C   UNL A   1      47.957  26.831  31.085  1.00  0.00     0.064 A 
ATOM     87  C   UNL A   1      49.074  27.160  30.301  1.00  0.00     0.173 A 
ATOM     88  C   UNL A   1      48.172  26.071  32.245  1.00  0.00     0.173 A 
ATOM     89  F   UNL A   1      48.922  27.871  29.174  1.00  0.00    -0.203 F 
ATOM     90  C   UNL A   1      50.347  26.716  30.647  1.00  0.00     0.198 A 
ATOM     91  C   UNL A   1      49.451  25.658  32.606  1.00  0.00     0.198 A 
ATOM     92  F   UNL A   1      47.141  25.736  33.034  1.00  0.00    -0.203 F 
ATOM     93  F   UNL A   1      51.390  26.991  29.851  1.00  0.00    -0.200 F 
ATOM     94  C   UNL A   1      50.535  25.971  31.802  1.00  0.00     0.200 A 
ATOM     95  F   UNL A   1      49.633  24.952  33.731  1.00  0.00    -0.200 F 
ATOM     96  F   UNL A   1      51.762  25.546  32.134  1.00  0.00    -0.200 F 
ENDBRANCH  63  86
ENDBRANCH  37  38
ENDBRANCH  29  32
ENDBRANCH  27  28
ENDBRANCH  26  27
ENDBRANCH   1  26
TORSDOF 14
ENDMDL
MODEL 3
REMARK VINA RESULT:     -11.9      1.582      2.503
REMARK SMILES CC1(C)[C@@](C)(C(=O)NCCCCNC(=O)c2ccc(-c3c4nc(c(-c5c(F)c(F)c(F)c(F)c5F)c5ccc([nH]5)c(-c5c(F)c(F)c(F)c(F)c5F)c5nc(c(-c6c(F)c(F)c(F)c(F)c6F)c6ccc3[nH]6)C=C5)C=C4)cc2)[C@@]12CC[C@@H]2C(=O)NCc1ccco1
REMARK SMILES IDX 10 1 9 2 8 3 6 4 7 5 4 7 1 8 2 9 3 10 79 11 5 12 80 13 82 14
REMARK SMILES IDX 81 15 83 16 84 17 85 18 86 20 87 21 88 22 91 23 89 24 90 25
REMARK SMILES IDX 11 26 12 27 13 28 14 29 15 31 16 32 17 33 78 34 18 35 77 36
REMARK SMILES IDX 19 37 20 38 21 39 71 40 22 41 76 42 70 43 72 44 23 45 75 46
REMARK SMILES IDX 69 47 68 48 24 50 56 51 36 52 55 53 37 54 40 55 54 56 73 57
REMARK SMILES IDX 38 58 39 59 53 61 74 62 41 63 25 64 26 65 34 66 27 67 28 68
REMARK SMILES IDX 32 69 35 70 29 71 30 72 33 73 31 74 57 75 58 76 66 77 59 78
REMARK SMILES IDX 60 79 64 80 67 81 61 82 62 83 65 84 63 85 42 86 43 87 51 88
REMARK SMILES IDX 44 89 45 90 49 91 52 92 46 93 47 94 50 95 48 96
REMARK H PARENT 8 6 85 19 13 30 72 49 40 60
REMARK Flexibility Score: inf
ROOT
ATOM      1  C   UNL A   1      31.849  27.759  26.938  1.00  0.00     0.023 C 
ENDROOT
BRANCH   1   2
ATOM      2  C   UNL A   1      31.082  26.705  26.130  1.00  0.00     0.116 C 
BRANCH   2   3
ATOM      3  N   UNL A   1      31.175  25.433  26.794  1.00  0.00    -0.356 N 
ATOM      4  C   UNL A   1      31.747  24.253  26.434  1.00  0.00     0.227 C 
ATOM      5  O   UNL A   1      31.384  23.270  27.077  1.00  0.00    -0.274 OA
ATOM      6  H   UNL A   1      30.743  25.412  27.677  1.00  0.00     0.163 HD
BRANCH   4   7
ATOM      7  C   UNL A   1      32.933  24.126  25.513  1.00  0.00     0.059 C 
ATOM      8  C   UNL A   1      31.988  25.167  23.237  1.00  0.00     0.013 C 
ATOM      9  C   UNL A   1      33.063  24.430  24.001  1.00  0.00    -0.013 C 
ATOM     10  C   UNL A   1      34.423  24.728  23.389  1.00  0.00     0.013 C 
ATOM     11  C   UNL A   1      32.771  23.010  24.459  1.00  0.00     0.003 C 
ATOM     12  C   UNL A   1      34.234  24.210  26.313  1.00  0.00     0.023 C 
ATOM     13  C   UNL A   1      31.551  22.323  23.923  1.00  0.00     0.010 C 
ATOM     14  C   UNL A   1      33.612  21.770  24.335  1.00  0.00     0.086 C 
ATOM     15  C   UNL A   1      32.467  21.169  23.518  1.00  0.00     0.015 C 
BRANCH  14  16
ATOM     16  C   UNL A   1      34.163  21.033  25.578  1.00  0.00     0.224 C 
ATOM     17  O   UNL A   1      33.393  20.635  26.470  1.00  0.00    -0.275 OA
ATOM     18  N   UNL A   1      35.495  20.825  25.844  1.00  0.00    -0.349 N 
ATOM     19  H   UNL A   1      35.684  20.548  26.769  1.00  0.00     0.163 HD
BRANCH  18  20
ATOM     20  C   UNL A   1      36.670  20.939  25.009  1.00  0.00     0.191 C 
BRANCH  20  21
ATOM     21  C   UNL A   1      37.650  21.914  25.542  1.00  0.00     0.122 A 
ATOM     22  C   UNL A   1      38.913  21.833  26.092  1.00  0.00     0.047 A 
ATOM     23  O   UNL A   1      37.220  23.212  25.573  1.00  0.00    -0.467 OA
ATOM     24  C   UNL A   1      39.266  23.148  26.485  1.00  0.00     0.042 A 
ATOM     25  C   UNL A   1      38.203  23.950  26.144  1.00  0.00     0.195 A 
ENDBRANCH  20  21
ENDBRANCH  18  20
ENDBRANCH  14  16
ENDBRANCH   4   7
ENDBRANCH   2   3
ENDBRANCH   1   2
BRANCH   1  26
ATOM     26  C   UNL A   1      33.379  27.665  26.841  1.00  0.00     0.023 C 
BRANCH  26  27
ATOM     27  C   UNL A   1      34.036  28.731  25.978  1.00  0.00     0.116 C 
BRANCH  27  28
ATOM     28  N   UNL A   1      33.760  30.071  26.465  1.00  0.00    -0.352 N 
ATOM     29  C   UNL A   1      34.393  30.793  27.449  1.00  0.00     0.251 C 
ATOM     30  H   UNL A   1      33.010  30.531  26.025  1.00  0.00     0.163 HD
ATOM     31  O   UNL A   1      33.909  31.843  27.838  1.00  0.00    -0.269 OA
BRANCH  29  32
ATOM     32  C   UNL A   1      35.646  30.288  28.057  1.00  0.00     0.039 A 
ATOM     33  C   UNL A   1      36.842  30.461  27.353  1.00  0.00     0.014 A 
ATOM     34  C   UNL A   1      35.652  29.626  29.288  1.00  0.00     0.014 A 
ATOM     35  C   UNL A   1      38.046  30.016  27.905  1.00  0.00     0.010 A 
ATOM     36  C   UNL A   1      36.860  29.244  29.869  1.00  0.00     0.010 A 
ATOM     37  C   UNL A   1      38.069  29.430  29.181  1.00  0.00    -0.014 A 
BRANCH  37  38
ATOM     38  C   UNL A   1      39.352  29.014  29.804  1.00  0.00     0.031 A 
ATOM     39  C   UNL A   1      39.895  29.747  31.000  1.00  0.00     0.074 A 
ATOM     40  C   UNL A   1      40.054  27.998  29.264  1.00  0.00     0.049 A 
ATOM     41  N   UNL A   1      41.009  29.543  31.661  1.00  0.00    -0.248 NA
ATOM     42  C   UNL A   1      39.095  30.871  31.508  1.00  0.00     0.031 C 
ATOM     43  C   UNL A   1      39.660  27.239  28.075  1.00  0.00     0.029 A 
ATOM     44  N   UNL A   1      41.248  27.433  29.638  1.00  0.00    -0.354 N 
ATOM     45  C   UNL A   1      41.046  30.518  32.650  1.00  0.00     0.074 A 
ATOM     46  C   UNL A   1      39.873  31.345  32.471  1.00  0.00     0.031 C 
ATOM     47  C   UNL A   1      40.580  26.291  27.836  1.00  0.00     0.029 A 
ATOM     48  C   UNL A   1      41.645  26.397  28.828  1.00  0.00     0.049 A 
ATOM     49  H   UNL A   1      41.770  27.741  30.415  1.00  0.00     0.167 HD
ATOM     50  C   UNL A   1      41.963  30.693  33.632  1.00  0.00     0.037 A 
ATOM     51  C   UNL A   1      42.745  25.623  28.878  1.00  0.00     0.037 A 
ATOM     52  C   UNL A   1      43.120  29.855  33.822  1.00  0.00     0.049 A 
ATOM     53  C   UNL A   1      43.751  25.843  29.977  1.00  0.00     0.074 A 
ATOM     54  C   UNL A   1      44.074  29.915  34.824  1.00  0.00     0.029 A 
ATOM     55  N   UNL A   1      43.483  28.809  32.988  1.00  0.00    -0.354 N 
ATOM     56  N   UNL A   1      43.735  26.718  30.952  1.00  0.00    -0.248 NA
ATOM     57  C   UNL A   1      44.923  24.956  29.986  1.00  0.00     0.031 C 
ATOM     58  C   UNL A   1      45.042  28.939  34.566  1.00  0.00     0.029 A 
ATOM     59  C   UNL A   1      44.660  28.231  33.438  1.00  0.00     0.049 A 
ATOM     60  H   UNL A   1      42.980  28.519  32.193  1.00  0.00     0.167 HD
ATOM     61  C   UNL A   1      44.872  26.468  31.708  1.00  0.00     0.074 A 
ATOM     62  C   UNL A   1      45.547  25.346  31.088  1.00  0.00     0.031 C 
ATOM     63  C   UNL A   1      45.318  27.110  32.817  1.00  0.00     0.037 A 
BRANCH  50  64
ATOM     64  C   UNL A   1      41.754  31.838  34.583  1.00  0.00     0.064 A 
ATOM     65  C   UNL A   1      42.296  33.109  34.339  1.00  0.00     0.173 A 
ATOM     66  C   UNL A   1      40.966  31.674  35.733  1.00  0.00     0.173 A 
ATOM     67  F   UNL A   1      43.065  33.318  33.259  1.00  0.00    -0.203 F 
ATOM     68  C   UNL A   1      42.085  34.162  35.224  1.00  0.00     0.198 A 
ATOM     69  C   UNL A   1      40.729  32.739  36.599  1.00  0.00     0.198 A 
ATOM     70  F   UNL A   1      40.416  30.482  36.013  1.00  0.00    -0.203 F 
ATOM     71  F   UNL A   1      42.656  35.353  34.994  1.00  0.00    -0.200 F 
ATOM     72  C   UNL A   1      41.294  33.979  36.348  1.00  0.00     0.200 A 
ATOM     73  F   UNL A   1      39.953  32.563  37.677  1.00  0.00    -0.200 F 
ATOM     74  F   UNL A   1      41.083  34.997  37.195  1.00  0.00    -0.200 F 
ENDBRANCH  50  64
BRANCH  51  75
ATOM     75  C   UNL A   1      42.945  24.547  27.873  1.00  0.00     0.064 A 
ATOM     76  C   UNL A   1      43.497  24.829  26.616  1.00  0.00     0.173 A 
ATOM     77  C   UNL A   1      42.577  23.219  28.139  1.00  0.00     0.173 A 
ATOM     78  F   UNL A   1      43.846  26.087  26.305  1.00  0.00    -0.203 F 
ATOM     79  C   UNL A   1      43.649  23.832  25.654  1.00  0.00     0.198 A 
ATOM     80  C   UNL A   1      42.759  22.217  27.188  1.00  0.00     0.198 A 
ATOM     81  F   UNL A   1      42.050  22.894  29.328  1.00  0.00    -0.203 F 
ATOM     82  F   UNL A   1      44.129  24.141  24.442  1.00  0.00    -0.200 F 
ATOM     83  C   UNL A   1      43.284  22.526  25.943  1.00  0.00     0.200 A 
ATOM     84  F   UNL A   1      42.419  20.954  27.476  1.00  0.00    -0.200 F 
ATOM     85  F   UNL A   1      43.431  21.568  25.019  1.00  0.00    -0.200 F 
ENDBRANCH  51  75
BRANCH  63  86
ATOM     86  C   UNL A   1      46.573  26.586  33.456  1.00  0.00     0.064 A 
ATOM     87  C   UNL A   1      47.840  27.086  33.119  1.00  0.00     0.173 A 
ATOM     88  C   UNL A   1      46.503  25.584  34.437  1.00  0.00     0.173 A 
ATOM     89  F   UNL A   1      47.963  28.033  32.178  1.00  0.00    -0.203 F 
ATOM     90  C   UNL A   1      48.991  26.578  33.714  1.00  0.00     0.198 A 
ATOM     91  C   UNL A   1      47.654  25.102  35.053  1.00  0.00     0.198 A 
ATOM     92  F   UNL A   1      45.317  25.076  34.802  1.00  0.00    -0.203 F 
ATOM     93  F   UNL A   1      50.195  27.028  33.333  1.00  0.00    -0.200 F 
ATOM     94  C   UNL A   1      48.897  25.592  34.685  1.00  0.00     0.200 A 
ATOM     95  F   UNL A   1      47.560  24.160  36.003  1.00  0.00    -0.200 F 
ATOM     96  F   UNL A   1      50.007  25.105  35.258  1.00  0.00    -0.200 F 
ENDBRANCH  63  86
ENDBRANCH  37  38
ENDBRANCH  29  32
ENDBRANCH  27  28
ENDBRANCH  26  27
ENDBRANCH   1  26
TORSDOF 14
ENDMDL
