MODEL 1
REMARK VINA RESULT:     -11.2      0.000      0.000
REMARK SMILES COC(=O)/C=C(/CC(C)C)C(=O)NCCCCNC(=O)c1ccc(-c2c3nc(c(-c4c(F)c(F)c(F)c(F)c4F)c4ccc([nH]4)c(-c4c(F)c(F)c(F)c(F)c4F)c4nc(c(-c5c(F)c(F)c(F)c(F)c5F)c5ccc2[nH]5)C=C4)C=C3)cc1
REMARK SMILES IDX 15 1 14 2 13 3 11 4 12 5 6 7 5 8 3 9 4 10 2 11 1 12 7 13
REMARK SMILES IDX 8 14 9 15 10 16 16 17 17 18 18 19 19 20 20 22 21 23 22 24
REMARK SMILES IDX 83 25 23 26 82 27 24 28 25 29 26 30 76 31 27 32 81 33 75 34
REMARK SMILES IDX 77 35 28 36 80 37 74 38 73 39 29 41 61 42 41 43 60 44 42 45
REMARK SMILES IDX 45 46 59 47 78 48 43 49 44 50 58 52 79 53 46 54 30 55 31 56
REMARK SMILES IDX 39 57 32 58 33 59 37 60 40 61 34 62 35 63 38 64 36 65 62 66
REMARK SMILES IDX 63 67 71 68 64 69 65 70 69 71 72 72 66 73 67 74 70 75 68 76
REMARK SMILES IDX 47 77 48 78 56 79 49 80 50 81 54 82 57 83 51 84 52 85 55 86
REMARK SMILES IDX 53 87
REMARK H PARENT 13 6 18 21 77 40 45 51
REMARK Flexibility Score: inf
ROOT
ATOM      1  C   UNL A   1      31.829  30.377  26.778  1.00  0.00     0.023 C 
ENDROOT
BRANCH   1   2
ATOM      2  C   UNL A   1      33.049  29.771  26.083  1.00  0.00     0.116 C 
BRANCH   2   3
ATOM      3  N   UNL A   1      32.882  29.817  24.644  1.00  0.00    -0.352 N 
ATOM      4  C   UNL A   1      32.345  28.925  23.769  1.00  0.00     0.247 C 
ATOM      5  O   UNL A   1      32.984  28.748  22.730  1.00  0.00    -0.270 OA
ATOM      6  H   UNL A   1      33.216  30.643  24.225  1.00  0.00     0.163 HD
BRANCH   4   7
ATOM      7  C   UNL A   1      31.056  28.200  24.007  1.00  0.00     0.024 C 
ATOM      8  C   UNL A   1      29.917  28.692  23.467  1.00  0.00     0.102 C 
BRANCH   8   9
ATOM      9  C   UNL A   1      29.655  29.887  22.639  1.00  0.00     0.330 C 
ATOM     10  O   UNL A   1      29.731  29.829  21.418  1.00  0.00    -0.247 OA
BRANCH   9  11
ATOM     11  O   UNL A   1      29.216  30.941  23.358  1.00  0.00    -0.466 OA
ATOM     12  C   UNL A   1      27.818  31.203  23.218  1.00  0.00     0.282 C 
ENDBRANCH   9  11
ENDBRANCH   8   9
BRANCH   7  13
ATOM     13  C   UNL A   1      30.934  26.926  24.806  1.00  0.00     0.044 C 
BRANCH  13  14
ATOM     14  C   UNL A   1      32.189  26.020  24.870  1.00  0.00    -0.013 C 
ATOM     15  C   UNL A   1      32.390  25.207  26.147  1.00  0.00     0.008 C 
ATOM     16  C   UNL A   1      32.187  25.060  23.674  1.00  0.00     0.008 C 
ENDBRANCH  13  14
ENDBRANCH   7  13
ENDBRANCH   4   7
ENDBRANCH   2   3
ENDBRANCH   1   2
BRANCH   1  17
ATOM     17  C   UNL A   1      31.692  31.884  26.645  1.00  0.00     0.023 C 
BRANCH  17  18
ATOM     18  C   UNL A   1      32.799  32.682  27.309  1.00  0.00     0.116 C 
BRANCH  18  19
ATOM     19  N   UNL A   1      32.423  34.043  27.674  1.00  0.00    -0.352 N 
ATOM     20  C   UNL A   1      33.006  34.878  28.599  1.00  0.00     0.251 C 
ATOM     21  H   UNL A   1      31.647  34.413  27.194  1.00  0.00     0.163 HD
ATOM     22  O   UNL A   1      32.521  35.978  28.845  1.00  0.00    -0.269 OA
BRANCH  20  23
ATOM     23  C   UNL A   1      34.198  34.406  29.328  1.00  0.00     0.039 A 
ATOM     24  C   UNL A   1      34.031  33.751  30.549  1.00  0.00     0.014 A 
ATOM     25  C   UNL A   1      35.464  34.524  28.753  1.00  0.00     0.014 A 
ATOM     26  C   UNL A   1      35.130  33.139  31.150  1.00  0.00     0.010 A 
ATOM     27  C   UNL A   1      36.524  33.807  29.284  1.00  0.00     0.010 A 
ATOM     28  C   UNL A   1      36.376  33.121  30.497  1.00  0.00    -0.014 A 
BRANCH  28  29
ATOM     29  C   UNL A   1      37.541  32.412  31.079  1.00  0.00     0.031 A 
ATOM     30  C   UNL A   1      38.017  32.766  32.462  1.00  0.00     0.074 A 
ATOM     31  C   UNL A   1      38.203  31.497  30.344  1.00  0.00     0.049 A 
ATOM     32  N   UNL A   1      39.032  32.288  33.137  1.00  0.00    -0.248 NA
ATOM     33  C   UNL A   1      37.285  33.833  33.165  1.00  0.00     0.031 C 
ATOM     34  C   UNL A   1      37.893  31.133  28.960  1.00  0.00     0.029 A 
ATOM     35  N   UNL A   1      39.276  30.703  30.660  1.00  0.00    -0.354 N 
ATOM     36  C   UNL A   1      39.067  33.011  34.323  1.00  0.00     0.074 A 
ATOM     37  C   UNL A   1      38.029  34.012  34.244  1.00  0.00     0.031 C 
ATOM     38  C   UNL A   1      38.722  30.155  28.564  1.00  0.00     0.029 A 
ATOM     39  C   UNL A   1      39.640  29.841  29.654  1.00  0.00     0.049 A 
ATOM     40  H   UNL A   1      39.741  30.747  31.527  1.00  0.00     0.167 HD
ATOM     41  C   UNL A   1      39.864  32.827  35.401  1.00  0.00     0.037 A 
ATOM     42  C   UNL A   1      40.597  28.896  29.625  1.00  0.00     0.037 A 
ATOM     43  C   UNL A   1      40.860  31.795  35.493  1.00  0.00     0.049 A 
ATOM     44  C   UNL A   1      41.435  28.675  30.856  1.00  0.00     0.074 A 
ATOM     45  C   UNL A   1      41.675  31.473  36.562  1.00  0.00     0.029 A 
ATOM     46  N   UNL A   1      41.167  30.908  34.471  1.00  0.00    -0.354 N 
ATOM     47  N   UNL A   1      41.402  29.306  32.006  1.00  0.00    -0.248 NA
ATOM     48  C   UNL A   1      42.434  27.600  30.791  1.00  0.00     0.031 C 
ATOM     49  C   UNL A   1      42.501  30.412  36.175  1.00  0.00     0.029 A 
ATOM     50  C   UNL A   1      42.168  30.044  34.880  1.00  0.00     0.049 A 
ATOM     51  H   UNL A   1      40.738  30.896  33.585  1.00  0.00     0.167 HD
ATOM     52  C   UNL A   1      42.352  28.688  32.807  1.00  0.00     0.074 A 
ATOM     53  C   UNL A   1      42.929  27.619  32.019  1.00  0.00     0.031 C 
ATOM     54  C   UNL A   1      42.718  28.981  34.080  1.00  0.00     0.037 A 
BRANCH  41  55
ATOM     55  C   UNL A   1      39.668  33.748  36.570  1.00  0.00     0.064 A 
ATOM     56  C   UNL A   1      38.860  33.388  37.662  1.00  0.00     0.173 A 
ATOM     57  C   UNL A   1      40.301  34.999  36.609  1.00  0.00     0.173 A 
ATOM     58  F   UNL A   1      38.217  32.210  37.666  1.00  0.00    -0.203 F 
ATOM     59  C   UNL A   1      38.666  34.260  38.729  1.00  0.00     0.198 A 
ATOM     60  C   UNL A   1      40.131  35.854  37.696  1.00  0.00     0.198 A 
ATOM     61  F   UNL A   1      41.085  35.393  35.595  1.00  0.00    -0.203 F 
ATOM     62  F   UNL A   1      37.842  33.917  39.729  1.00  0.00    -0.200 F 
ATOM     63  C   UNL A   1      39.307  35.488  38.749  1.00  0.00     0.200 A 
ATOM     64  F   UNL A   1      40.760  37.037  37.719  1.00  0.00    -0.200 F 
ATOM     65  F   UNL A   1      39.122  36.325  39.779  1.00  0.00    -0.200 F 
ENDBRANCH  41  55
BRANCH  42  66
ATOM     66  C   UNL A   1      40.773  28.046  28.419  1.00  0.00     0.064 A 
ATOM     67  C   UNL A   1      41.586  28.468  27.356  1.00  0.00     0.173 A 
ATOM     68  C   UNL A   1      40.133  26.805  28.295  1.00  0.00     0.173 A 
ATOM     69  F   UNL A   1      42.206  29.655  27.419  1.00  0.00    -0.203 F 
ATOM     70  C   UNL A   1      41.729  27.694  26.206  1.00  0.00     0.198 A 
ATOM     71  C   UNL A   1      40.300  26.019  27.156  1.00  0.00     0.198 A 
ATOM     72  F   UNL A   1      39.352  26.351  29.286  1.00  0.00    -0.203 F 
ATOM     73  F   UNL A   1      42.472  28.146  25.186  1.00  0.00    -0.200 F 
ATOM     74  C   UNL A   1      41.089  26.469  26.109  1.00  0.00     0.200 A 
ATOM     75  F   UNL A   1      39.692  24.827  27.072  1.00  0.00    -0.200 F 
ATOM     76  F   UNL A   1      41.228  25.723  25.003  1.00  0.00    -0.200 F 
ENDBRANCH  42  66
BRANCH  54  77
ATOM     77  C   UNL A   1      43.767  28.110  34.705  1.00  0.00     0.064 A 
ATOM     78  C   UNL A   1      45.111  28.504  34.765  1.00  0.00     0.173 A 
ATOM     79  C   UNL A   1      43.415  26.877  35.276  1.00  0.00     0.173 A 
ATOM     80  F   UNL A   1      45.498  29.668  34.221  1.00  0.00    -0.203 F 
ATOM     81  C   UNL A   1      46.072  27.682  35.346  1.00  0.00     0.198 A 
ATOM     82  C   UNL A   1      44.374  26.072  35.884  1.00  0.00     0.198 A 
ATOM     83  F   UNL A   1      42.141  26.459  35.253  1.00  0.00    -0.203 F 
ATOM     84  F   UNL A   1      47.359  28.054  35.344  1.00  0.00    -0.200 F 
ATOM     85  C   UNL A   1      45.701  26.470  35.910  1.00  0.00     0.200 A 
ATOM     86  F   UNL A   1      44.012  24.908  36.442  1.00  0.00    -0.200 F 
ATOM     87  F   UNL A   1      46.627  25.681  36.472  1.00  0.00    -0.200 F 
ENDBRANCH  54  77
ENDBRANCH  28  29
ENDBRANCH  20  23
ENDBRANCH  18  19
ENDBRANCH  17  18
ENDBRANCH   1  17
TORSDOF 15
ENDMDL
MODEL 2
REMARK VINA RESULT:     -11.2      0.830      7.626
REMARK SMILES COC(=O)/C=C(/CC(C)C)C(=O)NCCCCNC(=O)c1ccc(-c2c3nc(c(-c4c(F)c(F)c(F)c(F)c4F)c4ccc([nH]4)c(-c4c(F)c(F)c(F)c(F)c4F)c4nc(c(-c5c(F)c(F)c(F)c(F)c5F)c5ccc2[nH]5)C=C4)C=C3)cc1
REMARK SMILES IDX 15 1 14 2 13 3 11 4 12 5 6 7 5 8 3 9 4 10 2 11 1 12 7 13
REMARK SMILES IDX 8 14 9 15 10 16 16 17 17 18 18 19 19 20 20 22 21 23 22 24
REMARK SMILES IDX 83 25 23 26 82 27 24 28 25 29 26 30 76 31 27 32 81 33 75 34
REMARK SMILES IDX 77 35 28 36 80 37 74 38 73 39 29 41 61 42 41 43 60 44 42 45
REMARK SMILES IDX 45 46 59 47 78 48 43 49 44 50 58 52 79 53 46 54 30 55 31 56
REMARK SMILES IDX 39 57 32 58 33 59 37 60 40 61 34 62 35 63 38 64 36 65 62 66
REMARK SMILES IDX 63 67 71 68 64 69 65 70 69 71 72 72 66 73 67 74 70 75 68 76
REMARK SMILES IDX 47 77 48 78 56 79 49 80 50 81 54 82 57 83 51 84 52 85 55 86
REMARK SMILES IDX 53 87
REMARK H PARENT 13 6 18 21 77 40 45 51
REMARK Flexibility Score: inf
ROOT
ATOM      1  C   UNL A   1      31.948  30.352  26.845  1.00  0.00     0.023 C 
ENDROOT
BRANCH   1   2
ATOM      2  C   UNL A   1      33.166  29.754  26.140  1.00  0.00     0.116 C 
BRANCH   2   3
ATOM      3  N   UNL A   1      33.028  29.881  24.703  1.00  0.00    -0.352 N 
ATOM      4  C   UNL A   1      32.713  28.971  23.743  1.00  0.00     0.247 C 
ATOM      5  O   UNL A   1      33.399  29.016  22.720  1.00  0.00    -0.270 OA
ATOM      6  H   UNL A   1      33.189  30.790  24.360  1.00  0.00     0.163 HD
BRANCH   4   7
ATOM      7  C   UNL A   1      31.601  27.976  23.874  1.00  0.00     0.024 C 
ATOM      8  C   UNL A   1      30.380  28.288  23.384  1.00  0.00     0.102 C 
BRANCH   8   9
ATOM      9  C   UNL A   1      29.869  29.498  22.707  1.00  0.00     0.330 C 
ATOM     10  O   UNL A   1      30.107  29.697  21.523  1.00  0.00    -0.247 OA
BRANCH   9  11
ATOM     11  O   UNL A   1      29.046  30.230  23.485  1.00  0.00    -0.466 OA
ATOM     12  C   UNL A   1      27.665  30.138  23.127  1.00  0.00     0.282 C 
ENDBRANCH   9  11
ENDBRANCH   8   9
BRANCH   7  13
ATOM     13  C   UNL A   1      31.752  26.614  24.508  1.00  0.00     0.044 C 
BRANCH  13  14
ATOM     14  C   UNL A   1      33.196  26.129  24.786  1.00  0.00    -0.013 C 
ATOM     15  C   UNL A   1      33.401  25.231  26.003  1.00  0.00     0.008 C 
ATOM     16  C   UNL A   1      33.740  25.408  23.547  1.00  0.00     0.008 C 
ENDBRANCH  13  14
ENDBRANCH   7  13
ENDBRANCH   4   7
ENDBRANCH   2   3
ENDBRANCH   1   2
BRANCH   1  17
ATOM     17  C   UNL A   1      31.789  31.856  26.696  1.00  0.00     0.023 C 
BRANCH  17  18
ATOM     18  C   UNL A   1      32.843  32.679  27.413  1.00  0.00     0.116 C 
BRANCH  18  19
ATOM     19  N   UNL A   1      32.455  34.060  27.671  1.00  0.00    -0.352 N 
ATOM     20  C   UNL A   1      32.982  34.947  28.581  1.00  0.00     0.251 C 
ATOM     21  H   UNL A   1      31.715  34.404  27.119  1.00  0.00     0.163 HD
ATOM     22  O   UNL A   1      32.490  36.062  28.728  1.00  0.00    -0.269 OA
BRANCH  20  23
ATOM     23  C   UNL A   1      34.120  34.515  29.414  1.00  0.00     0.039 A 
ATOM     24  C   UNL A   1      33.869  33.967  30.673  1.00  0.00     0.014 A 
ATOM     25  C   UNL A   1      35.418  34.562  28.905  1.00  0.00     0.014 A 
ATOM     26  C   UNL A   1      34.919  33.387  31.384  1.00  0.00     0.010 A 
ATOM     27  C   UNL A   1      36.430  33.872  29.553  1.00  0.00     0.010 A 
ATOM     28  C   UNL A   1      36.198  33.292  30.808  1.00  0.00    -0.014 A 
BRANCH  28  29
ATOM     29  C   UNL A   1      37.311  32.612  31.513  1.00  0.00     0.031 A 
ATOM     30  C   UNL A   1      38.032  31.472  30.847  1.00  0.00     0.074 A 
ATOM     31  C   UNL A   1      37.632  32.980  32.770  1.00  0.00     0.049 A 
ATOM     32  N   UNL A   1      39.008  30.728  31.304  1.00  0.00    -0.248 NA
ATOM     33  C   UNL A   1      37.565  31.083  29.506  1.00  0.00     0.031 C 
ATOM     34  C   UNL A   1      36.947  34.009  33.554  1.00  0.00     0.029 A 
ATOM     35  N   UNL A   1      38.620  32.529  33.608  1.00  0.00    -0.354 N 
ATOM     36  C   UNL A   1      39.249  29.779  30.318  1.00  0.00     0.074 A 
ATOM     37  C   UNL A   1      38.268  29.985  29.278  1.00  0.00     0.031 C 
ATOM     38  C   UNL A   1      37.565  34.146  34.738  1.00  0.00     0.029 A 
ATOM     39  C   UNL A   1      38.670  33.197  34.808  1.00  0.00     0.049 A 
ATOM     40  H   UNL A   1      39.233  31.797  33.372  1.00  0.00     0.167 HD
ATOM     41  C   UNL A   1      40.229  28.847  30.264  1.00  0.00     0.037 A 
ATOM     42  C   UNL A   1      39.525  33.063  35.839  1.00  0.00     0.037 A 
ATOM     43  C   UNL A   1      41.232  28.682  31.279  1.00  0.00     0.049 A 
ATOM     44  C   UNL A   1      40.639  32.056  35.732  1.00  0.00     0.074 A 
ATOM     45  C   UNL A   1      42.312  27.819  31.295  1.00  0.00     0.029 A 
ATOM     46  N   UNL A   1      41.281  29.410  32.460  1.00  0.00    -0.354 N 
ATOM     47  N   UNL A   1      40.911  31.222  34.757  1.00  0.00    -0.248 NA
ATOM     48  C   UNL A   1      41.573  31.982  36.863  1.00  0.00     0.031 C 
ATOM     49  C   UNL A   1      42.996  28.000  32.502  1.00  0.00     0.029 A 
ATOM     50  C   UNL A   1      42.368  29.008  33.217  1.00  0.00     0.049 A 
ATOM     51  H   UNL A   1      40.638  30.108  32.721  1.00  0.00     0.167 HD
ATOM     52  C   UNL A   1      42.061  30.546  35.143  1.00  0.00     0.074 A 
ATOM     53  C   UNL A   1      42.445  31.084  36.431  1.00  0.00     0.031 C 
ATOM     54  C   UNL A   1      42.735  29.566  34.492  1.00  0.00     0.037 A 
BRANCH  41  55
ATOM     55  C   UNL A   1      40.270  27.957  29.056  1.00  0.00     0.064 A 
ATOM     56  C   UNL A   1      41.008  28.305  27.912  1.00  0.00     0.173 A 
ATOM     57  C   UNL A   1      39.576  26.738  29.041  1.00  0.00     0.173 A 
ATOM     58  F   UNL A   1      41.674  29.469  27.867  1.00  0.00    -0.203 F 
ATOM     59  C   UNL A   1      41.018  27.484  26.788  1.00  0.00     0.198 A 
ATOM     60  C   UNL A   1      39.619  25.903  27.927  1.00  0.00     0.198 A 
ATOM     61  F   UNL A   1      38.858  26.355  30.108  1.00  0.00    -0.203 F 
ATOM     62  F   UNL A   1      41.680  27.868  25.688  1.00  0.00    -0.200 F 
ATOM     63  C   UNL A   1      40.331  26.281  26.799  1.00  0.00     0.200 A 
ATOM     64  F   UNL A   1      38.962  24.735  27.943  1.00  0.00    -0.200 F 
ATOM     65  F   UNL A   1      40.346  25.490  25.718  1.00  0.00    -0.200 F 
ENDBRANCH  41  55
BRANCH  42  66
ATOM     66  C   UNL A   1      39.404  33.944  37.030  1.00  0.00     0.064 A 
ATOM     67  C   UNL A   1      39.987  35.219  37.042  1.00  0.00     0.173 A 
ATOM     68  C   UNL A   1      38.714  33.533  38.180  1.00  0.00     0.173 A 
ATOM     69  F   UNL A   1      40.672  35.651  35.973  1.00  0.00    -0.203 F 
ATOM     70  C   UNL A   1      39.909  36.038  38.166  1.00  0.00     0.198 A 
ATOM     71  C   UNL A   1      38.611  34.365  39.293  1.00  0.00     0.198 A 
ATOM     72  F   UNL A   1      38.131  32.326  38.217  1.00  0.00    -0.203 F 
ATOM     73  F   UNL A   1      40.518  37.232  38.167  1.00  0.00    -0.200 F 
ATOM     74  C   UNL A   1      39.217  35.612  39.290  1.00  0.00     0.200 A 
ATOM     75  F   UNL A   1      37.929  33.956  40.372  1.00  0.00    -0.200 F 
ATOM     76  F   UNL A   1      39.140  36.400  40.371  1.00  0.00    -0.200 F 
ENDBRANCH  42  66
BRANCH  54  77
ATOM     77  C   UNL A   1      43.976  29.040  35.152  1.00  0.00     0.064 A 
ATOM     78  C   UNL A   1      45.236  29.603  34.904  1.00  0.00     0.173 A 
ATOM     79  C   UNL A   1      43.896  27.979  36.067  1.00  0.00     0.173 A 
ATOM     80  F   UNL A   1      45.365  30.611  34.028  1.00  0.00    -0.203 F 
ATOM     81  C   UNL A   1      46.377  29.101  35.523  1.00  0.00     0.198 A 
ATOM     82  C   UNL A   1      45.035  27.500  36.707  1.00  0.00     0.198 A 
ATOM     83  F   UNL A   1      42.713  27.413  36.345  1.00  0.00    -0.203 F 
ATOM     84  F   UNL A   1      47.578  29.618  35.230  1.00  0.00    -0.200 F 
ATOM     85  C   UNL A   1      46.275  28.055  36.427  1.00  0.00     0.200 A 
ATOM     86  F   UNL A   1      44.933  26.499  37.593  1.00  0.00    -0.200 F 
ATOM     87  F   UNL A   1      47.374  27.574  37.025  1.00  0.00    -0.200 F 
ENDBRANCH  54  77
ENDBRANCH  28  29
ENDBRANCH  20  23
ENDBRANCH  18  19
ENDBRANCH  17  18
ENDBRANCH   1  17
TORSDOF 15
ENDMDL
MODEL 3
REMARK VINA RESULT:     -11.1      0.516      2.123
REMARK SMILES COC(=O)/C=C(/CC(C)C)C(=O)NCCCCNC(=O)c1ccc(-c2c3nc(c(-c4c(F)c(F)c(F)c(F)c4F)c4ccc([nH]4)c(-c4c(F)c(F)c(F)c(F)c4F)c4nc(c(-c5c(F)c(F)c(F)c(F)c5F)c5ccc2[nH]5)C=C4)C=C3)cc1
REMARK SMILES IDX 15 1 14 2 13 3 11 4 12 5 6 7 5 8 3 9 4 10 2 11 1 12 7 13
REMARK SMILES IDX 8 14 9 15 10 16 16 17 17 18 18 19 19 20 20 22 21 23 22 24
REMARK SMILES IDX 83 25 23 26 82 27 24 28 25 29 26 30 76 31 27 32 81 33 75 34
REMARK SMILES IDX 77 35 28 36 80 37 74 38 73 39 29 41 61 42 41 43 60 44 42 45
REMARK SMILES IDX 45 46 59 47 78 48 43 49 44 50 58 52 79 53 46 54 30 55 31 56
REMARK SMILES IDX 39 57 32 58 33 59 37 60 40 61 34 62 35 63 38 64 36 65 62 66
REMARK SMILES IDX 63 67 71 68 64 69 65 70 69 71 72 72 66 73 67 74 70 75 68 76
REMARK SMILES IDX 47 77 48 78 56 79 49 80 50 81 54 82 57 83 51 84 52 85 55 86
REMARK SMILES IDX 53 87
REMARK H PARENT 13 6 18 21 77 40 45 51
REMARK Flexibility Score: inf
ROOT
ATOM      1  C   UNL A   1      31.792  30.199  26.708  1.00  0.00     0.023 C 
ENDROOT
BRANCH   1   2
ATOM      2  C   UNL A   1      32.978  29.465  26.081  1.00  0.00     0.116 C 
BRANCH   2   3
ATOM      3  N   UNL A   1      33.019  29.706  24.652  1.00  0.00    -0.352 N 
ATOM      4  C   UNL A   1      32.973  28.855  23.593  1.00  0.00     0.247 C 
ATOM      5  O   UNL A   1      33.778  29.086  22.688  1.00  0.00    -0.270 OA
ATOM      6  H   UNL A   1      33.092  30.656  24.404  1.00  0.00     0.163 HD
BRANCH   4   7
ATOM      7  C   UNL A   1      32.010  27.712  23.486  1.00  0.00     0.024 C 
ATOM      8  C   UNL A   1      30.714  27.972  23.199  1.00  0.00     0.102 C 
BRANCH   8   9
ATOM      9  C   UNL A   1      29.990  29.238  22.962  1.00  0.00     0.330 C 
ATOM     10  O   UNL A   1      29.881  30.070  23.854  1.00  0.00    -0.247 OA
BRANCH   9  11
ATOM     11  O   UNL A   1      29.612  29.396  21.677  1.00  0.00    -0.466 OA
ATOM     12  C   UNL A   1      28.771  30.531  21.451  1.00  0.00     0.282 C 
ENDBRANCH   9  11
ENDBRANCH   8   9
BRANCH   7  13
ATOM     13  C   UNL A   1      32.392  26.263  23.659  1.00  0.00     0.044 C 
BRANCH  13  14
ATOM     14  C   UNL A   1      33.526  25.955  24.667  1.00  0.00    -0.013 C 
ATOM     15  C   UNL A   1      33.167  26.009  26.150  1.00  0.00     0.008 C 
ATOM     16  C   UNL A   1      34.124  24.577  24.358  1.00  0.00     0.008 C 
ENDBRANCH  13  14
ENDBRANCH   7  13
ENDBRANCH   4   7
ENDBRANCH   2   3
ENDBRANCH   1   2
BRANCH   1  17
ATOM     17  C   UNL A   1      31.777  31.703  26.497  1.00  0.00     0.023 C 
BRANCH  17  18
ATOM     18  C   UNL A   1      32.853  32.460  27.254  1.00  0.00     0.116 C 
BRANCH  18  19
ATOM     19  N   UNL A   1      32.495  33.831  27.597  1.00  0.00    -0.352 N 
ATOM     20  C   UNL A   1      33.072  34.663  28.529  1.00  0.00     0.251 C 
ATOM     21  H   UNL A   1      31.739  34.211  27.095  1.00  0.00     0.163 HD
ATOM     22  O   UNL A   1      32.603  35.775  28.753  1.00  0.00    -0.269 OA
BRANCH  20  23
ATOM     23  C   UNL A   1      34.236  34.175  29.291  1.00  0.00     0.039 A 
ATOM     24  C   UNL A   1      34.027  33.328  30.381  1.00  0.00     0.014 A 
ATOM     25  C   UNL A   1      35.530  34.475  28.863  1.00  0.00     0.014 A 
ATOM     26  C   UNL A   1      35.123  32.715  30.987  1.00  0.00     0.010 A 
ATOM     27  C   UNL A   1      36.602  33.767  29.382  1.00  0.00     0.010 A 
ATOM     28  C   UNL A   1      36.415  32.892  30.461  1.00  0.00    -0.014 A 
BRANCH  28  29
ATOM     29  C   UNL A   1      37.585  32.191  31.041  1.00  0.00     0.031 A 
ATOM     30  C   UNL A   1      38.052  32.538  32.429  1.00  0.00     0.074 A 
ATOM     31  C   UNL A   1      38.261  31.290  30.300  1.00  0.00     0.049 A 
ATOM     32  N   UNL A   1      39.070  32.066  33.103  1.00  0.00    -0.248 NA
ATOM     33  C   UNL A   1      37.305  33.590  33.139  1.00  0.00     0.031 C 
ATOM     34  C   UNL A   1      37.960  30.936  28.911  1.00  0.00     0.029 A 
ATOM     35  N   UNL A   1      39.342  30.506  30.613  1.00  0.00    -0.354 N 
ATOM     36  C   UNL A   1      39.092  32.777  34.296  1.00  0.00     0.074 A 
ATOM     37  C   UNL A   1      38.043  33.767  34.222  1.00  0.00     0.031 C 
ATOM     38  C   UNL A   1      38.802  29.971  28.510  1.00  0.00     0.029 A 
ATOM     39  C   UNL A   1      39.719  29.658  29.601  1.00  0.00     0.049 A 
ATOM     40  H   UNL A   1      39.803  30.547  31.482  1.00  0.00     0.167 HD
ATOM     41  C   UNL A   1      39.888  32.593  35.376  1.00  0.00     0.037 A 
ATOM     42  C   UNL A   1      40.688  28.724  29.567  1.00  0.00     0.037 A 
ATOM     43  C   UNL A   1      40.895  31.572  35.462  1.00  0.00     0.049 A 
ATOM     44  C   UNL A   1      41.523  28.502  30.799  1.00  0.00     0.074 A 
ATOM     45  C   UNL A   1      41.709  31.249  36.532  1.00  0.00     0.029 A 
ATOM     46  N   UNL A   1      41.216  30.698  34.433  1.00  0.00    -0.354 N 
ATOM     47  N   UNL A   1      41.479  29.121  31.954  1.00  0.00    -0.248 NA
ATOM     48  C   UNL A   1      42.535  27.438  30.728  1.00  0.00     0.031 C 
ATOM     49  C   UNL A   1      42.549  30.201  36.138  1.00  0.00     0.029 A 
ATOM     50  C   UNL A   1      42.225  29.842  34.839  1.00  0.00     0.049 A 
ATOM     51  H   UNL A   1      40.790  30.689  33.545  1.00  0.00     0.167 HD
ATOM     52  C   UNL A   1      42.433  28.507  32.754  1.00  0.00     0.074 A 
ATOM     53  C   UNL A   1      43.024  27.452  31.958  1.00  0.00     0.031 C 
ATOM     54  C   UNL A   1      42.790  28.793  34.031  1.00  0.00     0.037 A 
BRANCH  41  55
ATOM     55  C   UNL A   1      39.676  33.501  36.553  1.00  0.00     0.064 A 
ATOM     56  C   UNL A   1      40.381  34.708  36.686  1.00  0.00     0.173 A 
ATOM     57  C   UNL A   1      38.751  33.169  37.553  1.00  0.00     0.173 A 
ATOM     58  F   UNL A   1      41.291  35.063  35.766  1.00  0.00    -0.203 F 
ATOM     59  C   UNL A   1      40.195  35.530  37.795  1.00  0.00     0.198 A 
ATOM     60  C   UNL A   1      38.542  34.011  38.643  1.00  0.00     0.198 A 
ATOM     61  F   UNL A   1      38.048  32.029  37.475  1.00  0.00    -0.203 F 
ATOM     62  F   UNL A   1      40.925  36.645  37.929  1.00  0.00    -0.200 F 
ATOM     63  C   UNL A   1      39.270  35.184  38.768  1.00  0.00     0.200 A 
ATOM     64  F   UNL A   1      37.640  33.682  39.578  1.00  0.00    -0.200 F 
ATOM     65  F   UNL A   1      39.089  35.979  39.832  1.00  0.00    -0.200 F 
ENDBRANCH  41  55
BRANCH  42  66
ATOM     66  C   UNL A   1      40.878  27.887  28.354  1.00  0.00     0.064 A 
ATOM     67  C   UNL A   1      40.250  26.638  28.237  1.00  0.00     0.173 A 
ATOM     68  C   UNL A   1      41.692  28.307  27.292  1.00  0.00     0.173 A 
ATOM     69  F   UNL A   1      39.475  26.184  29.233  1.00  0.00    -0.203 F 
ATOM     70  C   UNL A   1      40.450  25.831  27.119  1.00  0.00     0.198 A 
ATOM     71  C   UNL A   1      41.869  27.512  26.161  1.00  0.00     0.198 A 
ATOM     72  F   UNL A   1      42.309  29.497  27.350  1.00  0.00    -0.203 F 
ATOM     73  F   UNL A   1      39.877  24.622  27.057  1.00  0.00    -0.200 F 
ATOM     74  C   UNL A   1      41.256  26.271  26.080  1.00  0.00     0.200 A 
ATOM     75  F   UNL A   1      42.636  27.946  25.152  1.00  0.00    -0.200 F 
ATOM     76  F   UNL A   1      41.448  25.495  25.004  1.00  0.00    -0.200 F 
ENDBRANCH  42  66
BRANCH  54  77
ATOM     77  C   UNL A   1      43.847  27.927  34.651  1.00  0.00     0.064 A 
ATOM     78  C   UNL A   1      43.533  26.701  35.254  1.00  0.00     0.173 A 
ATOM     79  C   UNL A   1      45.194  28.319  34.616  1.00  0.00     0.173 A 
ATOM     80  F   UNL A   1      42.257  26.290  35.324  1.00  0.00    -0.203 F 
ATOM     81  C   UNL A   1      44.526  25.912  35.828  1.00  0.00     0.198 A 
ATOM     82  C   UNL A   1      46.187  27.512  35.163  1.00  0.00     0.198 A 
ATOM     83  F   UNL A   1      45.546  29.478  34.042  1.00  0.00    -0.203 F 
ATOM     84  F   UNL A   1      44.196  24.769  36.446  1.00  0.00    -0.200 F 
ATOM     85  C   UNL A   1      45.851  26.315  35.776  1.00  0.00     0.200 A 
ATOM     86  F   UNL A   1      47.470  27.896  35.098  1.00  0.00    -0.200 F 
ATOM     87  F   UNL A   1      46.806  25.552  36.326  1.00  0.00    -0.200 F 
ENDBRANCH  54  77
ENDBRANCH  28  29
ENDBRANCH  20  23
ENDBRANCH  18  19
ENDBRANCH  17  18
ENDBRANCH   1  17
TORSDOF 15
ENDMDL
