MODEL 1
REMARK VINA RESULT:     -13.0      0.000      0.000
REMARK SMILES Cc1cccc(Nc2nc(C)c(CCO)c(OCC(=O)NCCCCNC(=O)c3ccc(-c4c5nc(c(-c6c(F)c(F)c(F)c(F)c6F)c6ccc([nH]6)c(-c6c(F)c(F)c(F)c(F)c6F)c6nc(c(-c7c(F)c(F)c(F)c(F)c7F)c7ccc4[nH]7)C=C6)C=C5)cc3)n2)c1
REMARK SMILES IDX 22 1 21 2 19 3 20 4 18 6 17 7 16 8 8 9 9 10 92 11 10 12
REMARK SMILES IDX 11 13 12 14 7 15 6 17 1 18 2 19 3 20 93 21 4 22 5 23 13 24
REMARK SMILES IDX 14 25 15 26 23 28 24 29 25 30 26 31 27 32 28 34 29 35 30 36
REMARK SMILES IDX 91 37 31 38 90 39 32 40 33 41 34 42 84 43 35 44 89 45 83 46
REMARK SMILES IDX 85 47 36 48 88 49 82 50 81 51 37 53 69 54 49 55 68 56 50 57
REMARK SMILES IDX 53 58 67 59 86 60 51 61 52 62 66 64 87 65 54 66 38 67 39 68
REMARK SMILES IDX 47 69 40 70 41 71 45 72 48 73 42 74 43 75 46 76 44 77 70 78
REMARK SMILES IDX 71 79 79 80 72 81 73 82 77 83 80 84 74 85 75 86 78 87 76 88
REMARK SMILES IDX 55 89 56 90 64 91 57 92 58 93 62 94 65 95 59 96 60 97 63 98
REMARK SMILES IDX 61 99
REMARK H PARENT 21 5 7 16 15 27 26 33 85 52 53 63
REMARK Flexibility Score: inf
ROOT
ATOM      1  C   UNL A   1      35.669  22.023  25.288  1.00  0.00     0.116 C 
ENDROOT
BRANCH   1   2
ATOM      2  N   UNL A   1      34.495  21.370  24.745  1.00  0.00    -0.353 N 
ATOM      3  C   UNL A   1      33.579  21.830  23.850  1.00  0.00     0.258 C 
ATOM      4  O   UNL A   1      32.651  21.076  23.552  1.00  0.00    -0.271 OA
ATOM      5  H   UNL A   1      34.336  20.456  25.073  1.00  0.00     0.163 HD
BRANCH   3   6
ATOM      6  C   UNL A   1      33.753  23.204  23.185  1.00  0.00     0.331 C 
BRANCH   6   7
ATOM      7  O   UNL A   1      32.718  24.153  23.079  1.00  0.00    -0.467 OA
BRANCH   7   8
ATOM      8  C   UNL A   1      32.834  25.400  23.605  1.00  0.00     0.222 A 
ATOM      9  C   UNL A   1      32.349  27.591  23.070  1.00  0.00     0.230 A 
ATOM     10  N   UNL A   1      32.884  28.036  24.206  1.00  0.00    -0.218 NA
ATOM     11  N   UNL A   1      32.368  26.304  22.723  1.00  0.00    -0.177 NA
ATOM     12  C   UNL A   1      33.258  27.122  25.126  1.00  0.00     0.050 A 
ATOM     13  C   UNL A   1      33.648  27.725  26.446  1.00  0.00     0.067 C 
ATOM     14  C   UNL A   1      33.177  25.744  24.904  1.00  0.00     0.038 A 
BRANCH   9  15
ATOM     15  N   UNL A   1      31.677  28.539  22.300  1.00  0.00    -0.324 N 
ATOM     16  H   UNL A   1      32.222  29.006  21.624  1.00  0.00     0.170 HD
BRANCH  15  17
ATOM     17  C   UNL A   1      30.321  28.918  22.361  1.00  0.00     0.041 A 
ATOM     18  C   UNL A   1      28.133  31.788  21.076  1.00  0.00     0.044 C 
ATOM     19  C   UNL A   1      28.572  30.531  21.768  1.00  0.00    -0.049 A 
ATOM     20  C   UNL A   1      27.642  29.787  22.502  1.00  0.00     0.003 A 
ATOM     21  C   UNL A   1      29.902  30.084  21.697  1.00  0.00     0.029 A 
ATOM     22  C   UNL A   1      28.030  28.610  23.133  1.00  0.00     0.002 A 
ATOM     23  C   UNL A   1      29.355  28.174  23.049  1.00  0.00     0.026 A 
ENDBRANCH  15  17
ENDBRANCH   9  15
BRANCH  14  24
ATOM     24  C   UNL A   1      33.304  24.762  26.041  1.00  0.00     0.071 C 
BRANCH  24  25
ATOM     25  C   UNL A   1      31.963  24.184  26.510  1.00  0.00     0.161 C 
BRANCH  25  26
ATOM     26  O   UNL A   1      31.015  25.188  26.849  1.00  0.00    -0.396 OA
ATOM     27  H   UNL A   1      30.685  25.606  26.037  1.00  0.00     0.210 HD
ENDBRANCH  25  26
ENDBRANCH  24  25
ENDBRANCH  14  24
ENDBRANCH   7   8
ENDBRANCH   6   7
ENDBRANCH   3   6
ENDBRANCH   1   2
BRANCH   1  28
ATOM     28  C   UNL A   1      36.975  21.532  24.655  1.00  0.00     0.023 C 
BRANCH  28  29
ATOM     29  C   UNL A   1      38.193  21.465  25.582  1.00  0.00     0.023 C 
BRANCH  29  30
ATOM     30  C   UNL A   1      38.679  22.807  26.112  1.00  0.00     0.116 C 
BRANCH  30  31
ATOM     31  N   UNL A   1      40.109  22.893  26.355  1.00  0.00    -0.352 N 
ATOM     32  C   UNL A   1      40.901  24.006  26.606  1.00  0.00     0.251 C 
ATOM     33  H   UNL A   1      40.588  22.034  26.338  1.00  0.00     0.163 HD
ATOM     34  O   UNL A   1      42.108  23.893  26.661  1.00  0.00    -0.269 OA
BRANCH  32  35
ATOM     35  C   UNL A   1      40.262  25.306  26.955  1.00  0.00     0.039 A 
ATOM     36  C   UNL A   1      40.707  26.451  26.279  1.00  0.00     0.014 A 
ATOM     37  C   UNL A   1      39.399  25.435  28.037  1.00  0.00     0.014 A 
ATOM     38  C   UNL A   1      40.499  27.707  26.843  1.00  0.00     0.010 A 
ATOM     39  C   UNL A   1      39.281  26.661  28.657  1.00  0.00     0.010 A 
ATOM     40  C   UNL A   1      39.892  27.784  28.093  1.00  0.00    -0.014 A 
BRANCH  40  41
ATOM     41  C   UNL A   1      39.930  28.971  28.936  1.00  0.00     0.031 A 
ATOM     42  C   UNL A   1      38.898  30.016  28.795  1.00  0.00     0.074 A 
ATOM     43  C   UNL A   1      40.849  29.030  29.925  1.00  0.00     0.049 A 
ATOM     44  N   UNL A   1      39.031  31.232  29.199  1.00  0.00    -0.248 NA
ATOM     45  C   UNL A   1      37.619  29.764  28.143  1.00  0.00     0.031 C 
ATOM     46  C   UNL A   1      40.899  29.965  31.044  1.00  0.00     0.029 A 
ATOM     47  N   UNL A   1      42.071  28.337  29.994  1.00  0.00    -0.354 N 
ATOM     48  C   UNL A   1      37.801  31.844  29.110  1.00  0.00     0.074 A 
ATOM     49  C   UNL A   1      36.969  30.903  28.396  1.00  0.00     0.031 C 
ATOM     50  C   UNL A   1      42.163  30.025  31.498  1.00  0.00     0.029 A 
ATOM     51  C   UNL A   1      42.980  29.244  30.585  1.00  0.00     0.049 A 
ATOM     52  H   UNL A   1      42.254  27.417  29.696  1.00  0.00     0.167 HD
ATOM     53  C   UNL A   1      37.598  33.025  29.765  1.00  0.00     0.037 A 
ATOM     54  C   UNL A   1      44.042  29.730  29.878  1.00  0.00     0.037 A 
ATOM     55  C   UNL A   1      38.838  33.498  30.376  1.00  0.00     0.049 A 
ATOM     56  C   UNL A   1      44.028  31.233  29.716  1.00  0.00     0.074 A 
ATOM     57  C   UNL A   1      39.353  33.385  31.657  1.00  0.00     0.029 A 
ATOM     58  N   UNL A   1      39.896  33.888  29.560  1.00  0.00    -0.354 N 
ATOM     59  N   UNL A   1      42.964  31.971  29.870  1.00  0.00    -0.248 NA
ATOM     60  C   UNL A   1      45.200  32.015  29.334  1.00  0.00     0.031 C 
ATOM     61  C   UNL A   1      40.749  33.628  31.593  1.00  0.00     0.029 A 
ATOM     62  C   UNL A   1      41.075  33.920  30.280  1.00  0.00     0.049 A 
ATOM     63  H   UNL A   1      39.815  34.110  28.604  1.00  0.00     0.167 HD
ATOM     64  C   UNL A   1      43.272  33.277  29.599  1.00  0.00     0.074 A 
ATOM     65  C   UNL A   1      44.689  33.257  29.286  1.00  0.00     0.031 C 
ATOM     66  C   UNL A   1      42.332  34.266  29.636  1.00  0.00     0.037 A 
BRANCH  53  67
ATOM     67  C   UNL A   1      36.228  33.577  30.102  1.00  0.00     0.064 A 
ATOM     68  C   UNL A   1      35.389  34.099  29.092  1.00  0.00     0.173 A 
ATOM     69  C   UNL A   1      35.711  33.687  31.406  1.00  0.00     0.173 A 
ATOM     70  F   UNL A   1      35.687  33.964  27.794  1.00  0.00    -0.203 F 
ATOM     71  C   UNL A   1      34.205  34.786  29.378  1.00  0.00     0.198 A 
ATOM     72  C   UNL A   1      34.557  34.425  31.698  1.00  0.00     0.198 A 
ATOM     73  F   UNL A   1      36.270  33.035  32.433  1.00  0.00    -0.203 F 
ATOM     74  F   UNL A   1      33.458  35.268  28.375  1.00  0.00    -0.200 F 
ATOM     75  C   UNL A   1      33.812  34.987  30.683  1.00  0.00     0.200 A 
ATOM     76  F   UNL A   1      34.177  34.585  32.973  1.00  0.00    -0.200 F 
ATOM     77  F   UNL A   1      32.706  35.691  30.960  1.00  0.00    -0.200 F 
ENDBRANCH  53  67
BRANCH  54  78
ATOM     78  C   UNL A   1      44.563  28.763  28.874  1.00  0.00     0.064 A 
ATOM     79  C   UNL A   1      45.263  27.631  29.340  1.00  0.00     0.173 A 
ATOM     80  C   UNL A   1      44.069  28.719  27.565  1.00  0.00     0.173 A 
ATOM     81  F   UNL A   1      45.758  27.621  30.589  1.00  0.00    -0.203 F 
ATOM     82  C   UNL A   1      45.350  26.466  28.583  1.00  0.00     0.198 A 
ATOM     83  C   UNL A   1      44.178  27.555  26.799  1.00  0.00     0.198 A 
ATOM     84  F   UNL A   1      43.381  29.756  27.065  1.00  0.00    -0.203 F 
ATOM     85  F   UNL A   1      45.912  25.368  29.107  1.00  0.00    -0.200 F 
ATOM     86  C   UNL A   1      44.782  26.421  27.321  1.00  0.00     0.200 A 
ATOM     87  F   UNL A   1      43.608  27.501  25.587  1.00  0.00    -0.200 F 
ATOM     88  F   UNL A   1      44.780  25.274  26.628  1.00  0.00    -0.200 F 
ENDBRANCH  54  78
BRANCH  66  89
ATOM     89  C   UNL A   1      42.529  35.675  29.142  1.00  0.00     0.064 A 
ATOM     90  C   UNL A   1      41.943  36.174  27.968  1.00  0.00     0.173 A 
ATOM     91  C   UNL A   1      43.204  36.623  29.946  1.00  0.00     0.173 A 
ATOM     92  F   UNL A   1      41.186  35.396  27.183  1.00  0.00    -0.203 F 
ATOM     93  C   UNL A   1      42.072  37.516  27.596  1.00  0.00     0.198 A 
ATOM     94  C   UNL A   1      43.282  37.971  29.600  1.00  0.00     0.198 A 
ATOM     95  F   UNL A   1      43.785  36.271  31.103  1.00  0.00    -0.203 F 
ATOM     96  F   UNL A   1      41.527  37.939  26.446  1.00  0.00    -0.200 F 
ATOM     97  C   UNL A   1      42.728  38.414  28.417  1.00  0.00     0.200 A 
ATOM     98  F   UNL A   1      43.877  38.839  30.430  1.00  0.00    -0.200 F 
ATOM     99  F   UNL A   1      42.808  39.707  28.078  1.00  0.00    -0.200 F 
ENDBRANCH  66  89
ENDBRANCH  40  41
ENDBRANCH  32  35
ENDBRANCH  30  31
ENDBRANCH  29  30
ENDBRANCH  28  29
ENDBRANCH   1  28
TORSDOF 18
ENDMDL
MODEL 2
REMARK VINA RESULT:     -13.0      3.870     10.021
REMARK SMILES Cc1cccc(Nc2nc(C)c(CCO)c(OCC(=O)NCCCCNC(=O)c3ccc(-c4c5nc(c(-c6c(F)c(F)c(F)c(F)c6F)c6ccc([nH]6)c(-c6c(F)c(F)c(F)c(F)c6F)c6nc(c(-c7c(F)c(F)c(F)c(F)c7F)c7ccc4[nH]7)C=C6)C=C5)cc3)n2)c1
REMARK SMILES IDX 22 1 21 2 19 3 20 4 18 6 17 7 16 8 8 9 9 10 92 11 10 12
REMARK SMILES IDX 11 13 12 14 7 15 6 17 1 18 2 19 3 20 93 21 4 22 5 23 13 24
REMARK SMILES IDX 14 25 15 26 23 28 24 29 25 30 26 31 27 32 28 34 29 35 30 36
REMARK SMILES IDX 91 37 31 38 90 39 32 40 33 41 34 42 84 43 35 44 89 45 83 46
REMARK SMILES IDX 85 47 36 48 88 49 82 50 81 51 37 53 69 54 49 55 68 56 50 57
REMARK SMILES IDX 53 58 67 59 86 60 51 61 52 62 66 64 87 65 54 66 38 67 39 68
REMARK SMILES IDX 47 69 40 70 41 71 45 72 48 73 42 74 43 75 46 76 44 77 70 78
REMARK SMILES IDX 71 79 79 80 72 81 73 82 77 83 80 84 74 85 75 86 78 87 76 88
REMARK SMILES IDX 55 89 56 90 64 91 57 92 58 93 62 94 65 95 59 96 60 97 63 98
REMARK SMILES IDX 61 99
REMARK H PARENT 21 5 7 16 15 27 26 33 85 52 53 63
REMARK Flexibility Score: inf
ROOT
ATOM      1  C   UNL A   1      31.606  27.591  26.371  1.00  0.00     0.116 C 
ENDROOT
BRANCH   1   2
ATOM      2  N   UNL A   1      30.787  26.502  26.865  1.00  0.00    -0.353 N 
ATOM      3  C   UNL A   1      30.139  25.522  26.181  1.00  0.00     0.258 C 
ATOM      4  O   UNL A   1      29.489  24.707  26.840  1.00  0.00    -0.271 OA
ATOM      5  H   UNL A   1      30.684  26.468  27.844  1.00  0.00     0.163 HD
BRANCH   3   6
ATOM      6  C   UNL A   1      30.287  25.398  24.657  1.00  0.00     0.331 C 
BRANCH   6   7
ATOM      7  O   UNL A   1      30.994  24.355  24.027  1.00  0.00    -0.467 OA
BRANCH   7   8
ATOM      8  C   UNL A   1      32.054  23.748  24.621  1.00  0.00     0.222 A 
ATOM      9  C   UNL A   1      32.612  21.735  25.599  1.00  0.00     0.230 A 
ATOM     10  N   UNL A   1      33.840  22.163  25.890  1.00  0.00    -0.218 NA
ATOM     11  N   UNL A   1      31.694  22.517  25.030  1.00  0.00    -0.177 NA
ATOM     12  C   UNL A   1      34.224  23.357  25.392  1.00  0.00     0.050 A 
ATOM     13  C   UNL A   1      35.684  23.650  25.597  1.00  0.00     0.067 C 
ATOM     14  C   UNL A   1      33.370  24.184  24.658  1.00  0.00     0.038 A 
BRANCH   9  15
ATOM     15  N   UNL A   1      32.366  20.382  25.835  1.00  0.00    -0.324 N 
ATOM     16  H   UNL A   1      32.001  20.163  26.723  1.00  0.00     0.170 HD
BRANCH  15  17
ATOM     17  C   UNL A   1      32.570  19.290  24.969  1.00  0.00     0.041 A 
ATOM     18  C   UNL A   1      33.447  15.573  25.277  1.00  0.00     0.044 C 
ATOM     19  C   UNL A   1      33.118  16.915  24.693  1.00  0.00    -0.049 A 
ATOM     20  C   UNL A   1      33.070  17.069  23.303  1.00  0.00     0.003 A 
ATOM     21  C   UNL A   1      32.859  18.026  25.514  1.00  0.00     0.029 A 
ATOM     22  C   UNL A   1      32.749  18.303  22.748  1.00  0.00     0.002 A 
ATOM     23  C   UNL A   1      32.487  19.398  23.576  1.00  0.00     0.026 A 
ENDBRANCH  15  17
ENDBRANCH   9  15
BRANCH  14  24
ATOM     24  C   UNL A   1      33.905  25.347  23.861  1.00  0.00     0.071 C 
BRANCH  24  25
ATOM     25  C   UNL A   1      33.583  25.271  22.364  1.00  0.00     0.161 C 
BRANCH  25  26
ATOM     26  O   UNL A   1      32.519  26.132  21.980  1.00  0.00    -0.396 OA
ATOM     27  H   UNL A   1      32.871  26.860  21.444  1.00  0.00     0.210 HD
ENDBRANCH  25  26
ENDBRANCH  24  25
ENDBRANCH  14  24
ENDBRANCH   7   8
ENDBRANCH   6   7
ENDBRANCH   3   6
ENDBRANCH   1   2
BRANCH   1  28
ATOM     28  C   UNL A   1      32.193  28.456  27.492  1.00  0.00     0.023 C 
BRANCH  28  29
ATOM     29  C   UNL A   1      32.178  29.970  27.255  1.00  0.00     0.023 C 
BRANCH  29  30
ATOM     30  C   UNL A   1      33.532  30.590  26.940  1.00  0.00     0.116 C 
BRANCH  30  31
ATOM     31  N   UNL A   1      34.013  31.554  27.915  1.00  0.00    -0.352 N 
ATOM     32  C   UNL A   1      35.041  31.443  28.842  1.00  0.00     0.251 C 
ATOM     33  H   UNL A   1      33.537  32.416  27.919  1.00  0.00     0.163 HD
ATOM     34  O   UNL A   1      35.215  32.317  29.664  1.00  0.00    -0.269 OA
BRANCH  32  35
ATOM     35  C   UNL A   1      36.019  30.324  28.731  1.00  0.00     0.039 A 
ATOM     36  C   UNL A   1      36.411  29.684  29.915  1.00  0.00     0.014 A 
ATOM     37  C   UNL A   1      36.676  30.036  27.540  1.00  0.00     0.014 A 
ATOM     38  C   UNL A   1      37.608  28.972  29.948  1.00  0.00     0.010 A 
ATOM     39  C   UNL A   1      37.913  29.426  27.588  1.00  0.00     0.010 A 
ATOM     40  C   UNL A   1      38.407  28.957  28.808  1.00  0.00    -0.014 A 
BRANCH  40  41
ATOM     41  C   UNL A   1      39.808  28.562  28.811  1.00  0.00     0.031 A 
ATOM     42  C   UNL A   1      40.192  27.181  28.463  1.00  0.00     0.074 A 
ATOM     43  C   UNL A   1      40.746  29.514  29.012  1.00  0.00     0.049 A 
ATOM     44  N   UNL A   1      41.312  26.632  28.783  1.00  0.00    -0.248 NA
ATOM     45  C   UNL A   1      39.300  26.285  27.737  1.00  0.00     0.031 C 
ATOM     46  C   UNL A   1      42.184  29.414  28.787  1.00  0.00     0.029 A 
ATOM     47  N   UNL A   1      40.580  30.747  29.668  1.00  0.00    -0.354 N 
ATOM     48  C   UNL A   1      41.408  25.439  28.101  1.00  0.00     0.074 A 
ATOM     49  C   UNL A   1      40.106  25.245  27.507  1.00  0.00     0.031 C 
ATOM     50  C   UNL A   1      42.802  30.341  29.539  1.00  0.00     0.029 A 
ATOM     51  C   UNL A   1      41.786  30.957  30.376  1.00  0.00     0.049 A 
ATOM     52  H   UNL A   1      39.793  31.337  29.641  1.00  0.00     0.167 HD
ATOM     53  C   UNL A   1      42.622  24.820  28.016  1.00  0.00     0.037 A 
ATOM     54  C   UNL A   1      41.803  30.973  31.740  1.00  0.00     0.037 A 
ATOM     55  C   UNL A   1      43.623  25.527  28.813  1.00  0.00     0.049 A 
ATOM     56  C   UNL A   1      42.674  29.897  32.349  1.00  0.00     0.074 A 
ATOM     57  C   UNL A   1      44.579  26.475  28.487  1.00  0.00     0.029 A 
ATOM     58  N   UNL A   1      43.496  25.556  30.198  1.00  0.00    -0.354 N 
ATOM     59  N   UNL A   1      43.063  28.828  31.711  1.00  0.00    -0.248 NA
ATOM     60  C   UNL A   1      43.144  29.925  33.731  1.00  0.00     0.031 C 
ATOM     61  C   UNL A   1      44.968  27.135  29.680  1.00  0.00     0.029 A 
ATOM     62  C   UNL A   1      44.272  26.566  30.733  1.00  0.00     0.049 A 
ATOM     63  H   UNL A   1      42.933  24.942  30.723  1.00  0.00     0.167 HD
ATOM     64  C   UNL A   1      43.787  28.031  32.556  1.00  0.00     0.074 A 
ATOM     65  C   UNL A   1      43.827  28.770  33.805  1.00  0.00     0.031 C 
ATOM     66  C   UNL A   1      44.281  26.820  32.165  1.00  0.00     0.037 A 
BRANCH  53  67
ATOM     67  C   UNL A   1      42.961  23.768  26.980  1.00  0.00     0.064 A 
ATOM     68  C   UNL A   1      42.626  22.411  27.188  1.00  0.00     0.173 A 
ATOM     69  C   UNL A   1      43.677  24.016  25.794  1.00  0.00     0.173 A 
ATOM     70  F   UNL A   1      41.847  22.031  28.209  1.00  0.00    -0.203 F 
ATOM     71  C   UNL A   1      43.082  21.385  26.354  1.00  0.00     0.198 A 
ATOM     72  C   UNL A   1      44.183  22.987  24.991  1.00  0.00     0.198 A 
ATOM     73  F   UNL A   1      43.858  25.263  25.341  1.00  0.00    -0.203 F 
ATOM     74  F   UNL A   1      42.738  20.116  26.613  1.00  0.00    -0.200 F 
ATOM     75  C   UNL A   1      43.897  21.670  25.280  1.00  0.00     0.200 A 
ATOM     76  F   UNL A   1      44.951  23.287  23.934  1.00  0.00    -0.200 F 
ATOM     77  F   UNL A   1      44.378  20.684  24.511  1.00  0.00    -0.200 F 
ENDBRANCH  53  67
BRANCH  54  78
ATOM     78  C   UNL A   1      40.540  31.491  32.331  1.00  0.00     0.064 A 
ATOM     79  C   UNL A   1      39.607  30.560  32.830  1.00  0.00     0.173 A 
ATOM     80  C   UNL A   1      40.414  32.819  32.758  1.00  0.00     0.173 A 
ATOM     81  F   UNL A   1      39.682  29.272  32.452  1.00  0.00    -0.203 F 
ATOM     82  C   UNL A   1      38.678  30.911  33.806  1.00  0.00     0.198 A 
ATOM     83  C   UNL A   1      39.467  33.172  33.722  1.00  0.00     0.198 A 
ATOM     84  F   UNL A   1      41.278  33.752  32.335  1.00  0.00    -0.203 F 
ATOM     85  F   UNL A   1      37.892  29.971  34.349  1.00  0.00    -0.200 F 
ATOM     86  C   UNL A   1      38.628  32.213  34.272  1.00  0.00     0.200 A 
ATOM     87  F   UNL A   1      39.431  34.427  34.192  1.00  0.00    -0.200 F 
ATOM     88  F   UNL A   1      37.802  32.533  35.278  1.00  0.00    -0.200 F 
ENDBRANCH  54  78
BRANCH  66  89
ATOM     89  C   UNL A   1      44.891  25.790  33.079  1.00  0.00     0.064 A 
ATOM     90  C   UNL A   1      46.257  25.471  33.087  1.00  0.00     0.173 A 
ATOM     91  C   UNL A   1      44.114  25.200  34.104  1.00  0.00     0.173 A 
ATOM     92  F   UNL A   1      47.112  26.053  32.235  1.00  0.00    -0.203 F 
ATOM     93  C   UNL A   1      46.799  24.580  34.018  1.00  0.00     0.198 A 
ATOM     94  C   UNL A   1      44.668  24.358  35.066  1.00  0.00     0.198 A 
ATOM     95  F   UNL A   1      42.800  25.447  34.215  1.00  0.00    -0.203 F 
ATOM     96  F   UNL A   1      48.103  24.276  33.963  1.00  0.00    -0.200 F 
ATOM     97  C   UNL A   1      46.009  24.036  35.013  1.00  0.00     0.200 A 
ATOM     98  F   UNL A   1      43.900  23.878  36.054  1.00  0.00    -0.200 F 
ATOM     99  F   UNL A   1      46.542  23.220  35.931  1.00  0.00    -0.200 F 
ENDBRANCH  66  89
ENDBRANCH  40  41
ENDBRANCH  32  35
ENDBRANCH  30  31
ENDBRANCH  29  30
ENDBRANCH  28  29
ENDBRANCH   1  28
TORSDOF 18
ENDMDL
MODEL 3
REMARK VINA RESULT:     -12.9      3.368      9.981
REMARK SMILES Cc1cccc(Nc2nc(C)c(CCO)c(OCC(=O)NCCCCNC(=O)c3ccc(-c4c5nc(c(-c6c(F)c(F)c(F)c(F)c6F)c6ccc([nH]6)c(-c6c(F)c(F)c(F)c(F)c6F)c6nc(c(-c7c(F)c(F)c(F)c(F)c7F)c7ccc4[nH]7)C=C6)C=C5)cc3)n2)c1
REMARK SMILES IDX 22 1 21 2 19 3 20 4 18 6 17 7 16 8 8 9 9 10 92 11 10 12
REMARK SMILES IDX 11 13 12 14 7 15 6 17 1 18 2 19 3 20 93 21 4 22 5 23 13 24
REMARK SMILES IDX 14 25 15 26 23 28 24 29 25 30 26 31 27 32 28 34 29 35 30 36
REMARK SMILES IDX 91 37 31 38 90 39 32 40 33 41 34 42 84 43 35 44 89 45 83 46
REMARK SMILES IDX 85 47 36 48 88 49 82 50 81 51 37 53 69 54 49 55 68 56 50 57
REMARK SMILES IDX 53 58 67 59 86 60 51 61 52 62 66 64 87 65 54 66 38 67 39 68
REMARK SMILES IDX 47 69 40 70 41 71 45 72 48 73 42 74 43 75 46 76 44 77 70 78
REMARK SMILES IDX 71 79 79 80 72 81 73 82 77 83 80 84 74 85 75 86 78 87 76 88
REMARK SMILES IDX 55 89 56 90 64 91 57 92 58 93 62 94 65 95 59 96 60 97 63 98
REMARK SMILES IDX 61 99
REMARK H PARENT 21 5 7 16 15 27 26 33 85 52 53 63
REMARK Flexibility Score: inf
ROOT
ATOM      1  C   UNL A   1      33.642  28.845  24.325  1.00  0.00     0.116 C 
ENDROOT
BRANCH   1   2
ATOM      2  N   UNL A   1      32.432  29.254  23.640  1.00  0.00    -0.353 N 
ATOM      3  C   UNL A   1      31.728  28.620  22.665  1.00  0.00     0.258 C 
ATOM      4  O   UNL A   1      30.724  29.189  22.231  1.00  0.00    -0.271 OA
ATOM      5  H   UNL A   1      32.065  30.123  23.923  1.00  0.00     0.163 HD
BRANCH   3   6
ATOM      6  C   UNL A   1      32.132  27.215  22.192  1.00  0.00     0.331 C 
BRANCH   6   7
ATOM      7  O   UNL A   1      31.265  26.105  22.221  1.00  0.00    -0.467 OA
BRANCH   7   8
ATOM      8  C   UNL A   1      31.387  25.126  23.154  1.00  0.00     0.222 A 
ATOM      9  C   UNL A   1      32.750  23.337  23.663  1.00  0.00     0.230 A 
ATOM     10  N   UNL A   1      32.008  23.010  24.719  1.00  0.00    -0.218 NA
ATOM     11  N   UNL A   1      32.430  24.336  22.840  1.00  0.00    -0.177 NA
ATOM     12  C   UNL A   1      31.025  23.861  25.084  1.00  0.00     0.050 A 
ATOM     13  C   UNL A   1      30.390  23.513  26.400  1.00  0.00     0.067 C 
ATOM     14  C   UNL A   1      30.712  25.015  24.360  1.00  0.00     0.038 A 
BRANCH   9  15
ATOM     15  N   UNL A   1      33.944  22.631  23.515  1.00  0.00    -0.324 N 
ATOM     16  H   UNL A   1      33.953  21.948  22.805  1.00  0.00     0.170 HD
BRANCH  15  17
ATOM     17  C   UNL A   1      35.140  22.767  24.248  1.00  0.00     0.041 A 
ATOM     18  C   UNL A   1      38.153  20.585  25.162  1.00  0.00     0.044 C 
ATOM     19  C   UNL A   1      37.214  21.752  25.073  1.00  0.00    -0.049 A 
ATOM     20  C   UNL A   1      37.516  22.933  25.760  1.00  0.00     0.003 A 
ATOM     21  C   UNL A   1      36.032  21.683  24.316  1.00  0.00     0.029 A 
ATOM     22  C   UNL A   1      36.663  24.029  25.672  1.00  0.00     0.002 A 
ATOM     23  C   UNL A   1      35.495  23.949  24.910  1.00  0.00     0.026 A 
ENDBRANCH  15  17
ENDBRANCH   9  15
BRANCH  14  24
ATOM     24  C   UNL A   1      29.835  26.091  24.949  1.00  0.00     0.071 C 
BRANCH  24  25
ATOM     25  C   UNL A   1      28.552  26.348  24.150  1.00  0.00     0.161 C 
BRANCH  25  26
ATOM     26  O   UNL A   1      28.634  27.502  23.324  1.00  0.00    -0.396 OA
ATOM     27  H   UNL A   1      29.411  27.430  22.747  1.00  0.00     0.210 HD
ENDBRANCH  25  26
ENDBRANCH  24  25
ENDBRANCH  14  24
ENDBRANCH   7   8
ENDBRANCH   6   7
ENDBRANCH   3   6
ENDBRANCH   1   2
BRANCH   1  28
ATOM     28  C   UNL A   1      33.524  28.929  25.851  1.00  0.00     0.023 C 
BRANCH  28  29
ATOM     29  C   UNL A   1      33.534  30.338  26.454  1.00  0.00     0.023 C 
BRANCH  29  30
ATOM     30  C   UNL A   1      33.585  30.392  27.974  1.00  0.00     0.116 C 
BRANCH  30  31
ATOM     31  N   UNL A   1      34.380  31.476  28.528  1.00  0.00    -0.352 N 
ATOM     32  C   UNL A   1      35.661  31.454  29.061  1.00  0.00     0.251 C 
ATOM     33  H   UNL A   1      33.942  32.358  28.524  1.00  0.00     0.163 HD
ATOM     34  O   UNL A   1      36.115  32.445  29.594  1.00  0.00    -0.269 OA
BRANCH  32  35
ATOM     35  C   UNL A   1      36.531  30.263  28.848  1.00  0.00     0.039 A 
ATOM     36  C   UNL A   1      36.839  29.475  29.966  1.00  0.00     0.014 A 
ATOM     37  C   UNL A   1      37.181  30.033  27.641  1.00  0.00     0.014 A 
ATOM     38  C   UNL A   1      37.963  28.652  29.939  1.00  0.00     0.010 A 
ATOM     39  C   UNL A   1      38.353  29.305  27.639  1.00  0.00     0.010 A 
ATOM     40  C   UNL A   1      38.777  28.673  28.811  1.00  0.00    -0.014 A 
BRANCH  40  41
ATOM     41  C   UNL A   1      40.135  28.147  28.787  1.00  0.00     0.031 A 
ATOM     42  C   UNL A   1      40.373  26.713  28.537  1.00  0.00     0.074 A 
ATOM     43  C   UNL A   1      41.165  29.018  28.872  1.00  0.00     0.049 A 
ATOM     44  N   UNL A   1      41.452  26.086  28.852  1.00  0.00    -0.248 NA
ATOM     45  C   UNL A   1      39.368  25.854  27.923  1.00  0.00     0.031 C 
ATOM     46  C   UNL A   1      42.575  28.765  28.596  1.00  0.00     0.029 A 
ATOM     47  N   UNL A   1      41.146  30.307  29.433  1.00  0.00    -0.354 N 
ATOM     48  C   UNL A   1      41.405  24.841  28.266  1.00  0.00     0.074 A 
ATOM     49  C   UNL A   1      40.063  24.728  27.744  1.00  0.00     0.031 C 
ATOM     50  C   UNL A   1      43.312  29.683  29.244  1.00  0.00     0.029 A 
ATOM     51  C   UNL A   1      42.399  30.455  30.070  1.00  0.00     0.049 A 
ATOM     52  H   UNL A   1      40.416  30.967  29.391  1.00  0.00     0.167 HD
ATOM     53  C   UNL A   1      42.551  24.104  28.180  1.00  0.00     0.037 A 
ATOM     54  C   UNL A   1      42.485  30.573  31.427  1.00  0.00     0.037 A 
ATOM     55  C   UNL A   1      43.650  24.771  28.875  1.00  0.00     0.049 A 
ATOM     56  C   UNL A   1      43.281  29.469  32.085  1.00  0.00     0.074 A 
ATOM     57  C   UNL A   1      44.673  25.596  28.435  1.00  0.00     0.029 A 
ATOM     58  N   UNL A   1      43.594  24.917  30.258  1.00  0.00    -0.354 N 
ATOM     59  N   UNL A   1      43.539  28.322  31.519  1.00  0.00    -0.248 NA
ATOM     60  C   UNL A   1      43.819  29.557  33.439  1.00  0.00     0.031 C 
ATOM     61  C   UNL A   1      45.178  26.305  29.554  1.00  0.00     0.029 A 
ATOM     62  C   UNL A   1      44.486  25.887  30.677  1.00  0.00     0.049 A 
ATOM     63  H   UNL A   1      43.004  24.402  30.853  1.00  0.00     0.167 HD
ATOM     64  C   UNL A   1      44.227  27.527  32.394  1.00  0.00     0.074 A 
ATOM     65  C   UNL A   1      44.396  28.351  33.577  1.00  0.00     0.031 C 
ATOM     66  C   UNL A   1      44.588  26.247  32.082  1.00  0.00     0.037 A 
BRANCH  53  67
ATOM     67  C   UNL A   1      42.741  22.948  27.219  1.00  0.00     0.064 A 
ATOM     68  C   UNL A   1      42.078  21.717  27.427  1.00  0.00     0.173 A 
ATOM     69  C   UNL A   1      43.613  22.963  26.116  1.00  0.00     0.173 A 
ATOM     70  F   UNL A   1      41.131  21.580  28.363  1.00  0.00    -0.203 F 
ATOM     71  C   UNL A   1      42.367  20.571  26.679  1.00  0.00     0.198 A 
ATOM     72  C   UNL A   1      43.946  21.804  25.405  1.00  0.00     0.198 A 
ATOM     73  F   UNL A   1      44.126  24.109  25.651  1.00  0.00    -0.203 F 
ATOM     74  F   UNL A   1      41.711  19.430  26.932  1.00  0.00    -0.200 F 
ATOM     75  C   UNL A   1      43.333  20.604  25.696  1.00  0.00     0.200 A 
ATOM     76  F   UNL A   1      44.868  21.863  24.433  1.00  0.00    -0.200 F 
ATOM     77  F   UNL A   1      43.648  19.494  25.014  1.00  0.00    -0.200 F 
ENDBRANCH  53  67
BRANCH  54  78
ATOM     78  C   UNL A   1      41.305  31.254  32.027  1.00  0.00     0.064 A 
ATOM     79  C   UNL A   1      41.181  32.647  31.853  1.00  0.00     0.173 A 
ATOM     80  C   UNL A   1      40.155  30.547  32.401  1.00  0.00     0.173 A 
ATOM     81  F   UNL A   1      42.254  33.373  31.495  1.00  0.00    -0.203 F 
ATOM     82  C   UNL A   1      39.944  33.282  31.921  1.00  0.00     0.198 A 
ATOM     83  C   UNL A   1      38.919  31.192  32.488  1.00  0.00     0.198 A 
ATOM     84  F   UNL A   1      40.200  29.218  32.567  1.00  0.00    -0.203 F 
ATOM     85  F   UNL A   1      39.845  34.586  31.625  1.00  0.00    -0.200 F 
ATOM     86  C   UNL A   1      38.808  32.547  32.212  1.00  0.00     0.200 A 
ATOM     87  F   UNL A   1      37.813  30.478  32.747  1.00  0.00    -0.200 F 
ATOM     88  F   UNL A   1      37.604  33.135  32.184  1.00  0.00    -0.200 F 
ENDBRANCH  54  78
BRANCH  66  89
ATOM     89  C   UNL A   1      45.144  25.237  33.051  1.00  0.00     0.064 A 
ATOM     90  C   UNL A   1      46.513  24.954  33.175  1.00  0.00     0.173 A 
ATOM     91  C   UNL A   1      44.299  24.630  34.009  1.00  0.00     0.173 A 
ATOM     92  F   UNL A   1      47.421  25.555  32.396  1.00  0.00    -0.203 F 
ATOM     93  C   UNL A   1      46.997  24.081  34.154  1.00  0.00     0.198 A 
ATOM     94  C   UNL A   1      44.791  23.806  35.019  1.00  0.00     0.198 A 
ATOM     95  F   UNL A   1      42.974  24.843  34.007  1.00  0.00    -0.203 F 
ATOM     96  F   UNL A   1      48.309  23.811  34.211  1.00  0.00    -0.200 F 
ATOM     97  C   UNL A   1      46.139  23.519  35.082  1.00  0.00     0.200 A 
ATOM     98  F   UNL A   1      43.955  23.309  35.941  1.00  0.00    -0.200 F 
ATOM     99  F   UNL A   1      46.614  22.720  36.046  1.00  0.00    -0.200 F 
ENDBRANCH  66  89
ENDBRANCH  40  41
ENDBRANCH  32  35
ENDBRANCH  30  31
ENDBRANCH  29  30
ENDBRANCH  28  29
ENDBRANCH   1  28
TORSDOF 18
ENDMDL
