MODEL 1
REMARK VINA RESULT:     -13.1      0.000      0.000
REMARK SMILES COc1ccc([C@H](NC(=O)[C@H]2CC(C)=C(C)C[C@@H]2C(=O)NCCCCNC(=O)c2ccc(-c3c4nc(c(-c5c(F)c(F)c(F)c(F)c5F)c5ccc([nH]5)c(-c5c(F)c(F)c(F)c(F)c5F)c5nc(c(-c6c(F)c(F)c(F)c(F)c6F)c6ccc3[nH]6)C=C5)C=C4)cc2)c2ccccc2)cc1
REMARK SMILES IDX 22 1 21 2 19 3 20 4 18 6 11 7 12 8 13 9 17 10 14 11 15 12
REMARK SMILES IDX 16 13 9 14 8 15 10 17 7 18 6 19 3 20 4 21 99 22 5 23 98 24
REMARK SMILES IDX 2 25 1 26 92 27 93 28 97 29 94 30 96 31 95 32 23 33 24 34
REMARK SMILES IDX 25 35 26 36 27 37 28 39 29 40 30 41 91 42 31 43 90 44 32 45
REMARK SMILES IDX 33 46 34 47 84 48 35 49 89 50 83 51 85 52 36 53 88 54 82 55
REMARK SMILES IDX 81 56 37 58 69 59 49 60 68 61 50 62 53 63 67 64 86 65 51 66
REMARK SMILES IDX 52 67 66 69 87 70 54 71 38 72 39 73 47 74 40 75 41 76 45 77
REMARK SMILES IDX 48 78 42 79 43 80 46 81 44 82 70 83 71 84 79 85 72 86 73 87
REMARK SMILES IDX 77 88 80 89 74 90 75 91 78 92 76 93 55 94 56 95 64 96 57 97
REMARK SMILES IDX 58 98 62 99 65 100 59 101 60 102 63 103 61 104
REMARK H PARENT 21 5 8 16 26 38 85 57 53 68
REMARK Flexibility Score: inf
ROOT
ATOM      1  C   UNL A   1      34.661  32.437  27.834  1.00  0.00     0.116 C 
ENDROOT
BRANCH   1   2
ATOM      2  N   UNL A   1      35.341  31.247  28.305  1.00  0.00    -0.356 N 
ATOM      3  C   UNL A   1      35.030  29.933  28.121  1.00  0.00     0.224 C 
ATOM      4  O   UNL A   1      35.566  29.126  28.883  1.00  0.00    -0.275 OA
ATOM      5  H   UNL A   1      36.152  31.413  28.838  1.00  0.00     0.163 HD
BRANCH   3   6
ATOM      6  C   UNL A   1      34.085  29.510  26.989  1.00  0.00     0.095 C 
ATOM      7  C   UNL A   1      32.603  29.723  27.359  1.00  0.00     0.095 C 
ATOM      8  C   UNL A   1      31.755  28.471  27.556  1.00  0.00     0.045 C 
ATOM      9  C   UNL A   1      32.117  27.286  26.704  1.00  0.00    -0.074 C 
ATOM     10  C   UNL A   1      34.472  28.085  26.546  1.00  0.00     0.045 C 
ATOM     11  C   UNL A   1      31.000  26.290  26.522  1.00  0.00     0.039 C 
ATOM     12  C   UNL A   1      33.360  27.127  26.215  1.00  0.00    -0.074 C 
ATOM     13  C   UNL A   1      33.779  25.937  25.389  1.00  0.00     0.039 C 
BRANCH   7  14
ATOM     14  C   UNL A   1      31.949  30.802  26.486  1.00  0.00     0.224 C 
ATOM     15  N   UNL A   1      31.410  30.666  25.262  1.00  0.00    -0.345 N 
ATOM     16  H   UNL A   1      31.380  31.525  24.781  1.00  0.00     0.164 HD
ATOM     17  O   UNL A   1      31.975  31.978  26.878  1.00  0.00    -0.275 OA
BRANCH  15  18
ATOM     18  C   UNL A   1      30.857  29.573  24.458  1.00  0.00     0.143 C 
BRANCH  18  19
ATOM     19  C   UNL A   1      29.732  30.102  23.539  1.00  0.00    -0.021 A 
ATOM     20  C   UNL A   1      27.975  31.256  21.648  1.00  0.00     0.118 A 
ATOM     21  C   UNL A   1      28.701  30.114  21.321  1.00  0.00     0.047 A 
ATOM     22  C   UNL A   1      28.032  31.756  22.945  1.00  0.00     0.047 A 
ATOM     23  C   UNL A   1      29.553  29.530  22.264  1.00  0.00     0.010 A 
ATOM     24  C   UNL A   1      28.924  31.204  23.871  1.00  0.00     0.010 A 
BRANCH  20  25
ATOM     25  O   UNL A   1      27.231  31.820  20.648  1.00  0.00    -0.497 OA
ATOM     26  C   UNL A   1      27.976  32.726  19.833  1.00  0.00     0.278 C 
ENDBRANCH  20  25
ENDBRANCH  18  19
BRANCH  18  27
ATOM     27  C   UNL A   1      31.913  28.769  23.685  1.00  0.00    -0.021 A 
ATOM     28  C   UNL A   1      33.198  29.302  23.447  1.00  0.00     0.006 A 
ATOM     29  C   UNL A   1      31.632  27.528  23.095  1.00  0.00     0.006 A 
ATOM     30  C   UNL A   1      34.126  28.656  22.626  1.00  0.00     0.000 A 
ATOM     31  C   UNL A   1      32.539  26.902  22.233  1.00  0.00     0.000 A 
ATOM     32  C   UNL A   1      33.784  27.470  21.992  1.00  0.00     0.000 A 
ENDBRANCH  18  27
ENDBRANCH  15  18
ENDBRANCH   7  14
ENDBRANCH   3   6
ENDBRANCH   1   2
BRANCH   1  33
ATOM     33  C   UNL A   1      34.491  33.437  28.980  1.00  0.00     0.023 C 
BRANCH  33  34
ATOM     34  C   UNL A   1      33.336  34.421  28.801  1.00  0.00     0.023 C 
BRANCH  34  35
ATOM     35  C   UNL A   1      33.545  35.775  29.460  1.00  0.00     0.116 C 
BRANCH  35  36
ATOM     36  N   UNL A   1      32.577  36.049  30.509  1.00  0.00    -0.352 N 
ATOM     37  C   UNL A   1      32.624  35.685  31.831  1.00  0.00     0.251 C 
ATOM     38  H   UNL A   1      31.782  36.563  30.235  1.00  0.00     0.163 HD
ATOM     39  O   UNL A   1      31.662  35.878  32.570  1.00  0.00    -0.269 OA
BRANCH  37  40
ATOM     40  C   UNL A   1      33.835  35.021  32.352  1.00  0.00     0.039 A 
ATOM     41  C   UNL A   1      33.724  33.727  32.866  1.00  0.00     0.014 A 
ATOM     42  C   UNL A   1      35.079  35.657  32.297  1.00  0.00     0.014 A 
ATOM     43  C   UNL A   1      34.873  33.046  33.268  1.00  0.00     0.010 A 
ATOM     44  C   UNL A   1      36.230  34.951  32.629  1.00  0.00     0.010 A 
ATOM     45  C   UNL A   1      36.138  33.639  33.118  1.00  0.00    -0.014 A 
BRANCH  45  46
ATOM     46  C   UNL A   1      37.374  32.895  33.466  1.00  0.00     0.031 A 
ATOM     47  C   UNL A   1      38.106  33.199  34.742  1.00  0.00     0.074 A 
ATOM     48  C   UNL A   1      37.868  31.988  32.600  1.00  0.00     0.049 A 
ATOM     49  N   UNL A   1      39.222  32.689  35.198  1.00  0.00    -0.248 NA
ATOM     50  C   UNL A   1      37.521  34.234  35.611  1.00  0.00     0.031 C 
ATOM     51  C   UNL A   1      37.279  31.649  31.303  1.00  0.00     0.029 A 
ATOM     52  N   UNL A   1      38.983  31.191  32.677  1.00  0.00    -0.354 N 
ATOM     53  C   UNL A   1      39.476  33.346  36.394  1.00  0.00     0.074 A 
ATOM     54  C   UNL A   1      38.430  34.329  36.569  1.00  0.00     0.031 C 
ATOM     55  C   UNL A   1      38.025  30.698  30.718  1.00  0.00     0.029 A 
ATOM     56  C   UNL A   1      39.159  30.384  31.580  1.00  0.00     0.049 A 
ATOM     57  H   UNL A   1      39.597  31.197  33.447  1.00  0.00     0.167 HD
ATOM     58  C   UNL A   1      40.480  33.130  37.278  1.00  0.00     0.037 A 
ATOM     59  C   UNL A   1      40.131  29.494  31.302  1.00  0.00     0.037 A 
ATOM     60  C   UNL A   1      41.503  32.131  37.113  1.00  0.00     0.049 A 
ATOM     61  C   UNL A   1      41.228  29.268  32.307  1.00  0.00     0.074 A 
ATOM     62  C   UNL A   1      42.522  31.789  37.984  1.00  0.00     0.029 A 
ATOM     63  N   UNL A   1      41.637  31.316  35.999  1.00  0.00    -0.354 N 
ATOM     64  N   UNL A   1      41.413  29.839  33.473  1.00  0.00    -0.248 NA
ATOM     65  C   UNL A   1      42.247  28.269  31.960  1.00  0.00     0.031 C 
ATOM     66  C   UNL A   1      43.301  30.798  37.378  1.00  0.00     0.029 A 
ATOM     67  C   UNL A   1      42.736  30.486  36.151  1.00  0.00     0.049 A 
ATOM     68  H   UNL A   1      41.039  31.325  35.217  1.00  0.00     0.167 HD
ATOM     69  C   UNL A   1      42.550  29.250  34.009  1.00  0.00     0.074 A 
ATOM     70  C   UNL A   1      43.002  28.264  33.050  1.00  0.00     0.031 C 
ATOM     71  C   UNL A   1      43.167  29.506  35.189  1.00  0.00     0.037 A 
BRANCH  58  72
ATOM     72  C   UNL A   1      40.516  33.985  38.512  1.00  0.00     0.064 A 
ATOM     73  C   UNL A   1      39.840  33.613  39.683  1.00  0.00     0.173 A 
ATOM     74  C   UNL A   1      41.274  35.165  38.539  1.00  0.00     0.173 A 
ATOM     75  F   UNL A   1      39.091  32.499  39.707  1.00  0.00    -0.203 F 
ATOM     76  C   UNL A   1      39.902  34.403  40.829  1.00  0.00     0.198 A 
ATOM     77  C   UNL A   1      41.357  35.937  39.694  1.00  0.00     0.198 A 
ATOM     78  F   UNL A   1      41.943  35.565  37.447  1.00  0.00    -0.203 F 
ATOM     79  F   UNL A   1      39.211  34.050  41.922  1.00  0.00    -0.200 F 
ATOM     80  C   UNL A   1      40.666  35.559  40.836  1.00  0.00     0.200 A 
ATOM     81  F   UNL A   1      42.107  37.048  39.703  1.00  0.00    -0.200 F 
ATOM     82  F   UNL A   1      40.733  36.313  41.942  1.00  0.00    -0.200 F 
ENDBRANCH  58  72
BRANCH  59  83
ATOM     83  C   UNL A   1      40.098  28.729  30.028  1.00  0.00     0.064 A 
ATOM     84  C   UNL A   1      39.472  27.477  29.954  1.00  0.00     0.173 A 
ATOM     85  C   UNL A   1      40.704  29.224  28.863  1.00  0.00     0.173 A 
ATOM     86  F   UNL A   1      38.896  26.952  31.046  1.00  0.00    -0.203 F 
ATOM     87  C   UNL A   1      39.474  26.738  28.773  1.00  0.00     0.198 A 
ATOM     88  C   UNL A   1      40.680  28.497  27.675  1.00  0.00     0.198 A 
ATOM     89  F   UNL A   1      41.312  30.419  28.878  1.00  0.00    -0.203 F 
ATOM     90  F   UNL A   1      38.913  25.521  28.746  1.00  0.00    -0.200 F 
ATOM     91  C   UNL A   1      40.075  27.251  27.633  1.00  0.00     0.200 A 
ATOM     92  F   UNL A   1      41.250  29.002  26.572  1.00  0.00    -0.200 F 
ATOM     93  F   UNL A   1      40.077  26.539  26.498  1.00  0.00    -0.200 F 
ENDBRANCH  59  83
BRANCH  71  94
ATOM     94  C   UNL A   1      44.379  28.683  35.520  1.00  0.00     0.064 A 
ATOM     95  C   UNL A   1      44.277  27.473  36.223  1.00  0.00     0.173 A 
ATOM     96  C   UNL A   1      45.652  29.095  35.100  1.00  0.00     0.173 A 
ATOM     97  F   UNL A   1      43.083  27.043  36.659  1.00  0.00    -0.203 F 
ATOM     98  C   UNL A   1      45.411  26.722  36.519  1.00  0.00     0.198 A 
ATOM     99  C   UNL A   1      46.780  28.325  35.371  1.00  0.00     0.198 A 
ATOM    100  F   UNL A   1      45.802  30.240  34.418  1.00  0.00    -0.203 F 
ATOM    101  F   UNL A   1      45.297  25.596  37.237  1.00  0.00    -0.200 F 
ATOM    102  C   UNL A   1      46.659  27.144  36.087  1.00  0.00     0.200 A 
ATOM    103  F   UNL A   1      47.983  28.727  34.940  1.00  0.00    -0.200 F 
ATOM    104  F   UNL A   1      47.748  26.416  36.369  1.00  0.00    -0.200 F 
ENDBRANCH  71  94
ENDBRANCH  45  46
ENDBRANCH  37  40
ENDBRANCH  35  36
ENDBRANCH  34  35
ENDBRANCH  33  34
ENDBRANCH   1  33
TORSDOF 16
ENDMDL
MODEL 2
REMARK VINA RESULT:     -13.1      4.469      7.397
REMARK SMILES COc1ccc([C@H](NC(=O)[C@H]2CC(C)=C(C)C[C@@H]2C(=O)NCCCCNC(=O)c2ccc(-c3c4nc(c(-c5c(F)c(F)c(F)c(F)c5F)c5ccc([nH]5)c(-c5c(F)c(F)c(F)c(F)c5F)c5nc(c(-c6c(F)c(F)c(F)c(F)c6F)c6ccc3[nH]6)C=C5)C=C4)cc2)c2ccccc2)cc1
REMARK SMILES IDX 22 1 21 2 19 3 20 4 18 6 11 7 12 8 13 9 17 10 14 11 15 12
REMARK SMILES IDX 16 13 9 14 8 15 10 17 7 18 6 19 3 20 4 21 99 22 5 23 98 24
REMARK SMILES IDX 2 25 1 26 92 27 93 28 97 29 94 30 96 31 95 32 23 33 24 34
REMARK SMILES IDX 25 35 26 36 27 37 28 39 29 40 30 41 91 42 31 43 90 44 32 45
REMARK SMILES IDX 33 46 34 47 84 48 35 49 89 50 83 51 85 52 36 53 88 54 82 55
REMARK SMILES IDX 81 56 37 58 69 59 49 60 68 61 50 62 53 63 67 64 86 65 51 66
REMARK SMILES IDX 52 67 66 69 87 70 54 71 38 72 39 73 47 74 40 75 41 76 45 77
REMARK SMILES IDX 48 78 42 79 43 80 46 81 44 82 70 83 71 84 79 85 72 86 73 87
REMARK SMILES IDX 77 88 80 89 74 90 75 91 78 92 76 93 55 94 56 95 64 96 57 97
REMARK SMILES IDX 58 98 62 99 65 100 59 101 60 102 63 103 61 104
REMARK H PARENT 21 5 8 16 26 38 85 57 53 68
REMARK Flexibility Score: inf
ROOT
ATOM      1  C   UNL A   1      33.636  28.725  23.270  1.00  0.00     0.116 C 
ENDROOT
BRANCH   1   2
ATOM      2  N   UNL A   1      32.401  28.310  22.635  1.00  0.00    -0.356 N 
ATOM      3  C   UNL A   1      31.893  27.059  22.448  1.00  0.00     0.224 C 
ATOM      4  O   UNL A   1      31.001  26.944  21.605  1.00  0.00    -0.275 OA
ATOM      5  H   UNL A   1      31.843  29.042  22.287  1.00  0.00     0.163 HD
BRANCH   3   6
ATOM      6  C   UNL A   1      32.402  25.881  23.288  1.00  0.00     0.095 C 
ATOM      7  C   UNL A   1      32.012  24.520  22.677  1.00  0.00     0.095 C 
ATOM      8  C   UNL A   1      30.992  23.686  23.445  1.00  0.00     0.045 C 
ATOM      9  C   UNL A   1      31.025  23.815  24.944  1.00  0.00    -0.074 C 
ATOM     10  C   UNL A   1      31.972  26.112  24.751  1.00  0.00     0.045 C 
ATOM     11  C   UNL A   1      30.416  22.648  25.679  1.00  0.00     0.039 C 
ATOM     12  C   UNL A   1      31.505  24.920  25.542  1.00  0.00    -0.074 C 
ATOM     13  C   UNL A   1      31.522  25.110  27.037  1.00  0.00     0.039 C 
BRANCH   7  14
ATOM     14  C   UNL A   1      33.243  23.737  22.203  1.00  0.00     0.224 C 
ATOM     15  N   UNL A   1      34.238  23.221  22.947  1.00  0.00    -0.345 N 
ATOM     16  H   UNL A   1      35.056  23.085  22.416  1.00  0.00     0.164 HD
ATOM     17  O   UNL A   1      33.435  23.614  20.984  1.00  0.00    -0.275 OA
BRANCH  15  18
ATOM     18  C   UNL A   1      34.421  22.811  24.342  1.00  0.00     0.143 C 
BRANCH  18  19
ATOM     19  C   UNL A   1      33.653  21.498  24.617  1.00  0.00    -0.021 A 
ATOM     20  C   UNL A   1      32.620  18.924  25.165  1.00  0.00     0.118 A 
ATOM     21  C   UNL A   1      33.075  19.729  26.205  1.00  0.00     0.047 A 
ATOM     22  C   UNL A   1      32.569  19.437  23.873  1.00  0.00     0.047 A 
ATOM     23  C   UNL A   1      33.565  21.012  25.937  1.00  0.00     0.010 A 
ATOM     24  C   UNL A   1      33.108  20.698  23.597  1.00  0.00     0.010 A 
BRANCH  20  25
ATOM     25  O   UNL A   1      32.237  17.652  25.494  1.00  0.00    -0.497 OA
ATOM     26  C   UNL A   1      33.313  16.713  25.461  1.00  0.00     0.278 C 
ENDBRANCH  20  25
ENDBRANCH  18  19
BRANCH  18  27
ATOM     27  C   UNL A   1      35.890  22.733  24.783  1.00  0.00    -0.021 A 
ATOM     28  C   UNL A   1      36.629  21.541  24.632  1.00  0.00     0.006 A 
ATOM     29  C   UNL A   1      36.535  23.790  25.442  1.00  0.00     0.006 A 
ATOM     30  C   UNL A   1      37.917  21.397  25.156  1.00  0.00     0.000 A 
ATOM     31  C   UNL A   1      37.804  23.635  26.010  1.00  0.00     0.000 A 
ATOM     32  C   UNL A   1      38.493  22.435  25.874  1.00  0.00     0.000 A 
ENDBRANCH  18  27
ENDBRANCH  15  18
ENDBRANCH   7  14
ENDBRANCH   3   6
ENDBRANCH   1   2
BRANCH   1  33
ATOM     33  C   UNL A   1      33.360  29.211  24.694  1.00  0.00     0.023 C 
BRANCH  33  34
ATOM     34  C   UNL A   1      34.142  28.476  25.782  1.00  0.00     0.023 C 
BRANCH  34  35
ATOM     35  C   UNL A   1      33.615  28.680  27.193  1.00  0.00     0.116 C 
BRANCH  35  36
ATOM     36  N   UNL A   1      33.550  30.081  27.575  1.00  0.00    -0.352 N 
ATOM     37  C   UNL A   1      34.498  30.836  28.218  1.00  0.00     0.251 C 
ATOM     38  H   UNL A   1      32.716  30.550  27.343  1.00  0.00     0.163 HD
ATOM     39  O   UNL A   1      34.245  31.977  28.591  1.00  0.00    -0.269 OA
BRANCH  37  40
ATOM     40  C   UNL A   1      35.824  30.245  28.492  1.00  0.00     0.039 A 
ATOM     41  C   UNL A   1      36.816  30.340  27.513  1.00  0.00     0.014 A 
ATOM     42  C   UNL A   1      36.097  29.639  29.721  1.00  0.00     0.014 A 
ATOM     43  C   UNL A   1      38.103  29.880  27.793  1.00  0.00     0.010 A 
ATOM     44  C   UNL A   1      37.397  29.248  30.024  1.00  0.00     0.010 A 
ATOM     45  C   UNL A   1      38.412  29.364  29.063  1.00  0.00    -0.014 A 
BRANCH  45  46
ATOM     46  C   UNL A   1      39.795  28.947  29.400  1.00  0.00     0.031 A 
ATOM     47  C   UNL A   1      40.674  29.840  30.228  1.00  0.00     0.074 A 
ATOM     48  C   UNL A   1      40.277  27.788  28.908  1.00  0.00     0.049 A 
ATOM     49  N   UNL A   1      41.921  29.672  30.590  1.00  0.00    -0.248 NA
ATOM     50  C   UNL A   1      40.083  31.107  30.689  1.00  0.00     0.031 C 
ATOM     51  C   UNL A   1      39.540  26.864  28.045  1.00  0.00     0.029 A 
ATOM     52  N   UNL A   1      41.505  27.194  29.058  1.00  0.00    -0.354 N 
ATOM     53  C   UNL A   1      42.264  30.809  31.307  1.00  0.00     0.074 A 
ATOM     54  C   UNL A   1      41.114  31.687  31.285  1.00  0.00     0.031 C 
ATOM     55  C   UNL A   1      40.322  25.810  27.761  1.00  0.00     0.029 A 
ATOM     56  C   UNL A   1      41.623  25.998  28.393  1.00  0.00     0.049 A 
ATOM     57  H   UNL A   1      42.233  27.588  29.592  1.00  0.00     0.167 HD
ATOM     58  C   UNL A   1      43.426  31.085  31.947  1.00  0.00     0.037 A 
ATOM     59  C   UNL A   1      42.667  25.151  28.302  1.00  0.00     0.037 A 
ATOM     60  C   UNL A   1      44.557  30.196  31.989  1.00  0.00     0.049 A 
ATOM     61  C   UNL A   1      43.942  25.479  29.031  1.00  0.00     0.074 A 
ATOM     62  C   UNL A   1      45.752  30.354  32.666  1.00  0.00     0.029 A 
ATOM     63  N   UNL A   1      44.631  28.982  31.323  1.00  0.00    -0.354 N 
ATOM     64  N   UNL A   1      44.226  26.522  29.774  1.00  0.00    -0.248 NA
ATOM     65  C   UNL A   1      45.038  24.508  28.915  1.00  0.00     0.031 C 
ATOM     66  C   UNL A   1      46.569  29.257  32.374  1.00  0.00     0.029 A 
ATOM     67  C   UNL A   1      45.862  28.390  31.555  1.00  0.00     0.049 A 
ATOM     68  H   UNL A   1      43.915  28.597  30.767  1.00  0.00     0.167 HD
ATOM     69  C   UNL A   1      45.520  26.320  30.234  1.00  0.00     0.074 A 
ATOM     70  C   UNL A   1      45.958  25.046  29.703  1.00  0.00     0.031 C 
ATOM     71  C   UNL A   1      46.279  27.119  31.024  1.00  0.00     0.037 A 
BRANCH  58  72
ATOM     72  C   UNL A   1      43.530  32.400  32.663  1.00  0.00     0.064 A 
ATOM     73  C   UNL A   1      44.012  33.550  32.020  1.00  0.00     0.173 A 
ATOM     74  C   UNL A   1      43.098  32.524  33.992  1.00  0.00     0.173 A 
ATOM     75  F   UNL A   1      44.449  33.484  30.753  1.00  0.00    -0.203 F 
ATOM     76  C   UNL A   1      44.081  34.770  32.690  1.00  0.00     0.198 A 
ATOM     77  C   UNL A   1      43.140  33.751  34.649  1.00  0.00     0.198 A 
ATOM     78  F   UNL A   1      42.623  31.456  34.651  1.00  0.00    -0.203 F 
ATOM     79  F   UNL A   1      44.587  35.845  32.069  1.00  0.00    -0.200 F 
ATOM     80  C   UNL A   1      43.637  34.871  33.999  1.00  0.00     0.200 A 
ATOM     81  F   UNL A   1      42.699  33.850  35.910  1.00  0.00    -0.200 F 
ATOM     82  F   UNL A   1      43.693  36.048  34.638  1.00  0.00    -0.200 F 
ENDBRANCH  58  72
BRANCH  59  83
ATOM     83  C   UNL A   1      42.543  23.899  27.511  1.00  0.00     0.064 A 
ATOM     84  C   UNL A   1      42.036  22.728  28.090  1.00  0.00     0.173 A 
ATOM     85  C   UNL A   1      42.944  23.841  26.168  1.00  0.00     0.173 A 
ATOM     86  F   UNL A   1      41.659  22.727  29.377  1.00  0.00    -0.203 F 
ATOM     87  C   UNL A   1      41.957  21.541  27.365  1.00  0.00     0.198 A 
ATOM     88  C   UNL A   1      42.837  22.662  25.436  1.00  0.00     0.198 A 
ATOM     89  F   UNL A   1      43.432  24.935  25.565  1.00  0.00    -0.203 F 
ATOM     90  F   UNL A   1      41.516  20.423  27.960  1.00  0.00    -0.200 F 
ATOM     91  C   UNL A   1      42.354  21.510  26.037  1.00  0.00     0.200 A 
ATOM     92  F   UNL A   1      43.209  22.639  24.148  1.00  0.00    -0.200 F 
ATOM     93  F   UNL A   1      42.278  20.368  25.341  1.00  0.00    -0.200 F 
ENDBRANCH  59  83
BRANCH  71  94
ATOM     94  C   UNL A   1      47.649  26.622  31.386  1.00  0.00     0.064 A 
ATOM     95  C   UNL A   1      48.773  26.931  30.605  1.00  0.00     0.173 A 
ATOM     96  C   UNL A   1      47.842  25.857  32.545  1.00  0.00     0.173 A 
ATOM     97  F   UNL A   1      48.638  27.648  29.480  1.00  0.00    -0.203 F 
ATOM     98  C   UNL A   1      50.037  26.464  30.958  1.00  0.00     0.198 A 
ATOM     99  C   UNL A   1      49.113  25.419  32.911  1.00  0.00     0.198 A 
ATOM    100  F   UNL A   1      46.801  25.541  33.329  1.00  0.00    -0.203 F 
ATOM    101  F   UNL A   1      51.089  26.727  30.170  1.00  0.00    -0.200 F 
ATOM    102  C   UNL A   1      50.206  25.716  32.113  1.00  0.00     0.200 A 
ATOM    103  F   UNL A   1      49.277  24.708  34.035  1.00  0.00    -0.200 F 
ATOM    104  F   UNL A   1      51.425  25.273  32.453  1.00  0.00    -0.200 F 
ENDBRANCH  71  94
ENDBRANCH  45  46
ENDBRANCH  37  40
ENDBRANCH  35  36
ENDBRANCH  34  35
ENDBRANCH  33  34
ENDBRANCH   1  33
TORSDOF 16
ENDMDL
MODEL 3
REMARK VINA RESULT:     -13.0      3.541      6.073
REMARK SMILES COc1ccc([C@H](NC(=O)[C@H]2CC(C)=C(C)C[C@@H]2C(=O)NCCCCNC(=O)c2ccc(-c3c4nc(c(-c5c(F)c(F)c(F)c(F)c5F)c5ccc([nH]5)c(-c5c(F)c(F)c(F)c(F)c5F)c5nc(c(-c6c(F)c(F)c(F)c(F)c6F)c6ccc3[nH]6)C=C5)C=C4)cc2)c2ccccc2)cc1
REMARK SMILES IDX 22 1 21 2 19 3 20 4 18 6 11 7 12 8 13 9 17 10 14 11 15 12
REMARK SMILES IDX 16 13 9 14 8 15 10 17 7 18 6 19 3 20 4 21 99 22 5 23 98 24
REMARK SMILES IDX 2 25 1 26 92 27 93 28 97 29 94 30 96 31 95 32 23 33 24 34
REMARK SMILES IDX 25 35 26 36 27 37 28 39 29 40 30 41 91 42 31 43 90 44 32 45
REMARK SMILES IDX 33 46 34 47 84 48 35 49 89 50 83 51 85 52 36 53 88 54 82 55
REMARK SMILES IDX 81 56 37 58 69 59 49 60 68 61 50 62 53 63 67 64 86 65 51 66
REMARK SMILES IDX 52 67 66 69 87 70 54 71 38 72 39 73 47 74 40 75 41 76 45 77
REMARK SMILES IDX 48 78 42 79 43 80 46 81 44 82 70 83 71 84 79 85 72 86 73 87
REMARK SMILES IDX 77 88 80 89 74 90 75 91 78 92 76 93 55 94 56 95 64 96 57 97
REMARK SMILES IDX 58 98 62 99 65 100 59 101 60 102 63 103 61 104
REMARK H PARENT 21 5 8 16 26 38 85 57 53 68
REMARK Flexibility Score: inf
ROOT
ATOM      1  C   UNL A   1      33.959  28.531  22.758  1.00  0.00     0.116 C 
ENDROOT
BRANCH   1   2
ATOM      2  N   UNL A   1      32.602  28.230  22.349  1.00  0.00    -0.356 N 
ATOM      3  C   UNL A   1      31.933  27.043  22.349  1.00  0.00     0.224 C 
ATOM      4  O   UNL A   1      30.914  26.981  21.659  1.00  0.00    -0.275 OA
ATOM      5  H   UNL A   1      32.083  29.001  22.023  1.00  0.00     0.163 HD
BRANCH   3   6
ATOM      6  C   UNL A   1      32.430  25.873  23.207  1.00  0.00     0.095 C 
ATOM      7  C   UNL A   1      32.014  24.507  22.624  1.00  0.00     0.095 C 
ATOM      8  C   UNL A   1      30.986  23.704  23.416  1.00  0.00     0.045 C 
ATOM      9  C   UNL A   1      31.034  23.860  24.912  1.00  0.00    -0.074 C 
ATOM     10  C   UNL A   1      32.016  26.137  24.669  1.00  0.00     0.045 C 
ATOM     11  C   UNL A   1      30.413  22.717  25.673  1.00  0.00     0.039 C 
ATOM     12  C   UNL A   1      31.538  24.968  25.485  1.00  0.00    -0.074 C 
ATOM     13  C   UNL A   1      31.570  25.185  26.977  1.00  0.00     0.039 C 
BRANCH   7  14
ATOM     14  C   UNL A   1      33.228  23.695  22.155  1.00  0.00     0.224 C 
ATOM     15  N   UNL A   1      34.206  23.156  22.902  1.00  0.00    -0.345 N 
ATOM     16  H   UNL A   1      35.023  23.000  22.375  1.00  0.00     0.164 HD
ATOM     17  O   UNL A   1      33.422  23.569  20.936  1.00  0.00    -0.275 OA
BRANCH  15  18
ATOM     18  C   UNL A   1      34.374  22.740  24.298  1.00  0.00     0.143 C 
BRANCH  18  19
ATOM     19  C   UNL A   1      33.610  21.422  24.557  1.00  0.00    -0.021 A 
ATOM     20  C   UNL A   1      32.584  18.838  25.068  1.00  0.00     0.118 A 
ATOM     21  C   UNL A   1      33.053  19.622  26.117  1.00  0.00     0.047 A 
ATOM     22  C   UNL A   1      32.515  19.376  23.787  1.00  0.00     0.047 A 
ATOM     23  C   UNL A   1      33.540  20.909  25.868  1.00  0.00     0.010 A 
ATOM     24  C   UNL A   1      33.050  20.643  23.529  1.00  0.00     0.010 A 
BRANCH  20  25
ATOM     25  O   UNL A   1      32.205  17.559  25.376  1.00  0.00    -0.497 OA
ATOM     26  C   UNL A   1      33.304  16.649  25.458  1.00  0.00     0.278 C 
ENDBRANCH  20  25
ENDBRANCH  18  19
BRANCH  18  27
ATOM     27  C   UNL A   1      35.838  22.668  24.758  1.00  0.00    -0.021 A 
ATOM     28  C   UNL A   1      36.594  21.490  24.583  1.00  0.00     0.006 A 
ATOM     29  C   UNL A   1      36.460  23.714  25.455  1.00  0.00     0.006 A 
ATOM     30  C   UNL A   1      37.876  21.347  25.121  1.00  0.00     0.000 A 
ATOM     31  C   UNL A   1      37.723  23.559  26.037  1.00  0.00     0.000 A 
ATOM     32  C   UNL A   1      38.429  22.372  25.876  1.00  0.00     0.000 A 
ENDBRANCH  18  27
ENDBRANCH  15  18
ENDBRANCH   7  14
ENDBRANCH   3   6
ENDBRANCH   1   2
BRANCH   1  33
ATOM     33  C   UNL A   1      33.988  28.947  24.231  1.00  0.00     0.023 C 
BRANCH  33  34
ATOM     34  C   UNL A   1      32.693  29.581  24.739  1.00  0.00     0.023 C 
BRANCH  34  35
ATOM     35  C   UNL A   1      32.671  29.873  26.231  1.00  0.00     0.116 C 
BRANCH  35  36
ATOM     36  N   UNL A   1      32.510  31.287  26.527  1.00  0.00    -0.352 N 
ATOM     37  C   UNL A   1      33.299  32.092  27.309  1.00  0.00     0.251 C 
ATOM     38  H   UNL A   1      31.731  31.725  26.112  1.00  0.00     0.163 HD
ATOM     39  O   UNL A   1      32.959  33.242  27.571  1.00  0.00    -0.269 OA
BRANCH  37  40
ATOM     40  C   UNL A   1      34.554  31.547  27.866  1.00  0.00     0.039 A 
ATOM     41  C   UNL A   1      35.643  32.405  28.032  1.00  0.00     0.014 A 
ATOM     42  C   UNL A   1      34.639  30.208  28.259  1.00  0.00     0.014 A 
ATOM     43  C   UNL A   1      36.801  31.933  28.651  1.00  0.00     0.010 A 
ATOM     44  C   UNL A   1      35.765  29.760  28.942  1.00  0.00     0.010 A 
ATOM     45  C   UNL A   1      36.857  30.617  29.143  1.00  0.00    -0.014 A 
BRANCH  45  46
ATOM     46  C   UNL A   1      38.051  30.128  29.876  1.00  0.00     0.031 A 
ATOM     47  C   UNL A   1      38.328  30.604  31.274  1.00  0.00     0.074 A 
ATOM     48  C   UNL A   1      38.916  29.302  29.257  1.00  0.00     0.049 A 
ATOM     49  N   UNL A   1      39.338  30.325  32.058  1.00  0.00    -0.248 NA
ATOM     50  C   UNL A   1      37.354  31.539  31.860  1.00  0.00     0.031 C 
ATOM     51  C   UNL A   1      38.786  28.817  27.881  1.00  0.00     0.029 A 
ATOM     52  N   UNL A   1      40.081  28.728  29.701  1.00  0.00    -0.354 N 
ATOM     53  C   UNL A   1      39.128  31.056  33.219  1.00  0.00     0.074 A 
ATOM     54  C   UNL A   1      37.924  31.832  33.019  1.00  0.00     0.031 C 
ATOM     55  C   UNL A   1      39.817  28.003  27.603  1.00  0.00     0.029 A 
ATOM     56  C   UNL A   1      40.696  27.933  28.765  1.00  0.00     0.049 A 
ATOM     57  H   UNL A   1      40.442  28.873  30.606  1.00  0.00     0.167 HD
ATOM     58  C   UNL A   1      39.860  31.059  34.358  1.00  0.00     0.037 A 
ATOM     59  C   UNL A   1      41.843  27.230  28.838  1.00  0.00     0.037 A 
ATOM     60  C   UNL A   1      41.042  30.263  34.563  1.00  0.00     0.049 A 
ATOM     61  C   UNL A   1      42.631  27.246  30.119  1.00  0.00     0.074 A 
ATOM     62  C   UNL A   1      41.815  30.144  35.704  1.00  0.00     0.029 A 
ATOM     63  N   UNL A   1      41.622  29.451  33.600  1.00  0.00    -0.354 N 
ATOM     64  N   UNL A   1      42.378  27.878  31.240  1.00  0.00    -0.248 NA
ATOM     65  C   UNL A   1      43.861  26.442  30.148  1.00  0.00     0.031 C 
ATOM     66  C   UNL A   1      42.890  29.297  35.418  1.00  0.00     0.029 A 
ATOM     67  C   UNL A   1      42.757  28.845  34.114  1.00  0.00     0.049 A 
ATOM     68  H   UNL A   1      41.279  29.324  32.686  1.00  0.00     0.167 HD
ATOM     69  C   UNL A   1      43.399  27.529  32.114  1.00  0.00     0.074 A 
ATOM     70  C   UNL A   1      44.265  26.613  31.400  1.00  0.00     0.031 C 
ATOM     71  C   UNL A   1      43.603  27.932  33.391  1.00  0.00     0.037 A 
BRANCH  58  72
ATOM     72  C   UNL A   1      39.400  31.945  35.479  1.00  0.00     0.064 A 
ATOM     73  C   UNL A   1      38.527  31.478  36.474  1.00  0.00     0.173 A 
ATOM     74  C   UNL A   1      39.873  33.261  35.588  1.00  0.00     0.173 A 
ATOM     75  F   UNL A   1      38.037  30.230  36.411  1.00  0.00    -0.203 F 
ATOM     76  C   UNL A   1      38.127  32.303  37.522  1.00  0.00     0.198 A 
ATOM     77  C   UNL A   1      39.494  34.074  36.653  1.00  0.00     0.198 A 
ATOM     78  F   UNL A   1      40.712  33.757  34.666  1.00  0.00    -0.203 F 
ATOM     79  F   UNL A   1      37.258  31.849  38.436  1.00  0.00    -0.200 F 
ATOM     80  C   UNL A   1      38.617  33.596  37.615  1.00  0.00     0.200 A 
ATOM     81  F   UNL A   1      39.978  35.320  36.748  1.00  0.00    -0.200 F 
ATOM     82  F   UNL A   1      38.239  34.386  38.631  1.00  0.00    -0.200 F 
ENDBRANCH  58  72
BRANCH  59  83
ATOM     83  C   UNL A   1      42.302  26.433  27.672  1.00  0.00     0.064 A 
ATOM     84  C   UNL A   1      41.799  25.146  27.435  1.00  0.00     0.173 A 
ATOM     85  C   UNL A   1      43.265  26.930  26.780  1.00  0.00     0.173 A 
ATOM     86  F   UNL A   1      40.893  24.618  28.270  1.00  0.00    -0.203 F 
ATOM     87  C   UNL A   1      42.257  24.378  26.366  1.00  0.00     0.198 A 
ATOM     88  C   UNL A   1      43.701  26.173  25.696  1.00  0.00     0.198 A 
ATOM     89  F   UNL A   1      43.775  28.158  26.958  1.00  0.00    -0.203 F 
ATOM     90  F   UNL A   1      41.796  23.131  26.194  1.00  0.00    -0.200 F 
ATOM     91  C   UNL A   1      43.205  24.894  25.495  1.00  0.00     0.200 A 
ATOM     92  F   UNL A   1      44.607  26.680  24.847  1.00  0.00    -0.200 F 
ATOM     93  F   UNL A   1      43.646  24.154  24.469  1.00  0.00    -0.200 F 
ENDBRANCH  59  83
BRANCH  71  94
ATOM     94  C   UNL A   1      44.792  27.360  34.109  1.00  0.00     0.064 A 
ATOM     95  C   UNL A   1      44.715  26.148  34.812  1.00  0.00     0.173 A 
ATOM     96  C   UNL A   1      46.031  28.017  34.063  1.00  0.00     0.173 A 
ATOM     97  F   UNL A   1      43.549  25.490  34.896  1.00  0.00    -0.203 F 
ATOM     98  C   UNL A   1      45.829  25.631  35.468  1.00  0.00     0.198 A 
ATOM     99  C   UNL A   1      47.150  27.480  34.695  1.00  0.00     0.198 A 
ATOM    100  F   UNL A   1      46.160  29.175  33.398  1.00  0.00    -0.203 F 
ATOM    101  F   UNL A   1      45.719  24.499  36.177  1.00  0.00    -0.200 F 
ATOM    102  C   UNL A   1      47.045  26.293  35.404  1.00  0.00     0.200 A 
ATOM    103  F   UNL A   1      48.328  28.114  34.620  1.00  0.00    -0.200 F 
ATOM    104  F   UNL A   1      48.117  25.791  36.032  1.00  0.00    -0.200 F 
ENDBRANCH  71  94
ENDBRANCH  45  46
ENDBRANCH  37  40
ENDBRANCH  35  36
ENDBRANCH  34  35
ENDBRANCH  33  34
ENDBRANCH   1  33
TORSDOF 16
ENDMDL
