MODEL 1
REMARK VINA RESULT:     -12.8      0.000      0.000
REMARK SMILES O=C(CNC(=O)N1CC(NCCCCNC(=O)c2ccc(-c3c4nc(c(-c5c(F)c(F)c(F)c(F)c5F)c5ccc([nH]5)c(-c5c(F)c(F)c(F)c(F)c5F)c5nc(c(-c6c(F)c(F)c(F)c(F)c6F)c6ccc3[nH]6)C=C5)C=C4)cc2)=[NH+]c2ccccc21)N[C@H](C(=O)[O-])c1ccccc1
REMARK SMILES IDX 11 1 10 2 7 3 8 4 87 5 9 6 82 7 86 8 81 9 83 10 85 11 84 14
REMARK SMILES IDX 5 15 4 16 6 18 3 19 2 20 1 21 88 22 89 24 93 25 94 26 98 27
REMARK SMILES IDX 95 28 97 29 96 30 90 31 91 32 92 33 12 34 13 35 14 36 15 37
REMARK SMILES IDX 16 38 17 40 18 41 19 42 80 43 20 44 79 45 21 46 22 47 23 48
REMARK SMILES IDX 73 49 24 50 78 51 72 52 74 53 25 54 77 55 71 56 70 57 26 59
REMARK SMILES IDX 58 60 38 61 57 62 39 63 42 64 56 65 75 66 40 67 41 68 55 70
REMARK SMILES IDX 76 71 43 72 27 73 28 74 36 75 29 76 30 77 34 78 37 79 31 80
REMARK SMILES IDX 32 81 35 82 33 83 59 84 60 85 68 86 61 87 62 88 66 89 69 90
REMARK SMILES IDX 63 91 64 92 67 93 65 94 44 95 45 96 53 97 46 98 47 99 51 100
REMARK SMILES IDX 54 101 48 102 49 103 52 104 50 105
REMARK H PARENT 10 12 81 13 4 17 88 23 15 39 74 58 42 69
REMARK Flexibility Score: inf
ROOT
ATOM      1  C   UNL A   1      36.456  21.744  25.664  1.00  0.00     0.233 C 
ENDROOT
BRANCH   1   2
ATOM      2  N   UNL A   1      36.088  23.093  25.309  1.00  0.00    -0.277 N 
ATOM      3  N   UNL A   1      32.759  23.767  26.663  1.00  0.00    -0.278 N 
ATOM      4  C   UNL A   1      34.114  23.301  26.882  1.00  0.00     0.255 C 
ATOM      5  C   UNL A   1      32.658  25.151  26.386  1.00  0.00     0.093 A 
ATOM      6  C   UNL A   1      35.016  23.822  25.757  1.00  0.00     0.268 C 
ATOM      7  C   UNL A   1      33.709  25.739  25.654  1.00  0.00     0.148 A 
ATOM      8  C   UNL A   1      31.550  25.912  26.780  1.00  0.00     0.031 A 
ATOM      9  N   UNL A   1      34.831  24.999  25.219  1.00  0.00    -0.241 N 
ATOM     10  C   UNL A   1      33.582  27.068  25.246  1.00  0.00     0.054 A 
ATOM     11  C   UNL A   1      31.459  27.249  26.396  1.00  0.00     0.002 A 
ATOM     12  H   UNL A   1      36.679  23.546  24.664  1.00  0.00     0.304 HD
ATOM     13  H   UNL A   1      35.447  25.355  24.539  1.00  0.00     0.312 HD
ATOM     14  C   UNL A   1      32.463  27.821  25.612  1.00  0.00     0.005 A 
BRANCH   3  15
ATOM     15  C   UNL A   1      31.744  22.849  26.728  1.00  0.00     0.323 C 
ATOM     16  N   UNL A   1      31.533  21.993  25.695  1.00  0.00    -0.329 N 
ATOM     17  H   UNL A   1      30.697  21.476  25.753  1.00  0.00     0.165 HD
ATOM     18  O   UNL A   1      31.074  22.691  27.752  1.00  0.00    -0.248 OA
BRANCH  16  19
ATOM     19  C   UNL A   1      32.344  21.715  24.513  1.00  0.00     0.218 C 
BRANCH  19  20
ATOM     20  C   UNL A   1      32.103  22.546  23.254  1.00  0.00     0.240 C 
ATOM     21  O   UNL A   1      32.162  22.003  22.150  1.00  0.00    -0.273 OA
ATOM     22  N   UNL A   1      31.689  23.846  23.438  1.00  0.00    -0.342 N 
ATOM     23  H   UNL A   1      31.425  24.169  24.330  1.00  0.00     0.164 HD
BRANCH  22  24
ATOM     24  C   UNL A   1      31.652  24.746  22.265  1.00  0.00     0.158 C 
BRANCH  24  25
ATOM     25  C   UNL A   1      30.932  26.055  22.602  1.00  0.00    -0.020 A 
ATOM     26  C   UNL A   1      31.381  27.303  22.138  1.00  0.00     0.006 A 
ATOM     27  C   UNL A   1      29.761  26.036  23.375  1.00  0.00     0.006 A 
ATOM     28  C   UNL A   1      30.700  28.486  22.439  1.00  0.00     0.000 A 
ATOM     29  C   UNL A   1      29.088  27.225  23.686  1.00  0.00     0.000 A 
ATOM     30  C   UNL A   1      29.556  28.449  23.222  1.00  0.00     0.000 A 
ENDBRANCH  24  25
BRANCH  24  31
ATOM     31  C   UNL A   1      33.085  25.005  21.655  1.00  0.00     0.068 C 
ATOM     32  O   UNL A   1      34.033  25.101  22.490  1.00  0.00    -0.548 OA
ATOM     33  O   UNL A   1      33.135  25.035  20.383  1.00  0.00    -0.548 OA
ENDBRANCH  24  31
ENDBRANCH  22  24
ENDBRANCH  19  20
ENDBRANCH  16  19
ENDBRANCH   3  15
ENDBRANCH   1   2
BRANCH   1  34
ATOM     34  C   UNL A   1      37.220  21.079  24.523  1.00  0.00     0.048 C 
BRANCH  34  35
ATOM     35  C   UNL A   1      38.026  19.855  24.960  1.00  0.00     0.025 C 
BRANCH  35  36
ATOM     36  C   UNL A   1      39.161  20.140  25.931  1.00  0.00     0.116 C 
BRANCH  36  37
ATOM     37  N   UNL A   1      40.212  19.130  25.913  1.00  0.00    -0.352 N 
ATOM     38  C   UNL A   1      41.571  19.260  26.063  1.00  0.00     0.251 C 
ATOM     39  H   UNL A   1      39.897  18.208  25.770  1.00  0.00     0.163 HD
ATOM     40  O   UNL A   1      42.298  18.280  25.915  1.00  0.00    -0.269 OA
BRANCH  38  41
ATOM     41  C   UNL A   1      42.174  20.576  26.369  1.00  0.00     0.039 A 
ATOM     42  C   UNL A   1      42.556  21.405  25.310  1.00  0.00     0.014 A 
ATOM     43  C   UNL A   1      42.363  21.001  27.685  1.00  0.00     0.014 A 
ATOM     44  C   UNL A   1      43.056  22.683  25.573  1.00  0.00     0.010 A 
ATOM     45  C   UNL A   1      42.751  22.311  27.943  1.00  0.00     0.010 A 
ATOM     46  C   UNL A   1      43.116  23.164  26.891  1.00  0.00    -0.014 A 
BRANCH  46  47
ATOM     47  C   UNL A   1      43.564  24.548  27.190  1.00  0.00     0.031 A 
ATOM     48  C   UNL A   1      42.593  25.558  27.741  1.00  0.00     0.074 A 
ATOM     49  C   UNL A   1      44.831  24.914  26.910  1.00  0.00     0.049 A 
ATOM     50  N   UNL A   1      42.780  26.824  28.023  1.00  0.00    -0.248 NA
ATOM     51  C   UNL A   1      41.217  25.093  27.978  1.00  0.00     0.031 C 
ATOM     52  C   UNL A   1      45.850  24.048  26.316  1.00  0.00     0.029 A 
ATOM     53  N   UNL A   1      45.475  26.113  27.084  1.00  0.00    -0.354 N 
ATOM     54  C   UNL A   1      41.550  27.303  28.451  1.00  0.00     0.074 A 
ATOM     55  C   UNL A   1      40.606  26.213  28.329  1.00  0.00     0.031 C 
ATOM     56  C   UNL A   1      47.000  24.731  26.208  1.00  0.00     0.029 A 
ATOM     57  C   UNL A   1      46.789  26.094  26.683  1.00  0.00     0.049 A 
ATOM     58  H   UNL A   1      45.037  26.911  27.459  1.00  0.00     0.167 HD
ATOM     59  C   UNL A   1      41.240  28.530  28.933  1.00  0.00     0.037 A 
ATOM     60  C   UNL A   1      47.717  27.069  26.696  1.00  0.00     0.037 A 
ATOM     61  C   UNL A   1      42.187  29.606  29.069  1.00  0.00     0.049 A 
ATOM     62  C   UNL A   1      47.345  28.426  27.230  1.00  0.00     0.074 A 
ATOM     63  C   UNL A   1      41.989  30.869  29.597  1.00  0.00     0.029 A 
ATOM     64  N   UNL A   1      43.514  29.544  28.668  1.00  0.00    -0.354 N 
ATOM     65  N   UNL A   1      46.199  28.845  27.708  1.00  0.00    -0.248 NA
ATOM     66  C   UNL A   1      48.405  29.444  27.235  1.00  0.00     0.031 C 
ATOM     67  C   UNL A   1      43.180  31.591  29.464  1.00  0.00     0.029 A 
ATOM     68  C   UNL A   1      44.140  30.756  28.915  1.00  0.00     0.049 A 
ATOM     69  H   UNL A   1      43.947  28.756  28.267  1.00  0.00     0.167 HD
ATOM     70  C   UNL A   1      46.406  30.161  28.100  1.00  0.00     0.074 A 
ATOM     71  C   UNL A   1      47.796  30.463  27.823  1.00  0.00     0.031 C 
ATOM     72  C   UNL A   1      45.527  31.040  28.641  1.00  0.00     0.037 A 
BRANCH  59  73
ATOM     73  C   UNL A   1      39.816  28.772  29.349  1.00  0.00     0.064 A 
ATOM     74  C   UNL A   1      39.377  28.522  30.659  1.00  0.00     0.173 A 
ATOM     75  C   UNL A   1      38.883  29.289  28.437  1.00  0.00     0.173 A 
ATOM     76  F   UNL A   1      40.224  28.018  31.571  1.00  0.00    -0.203 F 
ATOM     77  C   UNL A   1      38.054  28.744  31.030  1.00  0.00     0.198 A 
ATOM     78  C   UNL A   1      37.568  29.545  28.821  1.00  0.00     0.198 A 
ATOM     79  F   UNL A   1      39.246  29.556  27.174  1.00  0.00    -0.203 F 
ATOM     80  F   UNL A   1      37.646  28.443  32.270  1.00  0.00    -0.200 F 
ATOM     81  C   UNL A   1      37.153  29.263  30.113  1.00  0.00     0.200 A 
ATOM     82  F   UNL A   1      36.704  30.064  27.938  1.00  0.00    -0.200 F 
ATOM     83  F   UNL A   1      35.881  29.486  30.473  1.00  0.00    -0.200 F 
ENDBRANCH  59  73
BRANCH  60  84
ATOM     84  C   UNL A   1      49.097  26.790  26.216  1.00  0.00     0.064 A 
ATOM     85  C   UNL A   1      49.461  27.041  24.885  1.00  0.00     0.173 A 
ATOM     86  C   UNL A   1      50.074  26.253  27.067  1.00  0.00     0.173 A 
ATOM     87  F   UNL A   1      48.555  27.530  24.025  1.00  0.00    -0.203 F 
ATOM     88  C   UNL A   1      50.740  26.744  24.418  1.00  0.00     0.198 A 
ATOM     89  C   UNL A   1      51.362  25.987  26.607  1.00  0.00     0.198 A 
ATOM     90  F   UNL A   1      49.777  25.993  28.348  1.00  0.00    -0.203 F 
ATOM     91  F   UNL A   1      51.039  26.939  23.126  1.00  0.00    -0.200 F 
ATOM     92  C   UNL A   1      51.691  26.223  25.281  1.00  0.00     0.200 A 
ATOM     93  F   UNL A   1      52.281  25.489  27.446  1.00  0.00    -0.200 F 
ATOM     94  F   UNL A   1      52.918  25.932  24.828  1.00  0.00    -0.200 F 
ENDBRANCH  60  84
BRANCH  72  95
ATOM     95  C   UNL A   1      46.053  32.398  29.012  1.00  0.00     0.064 A 
ATOM     96  C   UNL A   1      46.614  32.657  30.272  1.00  0.00     0.173 A 
ATOM     97  C   UNL A   1      46.009  33.451  28.086  1.00  0.00     0.173 A 
ATOM     98  F   UNL A   1      46.671  31.690  31.199  1.00  0.00    -0.203 F 
ATOM     99  C   UNL A   1      47.073  33.930  30.603  1.00  0.00     0.198 A 
ATOM    100  C   UNL A   1      46.504  34.712  28.406  1.00  0.00     0.198 A 
ATOM    101  F   UNL A   1      45.493  33.257  26.862  1.00  0.00    -0.203 F 
ATOM    102  F   UNL A   1      47.545  34.171  31.834  1.00  0.00    -0.200 F 
ATOM    103  C   UNL A   1      47.023  34.954  29.668  1.00  0.00     0.200 A 
ATOM    104  F   UNL A   1      46.473  35.694  27.495  1.00  0.00    -0.200 F 
ATOM    105  F   UNL A   1      47.468  36.177  29.987  1.00  0.00    -0.200 F 
ENDBRANCH  72  95
ENDBRANCH  46  47
ENDBRANCH  38  41
ENDBRANCH  36  37
ENDBRANCH  35  36
ENDBRANCH  34  35
ENDBRANCH   1  34
TORSDOF 16
ENDMDL
MODEL 2
REMARK VINA RESULT:     -12.7      0.558      6.935
REMARK SMILES O=C(CNC(=O)N1CC(NCCCCNC(=O)c2ccc(-c3c4nc(c(-c5c(F)c(F)c(F)c(F)c5F)c5ccc([nH]5)c(-c5c(F)c(F)c(F)c(F)c5F)c5nc(c(-c6c(F)c(F)c(F)c(F)c6F)c6ccc3[nH]6)C=C5)C=C4)cc2)=[NH+]c2ccccc21)N[C@H](C(=O)[O-])c1ccccc1
REMARK SMILES IDX 11 1 10 2 7 3 8 4 87 5 9 6 82 7 86 8 81 9 83 10 85 11 84 14
REMARK SMILES IDX 5 15 4 16 6 18 3 19 2 20 1 21 88 22 89 24 93 25 94 26 98 27
REMARK SMILES IDX 95 28 97 29 96 30 90 31 91 32 92 33 12 34 13 35 14 36 15 37
REMARK SMILES IDX 16 38 17 40 18 41 19 42 80 43 20 44 79 45 21 46 22 47 23 48
REMARK SMILES IDX 73 49 24 50 78 51 72 52 74 53 25 54 77 55 71 56 70 57 26 59
REMARK SMILES IDX 58 60 38 61 57 62 39 63 42 64 56 65 75 66 40 67 41 68 55 70
REMARK SMILES IDX 76 71 43 72 27 73 28 74 36 75 29 76 30 77 34 78 37 79 31 80
REMARK SMILES IDX 32 81 35 82 33 83 59 84 60 85 68 86 61 87 62 88 66 89 69 90
REMARK SMILES IDX 63 91 64 92 67 93 65 94 44 95 45 96 53 97 46 98 47 99 51 100
REMARK SMILES IDX 54 101 48 102 49 103 52 104 50 105
REMARK H PARENT 10 12 81 13 4 17 88 23 15 39 74 58 42 69
REMARK Flexibility Score: inf
ROOT
ATOM      1  C   UNL A   1      37.112  21.823  25.749  1.00  0.00     0.233 C 
ENDROOT
BRANCH   1   2
ATOM      2  N   UNL A   1      36.614  23.107  25.320  1.00  0.00    -0.277 N 
ATOM      3  N   UNL A   1      33.279  23.577  26.746  1.00  0.00    -0.278 N 
ATOM      4  C   UNL A   1      34.677  23.249  26.946  1.00  0.00     0.255 C 
ATOM      5  C   UNL A   1      33.046  24.925  26.384  1.00  0.00     0.093 A 
ATOM      6  C   UNL A   1      35.494  23.768  25.758  1.00  0.00     0.268 C 
ATOM      7  C   UNL A   1      34.017  25.552  25.576  1.00  0.00     0.148 A 
ATOM      8  C   UNL A   1      31.886  25.611  26.766  1.00  0.00     0.031 A 
ATOM      9  N   UNL A   1      35.187  24.885  25.150  1.00  0.00    -0.241 N 
ATOM     10  C   UNL A   1      33.759  26.834  25.087  1.00  0.00     0.054 A 
ATOM     11  C   UNL A   1      31.664  26.906  26.299  1.00  0.00     0.002 A 
ATOM     12  H   UNL A   1      37.141  23.565  24.626  1.00  0.00     0.304 HD
ATOM     13  H   UNL A   1      35.748  25.246  24.427  1.00  0.00     0.312 HD
ATOM     14  C   UNL A   1      32.588  27.508  25.443  1.00  0.00     0.005 A 
BRANCH   3  15
ATOM     15  C   UNL A   1      32.354  22.581  26.908  1.00  0.00     0.323 C 
ATOM     16  N   UNL A   1      32.089  21.726  25.888  1.00  0.00    -0.329 N 
ATOM     17  H   UNL A   1      31.309  21.142  26.031  1.00  0.00     0.165 HD
ATOM     18  O   UNL A   1      31.825  22.355  28.001  1.00  0.00    -0.248 OA
BRANCH  16  19
ATOM     19  C   UNL A   1      32.772  21.530  24.612  1.00  0.00     0.218 C 
BRANCH  19  20
ATOM     20  C   UNL A   1      32.259  22.289  23.389  1.00  0.00     0.240 C 
ATOM     21  O   UNL A   1      31.932  21.660  22.381  1.00  0.00    -0.273 OA
ATOM     22  N   UNL A   1      32.057  23.642  23.537  1.00  0.00    -0.342 N 
ATOM     23  H   UNL A   1      32.104  24.064  24.425  1.00  0.00     0.164 HD
BRANCH  22  24
ATOM     24  C   UNL A   1      31.770  24.447  22.330  1.00  0.00     0.158 C 
BRANCH  24  25
ATOM     25  C   UNL A   1      30.910  25.666  22.677  1.00  0.00    -0.020 A 
ATOM     26  C   UNL A   1      29.815  25.592  23.553  1.00  0.00     0.006 A 
ATOM     27  C   UNL A   1      31.222  26.924  22.137  1.00  0.00     0.006 A 
ATOM     28  C   UNL A   1      29.053  26.719  23.873  1.00  0.00     0.000 A 
ATOM     29  C   UNL A   1      30.448  28.049  22.450  1.00  0.00     0.000 A 
ATOM     30  C   UNL A   1      29.363  27.949  23.314  1.00  0.00     0.000 A 
ENDBRANCH  24  25
BRANCH  24  31
ATOM     31  C   UNL A   1      33.080  24.857  21.550  1.00  0.00     0.068 C 
ATOM     32  O   UNL A   1      33.025  24.765  20.287  1.00  0.00    -0.548 OA
ATOM     33  O   UNL A   1      34.032  25.288  22.278  1.00  0.00    -0.548 OA
ENDBRANCH  24  31
ENDBRANCH  22  24
ENDBRANCH  19  20
ENDBRANCH  16  19
ENDBRANCH   3  15
ENDBRANCH   1   2
BRANCH   1  34
ATOM     34  C   UNL A   1      37.156  20.847  24.578  1.00  0.00     0.048 C 
BRANCH  34  35
ATOM     35  C   UNL A   1      38.169  19.716  24.764  1.00  0.00     0.025 C 
BRANCH  35  36
ATOM     36  C   UNL A   1      39.158  19.912  25.902  1.00  0.00     0.116 C 
BRANCH  36  37
ATOM     37  N   UNL A   1      40.279  18.982  25.867  1.00  0.00    -0.352 N 
ATOM     38  C   UNL A   1      41.626  19.210  26.006  1.00  0.00     0.251 C 
ATOM     39  H   UNL A   1      40.031  18.040  25.722  1.00  0.00     0.163 HD
ATOM     40  O   UNL A   1      42.422  18.285  25.845  1.00  0.00    -0.269 OA
BRANCH  38  41
ATOM     41  C   UNL A   1      42.136  20.564  26.315  1.00  0.00     0.039 A 
ATOM     42  C   UNL A   1      42.519  21.397  25.259  1.00  0.00     0.014 A 
ATOM     43  C   UNL A   1      42.236  21.021  27.629  1.00  0.00     0.014 A 
ATOM     44  C   UNL A   1      42.929  22.706  25.521  1.00  0.00     0.010 A 
ATOM     45  C   UNL A   1      42.532  22.356  27.880  1.00  0.00     0.010 A 
ATOM     46  C   UNL A   1      42.897  23.211  26.830  1.00  0.00    -0.014 A 
BRANCH  46  47
ATOM     47  C   UNL A   1      43.249  24.625  27.123  1.00  0.00     0.031 A 
ATOM     48  C   UNL A   1      44.643  25.130  26.859  1.00  0.00     0.074 A 
ATOM     49  C   UNL A   1      42.331  25.438  27.682  1.00  0.00     0.049 A 
ATOM     50  N   UNL A   1      45.156  26.313  27.089  1.00  0.00    -0.248 NA
ATOM     51  C   UNL A   1      45.599  24.168  26.289  1.00  0.00     0.031 C 
ATOM     52  C   UNL A   1      40.967  25.052  28.044  1.00  0.00     0.029 A 
ATOM     53  N   UNL A   1      42.411  26.759  28.048  1.00  0.00    -0.354 N 
ATOM     54  C   UNL A   1      46.488  26.229  26.709  1.00  0.00     0.074 A 
ATOM     55  C   UNL A   1      46.725  24.863  26.297  1.00  0.00     0.031 C 
ATOM     56  C   UNL A   1      40.327  26.119  28.547  1.00  0.00     0.029 A 
ATOM     57  C   UNL A   1      41.246  27.252  28.582  1.00  0.00     0.049 A 
ATOM     58  H   UNL A   1      43.226  27.301  27.938  1.00  0.00     0.167 HD
ATOM     59  C   UNL A   1      47.422  27.209  26.676  1.00  0.00     0.037 A 
ATOM     60  C   UNL A   1      40.954  28.479  29.052  1.00  0.00     0.037 A 
ATOM     61  C   UNL A   1      47.177  28.572  27.071  1.00  0.00     0.049 A 
ATOM     62  C   UNL A   1      42.013  29.549  29.010  1.00  0.00     0.074 A 
ATOM     63  C   UNL A   1      48.038  29.653  27.024  1.00  0.00     0.029 A 
ATOM     64  N   UNL A   1      45.978  29.038  27.592  1.00  0.00    -0.354 N 
ATOM     65  N   UNL A   1      43.246  29.480  28.573  1.00  0.00    -0.248 NA
ATOM     66  C   UNL A   1      41.630  30.873  29.519  1.00  0.00     0.031 C 
ATOM     67  C   UNL A   1      47.380  30.761  27.568  1.00  0.00     0.029 A 
ATOM     68  C   UNL A   1      46.086  30.387  27.893  1.00  0.00     0.049 A 
ATOM     69  H   UNL A   1      45.171  28.492  27.729  1.00  0.00     0.167 HD
ATOM     70  C   UNL A   1      43.777  30.754  28.723  1.00  0.00     0.074 A 
ATOM     71  C   UNL A   1      42.722  31.581  29.272  1.00  0.00     0.031 C 
ATOM     72  C   UNL A   1      45.024  31.200  28.433  1.00  0.00     0.037 A 
BRANCH  59  73
ATOM     73  C   UNL A   1      48.798  26.840  26.195  1.00  0.00     0.064 A 
ATOM     74  C   UNL A   1      49.774  26.331  27.068  1.00  0.00     0.173 A 
ATOM     75  C   UNL A   1      49.138  26.967  24.839  1.00  0.00     0.173 A 
ATOM     76  F   UNL A   1      49.506  26.197  28.377  1.00  0.00    -0.203 F 
ATOM     77  C   UNL A   1      51.045  26.000  26.610  1.00  0.00     0.198 A 
ATOM     78  C   UNL A   1      50.401  26.600  24.378  1.00  0.00     0.198 A 
ATOM     79  F   UNL A   1      48.245  27.439  23.958  1.00  0.00    -0.203 F 
ATOM     80  F   UNL A   1      51.977  25.571  27.473  1.00  0.00    -0.200 F 
ATOM     81  C   UNL A   1      51.356  26.127  25.265  1.00  0.00     0.200 A 
ATOM     82  F   UNL A   1      50.692  26.706  23.075  1.00  0.00    -0.200 F 
ATOM     83  F   UNL A   1      52.578  25.798  24.823  1.00  0.00    -0.200 F 
ENDBRANCH  59  73
BRANCH  60  84
ATOM     84  C   UNL A   1      39.592  28.773  29.573  1.00  0.00     0.064 A 
ATOM     85  C   UNL A   1      38.603  29.309  28.737  1.00  0.00     0.173 A 
ATOM     86  C   UNL A   1      39.255  28.542  30.914  1.00  0.00     0.173 A 
ATOM     87  F   UNL A   1      38.883  29.573  27.452  1.00  0.00    -0.203 F 
ATOM     88  C   UNL A   1      37.337  29.625  29.227  1.00  0.00     0.198 A 
ATOM     89  C   UNL A   1      37.979  28.828  31.396  1.00  0.00     0.198 A 
ATOM     90  F   UNL A   1      40.166  28.032  31.756  1.00  0.00    -0.203 F 
ATOM     91  F   UNL A   1      36.432  30.193  28.418  1.00  0.00    -0.200 F 
ATOM     92  C   UNL A   1      37.025  29.379  30.555  1.00  0.00     0.200 A 
ATOM     93  F   UNL A   1      37.679  28.582  32.679  1.00  0.00    -0.200 F 
ATOM     94  F   UNL A   1      35.809  29.689  31.026  1.00  0.00    -0.200 F 
ENDBRANCH  60  84
BRANCH  72  95
ATOM     95  C   UNL A   1      45.302  32.660  28.660  1.00  0.00     0.064 A 
ATOM     96  C   UNL A   1      45.886  33.128  29.847  1.00  0.00     0.173 A 
ATOM     97  C   UNL A   1      44.994  33.601  27.666  1.00  0.00     0.173 A 
ATOM     98  F   UNL A   1      46.190  32.272  30.834  1.00  0.00    -0.203 F 
ATOM     99  C   UNL A   1      46.111  34.488  30.046  1.00  0.00     0.198 A 
ATOM    100  C   UNL A   1      45.256  34.955  27.852  1.00  0.00     0.198 A 
ATOM    101  F   UNL A   1      44.446  33.207  26.506  1.00  0.00    -0.203 F 
ATOM    102  F   UNL A   1      46.609  34.919  31.213  1.00  0.00    -0.200 F 
ATOM    103  C   UNL A   1      45.802  35.399  29.046  1.00  0.00     0.200 A 
ATOM    104  F   UNL A   1      44.976  35.831  26.878  1.00  0.00    -0.200 F 
ATOM    105  F   UNL A   1      46.023  36.707  29.238  1.00  0.00    -0.200 F 
ENDBRANCH  72  95
ENDBRANCH  46  47
ENDBRANCH  38  41
ENDBRANCH  36  37
ENDBRANCH  35  36
ENDBRANCH  34  35
ENDBRANCH   1  34
TORSDOF 16
ENDMDL
MODEL 3
REMARK VINA RESULT:     -12.6      5.108      9.388
REMARK SMILES O=C(CNC(=O)N1CC(NCCCCNC(=O)c2ccc(-c3c4nc(c(-c5c(F)c(F)c(F)c(F)c5F)c5ccc([nH]5)c(-c5c(F)c(F)c(F)c(F)c5F)c5nc(c(-c6c(F)c(F)c(F)c(F)c6F)c6ccc3[nH]6)C=C5)C=C4)cc2)=[NH+]c2ccccc21)N[C@H](C(=O)[O-])c1ccccc1
REMARK SMILES IDX 11 1 10 2 7 3 8 4 87 5 9 6 82 7 86 8 81 9 83 10 85 11 84 14
REMARK SMILES IDX 5 15 4 16 6 18 3 19 2 20 1 21 88 22 89 24 93 25 94 26 98 27
REMARK SMILES IDX 95 28 97 29 96 30 90 31 91 32 92 33 12 34 13 35 14 36 15 37
REMARK SMILES IDX 16 38 17 40 18 41 19 42 80 43 20 44 79 45 21 46 22 47 23 48
REMARK SMILES IDX 73 49 24 50 78 51 72 52 74 53 25 54 77 55 71 56 70 57 26 59
REMARK SMILES IDX 58 60 38 61 57 62 39 63 42 64 56 65 75 66 40 67 41 68 55 70
REMARK SMILES IDX 76 71 43 72 27 73 28 74 36 75 29 76 30 77 34 78 37 79 31 80
REMARK SMILES IDX 32 81 35 82 33 83 59 84 60 85 68 86 61 87 62 88 66 89 69 90
REMARK SMILES IDX 63 91 64 92 67 93 65 94 44 95 45 96 53 97 46 98 47 99 51 100
REMARK SMILES IDX 54 101 48 102 49 103 52 104 50 105
REMARK H PARENT 10 12 81 13 4 17 88 23 15 39 74 58 42 69
REMARK Flexibility Score: inf
ROOT
ATOM      1  C   UNL A   1      32.666  30.008  25.892  1.00  0.00     0.233 C 
ENDROOT
BRANCH   1   2
ATOM      2  N   UNL A   1      33.042  28.676  26.298  1.00  0.00    -0.277 N 
ATOM      3  N   UNL A   1      33.752  26.720  23.291  1.00  0.00    -0.278 N 
ATOM      4  C   UNL A   1      33.976  27.923  24.067  1.00  0.00     0.255 C 
ATOM      5  C   UNL A   1      34.271  25.543  23.882  1.00  0.00     0.093 A 
ATOM      6  C   UNL A   1      33.563  27.672  25.522  1.00  0.00     0.268 C 
ATOM      7  C   UNL A   1      34.244  25.463  25.289  1.00  0.00     0.148 A 
ATOM      8  C   UNL A   1      34.757  24.476  23.117  1.00  0.00     0.031 A 
ATOM      9  N   UNL A   1      33.739  26.509  26.094  1.00  0.00    -0.241 N 
ATOM     10  C   UNL A   1      34.622  24.268  25.902  1.00  0.00     0.054 A 
ATOM     11  C   UNL A   1      35.167  23.303  23.749  1.00  0.00     0.002 A 
ATOM     12  H   UNL A   1      32.908  28.461  27.250  1.00  0.00     0.304 HD
ATOM     13  H   UNL A   1      33.529  26.368  27.045  1.00  0.00     0.312 HD
ATOM     14  C   UNL A   1      35.079  23.190  25.138  1.00  0.00     0.005 A 
BRANCH   3  15
ATOM     15  C   UNL A   1      33.069  26.833  22.109  1.00  0.00     0.323 C 
ATOM     16  N   UNL A   1      31.717  26.953  22.113  1.00  0.00    -0.329 N 
ATOM     17  H   UNL A   1      31.293  26.874  21.228  1.00  0.00     0.165 HD
ATOM     18  O   UNL A   1      33.654  26.946  21.028  1.00  0.00    -0.248 OA
BRANCH  16  19
ATOM     19  C   UNL A   1      30.788  27.181  23.217  1.00  0.00     0.218 C 
BRANCH  19  20
ATOM     20  C   UNL A   1      30.201  25.967  23.936  1.00  0.00     0.240 C 
ATOM     21  O   UNL A   1      28.998  25.943  24.199  1.00  0.00    -0.273 OA
ATOM     22  N   UNL A   1      31.040  24.893  24.126  1.00  0.00    -0.342 N 
ATOM     23  H   UNL A   1      31.922  24.860  23.691  1.00  0.00     0.164 HD
BRANCH  22  24
ATOM     24  C   UNL A   1      30.585  23.789  24.999  1.00  0.00     0.158 C 
BRANCH  24  25
ATOM     25  C   UNL A   1      31.404  22.519  24.749  1.00  0.00    -0.020 A 
ATOM     26  C   UNL A   1      31.825  21.676  25.791  1.00  0.00     0.006 A 
ATOM     27  C   UNL A   1      31.734  22.142  23.438  1.00  0.00     0.006 A 
ATOM     28  C   UNL A   1      32.554  20.510  25.543  1.00  0.00     0.000 A 
ATOM     29  C   UNL A   1      32.477  20.979  23.194  1.00  0.00     0.000 A 
ATOM     30  C   UNL A   1      32.890  20.165  24.242  1.00  0.00     0.000 A 
ENDBRANCH  24  25
BRANCH  24  31
ATOM     31  C   UNL A   1      30.578  24.190  26.527  1.00  0.00     0.068 C 
ATOM     32  O   UNL A   1      31.435  25.055  26.876  1.00  0.00    -0.548 OA
ATOM     33  O   UNL A   1      29.670  23.636  27.228  1.00  0.00    -0.548 OA
ENDBRANCH  24  31
ENDBRANCH  22  24
ENDBRANCH  19  20
ENDBRANCH  16  19
ENDBRANCH   3  15
ENDBRANCH   1   2
BRANCH   1  34
ATOM     34  C   UNL A   1      31.533  30.535  26.767  1.00  0.00     0.048 C 
BRANCH  34  35
ATOM     35  C   UNL A   1      31.424  32.061  26.774  1.00  0.00     0.025 C 
BRANCH  35  36
ATOM     36  C   UNL A   1      32.712  32.800  27.102  1.00  0.00     0.116 C 
BRANCH  36  37
ATOM     37  N   UNL A   1      32.496  34.142  27.628  1.00  0.00    -0.352 N 
ATOM     38  C   UNL A   1      33.127  34.807  28.650  1.00  0.00     0.251 C 
ATOM     39  H   UNL A   1      31.784  34.653  27.179  1.00  0.00     0.163 HD
ATOM     40  O   UNL A   1      32.721  35.914  29.002  1.00  0.00    -0.269 OA
BRANCH  38  41
ATOM     41  C   UNL A   1      34.273  34.193  29.358  1.00  0.00     0.039 A 
ATOM     42  C   UNL A   1      34.023  33.204  30.313  1.00  0.00     0.014 A 
ATOM     43  C   UNL A   1      35.587  34.578  29.086  1.00  0.00     0.014 A 
ATOM     44  C   UNL A   1      35.091  32.555  30.937  1.00  0.00     0.010 A 
ATOM     45  C   UNL A   1      36.647  33.854  29.620  1.00  0.00     0.010 A 
ATOM     46  C   UNL A   1      36.413  32.844  30.563  1.00  0.00    -0.014 A 
BRANCH  46  47
ATOM     47  C   UNL A   1      37.562  32.109  31.152  1.00  0.00     0.031 A 
ATOM     48  C   UNL A   1      38.042  32.439  32.540  1.00  0.00     0.074 A 
ATOM     49  C   UNL A   1      38.212  31.186  30.415  1.00  0.00     0.049 A 
ATOM     50  N   UNL A   1      39.053  31.943  33.210  1.00  0.00    -0.248 NA
ATOM     51  C   UNL A   1      37.307  33.489  33.264  1.00  0.00     0.031 C 
ATOM     52  C   UNL A   1      37.885  30.822  29.036  1.00  0.00     0.029 A 
ATOM     53  N   UNL A   1      39.287  30.391  30.723  1.00  0.00    -0.354 N 
ATOM     54  C   UNL A   1      39.082  32.629  34.417  1.00  0.00     0.074 A 
ATOM     55  C   UNL A   1      38.032  33.622  34.363  1.00  0.00     0.031 C 
ATOM     56  C   UNL A   1      38.717  29.850  28.629  1.00  0.00     0.029 A 
ATOM     57  C   UNL A   1      39.662  29.554  29.700  1.00  0.00     0.049 A 
ATOM     58  H   UNL A   1      39.747  30.417  31.594  1.00  0.00     0.167 HD
ATOM     59  C   UNL A   1      39.889  32.429  35.485  1.00  0.00     0.037 A 
ATOM     60  C   UNL A   1      40.659  28.652  29.634  1.00  0.00     0.037 A 
ATOM     61  C   UNL A   1      40.921  31.427  35.541  1.00  0.00     0.049 A 
ATOM     62  C   UNL A   1      41.547  28.454  30.834  1.00  0.00     0.074 A 
ATOM     63  C   UNL A   1      41.757  31.105  36.595  1.00  0.00     0.029 A 
ATOM     64  N   UNL A   1      41.261  30.586  34.490  1.00  0.00    -0.354 N 
ATOM     65  N   UNL A   1      41.513  29.052  31.999  1.00  0.00    -0.248 NA
ATOM     66  C   UNL A   1      42.605  27.443  30.708  1.00  0.00     0.031 C 
ATOM     67  C   UNL A   1      42.640  30.108  36.165  1.00  0.00     0.029 A 
ATOM     68  C   UNL A   1      42.311  29.761  34.864  1.00  0.00     0.049 A 
ATOM     69  H   UNL A   1      40.822  30.576  33.609  1.00  0.00     0.167 HD
ATOM     70  C   UNL A   1      42.522  28.470  32.757  1.00  0.00     0.074 A 
ATOM     71  C   UNL A   1      43.134  27.456  31.923  1.00  0.00     0.031 C 
ATOM     72  C   UNL A   1      42.906  28.750  34.026  1.00  0.00     0.037 A 
BRANCH  59  73
ATOM     73  C   UNL A   1      39.686  33.314  36.684  1.00  0.00     0.064 A 
ATOM     74  C   UNL A   1      40.397  34.514  36.845  1.00  0.00     0.173 A 
ATOM     75  C   UNL A   1      38.747  32.975  37.670  1.00  0.00     0.173 A 
ATOM     76  F   UNL A   1      41.315  34.883  35.937  1.00  0.00    -0.203 F 
ATOM     77  C   UNL A   1      40.204  35.320  37.962  1.00  0.00     0.198 A 
ATOM     78  C   UNL A   1      38.529  33.803  38.769  1.00  0.00     0.198 A 
ATOM     79  F   UNL A   1      38.031  31.846  37.565  1.00  0.00    -0.203 F 
ATOM     80  F   UNL A   1      40.937  36.431  38.122  1.00  0.00    -0.200 F 
ATOM     81  C   UNL A   1      39.265  34.969  38.919  1.00  0.00     0.200 A 
ATOM     82  F   UNL A   1      37.608  33.471  39.684  1.00  0.00    -0.200 F 
ATOM     83  F   UNL A   1      39.072  35.751  39.991  1.00  0.00    -0.200 F 
ENDBRANCH  59  73
BRANCH  60  84
ATOM     84  C   UNL A   1      40.852  27.845  28.400  1.00  0.00     0.064 A 
ATOM     85  C   UNL A   1      40.245  26.589  28.259  1.00  0.00     0.173 A 
ATOM     86  C   UNL A   1      41.657  28.300  27.345  1.00  0.00     0.173 A 
ATOM     87  F   UNL A   1      39.487  26.097  29.251  1.00  0.00    -0.203 F 
ATOM     88  C   UNL A   1      40.454  25.809  27.124  1.00  0.00     0.198 A 
ATOM     89  C   UNL A   1      41.839  27.533  26.196  1.00  0.00     0.198 A 
ATOM     90  F   UNL A   1      42.261  29.494  27.431  1.00  0.00    -0.203 F 
ATOM     91  F   UNL A   1      39.910  24.587  27.045  1.00  0.00    -0.200 F 
ATOM     92  C   UNL A   1      41.246  26.285  26.090  1.00  0.00     0.200 A 
ATOM     93  F   UNL A   1      42.601  28.000  25.196  1.00  0.00    -0.200 F 
ATOM     94  F   UNL A   1      41.452  25.531  25.002  1.00  0.00    -0.200 F 
ENDBRANCH  60  84
BRANCH  72  95
ATOM     95  C   UNL A   1      44.012  27.915  34.609  1.00  0.00     0.064 A 
ATOM     96  C   UNL A   1      43.759  26.695  35.254  1.00  0.00     0.173 A 
ATOM     97  C   UNL A   1      45.346  28.337  34.506  1.00  0.00     0.173 A 
ATOM     98  F   UNL A   1      42.501  26.250  35.390  1.00  0.00    -0.203 F 
ATOM     99  C   UNL A   1      44.797  25.950  35.809  1.00  0.00     0.198 A 
ATOM    100  C   UNL A   1      46.385  27.571  35.027  1.00  0.00     0.198 A 
ATOM    101  F   UNL A   1      45.647  29.490  33.889  1.00  0.00    -0.203 F 
ATOM    102  F   UNL A   1      44.525  24.820  36.476  1.00  0.00    -0.200 F 
ATOM    103  C   UNL A   1      46.108  26.385  35.689  1.00  0.00     0.200 A 
ATOM    104  F   UNL A   1      47.652  27.983  34.893  1.00  0.00    -0.200 F 
ATOM    105  F   UNL A   1      47.106  25.665  36.220  1.00  0.00    -0.200 F 
ENDBRANCH  72  95
ENDBRANCH  46  47
ENDBRANCH  38  41
ENDBRANCH  36  37
ENDBRANCH  35  36
ENDBRANCH  34  35
ENDBRANCH   1  34
TORSDOF 16
ENDMDL
