MODEL 1
REMARK VINA RESULT:     -12.2      0.000      0.000
REMARK SMILES CCn1c(=O)n(CC)c2cc(C(=O)NCCCCNC(=O)c3ccc(-c4c5nc(c(-c6c(F)c(F)c(F)c(F)c6F)c6ccc([nH]6)c(-c6c(F)c(F)c(F)c(F)c6F)c6nc(c(-c7c(F)c(F)c(F)c(F)c7F)c7ccc4[nH]7)C=C6)C=C5)cc3)ccc21
REMARK SMILES IDX 17 1 16 2 15 3 14 4 12 5 13 6 11 8 3 9 4 10 87 11 5 12 6 13
REMARK SMILES IDX 9 14 86 15 10 16 85 17 2 18 1 19 7 20 8 21 18 22 19 23 20 24
REMARK SMILES IDX 21 26 22 27 23 28 84 29 24 30 83 31 25 32 26 33 27 34 77 35
REMARK SMILES IDX 28 36 82 37 76 38 78 39 29 40 81 41 75 42 74 43 30 45 62 46
REMARK SMILES IDX 42 47 61 48 43 49 46 50 60 51 79 52 44 53 45 54 59 56 80 57
REMARK SMILES IDX 47 58 31 59 32 60 40 61 33 62 34 63 38 64 41 65 35 66 36 67
REMARK SMILES IDX 39 68 37 69 63 70 64 71 72 72 65 73 66 74 70 75 73 76 67 77
REMARK SMILES IDX 68 78 71 79 69 80 48 81 49 82 57 83 50 84 51 85 55 86 58 87
REMARK SMILES IDX 52 88 53 89 56 90 54 91
REMARK H PARENT 14 7 19 25 78 44 46 55
REMARK Flexibility Score: inf
ROOT
ATOM      1  C   UNL A   1      41.837  19.664  25.752  1.00  0.00     0.023 C 
ENDROOT
BRANCH   1   2
ATOM      2  C   UNL A   1      41.564  20.836  26.709  1.00  0.00     0.023 C 
BRANCH   2   3
ATOM      3  C   UNL A   1      40.088  20.986  27.089  1.00  0.00     0.116 C 
BRANCH   3   4
ATOM      4  N   UNL A   1      39.567  22.258  26.633  1.00  0.00    -0.352 N 
ATOM      5  C   UNL A   1      38.413  22.615  25.984  1.00  0.00     0.251 C 
ATOM      6  O   UNL A   1      38.233  23.817  25.781  1.00  0.00    -0.269 OA
ATOM      7  H   UNL A   1      40.161  23.020  26.827  1.00  0.00     0.163 HD
BRANCH   5   8
ATOM      8  C   UNL A   1      37.360  21.645  25.566  1.00  0.00     0.042 A 
ATOM      9  N   UNL A   1      34.079  19.195  24.738  1.00  0.00    -0.292 N 
ATOM     10  C   UNL A   1      33.029  20.086  25.081  1.00  0.00     0.329 A 
ATOM     11  C   UNL A   1      35.301  19.856  24.947  1.00  0.00     0.069 A 
ATOM     12  O   UNL A   1      31.826  19.859  24.994  1.00  0.00    -0.248 OA
ATOM     13  N   UNL A   1      33.633  21.283  25.511  1.00  0.00    -0.292 N 
ATOM     14  C   UNL A   1      35.025  21.132  25.445  1.00  0.00     0.070 A 
ATOM     15  C   UNL A   1      36.601  19.476  24.702  1.00  0.00     0.029 A 
ATOM     16  C   UNL A   1      36.024  22.030  25.771  1.00  0.00     0.042 A 
ATOM     17  C   UNL A   1      37.620  20.399  24.968  1.00  0.00     0.016 A 
BRANCH   9  18
ATOM     18  C   UNL A   1      33.791  17.873  24.241  1.00  0.00     0.124 C 
ATOM     19  C   UNL A   1      33.269  17.703  22.827  1.00  0.00     0.028 C 
ENDBRANCH   9  18
BRANCH  13  20
ATOM     20  C   UNL A   1      32.922  22.493  25.841  1.00  0.00     0.124 C 
ATOM     21  C   UNL A   1      32.823  22.754  27.334  1.00  0.00     0.028 C 
ENDBRANCH  13  20
ENDBRANCH   5   8
ENDBRANCH   3   4
ENDBRANCH   2   3
ENDBRANCH   1   2
BRANCH   1  22
ATOM     22  C   UNL A   1      43.212  19.019  25.947  1.00  0.00     0.116 C 
BRANCH  22  23
ATOM     23  N   UNL A   1      44.115  19.286  24.845  1.00  0.00    -0.352 N 
ATOM     24  C   UNL A   1      44.873  20.352  24.455  1.00  0.00     0.251 C 
ATOM     25  H   UNL A   1      44.203  18.518  24.235  1.00  0.00     0.163 HD
ATOM     26  O   UNL A   1      45.651  20.152  23.519  1.00  0.00    -0.269 OA
BRANCH  24  27
ATOM     27  C   UNL A   1      44.775  21.724  25.017  1.00  0.00     0.039 A 
ATOM     28  C   UNL A   1      45.480  22.191  26.124  1.00  0.00     0.014 A 
ATOM     29  C   UNL A   1      43.802  22.562  24.434  1.00  0.00     0.014 A 
ATOM     30  C   UNL A   1      45.143  23.403  26.702  1.00  0.00     0.010 A 
ATOM     31  C   UNL A   1      43.470  23.785  25.001  1.00  0.00     0.010 A 
ATOM     32  C   UNL A   1      44.100  24.172  26.174  1.00  0.00    -0.014 A 
BRANCH  32  33
ATOM     33  C   UNL A   1      43.779  25.410  26.870  1.00  0.00     0.031 A 
ATOM     34  C   UNL A   1      44.744  26.513  26.610  1.00  0.00     0.074 A 
ATOM     35  C   UNL A   1      42.711  25.566  27.678  1.00  0.00     0.049 A 
ATOM     36  N   UNL A   1      45.560  27.061  27.451  1.00  0.00    -0.248 NA
ATOM     37  C   UNL A   1      44.939  26.943  25.217  1.00  0.00     0.031 C 
ATOM     38  C   UNL A   1      41.563  24.681  27.874  1.00  0.00     0.029 A 
ATOM     39  N   UNL A   1      42.413  26.627  28.478  1.00  0.00    -0.354 N 
ATOM     40  C   UNL A   1      46.267  28.023  26.733  1.00  0.00     0.074 A 
ATOM     41  C   UNL A   1      45.940  27.816  25.346  1.00  0.00     0.031 C 
ATOM     42  C   UNL A   1      40.595  25.347  28.547  1.00  0.00     0.029 A 
ATOM     43  C   UNL A   1      41.110  26.640  28.957  1.00  0.00     0.049 A 
ATOM     44  H   UNL A   1      43.067  27.328  28.697  1.00  0.00     0.167 HD
ATOM     45  C   UNL A   1      46.909  29.041  27.368  1.00  0.00     0.037 A 
ATOM     46  C   UNL A   1      40.501  27.677  29.589  1.00  0.00     0.037 A 
ATOM     47  C   UNL A   1      47.181  28.708  28.742  1.00  0.00     0.049 A 
ATOM     48  C   UNL A   1      41.574  28.540  30.150  1.00  0.00     0.074 A 
ATOM     49  C   UNL A   1      47.934  27.733  29.369  1.00  0.00     0.029 A 
ATOM     50  N   UNL A   1      46.353  29.211  29.714  1.00  0.00    -0.354 N 
ATOM     51  N   UNL A   1      42.360  28.171  31.124  1.00  0.00    -0.248 NA
ATOM     52  C   UNL A   1      42.082  29.611  29.303  1.00  0.00     0.031 C 
ATOM     53  C   UNL A   1      47.168  27.355  30.510  1.00  0.00     0.029 A 
ATOM     54  C   UNL A   1      46.036  28.168  30.546  1.00  0.00     0.049 A 
ATOM     55  H   UNL A   1      46.045  30.142  29.798  1.00  0.00     0.167 HD
ATOM     56  C   UNL A   1      43.611  28.643  30.763  1.00  0.00     0.074 A 
ATOM     57  C   UNL A   1      43.369  29.570  29.659  1.00  0.00     0.031 C 
ATOM     58  C   UNL A   1      44.753  28.030  31.190  1.00  0.00     0.037 A 
BRANCH  45  59
ATOM     59  C   UNL A   1      46.940  30.462  26.858  1.00  0.00     0.064 A 
ATOM     60  C   UNL A   1      48.145  31.190  26.936  1.00  0.00     0.173 A 
ATOM     61  C   UNL A   1      45.783  31.232  26.607  1.00  0.00     0.173 A 
ATOM     62  F   UNL A   1      49.309  30.566  27.176  1.00  0.00    -0.203 F 
ATOM     63  C   UNL A   1      48.171  32.586  26.878  1.00  0.00     0.198 A 
ATOM     64  C   UNL A   1      45.820  32.620  26.499  1.00  0.00     0.198 A 
ATOM     65  F   UNL A   1      44.560  30.694  26.567  1.00  0.00    -0.203 F 
ATOM     66  F   UNL A   1      49.320  33.240  27.097  1.00  0.00    -0.200 F 
ATOM     67  C   UNL A   1      47.006  33.301  26.672  1.00  0.00     0.200 A 
ATOM     68  F   UNL A   1      44.676  33.294  26.315  1.00  0.00    -0.200 F 
ATOM     69  F   UNL A   1      47.015  34.639  26.687  1.00  0.00    -0.200 F 
ENDBRANCH  45  59
BRANCH  46  70
ATOM     70  C   UNL A   1      39.120  28.181  29.365  1.00  0.00     0.064 A 
ATOM     71  C   UNL A   1      38.240  28.380  30.443  1.00  0.00     0.173 A 
ATOM     72  C   UNL A   1      38.738  28.756  28.137  1.00  0.00     0.173 A 
ATOM     73  F   UNL A   1      38.548  27.909  31.661  1.00  0.00    -0.203 F 
ATOM     74  C   UNL A   1      37.069  29.135  30.308  1.00  0.00     0.198 A 
ATOM     75  C   UNL A   1      37.566  29.504  28.002  1.00  0.00     0.198 A 
ATOM     76  F   UNL A   1      39.540  28.690  27.065  1.00  0.00    -0.203 F 
ATOM     77  F   UNL A   1      36.288  29.359  31.375  1.00  0.00    -0.200 F 
ATOM     78  C   UNL A   1      36.739  29.707  29.090  1.00  0.00     0.200 A 
ATOM     79  F   UNL A   1      37.281  30.083  26.827  1.00  0.00    -0.200 F 
ATOM     80  F   UNL A   1      35.654  30.484  28.975  1.00  0.00    -0.200 F 
ENDBRANCH  46  70
BRANCH  58  81
ATOM     81  C   UNL A   1      44.640  26.960  32.239  1.00  0.00     0.064 A 
ATOM     82  C   UNL A   1      44.523  27.222  33.616  1.00  0.00     0.173 A 
ATOM     83  C   UNL A   1      44.453  25.638  31.816  1.00  0.00     0.173 A 
ATOM     84  F   UNL A   1      44.591  28.472  34.089  1.00  0.00    -0.203 F 
ATOM     85  C   UNL A   1      44.258  26.198  34.525  1.00  0.00     0.198 A 
ATOM     86  C   UNL A   1      44.153  24.624  32.722  1.00  0.00     0.198 A 
ATOM     87  F   UNL A   1      44.500  25.339  30.508  1.00  0.00    -0.203 F 
ATOM     88  F   UNL A   1      44.144  26.472  35.833  1.00  0.00    -0.200 F 
ATOM     89  C   UNL A   1      44.062  24.902  34.075  1.00  0.00     0.200 A 
ATOM     90  F   UNL A   1      43.913  23.383  32.275  1.00  0.00    -0.200 F 
ATOM     91  F   UNL A   1      43.750  23.929  34.942  1.00  0.00    -0.200 F 
ENDBRANCH  58  81
ENDBRANCH  32  33
ENDBRANCH  24  27
ENDBRANCH  22  23
ENDBRANCH   1  22
TORSDOF 13
ENDMDL
MODEL 2
REMARK VINA RESULT:     -12.1      3.061      8.837
REMARK SMILES CCn1c(=O)n(CC)c2cc(C(=O)NCCCCNC(=O)c3ccc(-c4c5nc(c(-c6c(F)c(F)c(F)c(F)c6F)c6ccc([nH]6)c(-c6c(F)c(F)c(F)c(F)c6F)c6nc(c(-c7c(F)c(F)c(F)c(F)c7F)c7ccc4[nH]7)C=C6)C=C5)cc3)ccc21
REMARK SMILES IDX 17 1 16 2 15 3 14 4 12 5 13 6 11 8 3 9 4 10 87 11 5 12 6 13
REMARK SMILES IDX 9 14 86 15 10 16 85 17 2 18 1 19 7 20 8 21 18 22 19 23 20 24
REMARK SMILES IDX 21 26 22 27 23 28 84 29 24 30 83 31 25 32 26 33 27 34 77 35
REMARK SMILES IDX 28 36 82 37 76 38 78 39 29 40 81 41 75 42 74 43 30 45 62 46
REMARK SMILES IDX 42 47 61 48 43 49 46 50 60 51 79 52 44 53 45 54 59 56 80 57
REMARK SMILES IDX 47 58 31 59 32 60 40 61 33 62 34 63 38 64 41 65 35 66 36 67
REMARK SMILES IDX 39 68 37 69 63 70 64 71 72 72 65 73 66 74 70 75 73 76 67 77
REMARK SMILES IDX 68 78 71 79 69 80 48 81 49 82 57 83 50 84 51 85 55 86 58 87
REMARK SMILES IDX 52 88 53 89 56 90 54 91
REMARK H PARENT 14 7 19 25 78 44 46 55
REMARK Flexibility Score: inf
ROOT
ATOM      1  C   UNL A   1      31.956  29.948  26.919  1.00  0.00     0.023 C 
ENDROOT
BRANCH   1   2
ATOM      2  C   UNL A   1      31.821  28.580  27.608  1.00  0.00     0.023 C 
BRANCH   2   3
ATOM      3  C   UNL A   1      32.331  27.413  26.757  1.00  0.00     0.116 C 
BRANCH   3   4
ATOM      4  N   UNL A   1      31.377  26.323  26.757  1.00  0.00    -0.352 N 
ATOM      5  C   UNL A   1      31.495  24.981  26.504  1.00  0.00     0.251 C 
ATOM      6  O   UNL A   1      30.482  24.293  26.645  1.00  0.00    -0.269 OA
ATOM      7  H   UNL A   1      30.460  26.601  26.984  1.00  0.00     0.163 HD
BRANCH   5   8
ATOM      8  C   UNL A   1      32.774  24.316  26.123  1.00  0.00     0.042 A 
ATOM      9  N   UNL A   1      36.146  21.999  25.276  1.00  0.00    -0.292 N 
ATOM     10  C   UNL A   1      35.546  20.713  25.250  1.00  0.00     0.329 A 
ATOM     11  C   UNL A   1      35.144  22.946  25.547  1.00  0.00     0.069 A 
ATOM     12  O   UNL A   1      36.113  19.651  25.012  1.00  0.00    -0.248 OA
ATOM     13  N   UNL A   1      34.177  20.896  25.522  1.00  0.00    -0.292 N 
ATOM     14  C   UNL A   1      33.937  22.262  25.720  1.00  0.00     0.070 A 
ATOM     15  C   UNL A   1      35.174  24.320  25.606  1.00  0.00     0.029 A 
ATOM     16  C   UNL A   1      32.755  22.915  26.018  1.00  0.00     0.042 A 
ATOM     17  C   UNL A   1      33.972  24.998  25.843  1.00  0.00     0.016 A 
BRANCH   9  18
ATOM     18  C   UNL A   1      37.555  22.161  25.019  1.00  0.00     0.124 C 
ATOM     19  C   UNL A   1      38.466  22.655  26.126  1.00  0.00     0.028 C 
ENDBRANCH   9  18
BRANCH  13  20
ATOM     20  C   UNL A   1      33.180  19.854  25.474  1.00  0.00     0.124 C 
ATOM     21  C   UNL A   1      32.586  19.642  24.093  1.00  0.00     0.028 C 
ENDBRANCH  13  20
ENDBRANCH   5   8
ENDBRANCH   3   4
ENDBRANCH   2   3
ENDBRANCH   1   2
BRANCH   1  22
ATOM     22  C   UNL A   1      33.397  30.459  26.844  1.00  0.00     0.116 C 
BRANCH  22  23
ATOM     23  N   UNL A   1      33.725  31.366  27.926  1.00  0.00    -0.352 N 
ATOM     24  C   UNL A   1      34.866  31.688  28.602  1.00  0.00     0.251 C 
ATOM     25  H   UNL A   1      32.941  31.866  28.249  1.00  0.00     0.163 HD
ATOM     26  O   UNL A   1      34.784  32.640  29.384  1.00  0.00    -0.269 OA
BRANCH  24  27
ATOM     27  C   UNL A   1      36.150  30.945  28.521  1.00  0.00     0.039 A 
ATOM     28  C   UNL A   1      36.283  29.611  28.142  1.00  0.00     0.014 A 
ATOM     29  C   UNL A   1      37.293  31.634  28.976  1.00  0.00     0.014 A 
ATOM     30  C   UNL A   1      37.487  28.954  28.324  1.00  0.00     0.010 A 
ATOM     31  C   UNL A   1      38.507  30.983  29.147  1.00  0.00     0.010 A 
ATOM     32  C   UNL A   1      38.581  29.625  28.880  1.00  0.00    -0.014 A 
BRANCH  32  33
ATOM     33  C   UNL A   1      39.796  28.847  29.082  1.00  0.00     0.031 A 
ATOM     34  C   UNL A   1      40.167  28.671  30.513  1.00  0.00     0.074 A 
ATOM     35  C   UNL A   1      40.531  28.324  28.080  1.00  0.00     0.049 A 
ATOM     36  N   UNL A   1      41.199  29.154  31.124  1.00  0.00    -0.248 NA
ATOM     37  C   UNL A   1      39.192  28.022  31.402  1.00  0.00     0.031 C 
ATOM     38  C   UNL A   1      40.209  28.212  26.658  1.00  0.00     0.029 A 
ATOM     39  N   UNL A   1      41.746  27.714  28.162  1.00  0.00    -0.354 N 
ATOM     40  C   UNL A   1      41.095  28.736  32.449  1.00  0.00     0.074 A 
ATOM     41  C   UNL A   1      39.783  28.160  32.590  1.00  0.00     0.031 C 
ATOM     42  C   UNL A   1      41.089  27.371  26.064  1.00  0.00     0.029 A 
ATOM     43  C   UNL A   1      42.116  27.010  27.024  1.00  0.00     0.049 A 
ATOM     44  H   UNL A   1      42.315  27.766  28.963  1.00  0.00     0.167 HD
ATOM     45  C   UNL A   1      42.181  28.720  33.267  1.00  0.00     0.037 A 
ATOM     46  C   UNL A   1      43.162  26.150  26.920  1.00  0.00     0.037 A 
ATOM     47  C   UNL A   1      43.208  29.609  32.788  1.00  0.00     0.049 A 
ATOM     48  C   UNL A   1      44.123  26.497  28.001  1.00  0.00     0.074 A 
ATOM     49  C   UNL A   1      43.282  30.974  32.579  1.00  0.00     0.029 A 
ATOM     50  N   UNL A   1      44.268  29.076  32.100  1.00  0.00    -0.354 N 
ATOM     51  N   UNL A   1      44.806  27.609  28.029  1.00  0.00    -0.248 NA
ATOM     52  C   UNL A   1      43.955  25.828  29.285  1.00  0.00     0.031 C 
ATOM     53  C   UNL A   1      44.045  31.120  31.384  1.00  0.00     0.029 A 
ATOM     54  C   UNL A   1      44.445  29.847  30.980  1.00  0.00     0.049 A 
ATOM     55  H   UNL A   1      44.800  28.290  32.360  1.00  0.00     0.167 HD
ATOM     56  C   UNL A   1      44.780  28.001  29.358  1.00  0.00     0.074 A 
ATOM     57  C   UNL A   1      44.289  26.838  30.093  1.00  0.00     0.031 C 
ATOM     58  C   UNL A   1      44.881  29.315  29.713  1.00  0.00     0.037 A 
BRANCH  45  59
ATOM     59  C   UNL A   1      42.463  27.626  34.270  1.00  0.00     0.064 A 
ATOM     60  C   UNL A   1      43.043  26.421  33.823  1.00  0.00     0.173 A 
ATOM     61  C   UNL A   1      41.897  27.582  35.563  1.00  0.00     0.173 A 
ATOM     62  F   UNL A   1      43.608  26.342  32.607  1.00  0.00    -0.203 F 
ATOM     63  C   UNL A   1      42.964  25.241  34.567  1.00  0.00     0.198 A 
ATOM     64  C   UNL A   1      41.865  26.415  36.323  1.00  0.00     0.198 A 
ATOM     65  F   UNL A   1      41.256  28.625  36.100  1.00  0.00    -0.203 F 
ATOM     66  F   UNL A   1      43.406  24.092  34.040  1.00  0.00    -0.200 F 
ATOM     67  C   UNL A   1      42.363  25.236  35.812  1.00  0.00     0.200 A 
ATOM     68  F   UNL A   1      41.263  26.429  37.521  1.00  0.00    -0.200 F 
ATOM     69  F   UNL A   1      42.221  24.095  36.496  1.00  0.00    -0.200 F 
ENDBRANCH  45  59
BRANCH  46  70
ATOM     70  C   UNL A   1      43.173  24.822  26.252  1.00  0.00     0.064 A 
ATOM     71  C   UNL A   1      44.121  24.520  25.259  1.00  0.00     0.173 A 
ATOM     72  C   UNL A   1      42.454  23.730  26.778  1.00  0.00     0.173 A 
ATOM     73  F   UNL A   1      44.884  25.492  24.737  1.00  0.00    -0.203 F 
ATOM     74  C   UNL A   1      44.357  23.204  24.842  1.00  0.00     0.198 A 
ATOM     75  C   UNL A   1      42.687  22.419  26.357  1.00  0.00     0.198 A 
ATOM     76  F   UNL A   1      41.581  23.896  27.781  1.00  0.00    -0.203 F 
ATOM     77  F   UNL A   1      45.317  22.948  23.941  1.00  0.00    -0.200 F 
ATOM     78  C   UNL A   1      43.649  22.153  25.401  1.00  0.00     0.200 A 
ATOM     79  F   UNL A   1      42.021  21.409  26.934  1.00  0.00    -0.200 F 
ATOM     80  F   UNL A   1      43.920  20.888  25.052  1.00  0.00    -0.200 F 
ENDBRANCH  46  70
BRANCH  58  81
ATOM     81  C   UNL A   1      45.240  30.316  28.651  1.00  0.00     0.064 A 
ATOM     82  C   UNL A   1      44.307  30.896  27.774  1.00  0.00     0.173 A 
ATOM     83  C   UNL A   1      46.538  30.843  28.653  1.00  0.00     0.173 A 
ATOM     84  F   UNL A   1      43.023  30.515  27.781  1.00  0.00    -0.203 F 
ATOM     85  C   UNL A   1      44.670  31.938  26.921  1.00  0.00     0.198 A 
ATOM     86  C   UNL A   1      46.887  31.907  27.826  1.00  0.00     0.198 A 
ATOM     87  F   UNL A   1      47.456  30.364  29.508  1.00  0.00    -0.203 F 
ATOM     88  F   UNL A   1      43.760  32.480  26.096  1.00  0.00    -0.200 F 
ATOM     89  C   UNL A   1      45.956  32.450  26.956  1.00  0.00     0.200 A 
ATOM     90  F   UNL A   1      48.118  32.432  27.902  1.00  0.00    -0.200 F 
ATOM     91  F   UNL A   1      46.289  33.489  26.178  1.00  0.00    -0.200 F 
ENDBRANCH  58  81
ENDBRANCH  32  33
ENDBRANCH  24  27
ENDBRANCH  22  23
ENDBRANCH   1  22
TORSDOF 13
ENDMDL
MODEL 3
REMARK VINA RESULT:     -11.9      3.483      5.087
REMARK SMILES CCn1c(=O)n(CC)c2cc(C(=O)NCCCCNC(=O)c3ccc(-c4c5nc(c(-c6c(F)c(F)c(F)c(F)c6F)c6ccc([nH]6)c(-c6c(F)c(F)c(F)c(F)c6F)c6nc(c(-c7c(F)c(F)c(F)c(F)c7F)c7ccc4[nH]7)C=C6)C=C5)cc3)ccc21
REMARK SMILES IDX 17 1 16 2 15 3 14 4 12 5 13 6 11 8 3 9 4 10 87 11 5 12 6 13
REMARK SMILES IDX 9 14 86 15 10 16 85 17 2 18 1 19 7 20 8 21 18 22 19 23 20 24
REMARK SMILES IDX 21 26 22 27 23 28 84 29 24 30 83 31 25 32 26 33 27 34 77 35
REMARK SMILES IDX 28 36 82 37 76 38 78 39 29 40 81 41 75 42 74 43 30 45 62 46
REMARK SMILES IDX 42 47 61 48 43 49 46 50 60 51 79 52 44 53 45 54 59 56 80 57
REMARK SMILES IDX 47 58 31 59 32 60 40 61 33 62 34 63 38 64 41 65 35 66 36 67
REMARK SMILES IDX 39 68 37 69 63 70 64 71 72 72 65 73 66 74 70 75 73 76 67 77
REMARK SMILES IDX 68 78 71 79 69 80 48 81 49 82 57 83 50 84 51 85 55 86 58 87
REMARK SMILES IDX 52 88 53 89 56 90 54 91
REMARK H PARENT 14 7 19 25 78 44 46 55
REMARK Flexibility Score: inf
ROOT
ATOM      1  C   UNL A   1      39.228  21.966  26.086  1.00  0.00     0.023 C 
ENDROOT
BRANCH   1   2
ATOM      2  C   UNL A   1      38.682  23.330  26.537  1.00  0.00     0.023 C 
BRANCH   2   3
ATOM      3  C   UNL A   1      37.485  23.814  25.713  1.00  0.00     0.116 C 
BRANCH   3   4
ATOM      4  N   UNL A   1      36.279  23.108  26.095  1.00  0.00    -0.352 N 
ATOM      5  C   UNL A   1      34.946  23.377  25.919  1.00  0.00     0.251 C 
ATOM      6  O   UNL A   1      34.146  22.530  26.321  1.00  0.00    -0.269 OA
ATOM      7  H   UNL A   1      36.451  22.267  26.578  1.00  0.00     0.163 HD
BRANCH   5   8
ATOM      8  C   UNL A   1      34.427  24.595  25.232  1.00  0.00     0.042 A 
ATOM      9  N   UNL A   1      32.787  28.160  23.801  1.00  0.00    -0.292 N 
ATOM     10  C   UNL A   1      32.791  28.919  25.001  1.00  0.00     0.329 A 
ATOM     11  C   UNL A   1      33.324  26.892  24.080  1.00  0.00     0.069 A 
ATOM     12  O   UNL A   1      32.423  30.083  25.126  1.00  0.00    -0.248 OA
ATOM     13  N   UNL A   1      33.324  28.089  26.006  1.00  0.00    -0.292 N 
ATOM     14  C   UNL A   1      33.633  26.843  25.443  1.00  0.00     0.070 A 
ATOM     15  C   UNL A   1      33.610  25.819  23.268  1.00  0.00     0.029 A 
ATOM     16  C   UNL A   1      34.166  25.715  26.039  1.00  0.00     0.042 A 
ATOM     17  C   UNL A   1      34.209  24.694  23.846  1.00  0.00     0.016 A 
BRANCH   9  18
ATOM     18  C   UNL A   1      32.309  28.734  22.568  1.00  0.00     0.124 C 
ATOM     19  C   UNL A   1      30.840  29.082  22.424  1.00  0.00     0.028 C 
ENDBRANCH   9  18
BRANCH  13  20
ATOM     20  C   UNL A   1      33.613  28.509  27.355  1.00  0.00     0.124 C 
ATOM     21  C   UNL A   1      34.960  29.194  27.503  1.00  0.00     0.028 C 
ENDBRANCH  13  20
ENDBRANCH   5   8
ENDBRANCH   3   4
ENDBRANCH   2   3
ENDBRANCH   1   2
BRANCH   1  22
ATOM     22  C   UNL A   1      40.617  21.644  26.646  1.00  0.00     0.116 C 
BRANCH  22  23
ATOM     23  N   UNL A   1      41.685  22.228  25.859  1.00  0.00    -0.352 N 
ATOM     24  C   UNL A   1      42.292  23.449  25.811  1.00  0.00     0.251 C 
ATOM     25  H   UNL A   1      42.062  21.594  25.206  1.00  0.00     0.163 HD
ATOM     26  O   UNL A   1      43.293  23.531  25.094  1.00  0.00    -0.269 OA
BRANCH  24  27
ATOM     27  C   UNL A   1      41.800  24.677  26.487  1.00  0.00     0.039 A 
ATOM     28  C   UNL A   1      41.093  25.706  25.869  1.00  0.00     0.014 A 
ATOM     29  C   UNL A   1      42.191  24.841  27.832  1.00  0.00     0.014 A 
ATOM     30  C   UNL A   1      40.887  26.904  26.531  1.00  0.00     0.010 A 
ATOM     31  C   UNL A   1      41.975  26.036  28.506  1.00  0.00     0.010 A 
ATOM     32  C   UNL A   1      41.379  27.088  27.828  1.00  0.00    -0.014 A 
BRANCH  32  33
ATOM     33  C   UNL A   1      41.161  28.394  28.434  1.00  0.00     0.031 A 
ATOM     34  C   UNL A   1      42.237  29.381  28.139  1.00  0.00     0.074 A 
ATOM     35  C   UNL A   1      40.091  28.704  29.193  1.00  0.00     0.049 A 
ATOM     36  N   UNL A   1      43.078  29.901  28.972  1.00  0.00    -0.248 NA
ATOM     37  C   UNL A   1      42.513  29.698  26.730  1.00  0.00     0.031 C 
ATOM     38  C   UNL A   1      38.857  27.948  29.403  1.00  0.00     0.029 A 
ATOM     39  N   UNL A   1      39.875  29.839  29.914  1.00  0.00    -0.354 N 
ATOM     40  C   UNL A   1      43.895  30.742  28.220  1.00  0.00     0.074 A 
ATOM     41  C   UNL A   1      43.590  30.478  26.839  1.00  0.00     0.031 C 
ATOM     42  C   UNL A   1      37.939  28.746  29.999  1.00  0.00     0.029 A 
ATOM     43  C   UNL A   1      38.567  30.008  30.345  1.00  0.00     0.049 A 
ATOM     44  H   UNL A   1      40.589  30.487  30.112  1.00  0.00     0.167 HD
ATOM     45  C   UNL A   1      44.615  31.734  28.812  1.00  0.00     0.037 A 
ATOM     46  C   UNL A   1      38.044  31.138  30.890  1.00  0.00     0.037 A 
ATOM     47  C   UNL A   1      44.814  31.468  30.214  1.00  0.00     0.049 A 
ATOM     48  C   UNL A   1      39.180  31.929  31.433  1.00  0.00     0.074 A 
ATOM     49  C   UNL A   1      45.450  30.468  30.926  1.00  0.00     0.029 A 
ATOM     50  N   UNL A   1      44.012  32.109  31.123  1.00  0.00    -0.354 N 
ATOM     51  N   UNL A   1      39.897  31.551  32.455  1.00  0.00    -0.248 NA
ATOM     52  C   UNL A   1      39.814  32.889  30.539  1.00  0.00     0.031 C 
ATOM     53  C   UNL A   1      44.618  30.241  32.061  1.00  0.00     0.029 A 
ATOM     54  C   UNL A   1      43.571  31.159  32.007  1.00  0.00     0.049 A 
ATOM     55  H   UNL A   1      43.794  33.069  31.138  1.00  0.00     0.167 HD
ATOM     56  C   UNL A   1      41.199  31.877  32.109  1.00  0.00     0.074 A 
ATOM     57  C   UNL A   1      41.080  32.748  30.941  1.00  0.00     0.031 C 
ATOM     58  C   UNL A   1      42.262  31.186  32.613  1.00  0.00     0.037 A 
BRANCH  45  59
ATOM     59  C   UNL A   1      44.800  33.109  28.217  1.00  0.00     0.064 A 
ATOM     60  C   UNL A   1      46.104  33.555  27.916  1.00  0.00     0.173 A 
ATOM     61  C   UNL A   1      43.807  34.113  28.235  1.00  0.00     0.173 A 
ATOM     62  F   UNL A   1      47.131  32.691  27.875  1.00  0.00    -0.203 F 
ATOM     63  C   UNL A   1      46.403  34.910  27.756  1.00  0.00     0.198 A 
ATOM     64  C   UNL A   1      44.101  35.458  28.026  1.00  0.00     0.198 A 
ATOM     65  F   UNL A   1      42.536  33.856  28.563  1.00  0.00    -0.203 F 
ATOM     66  F   UNL A   1      47.678  35.297  27.612  1.00  0.00    -0.200 F 
ATOM     67  C   UNL A   1      45.403  35.862  27.824  1.00  0.00     0.200 A 
ATOM     68  F   UNL A   1      43.119  36.366  28.111  1.00  0.00    -0.200 F 
ATOM     69  F   UNL A   1      45.696  37.165  27.744  1.00  0.00    -0.200 F 
ENDBRANCH  45  59
BRANCH  46  70
ATOM     70  C   UNL A   1      36.725  31.755  30.587  1.00  0.00     0.064 A 
ATOM     71  C   UNL A   1      35.846  32.122  31.620  1.00  0.00     0.173 A 
ATOM     72  C   UNL A   1      36.432  32.270  29.309  1.00  0.00     0.173 A 
ATOM     73  F   UNL A   1      36.076  31.717  32.878  1.00  0.00    -0.203 F 
ATOM     74  C   UNL A   1      34.758  32.975  31.393  1.00  0.00     0.198 A 
ATOM     75  C   UNL A   1      35.344  33.116  29.083  1.00  0.00     0.198 A 
ATOM     76  F   UNL A   1      37.248  32.044  28.269  1.00  0.00    -0.203 F 
ATOM     77  F   UNL A   1      33.980  33.356  32.416  1.00  0.00    -0.200 F 
ATOM     78  C   UNL A   1      34.516  33.482  30.127  1.00  0.00     0.200 A 
ATOM     79  F   UNL A   1      35.145  33.628  27.860  1.00  0.00    -0.200 F 
ATOM     80  F   UNL A   1      33.517  34.350  29.921  1.00  0.00    -0.200 F 
ENDBRANCH  46  70
BRANCH  58  81
ATOM     81  C   UNL A   1      42.015  30.204  33.722  1.00  0.00     0.064 A 
ATOM     82  C   UNL A   1      41.637  28.866  33.515  1.00  0.00     0.173 A 
ATOM     83  C   UNL A   1      42.358  30.582  35.027  1.00  0.00     0.173 A 
ATOM     84  F   UNL A   1      41.389  28.402  32.283  1.00  0.00    -0.203 F 
ATOM     85  C   UNL A   1      41.582  27.959  34.573  1.00  0.00     0.198 A 
ATOM     86  C   UNL A   1      42.336  29.665  36.075  1.00  0.00     0.198 A 
ATOM     87  F   UNL A   1      42.778  31.833  35.275  1.00  0.00    -0.203 F 
ATOM     88  F   UNL A   1      41.224  26.685  34.349  1.00  0.00    -0.200 F 
ATOM     89  C   UNL A   1      41.942  28.357  35.849  1.00  0.00     0.200 A 
ATOM     90  F   UNL A   1      42.736  30.044  37.297  1.00  0.00    -0.200 F 
ATOM     91  F   UNL A   1      41.944  27.472  36.856  1.00  0.00    -0.200 F 
ENDBRANCH  58  81
ENDBRANCH  32  33
ENDBRANCH  24  27
ENDBRANCH  22  23
ENDBRANCH   1  22
TORSDOF 13
ENDMDL
