MODEL 1
REMARK VINA RESULT:     -14.5      0.000      0.000
REMARK SMILES Cc1cccc(N2C(=O)/C(=C/c3ccc(C(=O)NCCCCNC(=O)c4ccc(-c5c6nc(c(-c7c(F)c(F)c(F)c(F)c7F)c7ccc([nH]7)c(-c7c(F)c(F)c(F)c(F)c7F)c7nc(c(-c8c(F)c(F)c(F)c(F)c8F)c8ccc5[nH]8)C=C7)C=C6)cc4)cc3)c3ccccc3C2=O)c1
REMARK SMILES IDX 20 1 19 2 18 3 16 4 17 5 15 7 12 8 13 9 90 10 14 11 89 12
REMARK SMILES IDX 11 13 7 14 8 15 97 16 9 17 10 18 96 19 98 20 91 21 95 22
REMARK SMILES IDX 92 23 94 24 93 25 6 26 1 27 2 28 3 29 99 30 4 31 5 32 21 33
REMARK SMILES IDX 22 34 23 35 24 36 25 38 26 39 27 40 88 41 28 42 87 43 29 44
REMARK SMILES IDX 30 45 31 46 81 47 32 48 86 49 80 50 82 51 33 52 85 53 79 54
REMARK SMILES IDX 78 55 34 57 66 58 46 59 65 60 47 61 50 62 64 63 83 64 48 65
REMARK SMILES IDX 49 66 63 68 84 69 51 70 35 71 36 72 44 73 37 74 38 75 42 76
REMARK SMILES IDX 45 77 39 78 40 79 43 80 41 81 67 82 68 83 76 84 69 85 70 86
REMARK SMILES IDX 74 87 77 88 71 89 72 90 75 91 73 92 52 93 53 94 61 95 54 96
REMARK SMILES IDX 55 97 59 98 62 99 56 100 57 101 60 102 58 103
REMARK H PARENT 18 6 23 37 82 56 50 67
REMARK Flexibility Score: inf
ROOT
ATOM      1  C   UNL A   1      35.772  31.929  29.298  1.00  0.00     0.023 C 
ENDROOT
BRANCH   1   2
ATOM      2  C   UNL A   1      35.067  31.305  28.086  1.00  0.00     0.116 C 
BRANCH   2   3
ATOM      3  N   UNL A   1      33.795  31.932  27.753  1.00  0.00    -0.352 N 
ATOM      4  C   UNL A   1      32.657  31.413  27.180  1.00  0.00     0.251 C 
ATOM      5  O   UNL A   1      31.717  32.155  26.909  1.00  0.00    -0.269 OA
ATOM      6  H   UNL A   1      33.739  32.890  27.975  1.00  0.00     0.163 HD
BRANCH   4   7
ATOM      7  C   UNL A   1      32.575  29.978  26.835  1.00  0.00     0.039 A 
ATOM      8  C   UNL A   1      32.682  27.221  26.421  1.00  0.00    -0.025 A 
ATOM      9  C   UNL A   1      33.620  28.058  25.806  1.00  0.00     0.009 A 
ATOM     10  C   UNL A   1      31.604  27.788  27.115  1.00  0.00     0.009 A 
ATOM     11  C   UNL A   1      33.567  29.437  26.011  1.00  0.00     0.014 A 
ATOM     12  C   UNL A   1      31.547  29.166  27.319  1.00  0.00     0.014 A 
BRANCH   8  13
ATOM     13  C   UNL A   1      32.879  25.768  26.369  1.00  0.00     0.022 C 
ATOM     14  N   UNL A   1      33.599  22.868  24.360  1.00  0.00    -0.242 N 
ATOM     15  C   UNL A   1      33.088  23.523  25.501  1.00  0.00     0.265 C 
ATOM     16  C   UNL A   1      33.764  23.554  23.136  1.00  0.00     0.265 C 
ATOM     17  O   UNL A   1      33.009  23.063  26.640  1.00  0.00    -0.268 OA
ATOM     18  C   UNL A   1      32.697  24.963  25.296  1.00  0.00     0.049 C 
ATOM     19  C   UNL A   1      32.878  24.716  22.886  1.00  0.00     0.048 A 
ATOM     20  O   UNL A   1      34.546  23.288  22.227  1.00  0.00    -0.268 OA
ATOM     21  C   UNL A   1      32.279  25.375  23.953  1.00  0.00    -0.000 A 
ATOM     22  C   UNL A   1      32.629  25.125  21.566  1.00  0.00     0.014 A 
ATOM     23  C   UNL A   1      31.332  26.375  23.680  1.00  0.00     0.010 A 
ATOM     24  C   UNL A   1      31.738  26.166  21.308  1.00  0.00     0.001 A 
ATOM     25  C   UNL A   1      31.074  26.777  22.366  1.00  0.00     0.001 A 
BRANCH  14  26
ATOM     26  C   UNL A   1      34.065  21.486  24.486  1.00  0.00     0.053 A 
ATOM     27  C   UNL A   1      32.687  17.922  24.056  1.00  0.00     0.044 C 
ATOM     28  C   UNL A   1      33.633  19.055  24.333  1.00  0.00    -0.049 A 
ATOM     29  C   UNL A   1      34.947  18.783  24.708  1.00  0.00     0.003 A 
ATOM     30  C   UNL A   1      33.216  20.394  24.207  1.00  0.00     0.030 A 
ATOM     31  C   UNL A   1      35.817  19.832  24.966  1.00  0.00     0.002 A 
ATOM     32  C   UNL A   1      35.379  21.159  24.859  1.00  0.00     0.027 A 
ENDBRANCH  14  26
ENDBRANCH   8  13
ENDBRANCH   4   7
ENDBRANCH   2   3
ENDBRANCH   1   2
BRANCH   1  33
ATOM     33  C   UNL A   1      35.031  33.071  29.994  1.00  0.00     0.023 C 
BRANCH  33  34
ATOM     34  C   UNL A   1      34.433  32.730  31.353  1.00  0.00     0.116 C 
BRANCH  34  35
ATOM     35  N   UNL A   1      33.956  33.871  32.124  1.00  0.00    -0.352 N 
ATOM     36  C   UNL A   1      34.605  34.602  33.114  1.00  0.00     0.251 C 
ATOM     37  H   UNL A   1      33.042  34.167  31.914  1.00  0.00     0.163 HD
ATOM     38  O   UNL A   1      34.030  35.499  33.692  1.00  0.00    -0.269 OA
BRANCH  36  39
ATOM     39  C   UNL A   1      36.053  34.364  33.362  1.00  0.00     0.039 A 
ATOM     40  C   UNL A   1      36.977  34.972  32.502  1.00  0.00     0.014 A 
ATOM     41  C   UNL A   1      36.482  33.414  34.284  1.00  0.00     0.014 A 
ATOM     42  C   UNL A   1      38.256  34.433  32.384  1.00  0.00     0.010 A 
ATOM     43  C   UNL A   1      37.709  32.811  34.097  1.00  0.00     0.010 A 
ATOM     44  C   UNL A   1      38.562  33.270  33.089  1.00  0.00    -0.014 A 
BRANCH  44  45
ATOM     45  C   UNL A   1      39.666  32.385  32.739  1.00  0.00     0.031 A 
ATOM     46  C   UNL A   1      39.435  31.158  31.952  1.00  0.00     0.074 A 
ATOM     47  C   UNL A   1      40.925  32.771  33.046  1.00  0.00     0.049 A 
ATOM     48  N   UNL A   1      40.281  30.189  31.857  1.00  0.00    -0.248 NA
ATOM     49  C   UNL A   1      38.177  30.886  31.266  1.00  0.00     0.031 C 
ATOM     50  C   UNL A   1      42.176  32.231  32.522  1.00  0.00     0.029 A 
ATOM     51  N   UNL A   1      41.327  33.633  34.084  1.00  0.00    -0.354 N 
ATOM     52  C   UNL A   1      39.822  29.317  30.895  1.00  0.00     0.074 A 
ATOM     53  C   UNL A   1      38.458  29.723  30.668  1.00  0.00     0.031 C 
ATOM     54  C   UNL A   1      43.165  32.511  33.386  1.00  0.00     0.029 A 
ATOM     55  C   UNL A   1      42.547  33.100  34.561  1.00  0.00     0.049 A 
ATOM     56  H   UNL A   1      40.858  34.437  34.408  1.00  0.00     0.167 HD
ATOM     57  C   UNL A   1      40.710  28.453  30.323  1.00  0.00     0.037 A 
ATOM     58  C   UNL A   1      42.664  32.611  35.829  1.00  0.00     0.037 A 
ATOM     59  C   UNL A   1      41.963  28.426  31.087  1.00  0.00     0.049 A 
ATOM     60  C   UNL A   1      43.088  31.162  35.894  1.00  0.00     0.074 A 
ATOM     61  C   UNL A   1      43.220  28.968  30.873  1.00  0.00     0.029 A 
ATOM     62  N   UNL A   1      41.943  27.991  32.411  1.00  0.00    -0.354 N 
ATOM     63  N   UNL A   1      42.979  30.330  34.897  1.00  0.00    -0.248 NA
ATOM     64  C   UNL A   1      43.624  30.529  37.096  1.00  0.00     0.031 C 
ATOM     65  C   UNL A   1      43.929  28.925  32.102  1.00  0.00     0.029 A 
ATOM     66  C   UNL A   1      43.119  28.328  33.052  1.00  0.00     0.049 A 
ATOM     67  H   UNL A   1      41.194  27.509  32.831  1.00  0.00     0.167 HD
ATOM     68  C   UNL A   1      43.384  29.083  35.296  1.00  0.00     0.074 A 
ATOM     69  C   UNL A   1      43.799  29.264  36.674  1.00  0.00     0.031 C 
ATOM     70  C   UNL A   1      43.323  28.006  34.458  1.00  0.00     0.037 A 
BRANCH  57  71
ATOM     71  C   UNL A   1      40.575  27.803  28.949  1.00  0.00     0.064 A 
ATOM     72  C   UNL A   1      39.790  26.633  28.791  1.00  0.00     0.173 A 
ATOM     73  C   UNL A   1      41.264  28.182  27.778  1.00  0.00     0.173 A 
ATOM     74  F   UNL A   1      39.028  26.164  29.789  1.00  0.00    -0.203 F 
ATOM     75  C   UNL A   1      39.764  25.885  27.606  1.00  0.00     0.198 A 
ATOM     76  C   UNL A   1      41.225  27.445  26.589  1.00  0.00     0.198 A 
ATOM     77  F   UNL A   1      42.022  29.276  27.710  1.00  0.00    -0.203 F 
ATOM     78  F   UNL A   1      39.037  24.760  27.545  1.00  0.00    -0.200 F 
ATOM     79  C   UNL A   1      40.490  26.286  26.507  1.00  0.00     0.200 A 
ATOM     80  F   UNL A   1      41.929  27.868  25.528  1.00  0.00    -0.200 F 
ATOM     81  F   UNL A   1      40.482  25.567  25.377  1.00  0.00    -0.200 F 
ENDBRANCH  57  71
BRANCH  58  82
ATOM     82  C   UNL A   1      41.761  33.277  36.804  1.00  0.00     0.064 A 
ATOM     83  C   UNL A   1      42.167  34.506  37.360  1.00  0.00     0.173 A 
ATOM     84  C   UNL A   1      40.406  32.942  36.897  1.00  0.00     0.173 A 
ATOM     85  F   UNL A   1      43.457  34.878  37.291  1.00  0.00    -0.203 F 
ATOM     86  C   UNL A   1      41.243  35.409  37.877  1.00  0.00     0.198 A 
ATOM     87  C   UNL A   1      39.483  33.845  37.430  1.00  0.00     0.198 A 
ATOM     88  F   UNL A   1      39.952  31.798  36.366  1.00  0.00    -0.203 F 
ATOM     89  F   UNL A   1      41.650  36.620  38.289  1.00  0.00    -0.200 F 
ATOM     90  C   UNL A   1      39.897  35.088  37.887  1.00  0.00     0.200 A 
ATOM     91  F   UNL A   1      38.175  33.551  37.408  1.00  0.00    -0.200 F 
ATOM     92  F   UNL A   1      38.994  35.993  38.291  1.00  0.00    -0.200 F 
ENDBRANCH  58  82
BRANCH  70  93
ATOM     93  C   UNL A   1      43.523  26.565  34.858  1.00  0.00     0.064 A 
ATOM     94  C   UNL A   1      42.472  25.671  35.124  1.00  0.00     0.173 A 
ATOM     95  C   UNL A   1      44.818  25.993  34.840  1.00  0.00     0.173 A 
ATOM     96  F   UNL A   1      41.192  26.059  35.054  1.00  0.00    -0.203 F 
ATOM     97  C   UNL A   1      42.704  24.322  35.414  1.00  0.00     0.198 A 
ATOM     98  C   UNL A   1      45.040  24.636  35.073  1.00  0.00     0.198 A 
ATOM     99  F   UNL A   1      45.905  26.731  34.572  1.00  0.00    -0.203 F 
ATOM    100  F   UNL A   1      41.668  23.518  35.701  1.00  0.00    -0.200 F 
ATOM    101  C   UNL A   1      43.983  23.803  35.376  1.00  0.00     0.200 A 
ATOM    102  F   UNL A   1      46.281  24.138  34.980  1.00  0.00    -0.200 F 
ATOM    103  F   UNL A   1      44.195  22.501  35.607  1.00  0.00    -0.200 F 
ENDBRANCH  70  93
ENDBRANCH  44  45
ENDBRANCH  36  39
ENDBRANCH  34  35
ENDBRANCH  33  34
ENDBRANCH   1  33
TORSDOF 13
ENDMDL
MODEL 2
REMARK VINA RESULT:     -14.0      5.189     12.613
REMARK SMILES Cc1cccc(N2C(=O)/C(=C/c3ccc(C(=O)NCCCCNC(=O)c4ccc(-c5c6nc(c(-c7c(F)c(F)c(F)c(F)c7F)c7ccc([nH]7)c(-c7c(F)c(F)c(F)c(F)c7F)c7nc(c(-c8c(F)c(F)c(F)c(F)c8F)c8ccc5[nH]8)C=C7)C=C6)cc4)cc3)c3ccccc3C2=O)c1
REMARK SMILES IDX 20 1 19 2 18 3 16 4 17 5 15 7 12 8 13 9 90 10 14 11 89 12
REMARK SMILES IDX 11 13 7 14 8 15 97 16 9 17 10 18 96 19 98 20 91 21 95 22
REMARK SMILES IDX 92 23 94 24 93 25 6 26 1 27 2 28 3 29 99 30 4 31 5 32 21 33
REMARK SMILES IDX 22 34 23 35 24 36 25 38 26 39 27 40 88 41 28 42 87 43 29 44
REMARK SMILES IDX 30 45 31 46 81 47 32 48 86 49 80 50 82 51 33 52 85 53 79 54
REMARK SMILES IDX 78 55 34 57 66 58 46 59 65 60 47 61 50 62 64 63 83 64 48 65
REMARK SMILES IDX 49 66 63 68 84 69 51 70 35 71 36 72 44 73 37 74 38 75 42 76
REMARK SMILES IDX 45 77 39 78 40 79 43 80 41 81 67 82 68 83 76 84 69 85 70 86
REMARK SMILES IDX 74 87 77 88 71 89 72 90 75 91 73 92 52 93 53 94 61 95 54 96
REMARK SMILES IDX 55 97 59 98 62 99 56 100 57 101 60 102 58 103
REMARK H PARENT 18 6 23 37 82 56 50 67
REMARK Flexibility Score: inf
ROOT
ATOM      1  C   UNL A   1      43.765  23.147  30.560  1.00  0.00     0.023 C 
ENDROOT
BRANCH   1   2
ATOM      2  C   UNL A   1      44.215  24.044  31.720  1.00  0.00     0.116 C 
BRANCH   2   3
ATOM      3  N   UNL A   1      44.038  23.444  33.036  1.00  0.00    -0.352 N 
ATOM      4  C   UNL A   1      43.585  23.982  34.219  1.00  0.00     0.251 C 
ATOM      5  O   UNL A   1      43.599  23.305  35.242  1.00  0.00    -0.269 OA
ATOM      6  H   UNL A   1      44.285  22.492  33.089  1.00  0.00     0.163 HD
BRANCH   4   7
ATOM      7  C   UNL A   1      43.135  25.389  34.282  1.00  0.00     0.039 A 
ATOM      8  C   UNL A   1      42.478  28.068  34.702  1.00  0.00    -0.025 A 
ATOM      9  C   UNL A   1      41.805  27.063  35.407  1.00  0.00     0.009 A 
ATOM     10  C   UNL A   1      43.368  27.713  33.679  1.00  0.00     0.009 A 
ATOM     11  C   UNL A   1      42.132  25.723  35.197  1.00  0.00     0.014 A 
ATOM     12  C   UNL A   1      43.694  26.374  33.465  1.00  0.00     0.014 A 
BRANCH   8  13
ATOM     13  C   UNL A   1      42.274  29.469  35.086  1.00  0.00     0.022 C 
ATOM     14  N   UNL A   1      39.942  32.129  35.757  1.00  0.00    -0.242 N 
ATOM     15  C   UNL A   1      41.211  31.613  35.419  1.00  0.00     0.265 C 
ATOM     16  C   UNL A   1      38.767  31.371  35.555  1.00  0.00     0.265 C 
ATOM     17  O   UNL A   1      42.303  32.131  35.654  1.00  0.00    -0.268 OA
ATOM     18  C   UNL A   1      41.203  30.243  34.793  1.00  0.00     0.049 C 
ATOM     19  C   UNL A   1      38.796  30.350  34.480  1.00  0.00     0.048 A 
ATOM     20  O   UNL A   1      37.698  31.472  36.151  1.00  0.00    -0.268 OA
ATOM     21  C   UNL A   1      40.012  29.840  34.040  1.00  0.00    -0.000 A 
ATOM     22  C   UNL A   1      37.592  29.926  33.895  1.00  0.00     0.014 A 
ATOM     23  C   UNL A   1      40.019  28.989  32.924  1.00  0.00     0.010 A 
ATOM     24  C   UNL A   1      37.606  29.025  32.832  1.00  0.00     0.001 A 
ATOM     25  C   UNL A   1      38.823  28.573  32.333  1.00  0.00     0.001 A 
BRANCH  14  26
ATOM     26  C   UNL A   1      39.862  33.427  36.431  1.00  0.00     0.053 A 
ATOM     27  C   UNL A   1      39.633  34.816  40.009  1.00  0.00     0.044 C 
ATOM     28  C   UNL A   1      39.717  34.758  38.511  1.00  0.00    -0.049 A 
ATOM     29  C   UNL A   1      39.719  35.939  37.772  1.00  0.00     0.003 A 
ATOM     30  C   UNL A   1      39.810  33.525  37.837  1.00  0.00     0.030 A 
ATOM     31  C   UNL A   1      39.796  35.882  36.388  1.00  0.00     0.002 A 
ATOM     32  C   UNL A   1      39.862  34.645  35.732  1.00  0.00     0.027 A 
ENDBRANCH  14  26
ENDBRANCH   8  13
ENDBRANCH   4   7
ENDBRANCH   2   3
ENDBRANCH   1   2
BRANCH   1  33
ATOM     33  C   UNL A   1      44.147  23.618  29.157  1.00  0.00     0.023 C 
BRANCH  33  34
ATOM     34  C   UNL A   1      43.095  24.456  28.439  1.00  0.00     0.116 C 
BRANCH  34  35
ATOM     35  N   UNL A   1      42.254  23.723  27.502  1.00  0.00    -0.352 N 
ATOM     36  C   UNL A   1      40.979  24.025  27.035  1.00  0.00     0.251 C 
ATOM     37  H   UNL A   1      42.646  22.893  27.146  1.00  0.00     0.163 HD
ATOM     38  O   UNL A   1      40.401  23.265  26.288  1.00  0.00    -0.269 OA
BRANCH  36  39
ATOM     39  C   UNL A   1      40.384  25.352  27.354  1.00  0.00     0.039 A 
ATOM     40  C   UNL A   1      40.745  26.444  26.554  1.00  0.00     0.014 A 
ATOM     41  C   UNL A   1      39.654  25.556  28.521  1.00  0.00     0.014 A 
ATOM     42  C   UNL A   1      40.615  27.734  27.061  1.00  0.00     0.010 A 
ATOM     43  C   UNL A   1      39.620  26.821  29.071  1.00  0.00     0.010 A 
ATOM     44  C   UNL A   1      40.176  27.897  28.374  1.00  0.00    -0.014 A 
BRANCH  44  45
ATOM     45  C   UNL A   1      40.401  29.110  29.151  1.00  0.00     0.031 A 
ATOM     46  C   UNL A   1      39.354  30.145  29.262  1.00  0.00     0.074 A 
ATOM     47  C   UNL A   1      41.542  29.215  29.868  1.00  0.00     0.049 A 
ATOM     48  N   UNL A   1      39.570  31.351  29.667  1.00  0.00    -0.248 NA
ATOM     49  C   UNL A   1      37.977  29.923  28.839  1.00  0.00     0.031 C 
ATOM     50  C   UNL A   1      41.834  30.154  30.947  1.00  0.00     0.029 A 
ATOM     51  N   UNL A   1      42.776  28.590  29.609  1.00  0.00    -0.354 N 
ATOM     52  C   UNL A   1      38.349  31.968  29.832  1.00  0.00     0.074 A 
ATOM     53  C   UNL A   1      37.415  31.089  29.175  1.00  0.00     0.031 C 
ATOM     54  C   UNL A   1      43.166  30.278  31.066  1.00  0.00     0.029 A 
ATOM     55  C   UNL A   1      43.760  29.542  29.963  1.00  0.00     0.049 A 
ATOM     56  H   UNL A   1      42.923  27.682  29.256  1.00  0.00     0.167 HD
ATOM     57  C   UNL A   1      38.282  33.075  30.627  1.00  0.00     0.037 A 
ATOM     58  C   UNL A   1      44.599  30.081  29.033  1.00  0.00     0.037 A 
ATOM     59  C   UNL A   1      39.630  33.577  30.920  1.00  0.00     0.049 A 
ATOM     60  C   UNL A   1      44.522  31.586  28.930  1.00  0.00     0.074 A 
ATOM     61  C   UNL A   1      40.443  33.520  32.040  1.00  0.00     0.029 A 
ATOM     62  N   UNL A   1      40.435  34.018  29.871  1.00  0.00    -0.354 N 
ATOM     63  N   UNL A   1      43.514  32.291  29.363  1.00  0.00    -0.248 NA
ATOM     64  C   UNL A   1      45.547  32.407  28.293  1.00  0.00     0.031 C 
ATOM     65  C   UNL A   1      41.763  33.855  31.638  1.00  0.00     0.029 A 
ATOM     66  C   UNL A   1      41.745  34.149  30.285  1.00  0.00     0.049 A 
ATOM     67  H   UNL A   1      40.114  34.209  28.960  1.00  0.00     0.167 HD
ATOM     68  C   UNL A   1      43.716  33.611  29.060  1.00  0.00     0.074 A 
ATOM     69  C   UNL A   1      45.013  33.637  28.409  1.00  0.00     0.031 C 
ATOM     70  C   UNL A   1      42.786  34.566  29.355  1.00  0.00     0.037 A 
BRANCH  57  71
ATOM     71  C   UNL A   1      37.041  33.589  31.351  1.00  0.00     0.064 A 
ATOM     72  C   UNL A   1      35.923  34.046  30.608  1.00  0.00     0.173 A 
ATOM     73  C   UNL A   1      36.910  33.778  32.743  1.00  0.00     0.173 A 
ATOM     74  F   UNL A   1      35.859  33.894  29.278  1.00  0.00    -0.203 F 
ATOM     75  C   UNL A   1      34.827  34.692  31.197  1.00  0.00     0.198 A 
ATOM     76  C   UNL A   1      35.808  34.408  33.333  1.00  0.00     0.198 A 
ATOM     77  F   UNL A   1      37.834  33.379  33.615  1.00  0.00    -0.203 F 
ATOM     78  F   UNL A   1      33.828  35.144  30.426  1.00  0.00    -0.200 F 
ATOM     79  C   UNL A   1      34.774  34.883  32.560  1.00  0.00     0.200 A 
ATOM     80  F   UNL A   1      35.774  34.566  34.665  1.00  0.00    -0.200 F 
ATOM     81  F   UNL A   1      33.738  35.514  33.127  1.00  0.00    -0.200 F 
ENDBRANCH  57  71
BRANCH  58  82
ATOM     82  C   UNL A   1      44.888  29.164  27.899  1.00  0.00     0.064 A 
ATOM     83  C   UNL A   1      45.774  28.091  28.115  1.00  0.00     0.173 A 
ATOM     84  C   UNL A   1      44.053  29.098  26.778  1.00  0.00     0.173 A 
ATOM     85  F   UNL A   1      46.592  28.102  29.181  1.00  0.00    -0.203 F 
ATOM     86  C   UNL A   1      45.740  26.951  27.317  1.00  0.00     0.198 A 
ATOM     87  C   UNL A   1      44.033  27.958  25.970  1.00  0.00     0.198 A 
ATOM     88  F   UNL A   1      43.171  30.076  26.530  1.00  0.00    -0.203 F 
ATOM     89  F   UNL A   1      46.513  25.897  27.623  1.00  0.00    -0.200 F 
ATOM     90  C   UNL A   1      44.850  26.875  26.260  1.00  0.00     0.200 A 
ATOM     91  F   UNL A   1      43.147  27.869  24.968  1.00  0.00    -0.200 F 
ATOM     92  F   UNL A   1      44.744  25.742  25.551  1.00  0.00    -0.200 F 
ENDBRANCH  58  82
BRANCH  70  93
ATOM     93  C   UNL A   1      42.802  35.995  28.867  1.00  0.00     0.064 A 
ATOM     94  C   UNL A   1      42.059  36.457  27.769  1.00  0.00     0.173 A 
ATOM     95  C   UNL A   1      43.476  36.994  29.610  1.00  0.00     0.173 A 
ATOM     96  F   UNL A   1      41.281  35.632  27.055  1.00  0.00    -0.203 F 
ATOM     97  C   UNL A   1      42.042  37.808  27.402  1.00  0.00     0.198 A 
ATOM     98  C   UNL A   1      43.411  38.347  29.275  1.00  0.00     0.198 A 
ATOM     99  F   UNL A   1      44.197  36.690  30.698  1.00  0.00    -0.203 F 
ATOM    100  F   UNL A   1      41.349  38.192  26.319  1.00  0.00    -0.200 F 
ATOM    101  C   UNL A   1      42.707  38.751  28.161  1.00  0.00     0.200 A 
ATOM    102  F   UNL A   1      44.017  39.255  30.052  1.00  0.00    -0.200 F 
ATOM    103  F   UNL A   1      42.650  40.049  27.833  1.00  0.00    -0.200 F 
ENDBRANCH  70  93
ENDBRANCH  44  45
ENDBRANCH  36  39
ENDBRANCH  34  35
ENDBRANCH  33  34
ENDBRANCH   1  33
TORSDOF 13
ENDMDL
MODEL 3
REMARK VINA RESULT:     -13.6      5.066      8.916
REMARK SMILES Cc1cccc(N2C(=O)/C(=C/c3ccc(C(=O)NCCCCNC(=O)c4ccc(-c5c6nc(c(-c7c(F)c(F)c(F)c(F)c7F)c7ccc([nH]7)c(-c7c(F)c(F)c(F)c(F)c7F)c7nc(c(-c8c(F)c(F)c(F)c(F)c8F)c8ccc5[nH]8)C=C7)C=C6)cc4)cc3)c3ccccc3C2=O)c1
REMARK SMILES IDX 20 1 19 2 18 3 16 4 17 5 15 7 12 8 13 9 90 10 14 11 89 12
REMARK SMILES IDX 11 13 7 14 8 15 97 16 9 17 10 18 96 19 98 20 91 21 95 22
REMARK SMILES IDX 92 23 94 24 93 25 6 26 1 27 2 28 3 29 99 30 4 31 5 32 21 33
REMARK SMILES IDX 22 34 23 35 24 36 25 38 26 39 27 40 88 41 28 42 87 43 29 44
REMARK SMILES IDX 30 45 31 46 81 47 32 48 86 49 80 50 82 51 33 52 85 53 79 54
REMARK SMILES IDX 78 55 34 57 66 58 46 59 65 60 47 61 50 62 64 63 83 64 48 65
REMARK SMILES IDX 49 66 63 68 84 69 51 70 35 71 36 72 44 73 37 74 38 75 42 76
REMARK SMILES IDX 45 77 39 78 40 79 43 80 41 81 67 82 68 83 76 84 69 85 70 86
REMARK SMILES IDX 74 87 77 88 71 89 72 90 75 91 73 92 52 93 53 94 61 95 54 96
REMARK SMILES IDX 55 97 59 98 62 99 56 100 57 101 60 102 58 103
REMARK H PARENT 18 6 23 37 82 56 50 67
REMARK Flexibility Score: inf
ROOT
ATOM      1  C   UNL A   1      39.676  34.704  29.722  1.00  0.00     0.023 C 
ENDROOT
BRANCH   1   2
ATOM      2  C   UNL A   1      41.147  34.420  29.393  1.00  0.00     0.116 C 
BRANCH   2   3
ATOM      3  N   UNL A   1      41.746  35.383  28.479  1.00  0.00    -0.352 N 
ATOM      4  C   UNL A   1      42.868  35.296  27.687  1.00  0.00     0.251 C 
ATOM      5  O   UNL A   1      43.242  36.276  27.049  1.00  0.00    -0.269 OA
ATOM      6  H   UNL A   1      41.268  36.241  28.417  1.00  0.00     0.163 HD
BRANCH   4   7
ATOM      7  C   UNL A   1      43.662  34.051  27.639  1.00  0.00     0.039 A 
ATOM      8  C   UNL A   1      45.447  31.910  27.510  1.00  0.00    -0.025 A 
ATOM      9  C   UNL A   1      45.026  32.542  26.335  1.00  0.00     0.009 A 
ATOM     10  C   UNL A   1      44.849  32.256  28.730  1.00  0.00     0.009 A 
ATOM     11  C   UNL A   1      44.133  33.612  26.398  1.00  0.00     0.014 A 
ATOM     12  C   UNL A   1      43.953  33.324  28.794  1.00  0.00     0.014 A 
BRANCH   8  13
ATOM     13  C   UNL A   1      46.541  30.935  27.445  1.00  0.00     0.022 C 
ATOM     14  N   UNL A   1      47.855  27.935  25.948  1.00  0.00    -0.242 N 
ATOM     15  C   UNL A   1      47.767  28.909  26.965  1.00  0.00     0.265 C 
ATOM     16  C   UNL A   1      46.788  27.721  25.047  1.00  0.00     0.265 C 
ATOM     17  O   UNL A   1      48.668  29.260  27.728  1.00  0.00    -0.268 OA
ATOM     18  C   UNL A   1      46.456  29.646  27.041  1.00  0.00     0.049 C 
ATOM     19  C   UNL A   1      45.423  28.055  25.522  1.00  0.00     0.048 A 
ATOM     20  O   UNL A   1      46.847  27.261  23.910  1.00  0.00    -0.268 OA
ATOM     21  C   UNL A   1      45.253  28.955  26.568  1.00  0.00    -0.000 A 
ATOM     22  C   UNL A   1      44.312  27.437  24.926  1.00  0.00     0.014 A 
ATOM     23  C   UNL A   1      43.964  29.138  27.094  1.00  0.00     0.010 A 
ATOM     24  C   UNL A   1      43.028  27.680  25.410  1.00  0.00     0.001 A 
ATOM     25  C   UNL A   1      42.857  28.516  26.509  1.00  0.00     0.001 A 
BRANCH  14  26
ATOM     26  C   UNL A   1      49.117  27.218  25.761  1.00  0.00     0.053 A 
ATOM     27  C   UNL A   1      52.277  27.451  23.583  1.00  0.00     0.044 C 
ATOM     28  C   UNL A   1      51.295  26.973  24.613  1.00  0.00    -0.049 A 
ATOM     29  C   UNL A   1      51.591  25.851  25.383  1.00  0.00     0.003 A 
ATOM     30  C   UNL A   1      50.079  27.652  24.824  1.00  0.00     0.030 A 
ATOM     31  C   UNL A   1      50.680  25.411  26.332  1.00  0.00     0.002 A 
ATOM     32  C   UNL A   1      49.464  26.083  26.513  1.00  0.00     0.027 A 
ENDBRANCH  14  26
ENDBRANCH   8  13
ENDBRANCH   4   7
ENDBRANCH   2   3
ENDBRANCH   1   2
BRANCH   1  33
ATOM     33  C   UNL A   1      38.655  33.722  29.148  1.00  0.00     0.023 C 
BRANCH  33  34
ATOM     34  C   UNL A   1      37.938  32.851  30.173  1.00  0.00     0.116 C 
BRANCH  34  35
ATOM     35  N   UNL A   1      36.576  32.472  29.819  1.00  0.00    -0.352 N 
ATOM     36  C   UNL A   1      36.109  31.308  29.216  1.00  0.00     0.251 C 
ATOM     37  H   UNL A   1      35.884  33.138  30.039  1.00  0.00     0.163 HD
ATOM     38  O   UNL A   1      34.934  31.184  28.946  1.00  0.00    -0.269 OA
BRANCH  36  39
ATOM     39  C   UNL A   1      37.042  30.164  29.030  1.00  0.00     0.039 A 
ATOM     40  C   UNL A   1      37.150  29.227  30.067  1.00  0.00     0.014 A 
ATOM     41  C   UNL A   1      37.928  30.120  27.958  1.00  0.00     0.014 A 
ATOM     42  C   UNL A   1      38.297  28.441  30.159  1.00  0.00     0.010 A 
ATOM     43  C   UNL A   1      39.111  29.423  28.100  1.00  0.00     0.010 A 
ATOM     44  C   UNL A   1      39.327  28.648  29.244  1.00  0.00    -0.014 A 
BRANCH  44  45
ATOM     45  C   UNL A   1      40.704  28.226  29.475  1.00  0.00     0.031 A 
ATOM     46  C   UNL A   1      41.198  26.933  28.962  1.00  0.00     0.074 A 
ATOM     47  C   UNL A   1      41.554  29.095  30.065  1.00  0.00     0.049 A 
ATOM     48  N   UNL A   1      42.281  26.361  29.367  1.00  0.00    -0.248 NA
ATOM     49  C   UNL A   1      40.454  26.131  27.998  1.00  0.00     0.031 C 
ATOM     50  C   UNL A   1      43.013  29.029  30.103  1.00  0.00     0.029 A 
ATOM     51  N   UNL A   1      41.231  30.144  30.947  1.00  0.00    -0.354 N 
ATOM     52  C   UNL A   1      42.528  25.288  28.538  1.00  0.00     0.074 A 
ATOM     53  C   UNL A   1      41.300  25.114  27.805  1.00  0.00     0.031 C 
ATOM     54  C   UNL A   1      43.452  29.753  31.145  1.00  0.00     0.029 A 
ATOM     55  C   UNL A   1      42.281  30.172  31.895  1.00  0.00     0.049 A 
ATOM     56  H   UNL A   1      40.443  30.733  30.912  1.00  0.00     0.167 HD
ATOM     57  C   UNL A   1      43.795  24.781  28.492  1.00  0.00     0.037 A 
ATOM     58  C   UNL A   1      42.061  29.893  33.212  1.00  0.00     0.037 A 
ATOM     59  C   UNL A   1      44.600  25.315  29.597  1.00  0.00     0.049 A 
ATOM     60  C   UNL A   1      42.872  28.734  33.741  1.00  0.00     0.074 A 
ATOM     61  C   UNL A   1      45.597  26.274  29.670  1.00  0.00     0.029 A 
ATOM     62  N   UNL A   1      44.223  25.038  30.910  1.00  0.00    -0.354 N 
ATOM     63  N   UNL A   1      43.424  27.829  32.982  1.00  0.00    -0.248 NA
ATOM     64  C   UNL A   1      43.086  28.479  35.162  1.00  0.00     0.031 C 
ATOM     65  C   UNL A   1      45.760  26.630  31.035  1.00  0.00     0.029 A 
ATOM     66  C   UNL A   1      44.890  25.864  31.792  1.00  0.00     0.049 A 
ATOM     67  H   UNL A   1      43.570  24.350  31.172  1.00  0.00     0.167 HD
ATOM     68  C   UNL A   1      44.027  26.881  33.766  1.00  0.00     0.074 A 
ATOM     69  C   UNL A   1      43.807  27.343  35.123  1.00  0.00     0.031 C 
ATOM     70  C   UNL A   1      44.639  25.787  33.225  1.00  0.00     0.037 A 
BRANCH  57  71
ATOM     71  C   UNL A   1      44.408  23.996  27.335  1.00  0.00     0.064 A 
ATOM     72  C   UNL A   1      43.857  22.747  26.955  1.00  0.00     0.173 A 
ATOM     73  C   UNL A   1      45.587  24.330  26.637  1.00  0.00     0.173 A 
ATOM     74  F   UNL A   1      42.708  22.301  27.480  1.00  0.00    -0.203 F 
ATOM     75  C   UNL A   1      44.470  21.893  26.027  1.00  0.00     0.198 A 
ATOM     76  C   UNL A   1      46.190  23.485  25.698  1.00  0.00     0.198 A 
ATOM     77  F   UNL A   1      46.233  25.481  26.822  1.00  0.00    -0.203 F 
ATOM     78  F   UNL A   1      43.918  20.702  25.752  1.00  0.00    -0.200 F 
ATOM     79  C   UNL A   1      45.644  22.258  25.406  1.00  0.00     0.200 A 
ATOM     80  F   UNL A   1      47.324  23.874  25.095  1.00  0.00    -0.200 F 
ATOM     81  F   UNL A   1      46.243  21.440  24.531  1.00  0.00    -0.200 F 
ENDBRANCH  57  71
BRANCH  58  82
ATOM     82  C   UNL A   1      40.693  30.254  33.670  1.00  0.00     0.064 A 
ATOM     83  C   UNL A   1      40.406  31.611  33.915  1.00  0.00     0.173 A 
ATOM     84  C   UNL A   1      39.611  29.383  33.503  1.00  0.00     0.173 A 
ATOM     85  F   UNL A   1      41.410  32.490  34.075  1.00  0.00    -0.203 F 
ATOM     86  C   UNL A   1      39.101  32.094  33.876  1.00  0.00     0.198 A 
ATOM     87  C   UNL A   1      38.301  29.871  33.480  1.00  0.00     0.198 A 
ATOM     88  F   UNL A   1      39.817  28.085  33.243  1.00  0.00    -0.203 F 
ATOM     89  F   UNL A   1      38.873  33.412  33.994  1.00  0.00    -0.200 F 
ATOM     90  C   UNL A   1      38.051  31.227  33.631  1.00  0.00     0.200 A 
ATOM     91  F   UNL A   1      37.287  29.038  33.208  1.00  0.00    -0.200 F 
ATOM     92  F   UNL A   1      36.806  31.702  33.493  1.00  0.00    -0.200 F 
ENDBRANCH  58  82
BRANCH  70  93
ATOM     93  C   UNL A   1      45.127  24.580  33.990  1.00  0.00     0.064 A 
ATOM     94  C   UNL A   1      44.485  23.331  33.977  1.00  0.00     0.173 A 
ATOM     95  C   UNL A   1      46.374  24.618  34.660  1.00  0.00     0.173 A 
ATOM     96  F   UNL A   1      43.360  23.131  33.279  1.00  0.00    -0.203 F 
ATOM     97  C   UNL A   1      45.018  22.218  34.638  1.00  0.00     0.198 A 
ATOM     98  C   UNL A   1      46.929  23.492  35.269  1.00  0.00     0.198 A 
ATOM     99  F   UNL A   1      47.101  25.742  34.721  1.00  0.00    -0.203 F 
ATOM    100  F   UNL A   1      44.346  21.058  34.630  1.00  0.00    -0.200 F 
ATOM    101  C   UNL A   1      46.243  22.296  35.272  1.00  0.00     0.200 A 
ATOM    102  F   UNL A   1      48.142  23.571  35.833  1.00  0.00    -0.200 F 
ATOM    103  F   UNL A   1      46.772  21.217  35.863  1.00  0.00    -0.200 F 
ENDBRANCH  70  93
ENDBRANCH  44  45
ENDBRANCH  36  39
ENDBRANCH  34  35
ENDBRANCH  33  34
ENDBRANCH   1  33
TORSDOF 13
ENDMDL
