MODEL 1
REMARK VINA RESULT:     -13.4      0.000      0.000
REMARK SMILES Cc1ccc(S(=O)(=O)N2C[C@@H](CC(=O)NCCCCNC(=O)c3ccc(-c4c5nc(c(-c6c(F)c(F)c(F)c(F)c6F)c6ccc([nH]6)c(-c6c(F)c(F)c(F)c(F)c6F)c6nc(c(-c7c(F)c(F)c(F)c(F)c7F)c7ccc4[nH]7)C=C6)C=C5)cc3)c3ccccc32)c(C)c1
REMARK SMILES IDX 17 1 16 2 15 3 13 4 14 5 12 7 11 8 9 9 10 10 91 11 86 12
REMARK SMILES IDX 90 13 87 14 89 15 88 16 6 17 7 18 8 19 5 20 1 21 2 22 3 23
REMARK SMILES IDX 94 24 4 25 92 26 93 27 18 28 19 29 20 30 21 31 22 33 23 34
REMARK SMILES IDX 24 35 85 36 25 37 84 38 26 39 27 40 28 41 78 42 29 43 83 44
REMARK SMILES IDX 77 45 79 46 30 47 82 48 76 49 75 50 31 52 63 53 43 54 62 55
REMARK SMILES IDX 44 56 47 57 61 58 80 59 45 60 46 61 60 63 81 64 48 65 32 66
REMARK SMILES IDX 33 67 41 68 34 69 35 70 39 71 42 72 36 73 37 74 40 75 38 76
REMARK SMILES IDX 64 77 65 78 73 79 66 80 67 81 71 82 74 83 68 84 69 85 72 86
REMARK SMILES IDX 70 87 49 88 50 89 58 90 51 91 52 92 56 93 59 94 53 95 54 96
REMARK SMILES IDX 57 97 55 98
REMARK H PARENT 15 6 20 32 79 51 47 62
REMARK Flexibility Score: inf
ROOT
ATOM      1  C   UNL A   1      31.780  30.597  26.687  1.00  0.00     0.023 C 
ENDROOT
BRANCH   1   2
ATOM      2  C   UNL A   1      31.633  29.833  25.380  1.00  0.00     0.116 C 
BRANCH   2   3
ATOM      3  N   UNL A   1      32.679  28.830  25.301  1.00  0.00    -0.356 N 
ATOM      4  C   UNL A   1      32.784  27.680  26.031  1.00  0.00     0.220 C 
ATOM      5  O   UNL A   1      33.884  27.137  26.130  1.00  0.00    -0.275 OA
ATOM      6  H   UNL A   1      33.396  28.998  24.647  1.00  0.00     0.163 HD
BRANCH   4   7
ATOM      7  C   UNL A   1      31.542  27.050  26.628  1.00  0.00     0.110 C 
BRANCH   7   8
ATOM      8  C   UNL A   1      30.834  26.017  25.734  1.00  0.00     0.051 C 
ATOM      9  N   UNL A   1      32.523  24.319  25.275  1.00  0.00    -0.265 N 
ATOM     10  C   UNL A   1      31.318  24.609  26.145  1.00  0.00     0.144 C 
ATOM     11  C   UNL A   1      32.330  25.117  24.093  1.00  0.00     0.055 A 
ATOM     12  C   UNL A   1      31.278  26.011  24.294  1.00  0.00    -0.018 A 
ATOM     13  C   UNL A   1      33.037  25.097  22.901  1.00  0.00     0.027 A 
ATOM     14  C   UNL A   1      30.764  26.730  23.226  1.00  0.00     0.006 A 
ATOM     15  C   UNL A   1      32.593  25.905  21.852  1.00  0.00     0.002 A 
ATOM     16  C   UNL A   1      31.440  26.685  22.000  1.00  0.00     0.000 A 
BRANCH   9  17
ATOM     17  S   UNL A   1      32.747  22.631  25.033  1.00  0.00     0.264 S 
ATOM     18  O   UNL A   1      32.364  22.336  23.669  1.00  0.00    -0.201 OA
ATOM     19  O   UNL A   1      32.122  21.949  26.153  1.00  0.00    -0.201 OA
BRANCH  17  20
ATOM     20  C   UNL A   1      34.498  22.339  25.212  1.00  0.00     0.090 A 
ATOM     21  C   UNL A   1      38.730  21.734  25.754  1.00  0.00     0.044 C 
ATOM     22  C   UNL A   1      37.262  21.963  25.546  1.00  0.00    -0.051 A 
ATOM     23  C   UNL A   1      36.698  23.222  25.748  1.00  0.00     0.005 A 
ATOM     24  C   UNL A   1      36.430  20.889  25.195  1.00  0.00     0.008 A 
ATOM     25  C   UNL A   1      35.324  23.408  25.595  1.00  0.00     0.023 A 
ATOM     26  C   UNL A   1      35.043  21.056  25.018  1.00  0.00    -0.030 A 
ATOM     27  C   UNL A   1      34.243  19.815  24.723  1.00  0.00     0.046 C 
ENDBRANCH  17  20
ENDBRANCH   9  17
ENDBRANCH   7   8
ENDBRANCH   4   7
ENDBRANCH   2   3
ENDBRANCH   1   2
BRANCH   1  28
ATOM     28  C   UNL A   1      31.683  32.105  26.594  1.00  0.00     0.023 C 
BRANCH  28  29
ATOM     29  C   UNL A   1      32.749  32.833  27.378  1.00  0.00     0.116 C 
BRANCH  29  30
ATOM     30  N   UNL A   1      32.403  34.210  27.713  1.00  0.00    -0.352 N 
ATOM     31  C   UNL A   1      32.991  35.051  28.631  1.00  0.00     0.251 C 
ATOM     32  H   UNL A   1      31.645  34.590  27.215  1.00  0.00     0.163 HD
ATOM     33  O   UNL A   1      32.518  36.160  28.852  1.00  0.00    -0.269 OA
BRANCH  31  34
ATOM     34  C   UNL A   1      34.165  34.574  29.390  1.00  0.00     0.039 A 
ATOM     35  C   UNL A   1      33.970  33.904  30.598  1.00  0.00     0.014 A 
ATOM     36  C   UNL A   1      35.447  34.695  28.853  1.00  0.00     0.014 A 
ATOM     37  C   UNL A   1      35.054  33.274  31.211  1.00  0.00     0.010 A 
ATOM     38  C   UNL A   1      36.479  33.932  29.372  1.00  0.00     0.010 A 
ATOM     39  C   UNL A   1      36.305  33.231  30.572  1.00  0.00    -0.014 A 
BRANCH  39  40
ATOM     40  C   UNL A   1      37.447  32.480  31.152  1.00  0.00     0.031 A 
ATOM     41  C   UNL A   1      37.936  32.804  32.540  1.00  0.00     0.074 A 
ATOM     42  C   UNL A   1      38.075  31.547  30.411  1.00  0.00     0.049 A 
ATOM     43  N   UNL A   1      38.920  32.270  33.217  1.00  0.00    -0.248 NA
ATOM     44  C   UNL A   1      37.262  33.908  33.247  1.00  0.00     0.031 C 
ATOM     45  C   UNL A   1      37.759  31.211  29.020  1.00  0.00     0.029 A 
ATOM     46  N   UNL A   1      39.110  30.701  30.724  1.00  0.00    -0.354 N 
ATOM     47  C   UNL A   1      38.987  32.981  34.408  1.00  0.00     0.074 A 
ATOM     48  C   UNL A   1      38.014  34.044  34.327  1.00  0.00     0.031 C 
ATOM     49  C   UNL A   1      38.538  30.192  28.623  1.00  0.00     0.029 A 
ATOM     50  C   UNL A   1      39.434  29.827  29.714  1.00  0.00     0.049 A 
ATOM     51  H   UNL A   1      39.576  30.718  31.592  1.00  0.00     0.167 HD
ATOM     52  C   UNL A   1      39.759  32.743  35.495  1.00  0.00     0.037 A 
ATOM     53  C   UNL A   1      40.344  28.836  29.682  1.00  0.00     0.037 A 
ATOM     54  C   UNL A   1      40.700  31.660  35.584  1.00  0.00     0.049 A 
ATOM     55  C   UNL A   1      41.164  28.568  30.915  1.00  0.00     0.074 A 
ATOM     56  C   UNL A   1      41.488  31.284  36.656  1.00  0.00     0.029 A 
ATOM     57  N   UNL A   1      40.978  30.774  34.552  1.00  0.00    -0.354 N 
ATOM     58  N   UNL A   1      41.155  29.189  32.069  1.00  0.00    -0.248 NA
ATOM     59  C   UNL A   1      42.110  27.447  30.845  1.00  0.00     0.031 C 
ATOM     60  C   UNL A   1      42.280  30.202  36.257  1.00  0.00     0.029 A 
ATOM     61  C   UNL A   1      41.939  29.863  34.957  1.00  0.00     0.049 A 
ATOM     62  H   UNL A   1      40.553  30.791  33.663  1.00  0.00     0.167 HD
ATOM     63  C   UNL A   1      42.068  28.519  32.872  1.00  0.00     0.074 A 
ATOM     64  C   UNL A   1      42.591  27.426  32.078  1.00  0.00     0.031 C 
ATOM     65  C   UNL A   1      42.444  28.783  34.149  1.00  0.00     0.037 A 
BRANCH  52  66
ATOM     66  C   UNL A   1      39.600  33.662  36.674  1.00  0.00     0.064 A 
ATOM     67  C   UNL A   1      40.286  34.885  36.756  1.00  0.00     0.173 A 
ATOM     68  C   UNL A   1      38.741  33.325  37.731  1.00  0.00     0.173 A 
ATOM     69  F   UNL A   1      41.135  35.251  35.784  1.00  0.00    -0.203 F 
ATOM     70  C   UNL A   1      40.147  35.716  37.865  1.00  0.00     0.198 A 
ATOM     71  C   UNL A   1      38.575  34.176  38.820  1.00  0.00     0.198 A 
ATOM     72  F   UNL A   1      38.060  32.170  37.707  1.00  0.00    -0.203 F 
ATOM     73  F   UNL A   1      40.862  36.846  37.948  1.00  0.00    -0.200 F 
ATOM     74  C   UNL A   1      39.284  35.366  38.891  1.00  0.00     0.200 A 
ATOM     75  F   UNL A   1      37.730  33.842  39.806  1.00  0.00    -0.200 F 
ATOM     76  F   UNL A   1      39.145  36.168  39.955  1.00  0.00    -0.200 F 
ENDBRANCH  52  66
BRANCH  53  77
ATOM     77  C   UNL A   1      40.489  27.992  28.465  1.00  0.00     0.064 A 
ATOM     78  C   UNL A   1      39.819  26.765  28.352  1.00  0.00     0.173 A 
ATOM     79  C   UNL A   1      41.305  28.386  27.395  1.00  0.00     0.173 A 
ATOM     80  F   UNL A   1      39.039  26.334  29.355  1.00  0.00    -0.203 F 
ATOM     81  C   UNL A   1      39.983  25.952  27.233  1.00  0.00     0.198 A 
ATOM     82  C   UNL A   1      41.442  27.588  26.259  1.00  0.00     0.198 A 
ATOM     83  F   UNL A   1      41.962  29.555  27.444  1.00  0.00    -0.203 F 
ATOM     84  F   UNL A   1      39.374  24.759  27.178  1.00  0.00    -0.200 F 
ATOM     85  C   UNL A   1      40.790  26.367  26.185  1.00  0.00     0.200 A 
ATOM     86  F   UNL A   1      42.208  28.002  25.242  1.00  0.00    -0.200 F 
ATOM     87  F   UNL A   1      40.946  25.587  25.106  1.00  0.00    -0.200 F 
ENDBRANCH  53  77
BRANCH  65  88
ATOM     88  C   UNL A   1      43.441  27.847  34.770  1.00  0.00     0.064 A 
ATOM     89  C   UNL A   1      43.046  26.665  35.416  1.00  0.00     0.173 A 
ATOM     90  C   UNL A   1      44.813  28.136  34.713  1.00  0.00     0.173 A 
ATOM     91  F   UNL A   1      41.744  26.349  35.506  1.00  0.00    -0.203 F 
ATOM     92  C   UNL A   1      43.982  25.836  36.025  1.00  0.00     0.198 A 
ATOM     93  C   UNL A   1      45.750  27.282  35.288  1.00  0.00     0.198 A 
ATOM     94  F   UNL A   1      45.247  29.245  34.097  1.00  0.00    -0.203 F 
ATOM     95  F   UNL A   1      43.574  24.753  36.700  1.00  0.00    -0.200 F 
ATOM     96  C   UNL A   1      45.333  26.141  35.957  1.00  0.00     0.200 A 
ATOM     97  F   UNL A   1      47.056  27.570  35.205  1.00  0.00    -0.200 F 
ATOM     98  F   UNL A   1      46.233  25.342  36.547  1.00  0.00    -0.200 F 
ENDBRANCH  65  88
ENDBRANCH  39  40
ENDBRANCH  31  34
ENDBRANCH  29  30
ENDBRANCH  28  29
ENDBRANCH   1  28
TORSDOF 14
ENDMDL
MODEL 2
REMARK VINA RESULT:     -13.4      5.123     10.646
REMARK SMILES Cc1ccc(S(=O)(=O)N2C[C@@H](CC(=O)NCCCCNC(=O)c3ccc(-c4c5nc(c(-c6c(F)c(F)c(F)c(F)c6F)c6ccc([nH]6)c(-c6c(F)c(F)c(F)c(F)c6F)c6nc(c(-c7c(F)c(F)c(F)c(F)c7F)c7ccc4[nH]7)C=C6)C=C5)cc3)c3ccccc32)c(C)c1
REMARK SMILES IDX 17 1 16 2 15 3 13 4 14 5 12 7 11 8 9 9 10 10 91 11 86 12
REMARK SMILES IDX 90 13 87 14 89 15 88 16 6 17 7 18 8 19 5 20 1 21 2 22 3 23
REMARK SMILES IDX 94 24 4 25 92 26 93 27 18 28 19 29 20 30 21 31 22 33 23 34
REMARK SMILES IDX 24 35 85 36 25 37 84 38 26 39 27 40 28 41 78 42 29 43 83 44
REMARK SMILES IDX 77 45 79 46 30 47 82 48 76 49 75 50 31 52 63 53 43 54 62 55
REMARK SMILES IDX 44 56 47 57 61 58 80 59 45 60 46 61 60 63 81 64 48 65 32 66
REMARK SMILES IDX 33 67 41 68 34 69 35 70 39 71 42 72 36 73 37 74 40 75 38 76
REMARK SMILES IDX 64 77 65 78 73 79 66 80 67 81 71 82 74 83 68 84 69 85 72 86
REMARK SMILES IDX 70 87 49 88 50 89 58 90 51 91 52 92 56 93 59 94 53 95 54 96
REMARK SMILES IDX 57 97 55 98
REMARK H PARENT 15 6 20 32 79 51 47 62
REMARK Flexibility Score: inf
ROOT
ATOM      1  C   UNL A   1      39.127  22.618  26.126  1.00  0.00     0.023 C 
ENDROOT
BRANCH   1   2
ATOM      2  C   UNL A   1      37.758  23.271  26.014  1.00  0.00     0.116 C 
BRANCH   2   3
ATOM      3  N   UNL A   1      37.471  23.524  24.613  1.00  0.00    -0.356 N 
ATOM      4  C   UNL A   1      36.486  22.958  23.852  1.00  0.00     0.220 C 
ATOM      5  O   UNL A   1      36.600  22.976  22.627  1.00  0.00    -0.275 OA
ATOM      6  H   UNL A   1      38.052  24.177  24.160  1.00  0.00     0.163 HD
BRANCH   4   7
ATOM      7  C   UNL A   1      35.244  22.404  24.516  1.00  0.00     0.110 C 
BRANCH   7   8
ATOM      8  C   UNL A   1      33.929  22.639  23.752  1.00  0.00     0.051 C 
ATOM      9  N   UNL A   1      33.387  24.984  24.140  1.00  0.00    -0.265 N 
ATOM     10  C   UNL A   1      33.985  24.045  23.115  1.00  0.00     0.144 C 
ATOM     11  C   UNL A   1      32.503  24.164  24.926  1.00  0.00     0.055 A 
ATOM     12  C   UNL A   1      32.712  22.819  24.622  1.00  0.00    -0.018 A 
ATOM     13  C   UNL A   1      31.572  24.548  25.880  1.00  0.00     0.027 A 
ATOM     14  C   UNL A   1      31.830  21.856  25.089  1.00  0.00     0.006 A 
ATOM     15  C   UNL A   1      30.753  23.567  26.441  1.00  0.00     0.002 A 
ATOM     16  C   UNL A   1      30.853  22.236  26.018  1.00  0.00     0.000 A 
BRANCH   9  17
ATOM     17  S   UNL A   1      32.691  26.375  23.405  1.00  0.00     0.264 S 
ATOM     18  O   UNL A   1      31.286  26.100  23.203  1.00  0.00    -0.201 OA
ATOM     19  O   UNL A   1      33.551  26.752  22.297  1.00  0.00    -0.201 OA
BRANCH  17  20
ATOM     20  C   UNL A   1      32.850  27.690  24.601  1.00  0.00     0.090 A 
ATOM     21  C   UNL A   1      33.378  30.837  27.498  1.00  0.00     0.044 C 
ATOM     22  C   UNL A   1      33.187  29.724  26.510  1.00  0.00    -0.051 A 
ATOM     23  C   UNL A   1      33.956  28.563  26.582  1.00  0.00     0.005 A 
ATOM     24  C   UNL A   1      32.264  29.869  25.464  1.00  0.00     0.008 A 
ATOM     25  C   UNL A   1      33.798  27.557  25.628  1.00  0.00     0.023 A 
ATOM     26  C   UNL A   1      32.075  28.861  24.499  1.00  0.00    -0.030 A 
ATOM     27  C   UNL A   1      31.116  29.165  23.379  1.00  0.00     0.046 C 
ENDBRANCH  17  20
ENDBRANCH   9  17
ENDBRANCH   7   8
ENDBRANCH   4   7
ENDBRANCH   2   3
ENDBRANCH   1   2
BRANCH   1  28
ATOM     28  C   UNL A   1      39.255  21.228  25.541  1.00  0.00     0.023 C 
BRANCH  28  29
ATOM     29  C   UNL A   1      39.617  20.171  26.557  1.00  0.00     0.116 C 
BRANCH  29  30
ATOM     30  N   UNL A   1      40.610  19.211  26.087  1.00  0.00    -0.352 N 
ATOM     31  C   UNL A   1      41.973  19.364  25.970  1.00  0.00     0.251 C 
ATOM     32  H   UNL A   1      40.257  18.334  25.815  1.00  0.00     0.163 HD
ATOM     33  O   UNL A   1      42.659  18.479  25.471  1.00  0.00    -0.269 OA
BRANCH  31  34
ATOM     34  C   UNL A   1      42.591  20.636  26.399  1.00  0.00     0.039 A 
ATOM     35  C   UNL A   1      43.021  21.545  25.433  1.00  0.00     0.014 A 
ATOM     36  C   UNL A   1      42.643  20.971  27.753  1.00  0.00     0.014 A 
ATOM     37  C   UNL A   1      43.411  22.825  25.828  1.00  0.00     0.010 A 
ATOM     38  C   UNL A   1      42.868  22.286  28.121  1.00  0.00     0.010 A 
ATOM     39  C   UNL A   1      43.280  23.227  27.169  1.00  0.00    -0.014 A 
BRANCH  39  40
ATOM     40  C   UNL A   1      43.590  24.614  27.597  1.00  0.00     0.031 A 
ATOM     41  C   UNL A   1      45.020  25.087  27.647  1.00  0.00     0.074 A 
ATOM     42  C   UNL A   1      42.590  25.427  27.992  1.00  0.00     0.049 A 
ATOM     43  N   UNL A   1      45.493  26.255  28.000  1.00  0.00    -0.248 NA
ATOM     44  C   UNL A   1      46.062  24.106  27.298  1.00  0.00     0.031 C 
ATOM     45  C   UNL A   1      41.177  25.055  28.083  1.00  0.00     0.029 A 
ATOM     46  N   UNL A   1      42.608  26.742  28.386  1.00  0.00    -0.354 N 
ATOM     47  C   UNL A   1      46.876  26.136  27.931  1.00  0.00     0.074 A 
ATOM     48  C   UNL A   1      47.170  24.763  27.597  1.00  0.00     0.031 C 
ATOM     49  C   UNL A   1      40.458  26.130  28.445  1.00  0.00     0.029 A 
ATOM     50  C   UNL A   1      41.361  27.256  28.649  1.00  0.00     0.049 A 
ATOM     51  H   UNL A   1      43.437  27.267  28.473  1.00  0.00     0.167 HD
ATOM     52  C   UNL A   1      47.817  27.096  28.086  1.00  0.00     0.037 A 
ATOM     53  C   UNL A   1      40.991  28.502  29.001  1.00  0.00     0.037 A 
ATOM     54  C   UNL A   1      47.515  28.470  28.383  1.00  0.00     0.049 A 
ATOM     55  C   UNL A   1      42.054  29.560  29.132  1.00  0.00     0.074 A 
ATOM     56  C   UNL A   1      48.382  29.541  28.498  1.00  0.00     0.029 A 
ATOM     57  N   UNL A   1      46.237  28.962  28.609  1.00  0.00    -0.354 N 
ATOM     58  N   UNL A   1      43.351  29.458  28.974  1.00  0.00    -0.248 NA
ATOM     59  C   UNL A   1      41.595  30.912  29.474  1.00  0.00     0.031 C 
ATOM     60  C   UNL A   1      47.634  30.671  28.846  1.00  0.00     0.029 A 
ATOM     61  C   UNL A   1      46.294  30.318  28.882  1.00  0.00     0.049 A 
ATOM     62  H   UNL A   1      45.411  28.425  28.579  1.00  0.00     0.167 HD
ATOM     63  C   UNL A   1      43.862  30.735  29.167  1.00  0.00     0.074 A 
ATOM     64  C   UNL A   1      42.728  31.598  29.426  1.00  0.00     0.031 C 
ATOM     65  C   UNL A   1      45.151  31.157  29.137  1.00  0.00     0.037 A 
BRANCH  52  66
ATOM     66  C   UNL A   1      49.256  26.691  27.920  1.00  0.00     0.064 A 
ATOM     67  C   UNL A   1      49.841  26.545  26.651  1.00  0.00     0.173 A 
ATOM     68  C   UNL A   1      50.066  26.461  29.042  1.00  0.00     0.173 A 
ATOM     69  F   UNL A   1      49.109  26.735  25.543  1.00  0.00    -0.203 F 
ATOM     70  C   UNL A   1      51.168  26.147  26.512  1.00  0.00     0.198 A 
ATOM     71  C   UNL A   1      51.404  26.100  28.899  1.00  0.00     0.198 A 
ATOM     72  F   UNL A   1      49.562  26.585  30.279  1.00  0.00    -0.203 F 
ATOM     73  F   UNL A   1      51.683  25.952  25.291  1.00  0.00    -0.200 F 
ATOM     74  C   UNL A   1      51.951  25.934  27.636  1.00  0.00     0.200 A 
ATOM     75  F   UNL A   1      52.163  25.907  29.987  1.00  0.00    -0.200 F 
ATOM     76  F   UNL A   1      53.230  25.558  27.501  1.00  0.00    -0.200 F 
ENDBRANCH  52  66
BRANCH  53  77
ATOM     77  C   UNL A   1      39.554  28.828  29.201  1.00  0.00     0.064 A 
ATOM     78  C   UNL A   1      38.759  29.272  28.135  1.00  0.00     0.173 A 
ATOM     79  C   UNL A   1      38.945  28.713  30.459  1.00  0.00     0.173 A 
ATOM     80  F   UNL A   1      39.296  29.415  26.914  1.00  0.00    -0.203 F 
ATOM     81  C   UNL A   1      37.422  29.618  28.324  1.00  0.00     0.198 A 
ATOM     82  C   UNL A   1      37.599  29.027  30.642  1.00  0.00     0.198 A 
ATOM     83  F   UNL A   1      39.656  28.284  31.513  1.00  0.00    -0.203 F 
ATOM     84  F   UNL A   1      36.703  30.093  27.298  1.00  0.00    -0.200 F 
ATOM     85  C   UNL A   1      36.842  29.489  29.576  1.00  0.00     0.200 A 
ATOM     86  F   UNL A   1      37.038  28.883  31.850  1.00  0.00    -0.200 F 
ATOM     87  F   UNL A   1      35.556  29.819  29.759  1.00  0.00    -0.200 F 
ENDBRANCH  53  77
BRANCH  65  88
ATOM     88  C   UNL A   1      45.390  32.624  29.352  1.00  0.00     0.064 A 
ATOM     89  C   UNL A   1      45.388  33.539  28.287  1.00  0.00     0.173 A 
ATOM     90  C   UNL A   1      45.619  33.122  30.644  1.00  0.00     0.173 A 
ATOM     91  F   UNL A   1      45.184  33.113  27.031  1.00  0.00    -0.203 F 
ATOM     92  C   UNL A   1      45.657  34.887  28.503  1.00  0.00     0.198 A 
ATOM     93  C   UNL A   1      45.847  34.477  30.860  1.00  0.00     0.198 A 
ATOM     94  F   UNL A   1      45.618  32.293  31.699  1.00  0.00    -0.203 F 
ATOM     95  F   UNL A   1      45.725  35.728  27.462  1.00  0.00    -0.200 F 
ATOM     96  C   UNL A   1      45.882  35.356  29.788  1.00  0.00     0.200 A 
ATOM     97  F   UNL A   1      46.045  34.931  32.105  1.00  0.00    -0.200 F 
ATOM     98  F   UNL A   1      46.143  36.654  29.994  1.00  0.00    -0.200 F 
ENDBRANCH  65  88
ENDBRANCH  39  40
ENDBRANCH  31  34
ENDBRANCH  29  30
ENDBRANCH  28  29
ENDBRANCH   1  28
TORSDOF 14
ENDMDL
MODEL 3
REMARK VINA RESULT:     -13.4      1.181      7.307
REMARK SMILES Cc1ccc(S(=O)(=O)N2C[C@@H](CC(=O)NCCCCNC(=O)c3ccc(-c4c5nc(c(-c6c(F)c(F)c(F)c(F)c6F)c6ccc([nH]6)c(-c6c(F)c(F)c(F)c(F)c6F)c6nc(c(-c7c(F)c(F)c(F)c(F)c7F)c7ccc4[nH]7)C=C6)C=C5)cc3)c3ccccc32)c(C)c1
REMARK SMILES IDX 17 1 16 2 15 3 13 4 14 5 12 7 11 8 9 9 10 10 91 11 86 12
REMARK SMILES IDX 90 13 87 14 89 15 88 16 6 17 7 18 8 19 5 20 1 21 2 22 3 23
REMARK SMILES IDX 94 24 4 25 92 26 93 27 18 28 19 29 20 30 21 31 22 33 23 34
REMARK SMILES IDX 24 35 85 36 25 37 84 38 26 39 27 40 28 41 78 42 29 43 83 44
REMARK SMILES IDX 77 45 79 46 30 47 82 48 76 49 75 50 31 52 63 53 43 54 62 55
REMARK SMILES IDX 44 56 47 57 61 58 80 59 45 60 46 61 60 63 81 64 48 65 32 66
REMARK SMILES IDX 33 67 41 68 34 69 35 70 39 71 42 72 36 73 37 74 40 75 38 76
REMARK SMILES IDX 64 77 65 78 73 79 66 80 67 81 71 82 74 83 68 84 69 85 72 86
REMARK SMILES IDX 70 87 49 88 50 89 58 90 51 91 52 92 56 93 59 94 53 95 54 96
REMARK SMILES IDX 57 97 55 98
REMARK H PARENT 15 6 20 32 79 51 47 62
REMARK Flexibility Score: inf
ROOT
ATOM      1  C   UNL A   1      32.061  30.415  26.908  1.00  0.00     0.023 C 
ENDROOT
BRANCH   1   2
ATOM      2  C   UNL A   1      33.479  29.962  26.595  1.00  0.00     0.116 C 
BRANCH   2   3
ATOM      3  N   UNL A   1      33.592  29.722  25.168  1.00  0.00    -0.356 N 
ATOM      4  C   UNL A   1      33.909  28.547  24.545  1.00  0.00     0.220 C 
ATOM      5  O   UNL A   1      34.331  28.583  23.390  1.00  0.00    -0.275 OA
ATOM      6  H   UNL A   1      33.420  30.494  24.581  1.00  0.00     0.163 HD
BRANCH   4   7
ATOM      7  C   UNL A   1      33.656  27.230  25.248  1.00  0.00     0.110 C 
BRANCH   7   8
ATOM      8  C   UNL A   1      32.362  26.504  24.838  1.00  0.00     0.051 C 
ATOM      9  N   UNL A   1      32.680  24.196  25.556  1.00  0.00    -0.265 N 
ATOM     10  C   UNL A   1      32.003  25.491  25.948  1.00  0.00     0.144 C 
ATOM     11  C   UNL A   1      32.812  24.262  24.124  1.00  0.00     0.055 A 
ATOM     12  C   UNL A   1      32.506  25.550  23.681  1.00  0.00    -0.018 A 
ATOM     13  C   UNL A   1      33.197  23.270  23.235  1.00  0.00     0.027 A 
ATOM     14  C   UNL A   1      32.350  25.799  22.327  1.00  0.00     0.006 A 
ATOM     15  C   UNL A   1      33.150  23.549  21.868  1.00  0.00     0.002 A 
ATOM     16  C   UNL A   1      32.690  24.791  21.416  1.00  0.00     0.000 A 
BRANCH   9  17
ATOM     17  S   UNL A   1      31.856  22.825  26.188  1.00  0.00     0.264 S 
ATOM     18  O   UNL A   1      30.549  22.784  25.569  1.00  0.00    -0.201 OA
ATOM     19  O   UNL A   1      32.003  22.862  27.632  1.00  0.00    -0.201 OA
BRANCH  17  20
ATOM     20  C   UNL A   1      32.789  21.402  25.649  1.00  0.00     0.090 A 
ATOM     21  C   UNL A   1      34.957  17.959  24.227  1.00  0.00     0.044 C 
ATOM     22  C   UNL A   1      34.186  19.142  24.738  1.00  0.00    -0.051 A 
ATOM     23  C   UNL A   1      32.818  19.260  24.501  1.00  0.00     0.005 A 
ATOM     24  C   UNL A   1      34.855  20.173  25.414  1.00  0.00     0.008 A 
ATOM     25  C   UNL A   1      32.124  20.387  24.943  1.00  0.00     0.023 A 
ATOM     26  C   UNL A   1      34.174  21.312  25.884  1.00  0.00    -0.030 A 
ATOM     27  C   UNL A   1      35.012  22.387  26.523  1.00  0.00     0.046 C 
ENDBRANCH  17  20
ENDBRANCH   9  17
ENDBRANCH   7   8
ENDBRANCH   4   7
ENDBRANCH   2   3
ENDBRANCH   1   2
BRANCH   1  28
ATOM     28  C   UNL A   1      31.800  31.903  26.820  1.00  0.00     0.023 C 
BRANCH  28  29
ATOM     29  C   UNL A   1      32.881  32.750  27.449  1.00  0.00     0.116 C 
BRANCH  29  30
ATOM     30  N   UNL A   1      32.481  34.129  27.704  1.00  0.00    -0.352 N 
ATOM     31  C   UNL A   1      32.990  35.023  28.619  1.00  0.00     0.251 C 
ATOM     32  H   UNL A   1      31.746  34.468  27.145  1.00  0.00     0.163 HD
ATOM     33  O   UNL A   1      32.478  36.126  28.764  1.00  0.00    -0.269 OA
BRANCH  31  34
ATOM     34  C   UNL A   1      34.128  34.609  29.467  1.00  0.00     0.039 A 
ATOM     35  C   UNL A   1      33.879  34.097  30.740  1.00  0.00     0.014 A 
ATOM     36  C   UNL A   1      35.428  34.628  28.959  1.00  0.00     0.014 A 
ATOM     37  C   UNL A   1      34.924  33.517  31.458  1.00  0.00     0.010 A 
ATOM     38  C   UNL A   1      36.420  33.905  29.599  1.00  0.00     0.010 A 
ATOM     39  C   UNL A   1      36.191  33.362  30.869  1.00  0.00    -0.014 A 
BRANCH  39  40
ATOM     40  C   UNL A   1      37.291  32.655  31.571  1.00  0.00     0.031 A 
ATOM     41  C   UNL A   1      37.995  31.501  30.904  1.00  0.00     0.074 A 
ATOM     42  C   UNL A   1      37.619  33.016  32.828  1.00  0.00     0.049 A 
ATOM     43  N   UNL A   1      38.970  30.754  31.354  1.00  0.00    -0.248 NA
ATOM     44  C   UNL A   1      37.509  31.102  29.572  1.00  0.00     0.031 C 
ATOM     45  C   UNL A   1      36.947  34.050  33.618  1.00  0.00     0.029 A 
ATOM     46  N   UNL A   1      38.607  32.556  33.663  1.00  0.00    -0.354 N 
ATOM     47  C   UNL A   1      39.194  29.797  30.372  1.00  0.00     0.074 A 
ATOM     48  C   UNL A   1      38.197  29.994  29.348  1.00  0.00     0.031 C 
ATOM     49  C   UNL A   1      37.580  34.189  34.794  1.00  0.00     0.029 A 
ATOM     50  C   UNL A   1      38.676  33.230  34.859  1.00  0.00     0.049 A 
ATOM     51  H   UNL A   1      39.210  31.814  33.426  1.00  0.00     0.167 HD
ATOM     52  C   UNL A   1      40.173  28.865  30.306  1.00  0.00     0.037 A 
ATOM     53  C   UNL A   1      39.538  33.094  35.884  1.00  0.00     0.037 A 
ATOM     54  C   UNL A   1      41.186  28.698  31.313  1.00  0.00     0.049 A 
ATOM     55  C   UNL A   1      40.640  32.074  35.770  1.00  0.00     0.074 A 
ATOM     56  C   UNL A   1      42.264  27.831  31.321  1.00  0.00     0.029 A 
ATOM     57  N   UNL A   1      41.244  29.421  32.496  1.00  0.00    -0.354 N 
ATOM     58  N   UNL A   1      40.899  31.237  34.796  1.00  0.00    -0.248 NA
ATOM     59  C   UNL A   1      41.580  31.996  36.895  1.00  0.00     0.031 C 
ATOM     60  C   UNL A   1      42.944  27.994  32.532  1.00  0.00     0.029 A 
ATOM     61  C   UNL A   1      42.329  29.007  33.250  1.00  0.00     0.049 A 
ATOM     62  H   UNL A   1      40.608  30.125  32.760  1.00  0.00     0.167 HD
ATOM     63  C   UNL A   1      42.046  30.553  35.174  1.00  0.00     0.074 A 
ATOM     64  C   UNL A   1      42.447  31.096  36.455  1.00  0.00     0.031 C 
ATOM     65  C   UNL A   1      42.709  29.563  34.524  1.00  0.00     0.037 A 
BRANCH  52  66
ATOM     66  C   UNL A   1      40.201  27.971  29.097  1.00  0.00     0.064 A 
ATOM     67  C   UNL A   1      40.917  28.316  27.939  1.00  0.00     0.173 A 
ATOM     68  C   UNL A   1      39.515  26.747  29.099  1.00  0.00     0.173 A 
ATOM     69  F   UNL A   1      41.576  29.483  27.874  1.00  0.00    -0.203 F 
ATOM     70  C   UNL A   1      40.915  27.489  26.818  1.00  0.00     0.198 A 
ATOM     71  C   UNL A   1      39.546  25.905  27.990  1.00  0.00     0.198 A 
ATOM     72  F   UNL A   1      38.814  26.365  30.177  1.00  0.00    -0.203 F 
ATOM     73  F   UNL A   1      41.552  27.872  25.703  1.00  0.00    -0.200 F 
ATOM     74  C   UNL A   1      40.238  26.281  26.848  1.00  0.00     0.200 A 
ATOM     75  F   UNL A   1      38.902  24.730  28.025  1.00  0.00    -0.200 F 
ATOM     76  F   UNL A   1      40.241  25.482  25.772  1.00  0.00    -0.200 F 
ENDBRANCH  52  66
BRANCH  53  77
ATOM     77  C   UNL A   1      39.427  33.975  37.078  1.00  0.00     0.064 A 
ATOM     78  C   UNL A   1      38.743  33.553  38.226  1.00  0.00     0.173 A 
ATOM     79  C   UNL A   1      39.993  35.258  37.095  1.00  0.00     0.173 A 
ATOM     80  F   UNL A   1      38.168  32.341  38.255  1.00  0.00    -0.203 F 
ATOM     81  C   UNL A   1      38.601  34.389  39.332  1.00  0.00     0.198 A 
ATOM     82  C   UNL A   1      39.881  36.081  38.215  1.00  0.00     0.198 A 
ATOM     83  F   UNL A   1      40.669  35.710  36.027  1.00  0.00    -0.203 F 
ATOM     84  F   UNL A   1      37.893  33.979  40.393  1.00  0.00    -0.200 F 
ATOM     85  C   UNL A   1      39.176  35.650  39.327  1.00  0.00     0.200 A 
ATOM     86  F   UNL A   1      40.454  37.293  38.212  1.00  0.00    -0.200 F 
ATOM     87  F   UNL A   1      39.043  36.454  40.391  1.00  0.00    -0.200 F 
ENDBRANCH  53  77
BRANCH  65  88
ATOM     88  C   UNL A   1      43.955  29.038  35.176  1.00  0.00     0.064 A 
ATOM     89  C   UNL A   1      45.220  29.580  34.903  1.00  0.00     0.173 A 
ATOM     90  C   UNL A   1      43.880  27.979  36.094  1.00  0.00     0.173 A 
ATOM     91  F   UNL A   1      45.347  30.588  34.025  1.00  0.00    -0.203 F 
ATOM     92  C   UNL A   1      46.368  29.048  35.483  1.00  0.00     0.198 A 
ATOM     93  C   UNL A   1      45.026  27.477  36.705  1.00  0.00     0.198 A 
ATOM     94  F   UNL A   1      42.695  27.432  36.403  1.00  0.00    -0.203 F 
ATOM     95  F   UNL A   1      47.571  29.534  35.149  1.00  0.00    -0.200 F 
ATOM     96  C   UNL A   1      46.270  28.001  36.387  1.00  0.00     0.200 A 
ATOM     97  F   UNL A   1      44.927  26.477  37.591  1.00  0.00    -0.200 F 
ATOM     98  F   UNL A   1      47.376  27.488  36.943  1.00  0.00    -0.200 F 
ENDBRANCH  65  88
ENDBRANCH  39  40
ENDBRANCH  31  34
ENDBRANCH  29  30
ENDBRANCH  28  29
ENDBRANCH   1  28
TORSDOF 14
ENDMDL
