MODEL 1
REMARK VINA RESULT:     -11.9      0.000      0.000
REMARK SMILES Nc1c(CC(=O)NCCCCNC(=O)c2ccc(-c3c4nc(c(-c5c(F)c(F)c(F)c(F)c5F)c5ccc([nH]5)c(-c5c(F)c(F)c(F)c(F)c5F)c5nc(c(-c6c(F)c(F)c(F)c(F)c6F)c6ccc3[nH]6)C=C5)C=C4)cc2)cccc1C(=O)c1ccc(Br)cc1
REMARK SMILES IDX 9 1 8 2 7 3 5 4 6 5 4 7 3 8 2 9 81 10 78 11 80 12 79 13 1 14
REMARK SMILES IDX 82 17 83 18 84 19 85 20 90 21 86 22 89 23 87 24 88 25 10 26
REMARK SMILES IDX 11 27 12 28 13 29 14 31 15 32 16 33 77 34 17 35 76 36 18 37
REMARK SMILES IDX 19 38 20 39 70 40 21 41 75 42 69 43 71 44 22 45 74 46 68 47
REMARK SMILES IDX 67 48 23 50 55 51 35 52 54 53 36 54 39 55 53 56 72 57 37 58
REMARK SMILES IDX 38 59 52 61 73 62 40 63 24 64 25 65 33 66 26 67 27 68 31 69
REMARK SMILES IDX 34 70 28 71 29 72 32 73 30 74 56 75 57 76 65 77 58 78 59 79
REMARK SMILES IDX 63 80 66 81 60 82 61 83 64 84 62 85 41 86 42 87 50 88 43 89
REMARK SMILES IDX 44 90 48 91 51 92 45 93 46 94 49 95 47 96
REMARK H PARENT 7 6 1 15 1 16 12 30 71 49 39 60
REMARK Flexibility Score: inf
ROOT
ATOM      1  C   UNL A   1      35.260  21.796  26.111  1.00  0.00     0.023 C 
ENDROOT
BRANCH   1   2
ATOM      2  C   UNL A   1      35.214  20.703  25.045  1.00  0.00     0.116 C 
BRANCH   2   3
ATOM      3  N   UNL A   1      34.182  19.726  25.325  1.00  0.00    -0.356 N 
ATOM      4  C   UNL A   1      32.887  19.699  24.894  1.00  0.00     0.224 C 
ATOM      5  O   UNL A   1      32.153  18.806  25.325  1.00  0.00    -0.275 OA
ATOM      6  H   UNL A   1      34.452  18.978  25.906  1.00  0.00     0.163 HD
BRANCH   4   7
ATOM      7  C   UNL A   1      32.389  20.695  23.857  1.00  0.00     0.137 C 
BRANCH   7   8
ATOM      8  C   UNL A   1      31.947  22.036  24.419  1.00  0.00    -0.015 A 
ATOM      9  C   UNL A   1      32.041  23.249  23.683  1.00  0.00     0.046 A 
ATOM     10  C   UNL A   1      31.709  24.469  24.328  1.00  0.00     0.046 A 
ATOM     11  C   UNL A   1      31.491  22.054  25.751  1.00  0.00     0.006 A 
ATOM     12  C   UNL A   1      31.275  24.444  25.669  1.00  0.00     0.014 A 
ATOM     13  C   UNL A   1      31.160  23.249  26.372  1.00  0.00     0.001 A 
BRANCH   9  14
ATOM     14  N   UNL A   1      32.505  23.188  22.373  1.00  0.00    -0.398 N 
ATOM     15  H   UNL A   1      32.416  22.354  21.858  1.00  0.00     0.156 HD
ATOM     16  H   UNL A   1      32.923  23.979  21.961  1.00  0.00     0.156 HD
ENDBRANCH   9  14
BRANCH  10  17
ATOM     17  C   UNL A   1      31.818  25.849  23.735  1.00  0.00     0.195 C 
ATOM     18  O   UNL A   1      31.420  26.065  22.590  1.00  0.00    -0.289 OA
BRANCH  17  19
ATOM     19  C   UNL A   1      32.316  27.018  24.481  1.00  0.00     0.023 A 
ATOM     20  C   UNL A   1      31.407  28.041  24.776  1.00  0.00     0.013 A 
ATOM     21  C   UNL A   1      33.640  27.094  24.927  1.00  0.00     0.013 A 
ATOM     22  C   UNL A   1      31.801  29.107  25.586  1.00  0.00     0.016 A 
ATOM     23  C   UNL A   1      34.026  28.154  25.750  1.00  0.00     0.016 A 
ATOM     24  C   UNL A   1      33.102  29.147  26.087  1.00  0.00     0.018 A 
ATOM     25  Br  UNL A   1      33.613  30.546  27.251  1.00  0.00    -0.051 Br
ENDBRANCH  17  19
ENDBRANCH  10  17
ENDBRANCH   7   8
ENDBRANCH   4   7
ENDBRANCH   2   3
ENDBRANCH   1   2
BRANCH   1  26
ATOM     26  C   UNL A   1      35.359  23.214  25.545  1.00  0.00     0.023 C 
BRANCH  26  27
ATOM     27  C   UNL A   1      36.779  23.700  25.281  1.00  0.00     0.116 C 
BRANCH  27  28
ATOM     28  N   UNL A   1      37.790  22.696  25.575  1.00  0.00    -0.352 N 
ATOM     29  C   UNL A   1      39.004  22.858  26.193  1.00  0.00     0.251 C 
ATOM     30  H   UNL A   1      37.574  21.778  25.293  1.00  0.00     0.163 HD
ATOM     31  O   UNL A   1      39.796  21.919  26.251  1.00  0.00    -0.269 OA
BRANCH  29  32
ATOM     32  C   UNL A   1      39.373  24.171  26.762  1.00  0.00     0.039 A 
ATOM     33  C   UNL A   1      39.051  24.439  28.095  1.00  0.00     0.014 A 
ATOM     34  C   UNL A   1      40.032  25.134  25.993  1.00  0.00     0.014 A 
ATOM     35  C   UNL A   1      39.426  25.656  28.665  1.00  0.00     0.010 A 
ATOM     36  C   UNL A   1      40.479  26.311  26.587  1.00  0.00     0.010 A 
ATOM     37  C   UNL A   1      40.165  26.593  27.924  1.00  0.00    -0.014 A 
BRANCH  37  38
ATOM     38  C   UNL A   1      40.589  27.879  28.532  1.00  0.00     0.031 A 
ATOM     39  C   UNL A   1      42.030  28.107  28.897  1.00  0.00     0.074 A 
ATOM     40  C   UNL A   1      39.669  28.832  28.784  1.00  0.00     0.049 A 
ATOM     41  N   UNL A   1      42.593  29.162  29.432  1.00  0.00    -0.248 NA
ATOM     42  C   UNL A   1      42.960  26.994  28.655  1.00  0.00     0.031 C 
ATOM     43  C   UNL A   1      38.233  28.709  28.530  1.00  0.00     0.029 A 
ATOM     44  N   UNL A   1      39.807  30.093  29.308  1.00  0.00    -0.354 N 
ATOM     45  C   UNL A   1      43.932  28.835  29.595  1.00  0.00     0.074 A 
ATOM     46  C   UNL A   1      44.087  27.463  29.167  1.00  0.00     0.031 C 
ATOM     47  C   UNL A   1      37.628  29.860  28.865  1.00  0.00     0.029 A 
ATOM     48  C   UNL A   1      38.626  30.788  29.387  1.00  0.00     0.049 A 
ATOM     49  H   UNL A   1      40.672  30.464  29.599  1.00  0.00     0.167 HD
ATOM     50  C   UNL A   1      44.948  29.616  30.033  1.00  0.00     0.037 A 
ATOM     51  C   UNL A   1      38.377  32.035  29.830  1.00  0.00     0.037 A 
ATOM     52  C   UNL A   1      44.793  30.990  30.439  1.00  0.00     0.049 A 
ATOM     53  C   UNL A   1      39.524  32.884  30.311  1.00  0.00     0.074 A 
ATOM     54  C   UNL A   1      45.768  31.885  30.842  1.00  0.00     0.029 A 
ATOM     55  N   UNL A   1      43.582  31.663  30.498  1.00  0.00    -0.354 N 
ATOM     56  N   UNL A   1      40.800  32.592  30.382  1.00  0.00    -0.248 NA
ATOM     57  C   UNL A   1      39.195  34.243  30.760  1.00  0.00     0.031 C 
ATOM     58  C   UNL A   1      45.140  33.084  31.197  1.00  0.00     0.029 A 
ATOM     59  C   UNL A   1      43.781  32.956  30.955  1.00  0.00     0.049 A 
ATOM     60  H   UNL A   1      42.710  31.279  30.251  1.00  0.00     0.167 HD
ATOM     61  C   UNL A   1      41.428  33.735  30.857  1.00  0.00     0.074 A 
ATOM     62  C   UNL A   1      40.395  34.734  31.032  1.00  0.00     0.031 C 
ATOM     63  C   UNL A   1      42.742  33.940  31.126  1.00  0.00     0.037 A 
BRANCH  50  64
ATOM     64  C   UNL A   1      46.320  29.006  30.091  1.00  0.00     0.064 A 
ATOM     65  C   UNL A   1      46.803  28.385  31.254  1.00  0.00     0.173 A 
ATOM     66  C   UNL A   1      47.152  29.013  28.960  1.00  0.00     0.173 A 
ATOM     67  F   UNL A   1      46.054  28.361  32.367  1.00  0.00    -0.203 F 
ATOM     68  C   UNL A   1      48.078  27.826  31.294  1.00  0.00     0.198 A 
ATOM     69  C   UNL A   1      48.414  28.422  28.994  1.00  0.00     0.198 A 
ATOM     70  F   UNL A   1      46.740  29.587  27.821  1.00  0.00    -0.203 F 
ATOM     71  F   UNL A   1      48.537  27.291  32.433  1.00  0.00    -0.200 F 
ATOM     72  C   UNL A   1      48.878  27.838  30.162  1.00  0.00     0.200 A 
ATOM     73  F   UNL A   1      49.179  28.421  27.895  1.00  0.00    -0.200 F 
ATOM     74  F   UNL A   1      50.102  27.293  30.199  1.00  0.00    -0.200 F 
ENDBRANCH  50  64
BRANCH  51  75
ATOM     75  C   UNL A   1      36.990  32.570  29.809  1.00  0.00     0.064 A 
ATOM     76  C   UNL A   1      36.499  33.261  28.692  1.00  0.00     0.173 A 
ATOM     77  C   UNL A   1      36.132  32.415  30.908  1.00  0.00     0.173 A 
ATOM     78  F   UNL A   1      37.287  33.454  27.625  1.00  0.00    -0.203 F 
ATOM     79  C   UNL A   1      35.214  33.800  28.686  1.00  0.00     0.198 A 
ATOM     80  C   UNL A   1      34.835  32.926  30.887  1.00  0.00     0.198 A 
ATOM     81  F   UNL A   1      36.549  31.757  31.999  1.00  0.00    -0.203 F 
ATOM     82  F   UNL A   1      34.790  34.503  27.627  1.00  0.00    -0.200 F 
ATOM     83  C   UNL A   1      34.381  33.626  29.781  1.00  0.00     0.200 A 
ATOM     84  F   UNL A   1      34.028  32.742  31.941  1.00  0.00    -0.200 F 
ATOM     85  F   UNL A   1      33.144  34.143  29.772  1.00  0.00    -0.200 F 
ENDBRANCH  51  75
BRANCH  63  86
ATOM     86  C   UNL A   1      43.138  35.307  31.608  1.00  0.00     0.064 A 
ATOM     87  C   UNL A   1      43.053  35.666  32.962  1.00  0.00     0.173 A 
ATOM     88  C   UNL A   1      43.622  36.266  30.705  1.00  0.00     0.173 A 
ATOM     89  F   UNL A   1      42.584  34.791  33.865  1.00  0.00    -0.203 F 
ATOM     90  C   UNL A   1      43.402  36.946  33.386  1.00  0.00     0.198 A 
ATOM     91  C   UNL A   1      44.005  37.532  31.139  1.00  0.00     0.198 A 
ATOM     92  F   UNL A   1      43.732  35.972  29.401  1.00  0.00    -0.203 F 
ATOM     93  F   UNL A   1      43.251  37.286  34.674  1.00  0.00    -0.200 F 
ATOM     94  C   UNL A   1      43.883  37.875  32.476  1.00  0.00     0.200 A 
ATOM     95  F   UNL A   1      44.486  38.423  30.260  1.00  0.00    -0.200 F 
ATOM     96  F   UNL A   1      44.219  39.105  32.888  1.00  0.00    -0.200 F 
ENDBRANCH  63  86
ENDBRANCH  37  38
ENDBRANCH  29  32
ENDBRANCH  27  28
ENDBRANCH  26  27
ENDBRANCH   1  26
TORSDOF 15
ENDMDL
MODEL 2
REMARK VINA RESULT:     -11.8      0.182      1.947
REMARK SMILES Nc1c(CC(=O)NCCCCNC(=O)c2ccc(-c3c4nc(c(-c5c(F)c(F)c(F)c(F)c5F)c5ccc([nH]5)c(-c5c(F)c(F)c(F)c(F)c5F)c5nc(c(-c6c(F)c(F)c(F)c(F)c6F)c6ccc3[nH]6)C=C5)C=C4)cc2)cccc1C(=O)c1ccc(Br)cc1
REMARK SMILES IDX 9 1 8 2 7 3 5 4 6 5 4 7 3 8 2 9 81 10 78 11 80 12 79 13 1 14
REMARK SMILES IDX 82 17 83 18 84 19 85 20 90 21 86 22 89 23 87 24 88 25 10 26
REMARK SMILES IDX 11 27 12 28 13 29 14 31 15 32 16 33 77 34 17 35 76 36 18 37
REMARK SMILES IDX 19 38 20 39 70 40 21 41 75 42 69 43 71 44 22 45 74 46 68 47
REMARK SMILES IDX 67 48 23 50 55 51 35 52 54 53 36 54 39 55 53 56 72 57 37 58
REMARK SMILES IDX 38 59 52 61 73 62 40 63 24 64 25 65 33 66 26 67 27 68 31 69
REMARK SMILES IDX 34 70 28 71 29 72 32 73 30 74 56 75 57 76 65 77 58 78 59 79
REMARK SMILES IDX 63 80 66 81 60 82 61 83 64 84 62 85 41 86 42 87 50 88 43 89
REMARK SMILES IDX 44 90 48 91 51 92 45 93 46 94 49 95 47 96
REMARK H PARENT 7 6 1 15 1 16 12 30 71 49 39 60
REMARK Flexibility Score: inf
ROOT
ATOM      1  C   UNL A   1      35.248  21.856  26.122  1.00  0.00     0.023 C 
ENDROOT
BRANCH   1   2
ATOM      2  C   UNL A   1      35.180  20.834  24.988  1.00  0.00     0.116 C 
BRANCH   2   3
ATOM      3  N   UNL A   1      34.172  19.825  25.237  1.00  0.00    -0.356 N 
ATOM      4  C   UNL A   1      32.872  19.792  24.823  1.00  0.00     0.224 C 
ATOM      5  O   UNL A   1      32.161  18.867  25.223  1.00  0.00    -0.275 OA
ATOM      6  H   UNL A   1      34.464  19.058  25.781  1.00  0.00     0.163 HD
BRANCH   4   7
ATOM      7  C   UNL A   1      32.339  20.824  23.839  1.00  0.00     0.137 C 
BRANCH   7   8
ATOM      8  C   UNL A   1      31.901  22.137  24.465  1.00  0.00    -0.015 A 
ATOM      9  C   UNL A   1      31.985  23.383  23.782  1.00  0.00     0.046 A 
ATOM     10  C   UNL A   1      31.656  24.572  24.484  1.00  0.00     0.046 A 
ATOM     11  C   UNL A   1      31.456  22.094  25.800  1.00  0.00     0.006 A 
ATOM     12  C   UNL A   1      31.235  24.485  25.827  1.00  0.00     0.014 A 
ATOM     13  C   UNL A   1      31.128  23.260  26.477  1.00  0.00     0.001 A 
BRANCH   9  14
ATOM     14  N   UNL A   1      32.438  23.381  22.467  1.00  0.00    -0.398 N 
ATOM     15  H   UNL A   1      33.332  23.732  22.254  1.00  0.00     0.156 HD
ATOM     16  H   UNL A   1      31.863  23.028  21.749  1.00  0.00     0.156 HD
ENDBRANCH   9  14
BRANCH  10  17
ATOM     17  C   UNL A   1      31.758  25.976  23.953  1.00  0.00     0.195 C 
ATOM     18  O   UNL A   1      31.261  26.265  22.864  1.00  0.00    -0.289 OA
BRANCH  17  19
ATOM     19  C   UNL A   1      32.366  27.089  24.704  1.00  0.00     0.023 A 
ATOM     20  C   UNL A   1      31.609  28.254  24.876  1.00  0.00     0.013 A 
ATOM     21  C   UNL A   1      33.639  26.980  25.274  1.00  0.00     0.013 A 
ATOM     22  C   UNL A   1      32.091  29.283  25.685  1.00  0.00     0.016 A 
ATOM     23  C   UNL A   1      34.113  28.005  26.095  1.00  0.00     0.016 A 
ATOM     24  C   UNL A   1      33.332  29.145  26.307  1.00  0.00     0.018 A 
ATOM     25  Br  UNL A   1      33.951  30.502  27.469  1.00  0.00    -0.051 Br
ENDBRANCH  17  19
ENDBRANCH  10  17
ENDBRANCH   7   8
ENDBRANCH   4   7
ENDBRANCH   2   3
ENDBRANCH   1   2
BRANCH   1  26
ATOM     26  C   UNL A   1      35.379  23.305  25.647  1.00  0.00     0.023 C 
BRANCH  26  27
ATOM     27  C   UNL A   1      36.799  23.741  25.308  1.00  0.00     0.116 C 
BRANCH  27  28
ATOM     28  N   UNL A   1      37.796  22.728  25.616  1.00  0.00    -0.352 N 
ATOM     29  C   UNL A   1      39.003  22.879  26.250  1.00  0.00     0.251 C 
ATOM     30  H   UNL A   1      37.576  21.812  25.331  1.00  0.00     0.163 HD
ATOM     31  O   UNL A   1      39.786  21.933  26.319  1.00  0.00    -0.269 OA
BRANCH  29  32
ATOM     32  C   UNL A   1      39.376  24.189  26.824  1.00  0.00     0.039 A 
ATOM     33  C   UNL A   1      39.052  24.454  28.157  1.00  0.00     0.014 A 
ATOM     34  C   UNL A   1      40.041  25.151  26.059  1.00  0.00     0.014 A 
ATOM     35  C   UNL A   1      39.431  25.667  28.732  1.00  0.00     0.010 A 
ATOM     36  C   UNL A   1      40.492  26.324  26.658  1.00  0.00     0.010 A 
ATOM     37  C   UNL A   1      40.176  26.604  27.995  1.00  0.00    -0.014 A 
BRANCH  37  38
ATOM     38  C   UNL A   1      40.603  27.887  28.608  1.00  0.00     0.031 A 
ATOM     39  C   UNL A   1      42.039  28.098  29.001  1.00  0.00     0.074 A 
ATOM     40  C   UNL A   1      39.691  28.852  28.839  1.00  0.00     0.049 A 
ATOM     41  N   UNL A   1      42.605  29.147  29.544  1.00  0.00    -0.248 NA
ATOM     42  C   UNL A   1      42.960  26.973  28.779  1.00  0.00     0.031 C 
ATOM     43  C   UNL A   1      38.258  28.746  28.558  1.00  0.00     0.029 A 
ATOM     44  N   UNL A   1      39.834  30.112  29.363  1.00  0.00    -0.354 N 
ATOM     45  C   UNL A   1      43.937  28.804  29.734  1.00  0.00     0.074 A 
ATOM     46  C   UNL A   1      44.083  27.429  29.312  1.00  0.00     0.031 C 
ATOM     47  C   UNL A   1      37.661  29.904  28.878  1.00  0.00     0.029 A 
ATOM     48  C   UNL A   1      38.660  30.822  29.417  1.00  0.00     0.049 A 
ATOM     49  H   UNL A   1      40.697  30.473  29.669  1.00  0.00     0.167 HD
ATOM     50  C   UNL A   1      44.953  29.574  30.189  1.00  0.00     0.037 A 
ATOM     51  C   UNL A   1      38.418  32.073  29.851  1.00  0.00     0.037 A 
ATOM     52  C   UNL A   1      44.808  30.951  30.589  1.00  0.00     0.049 A 
ATOM     53  C   UNL A   1      39.566  32.909  30.352  1.00  0.00     0.074 A 
ATOM     54  C   UNL A   1      45.785  31.835  31.008  1.00  0.00     0.029 A 
ATOM     55  N   UNL A   1      43.604  31.639  30.622  1.00  0.00    -0.354 N 
ATOM     56  N   UNL A   1      40.836  32.601  30.450  1.00  0.00    -0.248 NA
ATOM     57  C   UNL A   1      39.245  34.273  30.792  1.00  0.00     0.031 C 
ATOM     58  C   UNL A   1      45.165  33.043  31.348  1.00  0.00     0.029 A 
ATOM     59  C   UNL A   1      43.810  32.931  31.080  1.00  0.00     0.049 A 
ATOM     60  H   UNL A   1      42.732  31.265  30.359  1.00  0.00     0.167 HD
ATOM     61  C   UNL A   1      41.469  33.738  30.934  1.00  0.00     0.074 A 
ATOM     62  C   UNL A   1      40.445  34.750  31.086  1.00  0.00     0.031 C 
ATOM     63  C   UNL A   1      42.780  33.928  31.228  1.00  0.00     0.037 A 
BRANCH  50  64
ATOM     64  C   UNL A   1      46.316  28.947  30.276  1.00  0.00     0.064 A 
ATOM     65  C   UNL A   1      47.213  28.979  29.197  1.00  0.00     0.173 A 
ATOM     66  C   UNL A   1      46.743  28.331  31.463  1.00  0.00     0.173 A 
ATOM     67  F   UNL A   1      46.852  29.543  28.034  1.00  0.00    -0.203 F 
ATOM     68  C   UNL A   1      48.472  28.390  29.291  1.00  0.00     0.198 A 
ATOM     69  C   UNL A   1      48.016  27.774  31.565  1.00  0.00     0.198 A 
ATOM     70  F   UNL A   1      45.930  28.276  32.527  1.00  0.00    -0.203 F 
ATOM     71  F   UNL A   1      49.288  28.384  28.228  1.00  0.00    -0.200 F 
ATOM     72  C   UNL A   1      48.875  27.796  30.476  1.00  0.00     0.200 A 
ATOM     73  F   UNL A   1      48.409  27.213  32.716  1.00  0.00    -0.200 F 
ATOM     74  F   UNL A   1      50.089  27.236  30.568  1.00  0.00    -0.200 F 
ENDBRANCH  50  64
BRANCH  51  75
ATOM     75  C   UNL A   1      37.038  32.625  29.802  1.00  0.00     0.064 A 
ATOM     76  C   UNL A   1      36.158  32.466  30.883  1.00  0.00     0.173 A 
ATOM     77  C   UNL A   1      36.566  33.310  28.673  1.00  0.00     0.173 A 
ATOM     78  F   UNL A   1      36.556  31.801  31.977  1.00  0.00    -0.203 F 
ATOM     79  C   UNL A   1      34.851  32.946  30.825  1.00  0.00     0.198 A 
ATOM     80  C   UNL A   1      35.268  33.819  28.629  1.00  0.00     0.198 A 
ATOM     81  F   UNL A   1      37.368  33.496  27.616  1.00  0.00    -0.203 F 
ATOM     82  F   UNL A   1      34.016  32.731  31.849  1.00  0.00    -0.200 F 
ATOM     83  C   UNL A   1      34.409  33.627  29.700  1.00  0.00     0.200 A 
ATOM     84  F   UNL A   1      34.851  34.490  27.548  1.00  0.00    -0.200 F 
ATOM     85  F   UNL A   1      33.153  34.090  29.647  1.00  0.00    -0.200 F 
ENDBRANCH  51  75
BRANCH  63  86
ATOM     86  C   UNL A   1      43.183  35.291  31.714  1.00  0.00     0.064 A 
ATOM     87  C   UNL A   1      43.694  36.265  30.842  1.00  0.00     0.173 A 
ATOM     88  C   UNL A   1      43.040  35.635  33.067  1.00  0.00     0.173 A 
ATOM     89  F   UNL A   1      43.864  35.984  29.540  1.00  0.00    -0.203 F 
ATOM     90  C   UNL A   1      44.085  37.515  31.314  1.00  0.00     0.198 A 
ATOM     91  C   UNL A   1      43.397  36.898  33.528  1.00  0.00     0.198 A 
ATOM     92  F   UNL A   1      42.547  34.745  33.942  1.00  0.00    -0.203 F 
ATOM     93  F   UNL A   1      44.632  38.404  30.474  1.00  0.00    -0.200 F 
ATOM     94  C   UNL A   1      43.931  37.832  32.655  1.00  0.00     0.200 A 
ATOM     95  F   UNL A   1      43.230  37.209  34.822  1.00  0.00    -0.200 F 
ATOM     96  F   UNL A   1      44.306  39.037  33.107  1.00  0.00    -0.200 F 
ENDBRANCH  63  86
ENDBRANCH  37  38
ENDBRANCH  29  32
ENDBRANCH  27  28
ENDBRANCH  26  27
ENDBRANCH   1  26
TORSDOF 15
ENDMDL
MODEL 3
REMARK VINA RESULT:     -11.8      3.450      8.904
REMARK SMILES Nc1c(CC(=O)NCCCCNC(=O)c2ccc(-c3c4nc(c(-c5c(F)c(F)c(F)c(F)c5F)c5ccc([nH]5)c(-c5c(F)c(F)c(F)c(F)c5F)c5nc(c(-c6c(F)c(F)c(F)c(F)c6F)c6ccc3[nH]6)C=C5)C=C4)cc2)cccc1C(=O)c1ccc(Br)cc1
REMARK SMILES IDX 9 1 8 2 7 3 5 4 6 5 4 7 3 8 2 9 81 10 78 11 80 12 79 13 1 14
REMARK SMILES IDX 82 17 83 18 84 19 85 20 90 21 86 22 89 23 87 24 88 25 10 26
REMARK SMILES IDX 11 27 12 28 13 29 14 31 15 32 16 33 77 34 17 35 76 36 18 37
REMARK SMILES IDX 19 38 20 39 70 40 21 41 75 42 69 43 71 44 22 45 74 46 68 47
REMARK SMILES IDX 67 48 23 50 55 51 35 52 54 53 36 54 39 55 53 56 72 57 37 58
REMARK SMILES IDX 38 59 52 61 73 62 40 63 24 64 25 65 33 66 26 67 27 68 31 69
REMARK SMILES IDX 34 70 28 71 29 72 32 73 30 74 56 75 57 76 65 77 58 78 59 79
REMARK SMILES IDX 63 80 66 81 60 82 61 83 64 84 62 85 41 86 42 87 50 88 43 89
REMARK SMILES IDX 44 90 48 91 51 92 45 93 46 94 49 95 47 96
REMARK H PARENT 7 6 1 15 1 16 12 30 71 49 39 60
REMARK Flexibility Score: inf
ROOT
ATOM      1  C   UNL A   1      32.864  29.184  24.709  1.00  0.00     0.023 C 
ENDROOT
BRANCH   1   2
ATOM      2  C   UNL A   1      31.358  29.410  24.836  1.00  0.00     0.116 C 
BRANCH   2   3
ATOM      3  N   UNL A   1      30.750  29.701  23.554  1.00  0.00    -0.356 N 
ATOM      4  C   UNL A   1      30.064  28.864  22.722  1.00  0.00     0.224 C 
ATOM      5  O   UNL A   1      29.699  29.307  21.630  1.00  0.00    -0.275 OA
ATOM      6  H   UNL A   1      30.845  30.629  23.240  1.00  0.00     0.163 HD
BRANCH   4   7
ATOM      7  C   UNL A   1      29.697  27.454  23.161  1.00  0.00     0.137 C 
BRANCH   7   8
ATOM      8  C   UNL A   1      30.815  26.433  23.031  1.00  0.00    -0.015 A 
ATOM      9  C   UNL A   1      30.978  25.349  23.938  1.00  0.00     0.046 A 
ATOM     10  C   UNL A   1      32.115  24.509  23.804  1.00  0.00     0.046 A 
ATOM     11  C   UNL A   1      31.750  26.633  21.997  1.00  0.00     0.006 A 
ATOM     12  C   UNL A   1      33.037  24.757  22.766  1.00  0.00     0.014 A 
ATOM     13  C   UNL A   1      32.854  25.803  21.867  1.00  0.00     0.001 A 
BRANCH   9  14
ATOM     14  N   UNL A   1      30.037  25.192  24.950  1.00  0.00    -0.398 N 
ATOM     15  H   UNL A   1      30.317  25.234  25.892  1.00  0.00     0.156 HD
ATOM     16  H   UNL A   1      29.091  25.039  24.724  1.00  0.00     0.156 HD
ENDBRANCH   9  14
BRANCH  10  17
ATOM     17  C   UNL A   1      32.491  23.368  24.711  1.00  0.00     0.195 C 
ATOM     18  O   UNL A   1      31.625  22.601  25.133  1.00  0.00    -0.289 OA
BRANCH  17  19
ATOM     19  C   UNL A   1      33.880  23.046  25.081  1.00  0.00     0.023 A 
ATOM     20  C   UNL A   1      34.411  21.830  24.634  1.00  0.00     0.013 A 
ATOM     21  C   UNL A   1      34.669  23.939  25.814  1.00  0.00     0.013 A 
ATOM     22  C   UNL A   1      35.759  21.539  24.852  1.00  0.00     0.016 A 
ATOM     23  C   UNL A   1      36.021  23.651  26.018  1.00  0.00     0.016 A 
ATOM     24  C   UNL A   1      36.562  22.460  25.525  1.00  0.00     0.018 A 
ATOM     25  Br  UNL A   1      38.405  22.105  25.749  1.00  0.00    -0.051 Br
ENDBRANCH  17  19
ENDBRANCH  10  17
ENDBRANCH   7   8
ENDBRANCH   4   7
ENDBRANCH   2   3
ENDBRANCH   1   2
BRANCH   1  26
ATOM     26  C   UNL A   1      33.372  27.945  25.449  1.00  0.00     0.023 C 
BRANCH  26  27
ATOM     27  C   UNL A   1      33.887  28.208  26.859  1.00  0.00     0.116 C 
BRANCH  27  28
ATOM     28  N   UNL A   1      33.697  29.585  27.288  1.00  0.00    -0.352 N 
ATOM     29  C   UNL A   1      34.569  30.399  27.964  1.00  0.00     0.251 C 
ATOM     30  H   UNL A   1      32.826  29.985  27.063  1.00  0.00     0.163 HD
ATOM     31  O   UNL A   1      34.200  31.503  28.361  1.00  0.00    -0.269 OA
BRANCH  29  32
ATOM     32  C   UNL A   1      35.945  29.937  28.243  1.00  0.00     0.039 A 
ATOM     33  C   UNL A   1      36.917  30.086  27.250  1.00  0.00     0.014 A 
ATOM     34  C   UNL A   1      36.280  29.360  29.470  1.00  0.00     0.014 A 
ATOM     35  C   UNL A   1      38.232  29.695  27.506  1.00  0.00     0.010 A 
ATOM     36  C   UNL A   1      37.607  29.049  29.753  1.00  0.00     0.010 A 
ATOM     37  C   UNL A   1      38.594  29.195  28.768  1.00  0.00    -0.014 A 
BRANCH  37  38
ATOM     38  C   UNL A   1      39.997  28.799  29.054  1.00  0.00     0.031 A 
ATOM     39  C   UNL A   1      40.901  29.718  29.829  1.00  0.00     0.074 A 
ATOM     40  C   UNL A   1      40.465  27.624  28.591  1.00  0.00     0.049 A 
ATOM     41  N   UNL A   1      42.150  29.549  30.181  1.00  0.00    -0.248 NA
ATOM     42  C   UNL A   1      40.336  31.013  30.241  1.00  0.00     0.031 C 
ATOM     43  C   UNL A   1      39.706  26.672  27.778  1.00  0.00     0.029 A 
ATOM     44  N   UNL A   1      41.693  27.029  28.738  1.00  0.00    -0.354 N 
ATOM     45  C   UNL A   1      42.519  30.712  30.844  1.00  0.00     0.074 A 
ATOM     46  C   UNL A   1      41.385  31.607  30.788  1.00  0.00     0.031 C 
ATOM     47  C   UNL A   1      40.472  25.598  27.529  1.00  0.00     0.029 A 
ATOM     48  C   UNL A   1      41.785  25.799  28.135  1.00  0.00     0.049 A 
ATOM     49  H   UNL A   1      42.438  27.445  29.231  1.00  0.00     0.167 HD
ATOM     50  C   UNL A   1      43.685  30.997  31.471  1.00  0.00     0.037 A 
ATOM     51  C   UNL A   1      42.812  24.930  28.079  1.00  0.00     0.037 A 
ATOM     52  C   UNL A   1      44.805  30.094  31.543  1.00  0.00     0.049 A 
ATOM     53  C   UNL A   1      44.098  25.271  28.784  1.00  0.00     0.074 A 
ATOM     54  C   UNL A   1      46.009  30.264  32.203  1.00  0.00     0.029 A 
ATOM     55  N   UNL A   1      44.858  28.853  30.927  1.00  0.00    -0.354 N 
ATOM     56  N   UNL A   1      44.405  26.339  29.479  1.00  0.00    -0.248 NA
ATOM     57  C   UNL A   1      45.175  24.276  28.707  1.00  0.00     0.031 C 
ATOM     58  C   UNL A   1      46.812  29.148  31.941  1.00  0.00     0.029 A 
ATOM     59  C   UNL A   1      46.085  28.255  31.170  1.00  0.00     0.049 A 
ATOM     60  H   UNL A   1      44.131  28.454  30.395  1.00  0.00     0.167 HD
ATOM     61  C   UNL A   1      45.697  26.134  29.944  1.00  0.00     0.074 A 
ATOM     62  C   UNL A   1      46.105  24.827  29.472  1.00  0.00     0.031 C 
ATOM     63  C   UNL A   1      46.477  26.954  30.692  1.00  0.00     0.037 A 
BRANCH  50  64
ATOM     64  C   UNL A   1      43.807  32.340  32.134  1.00  0.00     0.064 A 
ATOM     65  C   UNL A   1      44.310  33.458  31.449  1.00  0.00     0.173 A 
ATOM     66  C   UNL A   1      43.390  32.521  33.462  1.00  0.00     0.173 A 
ATOM     67  F   UNL A   1      44.735  33.339  30.182  1.00  0.00    -0.203 F 
ATOM     68  C   UNL A   1      44.421  34.696  32.077  1.00  0.00     0.198 A 
ATOM     69  C   UNL A   1      43.470  33.769  34.076  1.00  0.00     0.198 A 
ATOM     70  F   UNL A   1      42.897  31.489  34.162  1.00  0.00    -0.203 F 
ATOM     71  F   UNL A   1      44.957  35.733  31.420  1.00  0.00    -0.200 F 
ATOM     72  C   UNL A   1      43.994  34.852  33.387  1.00  0.00     0.200 A 
ATOM     73  F   UNL A   1      43.043  33.921  35.336  1.00  0.00    -0.200 F 
ATOM     74  F   UNL A   1      44.094  36.045  33.988  1.00  0.00    -0.200 F 
ENDBRANCH  50  64
BRANCH  51  75
ATOM     75  C   UNL A   1      42.659  23.640  27.355  1.00  0.00     0.064 A 
ATOM     76  C   UNL A   1      42.031  22.542  27.962  1.00  0.00     0.173 A 
ATOM     77  C   UNL A   1      43.147  23.473  26.051  1.00  0.00     0.173 A 
ATOM     78  F   UNL A   1      41.567  22.646  29.215  1.00  0.00    -0.203 F 
ATOM     79  C   UNL A   1      41.923  21.320  27.303  1.00  0.00     0.198 A 
ATOM     80  C   UNL A   1      43.008  22.259  25.381  1.00  0.00     0.198 A 
ATOM     81  F   UNL A   1      43.749  24.492  25.423  1.00  0.00    -0.203 F 
ATOM     82  F   UNL A   1      41.368  20.272  27.927  1.00  0.00    -0.200 F 
ATOM     83  C   UNL A   1      42.406  21.181  26.010  1.00  0.00     0.200 A 
ATOM     84  F   UNL A   1      43.462  22.134  24.126  1.00  0.00    -0.200 F 
ATOM     85  F   UNL A   1      42.299  20.005  25.377  1.00  0.00    -0.200 F 
ENDBRANCH  51  75
BRANCH  63  86
ATOM     86  C   UNL A   1      47.839  26.444  31.073  1.00  0.00     0.064 A 
ATOM     87  C   UNL A   1      48.966  26.677  30.269  1.00  0.00     0.173 A 
ATOM     88  C   UNL A   1      48.023  25.728  32.266  1.00  0.00     0.173 A 
ATOM     89  F   UNL A   1      48.844  27.345  29.111  1.00  0.00    -0.203 F 
ATOM     90  C   UNL A   1      50.216  26.177  30.626  1.00  0.00     0.198 A 
ATOM     91  C   UNL A   1      49.280  25.262  32.637  1.00  0.00     0.198 A 
ATOM     92  F   UNL A   1      46.981  25.486  33.076  1.00  0.00    -0.203 F 
ATOM     93  F   UNL A   1      51.263  26.356  29.810  1.00  0.00    -0.200 F 
ATOM     94  C   UNL A   1      50.373  25.475  31.812  1.00  0.00     0.200 A 
ATOM     95  F   UNL A   1      49.433  24.599  33.793  1.00  0.00    -0.200 F 
ATOM     96  F   UNL A   1      51.576  24.997  32.153  1.00  0.00    -0.200 F 
ENDBRANCH  63  86
ENDBRANCH  37  38
ENDBRANCH  29  32
ENDBRANCH  27  28
ENDBRANCH  26  27
ENDBRANCH   1  26
TORSDOF 15
ENDMDL
