MODEL 1
REMARK VINA RESULT:     -17.0      0.000      0.000
REMARK SMILES Cc1ccc(C2=NN(C(=O)CCC(=O)NCCCCNC(=O)c3ccc(-c4c5nc(c(-c6c(F)c(F)c(F)c(F)c6F)c6ccc([nH]6)c(-c6c(F)c(F)c(F)c(F)c6F)c6nc(c(-c7c(F)c(F)c(F)c(F)c7F)c7ccc4[nH]7)C=C6)C=C5)cc3)[C@H](C[C@@H]3C=c4cccc(C)c4=NC3=O)C2)cc1
REMARK SMILES IDX 16 1 15 2 13 3 14 4 12 6 11 7 9 8 10 9 8 10 6 11 7 12 100 13
REMARK SMILES IDX 86 14 5 15 1 16 2 17 3 18 102 19 4 20 101 21 87 22 88 23
REMARK SMILES IDX 89 24 98 25 90 26 97 27 99 28 91 29 96 30 92 31 94 32 93 33
REMARK SMILES IDX 95 34 17 35 18 36 19 37 20 38 21 39 22 41 23 42 24 43 85 44
REMARK SMILES IDX 25 45 84 46 26 47 27 48 28 49 78 50 29 51 83 52 77 53 79 54
REMARK SMILES IDX 30 55 82 56 76 57 75 58 31 60 63 61 43 62 62 63 44 64 47 65
REMARK SMILES IDX 61 66 80 67 45 68 46 69 60 71 81 72 48 73 32 74 33 75 41 76
REMARK SMILES IDX 34 77 35 78 39 79 42 80 36 81 37 82 40 83 38 84 64 85 65 86
REMARK SMILES IDX 73 87 66 88 67 89 71 90 74 91 68 92 69 93 72 94 70 95 49 96
REMARK SMILES IDX 50 97 58 98 51 99 52 100 56 101 59 102 53 103 54 104 57 105
REMARK SMILES IDX 55 106
REMARK H PARENT 15 5 20 40 79 59 47 70
REMARK Flexibility Score: inf
ROOT
ATOM      1  C   UNL A   1      32.642  29.919  25.448  1.00  0.00     0.116 C 
ENDROOT
BRANCH   1   2
ATOM      2  N   UNL A   1      33.247  29.467  24.025  1.00  0.00    -0.356 N 
ATOM      3  C   UNL A   1      33.718  28.316  23.479  1.00  0.00     0.220 C 
ATOM      4  O   UNL A   1      34.187  28.418  22.340  1.00  0.00    -0.275 OA
ATOM      5  H   UNL A   1      33.287  30.218  23.389  1.00  0.00     0.163 HD
BRANCH   3   6
ATOM      6  C   UNL A   1      33.696  26.972  24.173  1.00  0.00     0.110 C 
BRANCH   6   7
ATOM      7  C   UNL A   1      33.855  25.700  23.357  1.00  0.00     0.112 C 
BRANCH   7   8
ATOM      8  C   UNL A   1      33.054  24.531  23.889  1.00  0.00     0.243 C 
ATOM      9  O   UNL A   1      31.826  24.555  23.904  1.00  0.00    -0.273 OA
BRANCH   8  10
ATOM     10  N   UNL A   1      33.845  23.514  24.484  1.00  0.00    -0.230 N 
ATOM     11  C   UNL A   1      33.319  20.918  25.519  1.00  0.00     0.070 C 
ATOM     12  N   UNL A   1      33.156  21.825  24.265  1.00  0.00    -0.174 NA
ATOM     13  C   UNL A   1      34.165  22.049  27.108  1.00  0.00     0.086 C 
ATOM     14  C   UNL A   1      34.728  23.753  26.125  1.00  0.00     0.118 C 
BRANCH  11  15
ATOM     15  C   UNL A   1      33.366  19.263  25.003  1.00  0.00    -0.002 A 
ATOM     16  C   UNL A   1      33.450  14.906  25.214  1.00  0.00     0.044 C 
ATOM     17  C   UNL A   1      33.332  16.368  24.904  1.00  0.00    -0.051 A 
ATOM     18  C   UNL A   1      32.154  17.119  25.002  1.00  0.00     0.004 A 
ATOM     19  C   UNL A   1      34.488  17.050  24.624  1.00  0.00     0.004 A 
ATOM     20  C   UNL A   1      32.165  18.547  25.037  1.00  0.00     0.010 A 
ATOM     21  C   UNL A   1      34.475  18.448  24.621  1.00  0.00     0.010 A 
ENDBRANCH  11  15
BRANCH  14  22
ATOM     22  C   UNL A   1      36.332  24.244  25.753  1.00  0.00     0.045 C 
BRANCH  22  23
ATOM     23  C   UNL A   1      37.506  23.244  26.126  1.00  0.00     0.106 C 
ATOM     24  C   UNL A   1      38.901  23.797  26.304  1.00  0.00    -0.003 C 
ATOM     25  C   UNL A   1      37.735  21.981  25.275  1.00  0.00     0.253 C 
ATOM     26  C   UNL A   1      39.816  23.013  26.877  1.00  0.00    -0.003 A 
ATOM     27  N   UNL A   1      38.765  21.123  25.682  1.00  0.00    -0.212 NA
ATOM     28  O   UNL A   1      36.999  21.723  24.327  1.00  0.00    -0.272 OA
ATOM     29  C   UNL A   1      40.822  23.457  27.807  1.00  0.00     0.010 A 
ATOM     30  C   UNL A   1      39.723  21.593  26.430  1.00  0.00     0.077 A 
ATOM     31  C   UNL A   1      41.689  22.578  28.321  1.00  0.00     0.001 A 
ATOM     32  C   UNL A   1      40.942  20.786  26.822  1.00  0.00    -0.025 A 
ATOM     33  C   UNL A   1      41.801  21.260  27.747  1.00  0.00     0.005 A 
ATOM     34  C   UNL A   1      41.264  19.578  26.007  1.00  0.00     0.047 C 
ENDBRANCH  22  23
ENDBRANCH  14  22
ENDBRANCH   8  10
ENDBRANCH   7   8
ENDBRANCH   6   7
ENDBRANCH   3   6
ENDBRANCH   1   2
BRANCH   1  35
ATOM     35  C   UNL A   1      33.676  30.550  27.288  1.00  0.00     0.023 C 
BRANCH  35  36
ATOM     36  C   UNL A   1      33.634  32.415  27.743  1.00  0.00     0.023 C 
BRANCH  36  37
ATOM     37  C   UNL A   1      35.141  33.399  27.930  1.00  0.00     0.116 C 
BRANCH  37  38
ATOM     38  N   UNL A   1      36.372  32.777  28.563  1.00  0.00    -0.352 N 
ATOM     39  C   UNL A   1      36.692  31.629  29.290  1.00  0.00     0.251 C 
ATOM     40  H   UNL A   1      37.167  33.339  28.420  1.00  0.00     0.163 HD
ATOM     41  O   UNL A   1      37.536  31.766  30.184  1.00  0.00    -0.269 OA
BRANCH  39  42
ATOM     42  C   UNL A   1      36.374  30.237  28.750  1.00  0.00     0.039 A 
ATOM     43  C   UNL A   1      36.378  29.326  29.836  1.00  0.00     0.014 A 
ATOM     44  C   UNL A   1      37.343  30.021  27.793  1.00  0.00     0.014 A 
ATOM     45  C   UNL A   1      37.613  28.957  30.363  1.00  0.00     0.010 A 
ATOM     46  C   UNL A   1      38.596  29.882  28.342  1.00  0.00     0.010 A 
ATOM     47  C   UNL A   1      38.725  29.397  29.665  1.00  0.00    -0.014 A 
BRANCH  47  48
ATOM     48  C   UNL A   1      40.094  29.276  30.101  1.00  0.00     0.031 A 
ATOM     49  C   UNL A   1      40.785  28.081  29.583  1.00  0.00     0.074 A 
ATOM     50  C   UNL A   1      40.725  30.276  30.752  1.00  0.00     0.049 A 
ATOM     51  N   UNL A   1      41.881  27.607  30.053  1.00  0.00    -0.248 NA
ATOM     52  C   UNL A   1      40.209  27.235  28.531  1.00  0.00     0.031 C 
ATOM     53  C   UNL A   1      42.166  30.510  30.798  1.00  0.00     0.029 A 
ATOM     54  N   UNL A   1      40.197  31.241  31.615  1.00  0.00    -0.354 N 
ATOM     55  C   UNL A   1      42.321  26.673  29.142  1.00  0.00     0.074 A 
ATOM     56  C   UNL A   1      41.170  26.334  28.363  1.00  0.00     0.031 C 
ATOM     57  C   UNL A   1      42.443  31.384  31.778  1.00  0.00     0.029 A 
ATOM     58  C   UNL A   1      41.218  31.613  32.519  1.00  0.00     0.049 A 
ATOM     59  H   UNL A   1      39.279  31.596  31.597  1.00  0.00     0.167 HD
ATOM     60  C   UNL A   1      43.662  26.479  29.034  1.00  0.00     0.037 A 
ATOM     61  C   UNL A   1      41.086  31.361  33.859  1.00  0.00     0.037 A 
ATOM     62  C   UNL A   1      44.342  27.143  30.155  1.00  0.00     0.049 A 
ATOM     63  C   UNL A   1      42.008  30.280  34.384  1.00  0.00     0.074 A 
ATOM     64  C   UNL A   1      45.079  28.311  30.264  1.00  0.00     0.029 A 
ATOM     65  N   UNL A   1      43.979  26.795  31.456  1.00  0.00    -0.354 N 
ATOM     66  N   UNL A   1      42.748  29.524  33.619  1.00  0.00    -0.248 NA
ATOM     67  C   UNL A   1      42.153  29.939  35.796  1.00  0.00     0.031 C 
ATOM     68  C   UNL A   1      45.098  28.694  31.636  1.00  0.00     0.029 A 
ATOM     69  C   UNL A   1      44.401  27.746  32.367  1.00  0.00     0.049 A 
ATOM     70  H   UNL A   1      43.486  25.977  31.695  1.00  0.00     0.167 HD
ATOM     71  C   UNL A   1      43.385  28.574  34.372  1.00  0.00     0.074 A 
ATOM     72  C   UNL A   1      43.025  28.916  35.736  1.00  0.00     0.031 C 
ATOM     73  C   UNL A   1      44.113  27.571  33.791  1.00  0.00     0.037 A 
BRANCH  60  74
ATOM     74  C   UNL A   1      44.366  25.956  27.791  1.00  0.00     0.064 A 
ATOM     75  C   UNL A   1      44.825  24.622  27.766  1.00  0.00     0.173 A 
ATOM     76  C   UNL A   1      44.716  26.699  26.638  1.00  0.00     0.173 A 
ATOM     77  F   UNL A   1      44.551  23.774  28.766  1.00  0.00    -0.203 F 
ATOM     78  C   UNL A   1      45.598  24.103  26.719  1.00  0.00     0.198 A 
ATOM     79  C   UNL A   1      45.480  26.180  25.589  1.00  0.00     0.198 A 
ATOM     80  F   UNL A   1      44.358  27.967  26.449  1.00  0.00    -0.203 F 
ATOM     81  F   UNL A   1      46.031  22.837  26.779  1.00  0.00    -0.200 F 
ATOM     82  C   UNL A   1      45.931  24.884  25.633  1.00  0.00     0.200 A 
ATOM     83  F   UNL A   1      45.782  26.963  24.542  1.00  0.00    -0.200 F 
ATOM     84  F   UNL A   1      46.675  24.392  24.634  1.00  0.00    -0.200 F 
ENDBRANCH  60  74
BRANCH  61  85
ATOM     85  C   UNL A   1      39.709  31.663  34.340  1.00  0.00     0.064 A 
ATOM     86  C   UNL A   1      39.446  33.014  34.633  1.00  0.00     0.173 A 
ATOM     87  C   UNL A   1      38.634  30.859  33.941  1.00  0.00     0.173 A 
ATOM     88  F   UNL A   1      40.438  33.806  35.075  1.00  0.00    -0.203 F 
ATOM     89  C   UNL A   1      38.218  33.588  34.318  1.00  0.00     0.198 A 
ATOM     90  C   UNL A   1      37.401  31.437  33.631  1.00  0.00     0.198 A 
ATOM     91  F   UNL A   1      38.820  29.553  33.698  1.00  0.00    -0.203 F 
ATOM     92  F   UNL A   1      38.046  34.909  34.456  1.00  0.00    -0.200 F 
ATOM     93  C   UNL A   1      37.213  32.807  33.769  1.00  0.00     0.200 A 
ATOM     94  F   UNL A   1      36.423  30.681  33.110  1.00  0.00    -0.200 F 
ATOM     95  F   UNL A   1      36.074  33.379  33.351  1.00  0.00    -0.200 F 
ENDBRANCH  61  85
BRANCH  73  96
ATOM     96  C   UNL A   1      44.660  26.333  34.480  1.00  0.00     0.064 A 
ATOM     97  C   UNL A   1      45.890  26.266  35.153  1.00  0.00     0.173 A 
ATOM     98  C   UNL A   1      43.850  25.173  34.601  1.00  0.00     0.173 A 
ATOM     99  F   UNL A   1      46.702  27.327  35.245  1.00  0.00    -0.203 F 
ATOM    100  C   UNL A   1      46.307  25.112  35.826  1.00  0.00     0.198 A 
ATOM    101  C   UNL A   1      44.231  24.059  35.346  1.00  0.00     0.198 A 
ATOM    102  F   UNL A   1      42.643  25.089  34.021  1.00  0.00    -0.203 F 
ATOM    103  F   UNL A   1      47.519  25.082  36.398  1.00  0.00    -0.200 F 
ATOM    104  C   UNL A   1      45.473  24.017  35.938  1.00  0.00     0.200 A 
ATOM    105  F   UNL A   1      43.376  23.038  35.501  1.00  0.00    -0.200 F 
ATOM    106  F   UNL A   1      45.854  22.938  36.632  1.00  0.00    -0.200 F 
ENDBRANCH  73  96
ENDBRANCH  47  48
ENDBRANCH  39  42
ENDBRANCH  37  38
ENDBRANCH  36  37
ENDBRANCH  35  36
ENDBRANCH   1  35
TORSDOF 17
ENDMDL
MODEL 2
REMARK VINA RESULT:     -16.2      1.073      2.145
REMARK SMILES Cc1ccc(C2=NN(C(=O)CCC(=O)NCCCCNC(=O)c3ccc(-c4c5nc(c(-c6c(F)c(F)c(F)c(F)c6F)c6ccc([nH]6)c(-c6c(F)c(F)c(F)c(F)c6F)c6nc(c(-c7c(F)c(F)c(F)c(F)c7F)c7ccc4[nH]7)C=C6)C=C5)cc3)[C@H](C[C@@H]3C=c4cccc(C)c4=NC3=O)C2)cc1
REMARK SMILES IDX 16 1 15 2 13 3 14 4 12 6 11 7 9 8 10 9 8 10 6 11 7 12 100 13
REMARK SMILES IDX 86 14 5 15 1 16 2 17 3 18 102 19 4 20 101 21 87 22 88 23
REMARK SMILES IDX 89 24 98 25 90 26 97 27 99 28 91 29 96 30 92 31 94 32 93 33
REMARK SMILES IDX 95 34 17 35 18 36 19 37 20 38 21 39 22 41 23 42 24 43 85 44
REMARK SMILES IDX 25 45 84 46 26 47 27 48 28 49 78 50 29 51 83 52 77 53 79 54
REMARK SMILES IDX 30 55 82 56 76 57 75 58 31 60 63 61 43 62 62 63 44 64 47 65
REMARK SMILES IDX 61 66 80 67 45 68 46 69 60 71 81 72 48 73 32 74 33 75 41 76
REMARK SMILES IDX 34 77 35 78 39 79 42 80 36 81 37 82 40 83 38 84 64 85 65 86
REMARK SMILES IDX 73 87 66 88 67 89 71 90 74 91 68 92 69 93 72 94 70 95 49 96
REMARK SMILES IDX 50 97 58 98 51 99 52 100 56 101 59 102 53 103 54 104 57 105
REMARK SMILES IDX 55 106
REMARK H PARENT 15 5 20 40 79 59 47 70
REMARK Flexibility Score: inf
ROOT
ATOM      1  C   UNL A   1      31.839  30.393  25.966  1.00  0.00     0.116 C 
ENDROOT
BRANCH   1   2
ATOM      2  N   UNL A   1      31.596  29.760  24.505  1.00  0.00    -0.356 N 
ATOM      3  C   UNL A   1      32.095  28.718  23.790  1.00  0.00     0.220 C 
ATOM      4  O   UNL A   1      31.686  28.623  22.628  1.00  0.00    -0.275 OA
ATOM      5  H   UNL A   1      30.912  30.257  24.000  1.00  0.00     0.163 HD
BRANCH   3   6
ATOM      6  C   UNL A   1      33.088  27.712  24.330  1.00  0.00     0.110 C 
BRANCH   6   7
ATOM      7  C   UNL A   1      33.526  26.546  23.461  1.00  0.00     0.112 C 
BRANCH   7   8
ATOM      8  C   UNL A   1      32.680  25.304  23.635  1.00  0.00     0.243 C 
ATOM      9  O   UNL A   1      31.480  25.310  23.378  1.00  0.00    -0.273 OA
BRANCH   8  10
ATOM     10  N   UNL A   1      33.365  24.222  24.249  1.00  0.00    -0.230 N 
ATOM     11  C   UNL A   1      32.606  21.645  25.182  1.00  0.00     0.070 C 
ATOM     12  N   UNL A   1      32.580  22.589  23.944  1.00  0.00    -0.174 NA
ATOM     13  C   UNL A   1      33.427  22.680  26.847  1.00  0.00     0.086 C 
ATOM     14  C   UNL A   1      34.161  24.364  25.945  1.00  0.00     0.118 C 
BRANCH  11  15
ATOM     15  C   UNL A   1      32.575  20.003  24.625  1.00  0.00    -0.002 A 
ATOM     16  C   UNL A   1      33.992  16.142  23.167  1.00  0.00     0.044 C 
ATOM     17  C   UNL A   1      33.299  17.339  23.746  1.00  0.00    -0.051 A 
ATOM     18  C   UNL A   1      33.314  17.701  25.099  1.00  0.00     0.004 A 
ATOM     19  C   UNL A   1      32.709  18.214  22.869  1.00  0.00     0.004 A 
ATOM     20  C   UNL A   1      32.945  19.009  25.538  1.00  0.00     0.010 A 
ATOM     21  C   UNL A   1      32.314  19.475  23.324  1.00  0.00     0.010 A 
ENDBRANCH  11  15
BRANCH  14  22
ATOM     22  C   UNL A   1      35.813  24.753  25.682  1.00  0.00     0.045 C 
BRANCH  22  23
ATOM     23  C   UNL A   1      36.887  23.628  25.997  1.00  0.00     0.106 C 
ATOM     24  C   UNL A   1      38.344  24.019  26.078  1.00  0.00    -0.003 C 
ATOM     25  C   UNL A   1      36.915  22.339  25.156  1.00  0.00     0.253 C 
ATOM     26  C   UNL A   1      39.198  23.141  26.605  1.00  0.00    -0.003 A 
ATOM     27  N   UNL A   1      37.864  21.372  25.512  1.00  0.00    -0.212 NA
ATOM     28  O   UNL A   1      36.094  22.157  24.261  1.00  0.00    -0.272 OA
ATOM     29  C   UNL A   1      40.307  23.476  27.462  1.00  0.00     0.010 A 
ATOM     30  C   UNL A   1      38.916  21.737  26.189  1.00  0.00     0.077 A 
ATOM     31  C   UNL A   1      41.100  22.508  27.936  1.00  0.00     0.001 A 
ATOM     32  C   UNL A   1      40.058  20.799  26.518  1.00  0.00    -0.025 A 
ATOM     33  C   UNL A   1      41.023  21.180  27.379  1.00  0.00     0.005 A 
ATOM     34  C   UNL A   1      40.186  19.554  25.706  1.00  0.00     0.047 C 
ENDBRANCH  22  23
ENDBRANCH  14  22
ENDBRANCH   8  10
ENDBRANCH   7   8
ENDBRANCH   6   7
ENDBRANCH   3   6
ENDBRANCH   1   2
BRANCH   1  35
ATOM     35  C   UNL A   1      33.721  30.833  27.022  1.00  0.00     0.023 C 
BRANCH  35  36
ATOM     36  C   UNL A   1      33.864  32.518  27.931  1.00  0.00     0.023 C 
BRANCH  36  37
ATOM     37  C   UNL A   1      35.433  33.408  28.079  1.00  0.00     0.116 C 
BRANCH  37  38
ATOM     38  N   UNL A   1      36.587  32.776  28.835  1.00  0.00    -0.352 N 
ATOM     39  C   UNL A   1      36.816  31.636  29.606  1.00  0.00     0.251 C 
ATOM     40  H   UNL A   1      37.402  33.323  28.759  1.00  0.00     0.163 HD
ATOM     41  O   UNL A   1      37.574  31.773  30.575  1.00  0.00    -0.269 OA
BRANCH  39  42
ATOM     42  C   UNL A   1      36.526  30.240  29.059  1.00  0.00     0.039 A 
ATOM     43  C   UNL A   1      36.580  29.320  30.135  1.00  0.00     0.014 A 
ATOM     44  C   UNL A   1      37.481  30.061  28.079  1.00  0.00     0.014 A 
ATOM     45  C   UNL A   1      37.836  28.981  30.633  1.00  0.00     0.010 A 
ATOM     46  C   UNL A   1      38.748  29.952  28.601  1.00  0.00     0.010 A 
ATOM     47  C   UNL A   1      38.919  29.459  29.915  1.00  0.00    -0.014 A 
BRANCH  47  48
ATOM     48  C   UNL A   1      40.301  29.373  30.321  1.00  0.00     0.031 A 
ATOM     49  C   UNL A   1      40.976  28.135  29.891  1.00  0.00     0.074 A 
ATOM     50  C   UNL A   1      40.951  30.425  30.862  1.00  0.00     0.049 A 
ATOM     51  N   UNL A   1      42.084  27.701  30.371  1.00  0.00    -0.248 NA
ATOM     52  C   UNL A   1      40.369  27.201  28.936  1.00  0.00     0.031 C 
ATOM     53  C   UNL A   1      42.392  30.658  30.846  1.00  0.00     0.029 A 
ATOM     54  N   UNL A   1      40.448  31.464  31.650  1.00  0.00    -0.354 N 
ATOM     55  C   UNL A   1      42.498  26.689  29.534  1.00  0.00     0.074 A 
ATOM     56  C   UNL A   1      41.325  26.285  28.821  1.00  0.00     0.031 C 
ATOM     57  C   UNL A   1      42.699  31.615  31.736  1.00  0.00     0.029 A 
ATOM     58  C   UNL A   1      41.495  31.913  32.488  1.00  0.00     0.049 A 
ATOM     59  H   UNL A   1      39.530  31.820  31.627  1.00  0.00     0.167 HD
ATOM     60  C   UNL A   1      43.835  26.482  29.405  1.00  0.00     0.037 A 
ATOM     61  C   UNL A   1      41.402  31.781  33.848  1.00  0.00     0.037 A 
ATOM     62  C   UNL A   1      44.547  27.241  30.442  1.00  0.00     0.049 A 
ATOM     63  C   UNL A   1      42.338  30.748  34.441  1.00  0.00     0.074 A 
ATOM     64  C   UNL A   1      45.288  28.411  30.426  1.00  0.00     0.029 A 
ATOM     65  N   UNL A   1      44.222  27.011  31.779  1.00  0.00    -0.354 N 
ATOM     66  N   UNL A   1      43.055  29.925  33.725  1.00  0.00    -0.248 NA
ATOM     67  C   UNL A   1      42.523  30.534  35.873  1.00  0.00     0.031 C 
ATOM     68  C   UNL A   1      45.346  28.915  31.757  1.00  0.00     0.029 A 
ATOM     69  C   UNL A   1      44.671  28.037  32.589  1.00  0.00     0.049 A 
ATOM     70  H   UNL A   1      43.736  26.219  32.104  1.00  0.00     0.167 HD
ATOM     71  C   UNL A   1      43.714  29.044  34.541  1.00  0.00     0.074 A 
ATOM     72  C   UNL A   1      43.393  29.507  35.879  1.00  0.00     0.031 C 
ATOM     73  C   UNL A   1      44.424  27.991  34.031  1.00  0.00     0.037 A 
BRANCH  60  74
ATOM     74  C   UNL A   1      44.503  25.848  28.193  1.00  0.00     0.064 A 
ATOM     75  C   UNL A   1      44.811  26.650  27.074  1.00  0.00     0.173 A 
ATOM     76  C   UNL A   1      44.782  24.473  28.002  1.00  0.00     0.173 A 
ATOM     77  F   UNL A   1      44.637  27.978  27.102  1.00  0.00    -0.203 F 
ATOM     78  C   UNL A   1      45.300  26.122  25.873  1.00  0.00     0.198 A 
ATOM     79  C   UNL A   1      45.278  23.948  26.806  1.00  0.00     0.198 A 
ATOM     80  F   UNL A   1      44.591  23.550  28.942  1.00  0.00    -0.203 F 
ATOM     81  F   UNL A   1      45.537  26.940  24.838  1.00  0.00    -0.200 F 
ATOM     82  C   UNL A   1      45.528  24.770  25.736  1.00  0.00     0.200 A 
ATOM     83  F   UNL A   1      45.496  22.627  26.706  1.00  0.00    -0.200 F 
ATOM     84  F   UNL A   1      45.989  24.262  24.585  1.00  0.00    -0.200 F 
ENDBRANCH  60  74
BRANCH  61  85
ATOM     85  C   UNL A   1      40.040  32.129  34.340  1.00  0.00     0.064 A 
ATOM     86  C   UNL A   1      39.279  31.058  34.845  1.00  0.00     0.173 A 
ATOM     87  C   UNL A   1      39.782  33.410  34.843  1.00  0.00     0.173 A 
ATOM     88  F   UNL A   1      39.453  29.823  34.347  1.00  0.00    -0.203 F 
ATOM     89  C   UNL A   1      38.467  31.224  35.964  1.00  0.00     0.198 A 
ATOM     90  C   UNL A   1      38.962  33.574  35.963  1.00  0.00     0.198 A 
ATOM     91  F   UNL A   1      40.443  34.472  34.361  1.00  0.00    -0.203 F 
ATOM     92  F   UNL A   1      37.880  30.158  36.523  1.00  0.00    -0.200 F 
ATOM     93  C   UNL A   1      38.351  32.473  36.552  1.00  0.00     0.200 A 
ATOM     94  F   UNL A   1      38.839  34.784  36.527  1.00  0.00    -0.200 F 
ATOM     95  F   UNL A   1      37.669  32.612  37.699  1.00  0.00    -0.200 F 
ENDBRANCH  61  85
BRANCH  73  96
ATOM     96  C   UNL A   1      44.990  26.817  34.812  1.00  0.00     0.064 A 
ATOM     97  C   UNL A   1      44.296  25.630  35.092  1.00  0.00     0.173 A 
ATOM     98  C   UNL A   1      46.359  26.812  35.188  1.00  0.00     0.173 A 
ATOM     99  F   UNL A   1      43.039  25.433  34.676  1.00  0.00    -0.203 F 
ATOM    100  C   UNL A   1      44.898  24.557  35.760  1.00  0.00     0.198 A 
ATOM    101  C   UNL A   1      46.978  25.709  35.772  1.00  0.00     0.198 A 
ATOM    102  F   UNL A   1      47.155  27.870  34.977  1.00  0.00    -0.203 F 
ATOM    103  F   UNL A   1      44.170  23.472  36.059  1.00  0.00    -0.200 F 
ATOM    104  C   UNL A   1      46.241  24.589  36.084  1.00  0.00     0.200 A 
ATOM    105  F   UNL A   1      48.297  25.735  36.012  1.00  0.00    -0.200 F 
ATOM    106  F   UNL A   1      46.825  23.537  36.670  1.00  0.00    -0.200 F 
ENDBRANCH  73  96
ENDBRANCH  47  48
ENDBRANCH  39  42
ENDBRANCH  37  38
ENDBRANCH  36  37
ENDBRANCH  35  36
ENDBRANCH   1  35
TORSDOF 17
ENDMDL
MODEL 3
REMARK VINA RESULT:     -16.2      3.465      9.580
REMARK SMILES Cc1ccc(C2=NN(C(=O)CCC(=O)NCCCCNC(=O)c3ccc(-c4c5nc(c(-c6c(F)c(F)c(F)c(F)c6F)c6ccc([nH]6)c(-c6c(F)c(F)c(F)c(F)c6F)c6nc(c(-c7c(F)c(F)c(F)c(F)c7F)c7ccc4[nH]7)C=C6)C=C5)cc3)[C@H](C[C@@H]3C=c4cccc(C)c4=NC3=O)C2)cc1
REMARK SMILES IDX 16 1 15 2 13 3 14 4 12 6 11 7 9 8 10 9 8 10 6 11 7 12 100 13
REMARK SMILES IDX 86 14 5 15 1 16 2 17 3 18 102 19 4 20 101 21 87 22 88 23
REMARK SMILES IDX 89 24 98 25 90 26 97 27 99 28 91 29 96 30 92 31 94 32 93 33
REMARK SMILES IDX 95 34 17 35 18 36 19 37 20 38 21 39 22 41 23 42 24 43 85 44
REMARK SMILES IDX 25 45 84 46 26 47 27 48 28 49 78 50 29 51 83 52 77 53 79 54
REMARK SMILES IDX 30 55 82 56 76 57 75 58 31 60 63 61 43 62 62 63 44 64 47 65
REMARK SMILES IDX 61 66 80 67 45 68 46 69 60 71 81 72 48 73 32 74 33 75 41 76
REMARK SMILES IDX 34 77 35 78 39 79 42 80 36 81 37 82 40 83 38 84 64 85 65 86
REMARK SMILES IDX 73 87 66 88 67 89 71 90 74 91 68 92 69 93 72 94 70 95 49 96
REMARK SMILES IDX 50 97 58 98 51 99 52 100 56 101 59 102 53 103 54 104 57 105
REMARK SMILES IDX 55 106
REMARK H PARENT 15 5 20 40 79 59 47 70
REMARK Flexibility Score: inf
ROOT
ATOM      1  C   UNL A   1      37.732  21.177  25.230  1.00  0.00     0.116 C 
ENDROOT
BRANCH   1   2
ATOM      2  N   UNL A   1      36.428  21.492  26.121  1.00  0.00    -0.356 N 
ATOM      3  C   UNL A   1      35.717  22.596  26.468  1.00  0.00     0.220 C 
ATOM      4  O   UNL A   1      34.797  22.409  27.271  1.00  0.00    -0.275 OA
ATOM      5  H   UNL A   1      36.050  20.673  26.518  1.00  0.00     0.163 HD
BRANCH   3   6
ATOM      6  C   UNL A   1      35.992  23.987  25.939  1.00  0.00     0.110 C 
BRANCH   6   7
ATOM      7  C   UNL A   1      35.019  24.627  24.964  1.00  0.00     0.112 C 
BRANCH   7   8
ATOM      8  C   UNL A   1      34.689  23.755  23.772  1.00  0.00     0.243 C 
ATOM      9  O   UNL A   1      35.239  23.924  22.688  1.00  0.00    -0.273 OA
BRANCH   8  10
ATOM     10  N   UNL A   1      33.608  22.862  23.993  1.00  0.00    -0.230 N 
ATOM     11  C   UNL A   1      33.176  20.089  23.533  1.00  0.00     0.070 C 
ATOM     12  N   UNL A   1      34.132  21.114  24.210  1.00  0.00    -0.174 NA
ATOM     13  C   UNL A   1      31.667  21.128  22.456  1.00  0.00     0.086 C 
ATOM     14  C   UNL A   1      31.954  23.043  23.120  1.00  0.00     0.118 C 
BRANCH  11  15
ATOM     15  C   UNL A   1      33.288  18.583  24.385  1.00  0.00    -0.002 A 
ATOM     16  C   UNL A   1      32.520  14.431  25.486  1.00  0.00     0.044 C 
ATOM     17  C   UNL A   1      33.006  15.825  25.228  1.00  0.00    -0.051 A 
ATOM     18  C   UNL A   1      33.870  16.197  24.190  1.00  0.00     0.004 A 
ATOM     19  C   UNL A   1      32.471  16.833  25.989  1.00  0.00     0.004 A 
ATOM     20  C   UNL A   1      34.022  17.557  23.780  1.00  0.00     0.010 A 
ATOM     21  C   UNL A   1      32.663  18.161  25.598  1.00  0.00     0.010 A 
ENDBRANCH  11  15
BRANCH  14  22
ATOM     22  C   UNL A   1      30.932  23.929  24.179  1.00  0.00     0.045 C 
BRANCH  22  23
ATOM     23  C   UNL A   1      31.256  25.468  24.387  1.00  0.00     0.106 C 
ATOM     24  C   UNL A   1      31.874  25.909  25.693  1.00  0.00    -0.003 C 
ATOM     25  C   UNL A   1      30.158  26.521  24.146  1.00  0.00     0.253 C 
ATOM     26  C   UNL A   1      32.389  27.138  25.758  1.00  0.00    -0.003 A 
ATOM     27  N   UNL A   1      30.522  27.863  24.311  1.00  0.00    -0.212 NA
ATOM     28  O   UNL A   1      29.041  26.184  23.763  1.00  0.00    -0.272 OA
ATOM     29  C   UNL A   1      33.599  27.494  26.454  1.00  0.00     0.010 A 
ATOM     30  C   UNL A   1      31.558  28.153  25.048  1.00  0.00     0.077 A 
ATOM     31  C   UNL A   1      34.023  28.763  26.449  1.00  0.00     0.001 A 
ATOM     32  C   UNL A   1      31.963  29.570  25.391  1.00  0.00    -0.025 A 
ATOM     33  C   UNL A   1      33.144  29.812  25.995  1.00  0.00     0.005 A 
ATOM     34  C   UNL A   1      30.933  30.640  25.238  1.00  0.00     0.047 C 
ENDBRANCH  22  23
ENDBRANCH  14  22
ENDBRANCH   8  10
ENDBRANCH   7   8
ENDBRANCH   6   7
ENDBRANCH   3   6
ENDBRANCH   1   2
BRANCH   1  35
ATOM     35  C   UNL A   1      39.774  20.634  25.853  1.00  0.00     0.023 C 
BRANCH  35  36
ATOM     36  C   UNL A   1      40.548  21.601  27.320  1.00  0.00     0.023 C 
BRANCH  36  37
ATOM     37  C   UNL A   1      40.877  23.378  27.240  1.00  0.00     0.116 C 
BRANCH  37  38
ATOM     38  N   UNL A   1      41.516  23.970  25.998  1.00  0.00    -0.352 N 
ATOM     39  C   UNL A   1      42.681  24.662  25.665  1.00  0.00     0.251 C 
ATOM     40  H   UNL A   1      40.952  23.824  25.205  1.00  0.00     0.163 HD
ATOM     41  O   UNL A   1      42.568  25.542  24.803  1.00  0.00    -0.269 OA
BRANCH  39  42
ATOM     42  C   UNL A   1      44.060  24.095  25.997  1.00  0.00     0.039 A 
ATOM     43  C   UNL A   1      44.076  23.736  27.368  1.00  0.00     0.014 A 
ATOM     44  C   UNL A   1      44.930  25.103  25.638  1.00  0.00     0.014 A 
ATOM     45  C   UNL A   1      44.156  24.766  28.303  1.00  0.00     0.010 A 
ATOM     46  C   UNL A   1      44.822  26.202  26.458  1.00  0.00     0.010 A 
ATOM     47  C   UNL A   1      44.374  26.033  27.790  1.00  0.00    -0.014 A 
BRANCH  47  48
ATOM     48  C   UNL A   1      44.335  27.264  28.541  1.00  0.00     0.031 A 
ATOM     49  C   UNL A   1      43.022  27.934  28.525  1.00  0.00     0.074 A 
ATOM     50  C   UNL A   1      45.353  27.641  29.344  1.00  0.00     0.049 A 
ATOM     51  N   UNL A   1      42.820  29.157  28.859  1.00  0.00    -0.248 NA
ATOM     52  C   UNL A   1      41.815  27.285  28.001  1.00  0.00     0.031 C 
ATOM     53  C   UNL A   1      45.265  28.529  30.499  1.00  0.00     0.029 A 
ATOM     54  N   UNL A   1      46.721  27.387  29.214  1.00  0.00    -0.354 N 
ATOM     55  C   UNL A   1      41.455  29.309  28.962  1.00  0.00     0.074 A 
ATOM     56  C   UNL A   1      40.897  28.219  28.222  1.00  0.00     0.031 C 
ATOM     57  C   UNL A   1      46.498  28.924  30.852  1.00  0.00     0.029 A 
ATOM     58  C   UNL A   1      47.416  28.452  29.833  1.00  0.00     0.049 A 
ATOM     59  H   UNL A   1      47.128  26.608  28.770  1.00  0.00     0.167 HD
ATOM     60  C   UNL A   1      40.987  30.224  29.851  1.00  0.00     0.037 A 
ATOM     61  C   UNL A   1      48.217  29.281  29.094  1.00  0.00     0.037 A 
ATOM     62  C   UNL A   1      42.099  31.064  30.316  1.00  0.00     0.049 A 
ATOM     63  C   UNL A   1      47.675  30.685  28.926  1.00  0.00     0.074 A 
ATOM     64  C   UNL A   1      42.827  31.112  31.494  1.00  0.00     0.029 A 
ATOM     65  N   UNL A   1      42.852  31.758  29.370  1.00  0.00    -0.354 N 
ATOM     66  N   UNL A   1      46.477  31.049  29.294  1.00  0.00    -0.248 NA
ATOM     67  C   UNL A   1      48.414  31.782  28.308  1.00  0.00     0.031 C 
ATOM     68  C   UNL A   1      44.054  31.785  31.226  1.00  0.00     0.029 A 
ATOM     69  C   UNL A   1      44.061  32.174  29.897  1.00  0.00     0.049 A 
ATOM     70  H   UNL A   1      42.562  31.930  28.446  1.00  0.00     0.167 HD
ATOM     71  C   UNL A   1      46.240  32.343  28.914  1.00  0.00     0.074 A 
ATOM     72  C   UNL A   1      47.507  32.775  28.353  1.00  0.00     0.031 C 
ATOM     73  C   UNL A   1      45.006  32.916  29.061  1.00  0.00     0.037 A 
BRANCH  60  74
ATOM     74  C   UNL A   1      39.615  30.174  30.507  1.00  0.00     0.064 A 
ATOM     75  C   UNL A   1      38.744  31.276  30.375  1.00  0.00     0.173 A 
ATOM     76  C   UNL A   1      39.115  29.152  31.349  1.00  0.00     0.173 A 
ATOM     77  F   UNL A   1      39.052  32.315  29.587  1.00  0.00    -0.203 F 
ATOM     78  C   UNL A   1      37.523  31.366  31.056  1.00  0.00     0.198 A 
ATOM     79  C   UNL A   1      37.893  29.237  32.023  1.00  0.00     0.198 A 
ATOM     80  F   UNL A   1      39.767  28.015  31.586  1.00  0.00    -0.203 F 
ATOM     81  F   UNL A   1      36.763  32.459  30.912  1.00  0.00    -0.200 F 
ATOM     82  C   UNL A   1      37.100  30.349  31.885  1.00  0.00     0.200 A 
ATOM     83  F   UNL A   1      37.507  28.227  32.817  1.00  0.00    -0.200 F 
ATOM     84  F   UNL A   1      35.937  30.435  32.543  1.00  0.00    -0.200 F 
ENDBRANCH  60  74
BRANCH  61  85
ATOM     85  C   UNL A   1      49.030  28.520  28.106  1.00  0.00     0.064 A 
ATOM     86  C   UNL A   1      50.139  27.828  28.629  1.00  0.00     0.173 A 
ATOM     87  C   UNL A   1      48.431  28.014  26.945  1.00  0.00     0.173 A 
ATOM     88  F   UNL A   1      50.779  28.311  29.706  1.00  0.00    -0.203 F 
ATOM     89  C   UNL A   1      50.485  26.567  28.151  1.00  0.00     0.198 A 
ATOM     90  C   UNL A   1      48.784  26.750  26.466  1.00  0.00     0.198 A 
ATOM     91  F   UNL A   1      47.403  28.662  26.378  1.00  0.00    -0.203 F 
ATOM     92  F   UNL A   1      51.439  25.860  28.770  1.00  0.00    -0.200 F 
ATOM     93  C   UNL A   1      49.772  26.008  27.102  1.00  0.00     0.200 A 
ATOM     94  F   UNL A   1      48.103  26.212  25.443  1.00  0.00    -0.200 F 
ATOM     95  F   UNL A   1      50.021  24.746  26.720  1.00  0.00    -0.200 F 
ENDBRANCH  61  85
BRANCH  73  96
ATOM     96  C   UNL A   1      44.545  34.238  28.470  1.00  0.00     0.064 A 
ATOM     97  C   UNL A   1      43.924  34.385  27.220  1.00  0.00     0.173 A 
ATOM     98  C   UNL A   1      44.598  35.421  29.254  1.00  0.00     0.173 A 
ATOM     99  F   UNL A   1      43.679  33.335  26.426  1.00  0.00    -0.203 F 
ATOM    100  C   UNL A   1      43.463  35.624  26.761  1.00  0.00     0.198 A 
ATOM    101  C   UNL A   1      44.057  36.633  28.830  1.00  0.00     0.198 A 
ATOM    102  F   UNL A   1      45.152  35.436  30.475  1.00  0.00    -0.203 F 
ATOM    103  F   UNL A   1      42.936  35.719  25.532  1.00  0.00    -0.200 F 
ATOM    104  C   UNL A   1      43.512  36.742  27.570  1.00  0.00     0.200 A 
ATOM    105  F   UNL A   1      44.052  37.686  29.660  1.00  0.00    -0.200 F 
ATOM    106  F   UNL A   1      43.017  37.912  27.148  1.00  0.00    -0.200 F 
ENDBRANCH  73  96
ENDBRANCH  47  48
ENDBRANCH  39  42
ENDBRANCH  37  38
ENDBRANCH  36  37
ENDBRANCH  35  36
ENDBRANCH   1  35
TORSDOF 17
ENDMDL
