MODEL 1
REMARK VINA RESULT:     -12.5      0.000      0.000
REMARK SMILES C[C@H](SC1CCOCC1)c1ccc(C(=O)NCCCCNC(=O)c2ccc(-c3c4nc(c(-c5c(F)c(F)c(F)c(F)c5F)c5ccc([nH]5)c(-c5c(F)c(F)c(F)c(F)c5F)c5nc(c(-c6c(F)c(F)c(F)c(F)c6F)c6ccc3[nH]6)C=C5)C=C4)cc2)o1
REMARK SMILES IDX 18 1 17 2 16 3 14 4 15 5 13 7 10 8 11 9 87 10 12 11 2 12
REMARK SMILES IDX 1 13 3 14 4 15 5 16 9 17 6 18 8 19 7 20 19 21 20 22 21 23
REMARK SMILES IDX 22 24 23 26 24 27 25 28 86 29 26 30 85 31 27 32 28 33 29 34
REMARK SMILES IDX 79 35 30 36 84 37 78 38 80 39 31 40 83 41 77 42 76 43 32 45
REMARK SMILES IDX 64 46 44 47 63 48 45 49 48 50 62 51 81 52 46 53 47 54 61 56
REMARK SMILES IDX 82 57 49 58 33 59 34 60 42 61 35 62 36 63 40 64 43 65 37 66
REMARK SMILES IDX 38 67 41 68 39 69 65 70 66 71 74 72 67 73 68 74 72 75 75 76
REMARK SMILES IDX 69 77 70 78 73 79 71 80 50 81 51 82 59 83 52 84 53 85 57 86
REMARK SMILES IDX 60 87 54 88 55 89 58 90 56 91
REMARK H PARENT 16 6 21 25 80 44 48 55
REMARK Flexibility Score: inf
ROOT
ATOM      1  C   UNL A   1      31.985  30.497  26.305  1.00  0.00     0.023 C 
ENDROOT
BRANCH   1   2
ATOM      2  C   UNL A   1      31.895  29.432  27.397  1.00  0.00     0.116 C 
BRANCH   2   3
ATOM      3  N   UNL A   1      32.822  28.348  27.158  1.00  0.00    -0.349 N 
ATOM      4  C   UNL A   1      32.735  27.259  26.317  1.00  0.00     0.286 C 
ATOM      5  O   UNL A   1      33.749  26.562  26.250  1.00  0.00    -0.266 OA
ATOM      6  H   UNL A   1      33.653  28.394  27.685  1.00  0.00     0.163 HD
BRANCH   4   7
ATOM      7  C   UNL A   1      31.527  26.979  25.557  1.00  0.00     0.191 A 
ATOM      8  C   UNL A   1      30.159  27.340  23.838  1.00  0.00     0.117 A 
ATOM      9  C   UNL A   1      29.602  26.320  24.579  1.00  0.00     0.047 A 
ATOM     10  O   UNL A   1      31.312  27.753  24.442  1.00  0.00    -0.455 OA
ATOM     11  C   UNL A   1      30.484  26.075  25.659  1.00  0.00     0.056 A 
BRANCH   8  12
ATOM     12  C   UNL A   1      29.721  28.092  22.620  1.00  0.00     0.110 C 
ATOM     13  C   UNL A   1      30.740  29.155  22.201  1.00  0.00     0.028 C 
BRANCH  12  14
ATOM     14  S   UNL A   1      28.131  28.973  22.887  1.00  0.00    -0.147 SA
BRANCH  14  15
ATOM     15  C   UNL A   1      28.536  30.675  22.332  1.00  0.00     0.052 C 
ATOM     16  C   UNL A   1      28.376  31.706  23.449  1.00  0.00     0.043 C 
ATOM     17  C   UNL A   1      27.791  31.102  21.063  1.00  0.00     0.043 C 
ATOM     18  C   UNL A   1      28.738  33.090  22.924  1.00  0.00     0.161 C 
ATOM     19  C   UNL A   1      28.173  32.529  20.689  1.00  0.00     0.161 C 
ATOM     20  O   UNL A   1      27.942  33.416  21.783  1.00  0.00    -0.381 OA
ENDBRANCH  14  15
ENDBRANCH  12  14
ENDBRANCH   8  12
ENDBRANCH   4   7
ENDBRANCH   2   3
ENDBRANCH   1   2
BRANCH   1  21
ATOM     21  C   UNL A   1      31.611  31.909  26.768  1.00  0.00     0.023 C 
BRANCH  21  22
ATOM     22  C   UNL A   1      32.769  32.742  27.313  1.00  0.00     0.116 C 
BRANCH  22  23
ATOM     23  N   UNL A   1      32.398  34.107  27.651  1.00  0.00    -0.352 N 
ATOM     24  C   UNL A   1      32.968  34.945  28.583  1.00  0.00     0.251 C 
ATOM     25  H   UNL A   1      31.639  34.481  27.148  1.00  0.00     0.163 HD
ATOM     26  O   UNL A   1      32.483  36.039  28.815  1.00  0.00    -0.269 OA
BRANCH  24  27
ATOM     27  C   UNL A   1      34.155  34.481  29.333  1.00  0.00     0.039 A 
ATOM     28  C   UNL A   1      33.965  33.879  30.580  1.00  0.00     0.014 A 
ATOM     29  C   UNL A   1      35.437  34.606  28.794  1.00  0.00     0.014 A 
ATOM     30  C   UNL A   1      35.059  33.333  31.254  1.00  0.00     0.010 A 
ATOM     31  C   UNL A   1      36.515  34.005  29.436  1.00  0.00     0.010 A 
ATOM     32  C   UNL A   1      36.335  33.357  30.669  1.00  0.00    -0.014 A 
BRANCH  32  33
ATOM     33  C   UNL A   1      37.494  32.700  31.323  1.00  0.00     0.031 A 
ATOM     34  C   UNL A   1      38.195  31.558  30.644  1.00  0.00     0.074 A 
ATOM     35  C   UNL A   1      37.865  33.084  32.560  1.00  0.00     0.049 A 
ATOM     36  N   UNL A   1      39.170  30.806  31.085  1.00  0.00    -0.248 NA
ATOM     37  C   UNL A   1      37.718  31.196  29.300  1.00  0.00     0.031 C 
ATOM     38  C   UNL A   1      37.229  34.145  33.343  1.00  0.00     0.029 A 
ATOM     39  N   UNL A   1      38.860  32.616  33.382  1.00  0.00    -0.354 N 
ATOM     40  C   UNL A   1      39.410  29.874  30.084  1.00  0.00     0.074 A 
ATOM     41  C   UNL A   1      38.448  30.123  29.032  1.00  0.00     0.031 C 
ATOM     42  C   UNL A   1      37.861  34.258  34.524  1.00  0.00     0.029 A 
ATOM     43  C   UNL A   1      38.920  33.258  34.595  1.00  0.00     0.049 A 
ATOM     44  H   UNL A   1      39.472  31.889  33.126  1.00  0.00     0.167 HD
ATOM     45  C   UNL A   1      40.363  28.912  30.037  1.00  0.00     0.037 A 
ATOM     46  C   UNL A   1      39.735  33.055  35.648  1.00  0.00     0.037 A 
ATOM     47  C   UNL A   1      41.340  28.689  31.070  1.00  0.00     0.049 A 
ATOM     48  C   UNL A   1      40.790  31.985  35.565  1.00  0.00     0.074 A 
ATOM     49  C   UNL A   1      42.386  27.784  31.087  1.00  0.00     0.029 A 
ATOM     50  N   UNL A   1      41.389  29.380  32.272  1.00  0.00    -0.354 N 
ATOM     51  N   UNL A   1      41.055  31.158  34.582  1.00  0.00    -0.248 NA
ATOM     52  C   UNL A   1      41.664  31.823  36.735  1.00  0.00     0.031 C 
ATOM     53  C   UNL A   1      43.044  27.899  32.315  1.00  0.00     0.029 A 
ATOM     54  C   UNL A   1      42.437  28.908  33.045  1.00  0.00     0.049 A 
ATOM     55  H   UNL A   1      40.770  30.099  32.536  1.00  0.00     0.167 HD
ATOM     56  C   UNL A   1      42.141  30.403  35.001  1.00  0.00     0.074 A 
ATOM     57  C   UNL A   1      42.496  30.878  36.322  1.00  0.00     0.031 C 
ATOM     58  C   UNL A   1      42.786  29.404  34.351  1.00  0.00     0.037 A 
BRANCH  45  59
ATOM     59  C   UNL A   1      40.404  28.031  28.822  1.00  0.00     0.064 A 
ATOM     60  C   UNL A   1      41.161  28.375  27.692  1.00  0.00     0.173 A 
ATOM     61  C   UNL A   1      39.723  26.805  28.808  1.00  0.00     0.173 A 
ATOM     62  F   UNL A   1      41.821  29.542  27.652  1.00  0.00    -0.203 F 
ATOM     63  C   UNL A   1      41.213  27.535  26.582  1.00  0.00     0.198 A 
ATOM     64  C   UNL A   1      39.800  25.955  27.709  1.00  0.00     0.198 A 
ATOM     65  F   UNL A   1      38.989  26.427  29.866  1.00  0.00    -0.203 F 
ATOM     66  F   UNL A   1      41.907  27.905  25.497  1.00  0.00    -0.200 F 
ATOM     67  C   UNL A   1      40.540  26.324  26.595  1.00  0.00     0.200 A 
ATOM     68  F   UNL A   1      39.161  24.778  27.727  1.00  0.00    -0.200 F 
ATOM     69  F   UNL A   1      40.601  25.511  25.531  1.00  0.00    -0.200 F 
ENDBRANCH  45  59
BRANCH  46  70
ATOM     70  C   UNL A   1      39.606  33.899  36.865  1.00  0.00     0.064 A 
ATOM     71  C   UNL A   1      38.824  33.481  37.951  1.00  0.00     0.173 A 
ATOM     72  C   UNL A   1      40.244  35.145  36.961  1.00  0.00     0.173 A 
ATOM     73  F   UNL A   1      38.178  32.307  37.897  1.00  0.00    -0.203 F 
ATOM     74  C   UNL A   1      38.662  34.288  39.074  1.00  0.00     0.198 A 
ATOM     75  C   UNL A   1      40.104  35.939  38.098  1.00  0.00     0.198 A 
ATOM     76  F   UNL A   1      41.008  35.589  35.952  1.00  0.00    -0.203 F 
ATOM     77  F   UNL A   1      37.866  33.887  40.076  1.00  0.00    -0.200 F 
ATOM     78  C   UNL A   1      39.305  35.514  39.149  1.00  0.00     0.200 A 
ATOM     79  F   UNL A   1      40.738  37.117  38.172  1.00  0.00    -0.200 F 
ATOM     80  F   UNL A   1      39.148  36.291  40.229  1.00  0.00    -0.200 F 
ENDBRANCH  46  70
BRANCH  58  81
ATOM     81  C   UNL A   1      43.969  28.787  35.037  1.00  0.00     0.064 A 
ATOM     82  C   UNL A   1      43.835  27.667  35.871  1.00  0.00     0.173 A 
ATOM     83  C   UNL A   1      45.258  29.298  34.824  1.00  0.00     0.173 A 
ATOM     84  F   UNL A   1      42.620  27.152  36.117  1.00  0.00    -0.203 F 
ATOM     85  C   UNL A   1      44.946  27.095  36.484  1.00  0.00     0.198 A 
ATOM     86  C   UNL A   1      46.370  28.706  35.416  1.00  0.00     0.198 A 
ATOM     87  F   UNL A   1      45.440  30.364  34.030  1.00  0.00    -0.203 F 
ATOM     88  F   UNL A   1      44.788  26.054  37.313  1.00  0.00    -0.200 F 
ATOM     89  C   UNL A   1      46.213  27.610  36.251  1.00  0.00     0.200 A 
ATOM     90  F   UNL A   1      47.594  29.196  35.178  1.00  0.00    -0.200 F 
ATOM     91  F   UNL A   1      47.282  27.053  36.835  1.00  0.00    -0.200 F 
ENDBRANCH  58  81
ENDBRANCH  32  33
ENDBRANCH  24  27
ENDBRANCH  22  23
ENDBRANCH  21  22
ENDBRANCH   1  21
TORSDOF 14
ENDMDL
MODEL 2
REMARK VINA RESULT:     -12.4      0.500      7.321
REMARK SMILES C[C@H](SC1CCOCC1)c1ccc(C(=O)NCCCCNC(=O)c2ccc(-c3c4nc(c(-c5c(F)c(F)c(F)c(F)c5F)c5ccc([nH]5)c(-c5c(F)c(F)c(F)c(F)c5F)c5nc(c(-c6c(F)c(F)c(F)c(F)c6F)c6ccc3[nH]6)C=C5)C=C4)cc2)o1
REMARK SMILES IDX 18 1 17 2 16 3 14 4 15 5 13 7 10 8 11 9 87 10 12 11 2 12
REMARK SMILES IDX 1 13 3 14 4 15 5 16 9 17 6 18 8 19 7 20 19 21 20 22 21 23
REMARK SMILES IDX 22 24 23 26 24 27 25 28 86 29 26 30 85 31 27 32 28 33 29 34
REMARK SMILES IDX 79 35 30 36 84 37 78 38 80 39 31 40 83 41 77 42 76 43 32 45
REMARK SMILES IDX 64 46 44 47 63 48 45 49 48 50 62 51 81 52 46 53 47 54 61 56
REMARK SMILES IDX 82 57 49 58 33 59 34 60 42 61 35 62 36 63 40 64 43 65 37 66
REMARK SMILES IDX 38 67 41 68 39 69 65 70 66 71 74 72 67 73 68 74 72 75 75 76
REMARK SMILES IDX 69 77 70 78 73 79 71 80 50 81 51 82 59 83 52 84 53 85 57 86
REMARK SMILES IDX 60 87 54 88 55 89 58 90 56 91
REMARK H PARENT 16 6 21 25 80 44 48 55
REMARK Flexibility Score: inf
ROOT
ATOM      1  C   UNL A   1      31.753  30.698  26.157  1.00  0.00     0.023 C 
ENDROOT
BRANCH   1   2
ATOM      2  C   UNL A   1      31.839  29.712  27.321  1.00  0.00     0.116 C 
BRANCH   2   3
ATOM      3  N   UNL A   1      32.855  28.709  27.094  1.00  0.00    -0.349 N 
ATOM      4  C   UNL A   1      32.859  27.603  26.272  1.00  0.00     0.286 C 
ATOM      5  O   UNL A   1      33.930  26.995  26.210  1.00  0.00    -0.266 OA
ATOM      6  H   UNL A   1      33.682  28.837  27.614  1.00  0.00     0.163 HD
BRANCH   4   7
ATOM      7  C   UNL A   1      31.675  27.205  25.526  1.00  0.00     0.191 A 
ATOM      8  C   UNL A   1      30.270  27.415  23.812  1.00  0.00     0.117 A 
ATOM      9  C   UNL A   1      29.810  26.363  24.573  1.00  0.00     0.047 A 
ATOM     10  O   UNL A   1      31.386  27.938  24.400  1.00  0.00    -0.455 OA
ATOM     11  C   UNL A   1      30.717  26.214  25.649  1.00  0.00     0.056 A 
BRANCH   8  12
ATOM     12  C   UNL A   1      29.760  28.107  22.586  1.00  0.00     0.110 C 
ATOM     13  C   UNL A   1      30.738  29.165  22.071  1.00  0.00     0.028 C 
BRANCH  12  14
ATOM     14  S   UNL A   1      28.170  28.974  22.893  1.00  0.00    -0.147 SA
BRANCH  14  15
ATOM     15  C   UNL A   1      28.563  30.692  22.380  1.00  0.00     0.052 C 
ATOM     16  C   UNL A   1      28.470  31.682  23.541  1.00  0.00     0.043 C 
ATOM     17  C   UNL A   1      27.760  31.171  21.167  1.00  0.00     0.043 C 
ATOM     18  C   UNL A   1      28.818  33.082  23.048  1.00  0.00     0.161 C 
ATOM     19  C   UNL A   1      28.137  32.608  20.826  1.00  0.00     0.161 C 
ATOM     20  O   UNL A   1      27.970  33.456  21.962  1.00  0.00    -0.381 OA
ENDBRANCH  14  15
ENDBRANCH  12  14
ENDBRANCH   8  12
ENDBRANCH   4   7
ENDBRANCH   2   3
ENDBRANCH   1   2
BRANCH   1  21
ATOM     21  C   UNL A   1      31.500  32.150  26.576  1.00  0.00     0.023 C 
BRANCH  21  22
ATOM     22  C   UNL A   1      32.671  32.839  27.270  1.00  0.00     0.116 C 
BRANCH  22  23
ATOM     23  N   UNL A   1      32.386  34.206  27.678  1.00  0.00    -0.352 N 
ATOM     24  C   UNL A   1      33.016  34.963  28.640  1.00  0.00     0.251 C 
ATOM     25  H   UNL A   1      31.644  34.648  27.203  1.00  0.00     0.163 HD
ATOM     26  O   UNL A   1      32.599  36.072  28.931  1.00  0.00    -0.269 OA
BRANCH  24  27
ATOM     27  C   UNL A   1      34.181  34.395  29.351  1.00  0.00     0.039 A 
ATOM     28  C   UNL A   1      33.958  33.649  30.511  1.00  0.00     0.014 A 
ATOM     29  C   UNL A   1      35.475  34.567  28.856  1.00  0.00     0.014 A 
ATOM     30  C   UNL A   1      35.031  33.010  31.134  1.00  0.00     0.010 A 
ATOM     31  C   UNL A   1      36.533  33.877  29.440  1.00  0.00     0.010 A 
ATOM     32  C   UNL A   1      36.320  33.087  30.581  1.00  0.00    -0.014 A 
BRANCH  32  33
ATOM     33  C   UNL A   1      37.456  32.339  31.173  1.00  0.00     0.031 A 
ATOM     34  C   UNL A   1      37.970  32.702  32.537  1.00  0.00     0.074 A 
ATOM     35  C   UNL A   1      38.071  31.382  30.450  1.00  0.00     0.049 A 
ATOM     36  N   UNL A   1      38.998  32.223  33.189  1.00  0.00    -0.248 NA
ATOM     37  C   UNL A   1      37.248  33.766  33.253  1.00  0.00     0.031 C 
ATOM     38  C   UNL A   1      37.698  30.975  29.094  1.00  0.00     0.029 A 
ATOM     39  N   UNL A   1      39.150  30.588  30.749  1.00  0.00    -0.354 N 
ATOM     40  C   UNL A   1      39.056  32.937  34.379  1.00  0.00     0.074 A 
ATOM     41  C   UNL A   1      37.990  33.914  34.340  1.00  0.00     0.031 C 
ATOM     42  C   UNL A   1      38.522  29.995  28.686  1.00  0.00     0.029 A 
ATOM     43  C   UNL A   1      39.501  29.730  29.735  1.00  0.00     0.049 A 
ATOM     44  H   UNL A   1      39.627  30.629  31.610  1.00  0.00     0.167 HD
ATOM     45  C   UNL A   1      39.908  32.774  35.420  1.00  0.00     0.037 A 
ATOM     46  C   UNL A   1      40.506  28.837  29.660  1.00  0.00     0.037 A 
ATOM     47  C   UNL A   1      40.946  31.779  35.469  1.00  0.00     0.049 A 
ATOM     48  C   UNL A   1      41.432  28.672  30.834  1.00  0.00     0.074 A 
ATOM     49  C   UNL A   1      41.817  31.491  36.504  1.00  0.00     0.029 A 
ATOM     50  N   UNL A   1      41.252  30.907  34.434  1.00  0.00    -0.354 N 
ATOM     51  N   UNL A   1      41.431  29.302  31.984  1.00  0.00    -0.248 NA
ATOM     52  C   UNL A   1      42.496  27.667  30.704  1.00  0.00     0.031 C 
ATOM     53  C   UNL A   1      42.678  30.473  36.082  1.00  0.00     0.029 A 
ATOM     54  C   UNL A   1      42.311  30.093  34.801  1.00  0.00     0.049 A 
ATOM     55  H   UNL A   1      40.786  30.872  33.567  1.00  0.00     0.167 HD
ATOM     56  C   UNL A   1      42.468  28.750  32.722  1.00  0.00     0.074 A 
ATOM     57  C   UNL A   1      43.070  27.724  31.897  1.00  0.00     0.031 C 
ATOM     58  C   UNL A   1      42.887  29.065  33.972  1.00  0.00     0.037 A 
BRANCH  45  59
ATOM     59  C   UNL A   1      39.748  33.688  36.599  1.00  0.00     0.064 A 
ATOM     60  C   UNL A   1      40.376  34.942  36.647  1.00  0.00     0.173 A 
ATOM     61  C   UNL A   1      38.916  33.329  37.670  1.00  0.00     0.173 A 
ATOM     62  F   UNL A   1      41.191  35.327  35.653  1.00  0.00    -0.203 F 
ATOM     63  C   UNL A   1      40.196  35.792  37.735  1.00  0.00     0.198 A 
ATOM     64  C   UNL A   1      38.716  34.194  38.742  1.00  0.00     0.198 A 
ATOM     65  F   UNL A   1      38.288  32.143  37.671  1.00  0.00    -0.203 F 
ATOM     66  F   UNL A   1      40.841  36.967  37.778  1.00  0.00    -0.200 F 
ATOM     67  C   UNL A   1      39.361  35.421  38.777  1.00  0.00     0.200 A 
ATOM     68  F   UNL A   1      37.898  33.840  39.743  1.00  0.00    -0.200 F 
ATOM     69  F   UNL A   1      39.180  36.246  39.818  1.00  0.00    -0.200 F 
ENDBRANCH  45  59
BRANCH  46  70
ATOM     70  C   UNL A   1      40.677  28.007  28.438  1.00  0.00     0.064 A 
ATOM     71  C   UNL A   1      40.083  26.741  28.339  1.00  0.00     0.173 A 
ATOM     72  C   UNL A   1      41.451  28.450  27.356  1.00  0.00     0.173 A 
ATOM     73  F   UNL A   1      39.351  26.265  29.357  1.00  0.00    -0.203 F 
ATOM     74  C   UNL A   1      40.278  25.939  27.217  1.00  0.00     0.198 A 
ATOM     75  C   UNL A   1      41.622  27.660  26.221  1.00  0.00     0.198 A 
ATOM     76  F   UNL A   1      42.037  29.656  27.397  1.00  0.00    -0.203 F 
ATOM     77  F   UNL A   1      39.742  24.712  27.172  1.00  0.00    -0.200 F 
ATOM     78  C   UNL A   1      41.044  26.401  26.157  1.00  0.00     0.200 A 
ATOM     79  F   UNL A   1      42.351  28.114  25.193  1.00  0.00    -0.200 F 
ATOM     80  F   UNL A   1      41.233  25.628  25.079  1.00  0.00    -0.200 F 
ENDBRANCH  46  70
BRANCH  58  81
ATOM     81  C   UNL A   1      44.021  28.265  34.542  1.00  0.00     0.064 A 
ATOM     82  C   UNL A   1      43.801  27.060  35.226  1.00  0.00     0.173 A 
ATOM     83  C   UNL A   1      45.346  28.689  34.365  1.00  0.00     0.173 A 
ATOM     84  F   UNL A   1      42.550  26.622  35.434  1.00  0.00    -0.203 F 
ATOM     85  C   UNL A   1      44.866  26.321  35.731  1.00  0.00     0.198 A 
ATOM     86  C   UNL A   1      46.411  27.932  34.845  1.00  0.00     0.198 A 
ATOM     87  F   UNL A   1      45.609  29.831  33.711  1.00  0.00    -0.203 F 
ATOM     88  F   UNL A   1      44.631  25.196  36.421  1.00  0.00    -0.200 F 
ATOM     89  C   UNL A   1      46.170  26.753  35.534  1.00  0.00     0.200 A 
ATOM     90  F   UNL A   1      47.670  28.344  34.642  1.00  0.00    -0.200 F 
ATOM     91  F   UNL A   1      47.195  26.035  36.014  1.00  0.00    -0.200 F 
ENDBRANCH  58  81
ENDBRANCH  32  33
ENDBRANCH  24  27
ENDBRANCH  22  23
ENDBRANCH  21  22
ENDBRANCH   1  21
TORSDOF 14
ENDMDL
MODEL 3
REMARK VINA RESULT:     -12.1      2.187      8.387
REMARK SMILES C[C@H](SC1CCOCC1)c1ccc(C(=O)NCCCCNC(=O)c2ccc(-c3c4nc(c(-c5c(F)c(F)c(F)c(F)c5F)c5ccc([nH]5)c(-c5c(F)c(F)c(F)c(F)c5F)c5nc(c(-c6c(F)c(F)c(F)c(F)c6F)c6ccc3[nH]6)C=C5)C=C4)cc2)o1
REMARK SMILES IDX 18 1 17 2 16 3 14 4 15 5 13 7 10 8 11 9 87 10 12 11 2 12
REMARK SMILES IDX 1 13 3 14 4 15 5 16 9 17 6 18 8 19 7 20 19 21 20 22 21 23
REMARK SMILES IDX 22 24 23 26 24 27 25 28 86 29 26 30 85 31 27 32 28 33 29 34
REMARK SMILES IDX 79 35 30 36 84 37 78 38 80 39 31 40 83 41 77 42 76 43 32 45
REMARK SMILES IDX 64 46 44 47 63 48 45 49 48 50 62 51 81 52 46 53 47 54 61 56
REMARK SMILES IDX 82 57 49 58 33 59 34 60 42 61 35 62 36 63 40 64 43 65 37 66
REMARK SMILES IDX 38 67 41 68 39 69 65 70 66 71 74 72 67 73 68 74 72 75 75 76
REMARK SMILES IDX 69 77 70 78 73 79 71 80 50 81 51 82 59 83 52 84 53 85 57 86
REMARK SMILES IDX 60 87 54 88 55 89 58 90 56 91
REMARK H PARENT 16 6 21 25 80 44 48 55
REMARK Flexibility Score: inf
ROOT
ATOM      1  C   UNL A   1      31.658  30.795  26.216  1.00  0.00     0.023 C 
ENDROOT
BRANCH   1   2
ATOM      2  C   UNL A   1      31.886  29.703  27.260  1.00  0.00     0.116 C 
BRANCH   2   3
ATOM      3  N   UNL A   1      33.290  29.551  27.573  1.00  0.00    -0.349 N 
ATOM      4  C   UNL A   1      34.265  28.782  26.973  1.00  0.00     0.286 C 
ATOM      5  O   UNL A   1      35.408  28.954  27.402  1.00  0.00    -0.266 OA
ATOM      6  H   UNL A   1      33.599  30.083  28.341  1.00  0.00     0.163 HD
BRANCH   4   7
ATOM      7  C   UNL A   1      33.949  27.852  25.901  1.00  0.00     0.191 A 
ATOM      8  C   UNL A   1      33.323  25.848  25.160  1.00  0.00     0.117 A 
ATOM      9  C   UNL A   1      33.501  26.642  24.049  1.00  0.00     0.047 A 
ATOM     10  O   UNL A   1      33.614  26.573  26.280  1.00  0.00    -0.455 OA
ATOM     11  C   UNL A   1      33.877  27.923  24.522  1.00  0.00     0.056 A 
BRANCH   8  12
ATOM     12  C   UNL A   1      32.976  24.405  25.356  1.00  0.00     0.110 C 
ATOM     13  C   UNL A   1      32.078  24.188  26.577  1.00  0.00     0.028 C 
BRANCH  12  14
ATOM     14  S   UNL A   1      34.467  23.364  25.616  1.00  0.00    -0.147 SA
BRANCH  14  15
ATOM     15  C   UNL A   1      33.907  21.728  25.000  1.00  0.00     0.052 C 
ATOM     16  C   UNL A   1      32.821  21.849  23.931  1.00  0.00     0.043 C 
ATOM     17  C   UNL A   1      33.494  20.761  26.114  1.00  0.00     0.043 C 
ATOM     18  C   UNL A   1      32.411  20.458  23.459  1.00  0.00     0.161 C 
ATOM     19  C   UNL A   1      33.027  19.441  25.512  1.00  0.00     0.161 C 
ATOM     20  O   UNL A   1      31.983  19.661  24.564  1.00  0.00    -0.381 OA
ENDBRANCH  14  15
ENDBRANCH  12  14
ENDBRANCH   8  12
ENDBRANCH   4   7
ENDBRANCH   2   3
ENDBRANCH   1   2
BRANCH   1  21
ATOM     21  C   UNL A   1      31.399  32.186  26.802  1.00  0.00     0.023 C 
BRANCH  21  22
ATOM     22  C   UNL A   1      32.641  32.929  27.289  1.00  0.00     0.116 C 
BRANCH  22  23
ATOM     23  N   UNL A   1      32.385  34.309  27.668  1.00  0.00    -0.352 N 
ATOM     24  C   UNL A   1      33.031  35.073  28.614  1.00  0.00     0.251 C 
ATOM     25  H   UNL A   1      31.654  34.757  27.184  1.00  0.00     0.163 HD
ATOM     26  O   UNL A   1      32.639  36.196  28.882  1.00  0.00    -0.269 OA
BRANCH  24  27
ATOM     27  C   UNL A   1      34.184  34.494  29.337  1.00  0.00     0.039 A 
ATOM     28  C   UNL A   1      33.946  33.777  30.513  1.00  0.00     0.014 A 
ATOM     29  C   UNL A   1      35.482  34.627  28.839  1.00  0.00     0.014 A 
ATOM     30  C   UNL A   1      35.004  33.128  31.150  1.00  0.00     0.010 A 
ATOM     31  C   UNL A   1      36.524  33.927  29.438  1.00  0.00     0.010 A 
ATOM     32  C   UNL A   1      36.294  33.166  30.595  1.00  0.00    -0.014 A 
BRANCH  32  33
ATOM     33  C   UNL A   1      37.415  32.406  31.203  1.00  0.00     0.031 A 
ATOM     34  C   UNL A   1      37.914  32.765  32.573  1.00  0.00     0.074 A 
ATOM     35  C   UNL A   1      38.029  31.442  30.489  1.00  0.00     0.049 A 
ATOM     36  N   UNL A   1      38.927  32.275  33.240  1.00  0.00    -0.248 NA
ATOM     37  C   UNL A   1      37.193  33.837  33.278  1.00  0.00     0.031 C 
ATOM     38  C   UNL A   1      37.669  31.038  29.128  1.00  0.00     0.029 A 
ATOM     39  N   UNL A   1      39.094  30.636  30.804  1.00  0.00    -0.354 N 
ATOM     40  C   UNL A   1      38.977  32.989  34.430  1.00  0.00     0.074 A 
ATOM     41  C   UNL A   1      37.922  33.978  34.376  1.00  0.00     0.031 C 
ATOM     42  C   UNL A   1      38.488  30.049  28.733  1.00  0.00     0.029 A 
ATOM     43  C   UNL A   1      39.449  29.773  29.795  1.00  0.00     0.049 A 
ATOM     44  H   UNL A   1      39.560  30.673  31.670  1.00  0.00     0.167 HD
ATOM     45  C   UNL A   1      39.813  32.818  35.482  1.00  0.00     0.037 A 
ATOM     46  C   UNL A   1      40.445  28.869  29.734  1.00  0.00     0.037 A 
ATOM     47  C   UNL A   1      40.839  31.811  35.546  1.00  0.00     0.049 A 
ATOM     48  C   UNL A   1      41.354  28.695  30.921  1.00  0.00     0.074 A 
ATOM     49  C   UNL A   1      41.693  31.515  36.594  1.00  0.00     0.029 A 
ATOM     50  N   UNL A   1      41.150  30.935  34.516  1.00  0.00    -0.354 N 
ATOM     51  N   UNL A   1      41.344  29.326  32.070  1.00  0.00    -0.248 NA
ATOM     52  C   UNL A   1      42.409  27.678  30.806  1.00  0.00     0.031 C 
ATOM     53  C   UNL A   1      42.548  30.487  36.184  1.00  0.00     0.029 A 
ATOM     54  C   UNL A   1      42.195  30.110  34.898  1.00  0.00     0.049 A 
ATOM     55  H   UNL A   1      40.695  30.904  33.643  1.00  0.00     0.167 HD
ATOM     56  C   UNL A   1      42.365  28.763  32.823  1.00  0.00     0.074 A 
ATOM     57  C   UNL A   1      42.966  27.730  32.006  1.00  0.00     0.031 C 
ATOM     58  C   UNL A   1      42.770  29.075  34.078  1.00  0.00     0.037 A 
BRANCH  45  59
ATOM     59  C   UNL A   1      39.647  33.735  36.659  1.00  0.00     0.064 A 
ATOM     60  C   UNL A   1      40.254  35.000  36.695  1.00  0.00     0.173 A 
ATOM     61  C   UNL A   1      38.831  33.367  37.739  1.00  0.00     0.173 A 
ATOM     62  F   UNL A   1      41.053  35.394  35.692  1.00  0.00    -0.203 F 
ATOM     63  C   UNL A   1      40.068  35.852  37.781  1.00  0.00     0.198 A 
ATOM     64  C   UNL A   1      38.625  34.233  38.808  1.00  0.00     0.198 A 
ATOM     65  F   UNL A   1      38.224  32.170  37.751  1.00  0.00    -0.203 F 
ATOM     66  F   UNL A   1      40.693  37.038  37.813  1.00  0.00    -0.200 F 
ATOM     67  C   UNL A   1      39.248  35.471  38.831  1.00  0.00     0.200 A 
ATOM     68  F   UNL A   1      37.821  33.870  39.818  1.00  0.00    -0.200 F 
ATOM     69  F   UNL A   1      39.062  36.298  39.870  1.00  0.00    -0.200 F 
ENDBRANCH  45  59
BRANCH  46  70
ATOM     70  C   UNL A   1      40.624  28.036  28.515  1.00  0.00     0.064 A 
ATOM     71  C   UNL A   1      41.406  28.488  27.443  1.00  0.00     0.173 A 
ATOM     72  C   UNL A   1      40.002  26.785  28.388  1.00  0.00     0.173 A 
ATOM     73  F   UNL A   1      42.003  29.687  27.510  1.00  0.00    -0.203 F 
ATOM     74  C   UNL A   1      41.539  27.733  26.280  1.00  0.00     0.198 A 
ATOM     75  C   UNL A   1      40.159  26.018  27.235  1.00  0.00     0.198 A 
ATOM     76  F   UNL A   1      39.247  26.304  29.386  1.00  0.00    -0.203 F 
ATOM     77  F   UNL A   1      42.250  28.213  25.250  1.00  0.00    -0.200 F 
ATOM     78  C   UNL A   1      40.919  26.497  26.179  1.00  0.00     0.200 A 
ATOM     79  F   UNL A   1      39.569  24.818  27.146  1.00  0.00    -0.200 F 
ATOM     80  F   UNL A   1      41.045  25.772  25.059  1.00  0.00    -0.200 F 
ENDBRANCH  46  70
BRANCH  58  81
ATOM     81  C   UNL A   1      43.887  28.263  34.664  1.00  0.00     0.064 A 
ATOM     82  C   UNL A   1      45.226  28.669  34.560  1.00  0.00     0.173 A 
ATOM     83  C   UNL A   1      43.610  27.085  35.373  1.00  0.00     0.173 A 
ATOM     84  F   UNL A   1      45.542  29.781  33.878  1.00  0.00    -0.203 F 
ATOM     85  C   UNL A   1      46.248  27.913  35.126  1.00  0.00     0.198 A 
ATOM     86  C   UNL A   1      44.632  26.346  35.963  1.00  0.00     0.198 A 
ATOM     87  F   UNL A   1      42.345  26.657  35.506  1.00  0.00    -0.203 F 
ATOM     88  F   UNL A   1      47.523  28.296  34.976  1.00  0.00    -0.200 F 
ATOM     89  C   UNL A   1      45.950  26.756  35.833  1.00  0.00     0.200 A 
ATOM     90  F   UNL A   1      44.341  25.237  36.656  1.00  0.00    -0.200 F 
ATOM     91  F   UNL A   1      46.935  26.034  36.384  1.00  0.00    -0.200 F 
ENDBRANCH  58  81
ENDBRANCH  32  33
ENDBRANCH  24  27
ENDBRANCH  22  23
ENDBRANCH  21  22
ENDBRANCH   1  21
TORSDOF 14
ENDMDL
