MODEL 1
REMARK VINA RESULT:     -11.6      0.000      0.000
REMARK SMILES CC(C)(C[NH+]1CCC(C(N)=S)CC1)C(=O)NCCCCNC(=O)c1ccc(-c2c3nc(c(-c4c(F)c(F)c(F)c(F)c4F)c4ccc([nH]4)c(-c4c(F)c(F)c(F)c(F)c4F)c4nc(c(-c5c(F)c(F)c(F)c(F)c5F)c5ccc2[nH]5)C=C4)C=C3)cc1
REMARK SMILES IDX 17 1 16 2 14 3 15 4 2 6 1 7 3 8 4 9 5 10 6 11 13 12 7 14
REMARK SMILES IDX 12 15 8 16 9 17 11 18 10 19 18 22 19 23 20 24 21 25 22 26
REMARK SMILES IDX 23 28 24 29 25 30 86 31 26 32 85 33 27 34 28 35 29 36 79 37
REMARK SMILES IDX 30 38 84 39 78 40 80 41 31 42 83 43 77 44 76 45 32 47 64 48
REMARK SMILES IDX 44 49 63 50 45 51 48 52 62 53 81 54 46 55 47 56 61 58 82 59
REMARK SMILES IDX 49 60 33 61 34 62 42 63 35 64 36 65 40 66 43 67 37 68 38 69
REMARK SMILES IDX 41 70 39 71 65 72 66 73 74 74 67 75 68 76 72 77 75 78 69 79
REMARK SMILES IDX 70 80 73 81 71 82 50 83 51 84 59 85 52 86 53 87 57 88 60 89
REMARK SMILES IDX 54 90 55 91 58 92 56 93
REMARK H PARENT 16 5 5 13 10 20 10 21 21 27 80 46 48 57
REMARK Flexibility Score: inf
ROOT
ATOM      1  C   UNL A   1      32.302  29.822  25.583  1.00  0.00     0.116 C 
ENDROOT
BRANCH   1   2
ATOM      2  N   UNL A   1      31.308  29.754  24.529  1.00  0.00    -0.355 N 
ATOM      3  C   UNL A   1      30.650  28.721  23.938  1.00  0.00     0.231 C 
ATOM      4  O   UNL A   1      29.774  29.051  23.129  1.00  0.00    -0.274 OA
ATOM      5  H   UNL A   1      31.059  30.636  24.168  1.00  0.00     0.163 HD
BRANCH   3   6
ATOM      6  C   UNL A   1      30.949  27.236  24.230  1.00  0.00     0.092 C 
ATOM      7  C   UNL A   1      29.807  26.375  23.642  1.00  0.00     0.027 C 
ATOM      8  C   UNL A   1      30.878  27.001  25.757  1.00  0.00     0.027 C 
BRANCH   6   9
ATOM      9  C   UNL A   1      32.330  26.765  23.667  1.00  0.00     0.278 C 
BRANCH   9  10
ATOM     10  N   UNL A   1      33.056  25.590  24.194  1.00  0.00    -0.334 N 
ATOM     11  C   UNL A   1      33.481  24.635  23.166  1.00  0.00     0.262 C 
ATOM     12  C   UNL A   1      34.098  25.898  25.174  1.00  0.00     0.262 C 
ATOM     13  H   UNL A   1      32.345  25.097  24.734  1.00  0.00     0.348 HD
ATOM     14  C   UNL A   1      34.081  23.360  23.768  1.00  0.00     0.072 C 
ATOM     15  C   UNL A   1      34.672  24.638  25.820  1.00  0.00     0.072 C 
ATOM     16  C   UNL A   1      35.217  23.712  24.733  1.00  0.00     0.058 C 
BRANCH  16  17
ATOM     17  C   UNL A   1      35.943  22.504  25.307  1.00  0.00     0.076 C 
ATOM     18  S   UNL A   1      37.160  21.655  24.548  1.00  0.00    -0.066 S 
BRANCH  17  19
ATOM     19  N   UNL A   1      35.513  22.096  26.538  1.00  0.00    -0.393 N 
ATOM     20  H   UNL A   1      34.607  22.333  26.847  1.00  0.00     0.157 HD
ATOM     21  H   UNL A   1      36.106  21.567  27.117  1.00  0.00     0.157 HD
ENDBRANCH  17  19
ENDBRANCH  16  17
ENDBRANCH   9  10
ENDBRANCH   6   9
ENDBRANCH   3   6
ENDBRANCH   1   2
BRANCH   1  22
ATOM     22  C   UNL A   1      31.798  30.498  26.856  1.00  0.00     0.023 C 
BRANCH  22  23
ATOM     23  C   UNL A   1      31.616  32.013  26.766  1.00  0.00     0.023 C 
BRANCH  23  24
ATOM     24  C   UNL A   1      32.811  32.837  27.229  1.00  0.00     0.116 C 
BRANCH  24  25
ATOM     25  N   UNL A   1      32.456  34.194  27.614  1.00  0.00    -0.352 N 
ATOM     26  C   UNL A   1      33.003  34.993  28.589  1.00  0.00     0.251 C 
ATOM     27  H   UNL A   1      31.718  34.598  27.104  1.00  0.00     0.163 HD
ATOM     28  O   UNL A   1      32.505  36.080  28.851  1.00  0.00    -0.269 OA
BRANCH  26  29
ATOM     29  C   UNL A   1      34.179  34.516  29.346  1.00  0.00     0.039 A 
ATOM     30  C   UNL A   1      33.979  33.932  30.599  1.00  0.00     0.014 A 
ATOM     31  C   UNL A   1      35.465  34.618  28.811  1.00  0.00     0.014 A 
ATOM     32  C   UNL A   1      35.063  33.384  31.285  1.00  0.00     0.010 A 
ATOM     33  C   UNL A   1      36.531  34.005  29.459  1.00  0.00     0.010 A 
ATOM     34  C   UNL A   1      36.340  33.380  30.701  1.00  0.00    -0.014 A 
BRANCH  34  35
ATOM     35  C   UNL A   1      37.492  32.726  31.371  1.00  0.00     0.031 A 
ATOM     36  C   UNL A   1      38.201  31.583  30.701  1.00  0.00     0.074 A 
ATOM     37  C   UNL A   1      37.847  33.112  32.611  1.00  0.00     0.049 A 
ATOM     38  N   UNL A   1      39.168  30.827  31.156  1.00  0.00    -0.248 NA
ATOM     39  C   UNL A   1      37.742  31.223  29.350  1.00  0.00     0.031 C 
ATOM     40  C   UNL A   1      37.204  34.176  33.384  1.00  0.00     0.029 A 
ATOM     41  N   UNL A   1      38.831  32.643  33.446  1.00  0.00    -0.354 N 
ATOM     42  C   UNL A   1      39.419  29.896  30.158  1.00  0.00     0.074 A 
ATOM     43  C   UNL A   1      38.468  30.145  29.096  1.00  0.00     0.031 C 
ATOM     44  C   UNL A   1      37.822  34.294  34.570  1.00  0.00     0.029 A 
ATOM     45  C   UNL A   1      38.879  33.290  34.658  1.00  0.00     0.049 A 
ATOM     46  H   UNL A   1      39.445  31.914  33.201  1.00  0.00     0.167 HD
ATOM     47  C   UNL A   1      40.372  28.935  30.120  1.00  0.00     0.037 A 
ATOM     48  C   UNL A   1      39.678  33.088  35.721  1.00  0.00     0.037 A 
ATOM     49  C   UNL A   1      41.333  28.709  31.167  1.00  0.00     0.049 A 
ATOM     50  C   UNL A   1      40.727  32.010  35.656  1.00  0.00     0.074 A 
ATOM     51  C   UNL A   1      42.377  27.802  31.199  1.00  0.00     0.029 A 
ATOM     52  N   UNL A   1      41.363  29.397  32.372  1.00  0.00    -0.354 N 
ATOM     53  N   UNL A   1      41.001  31.180  34.679  1.00  0.00    -0.248 NA
ATOM     54  C   UNL A   1      41.582  31.845  36.840  1.00  0.00     0.031 C 
ATOM     55  C   UNL A   1      43.012  27.911  32.441  1.00  0.00     0.029 A 
ATOM     56  C   UNL A   1      42.396  28.921  33.163  1.00  0.00     0.049 A 
ATOM     57  H   UNL A   1      40.742  30.119  32.626  1.00  0.00     0.167 HD
ATOM     58  C   UNL A   1      42.074  30.417  35.116  1.00  0.00     0.074 A 
ATOM     59  C   UNL A   1      42.411  30.892  36.441  1.00  0.00     0.031 C 
ATOM     60  C   UNL A   1      42.723  29.412  34.477  1.00  0.00     0.037 A 
BRANCH  47  61
ATOM     61  C   UNL A   1      40.427  28.060  28.901  1.00  0.00     0.064 A 
ATOM     62  C   UNL A   1      41.200  28.404  27.782  1.00  0.00     0.173 A 
ATOM     63  C   UNL A   1      39.723  26.846  28.864  1.00  0.00     0.173 A 
ATOM     64  F   UNL A   1      41.882  29.559  27.762  1.00  0.00    -0.203 F 
ATOM     65  C   UNL A   1      41.241  27.582  26.659  1.00  0.00     0.198 A 
ATOM     66  C   UNL A   1      39.792  26.012  27.751  1.00  0.00     0.198 A 
ATOM     67  F   UNL A   1      38.972  26.466  29.909  1.00  0.00    -0.203 F 
ATOM     68  F   UNL A   1      41.944  27.957  25.582  1.00  0.00    -0.200 F 
ATOM     69  C   UNL A   1      40.543  26.383  26.648  1.00  0.00     0.200 A 
ATOM     70  F   UNL A   1      39.127  24.848  27.747  1.00  0.00    -0.200 F 
ATOM     71  F   UNL A   1      40.590  25.590  25.568  1.00  0.00    -0.200 F 
ENDBRANCH  47  61
BRANCH  48  72
ATOM     72  C   UNL A   1      39.538  33.941  36.930  1.00  0.00     0.064 A 
ATOM     73  C   UNL A   1      38.768  33.519  38.022  1.00  0.00     0.173 A 
ATOM     74  C   UNL A   1      40.164  35.194  37.018  1.00  0.00     0.173 A 
ATOM     75  F   UNL A   1      38.134  32.338  37.977  1.00  0.00    -0.203 F 
ATOM     76  C   UNL A   1      38.611  34.325  39.147  1.00  0.00     0.198 A 
ATOM     77  C   UNL A   1      40.029  35.986  38.156  1.00  0.00     0.198 A 
ATOM     78  F   UNL A   1      40.916  35.642  36.002  1.00  0.00    -0.203 F 
ATOM     79  F   UNL A   1      37.831  33.916  40.158  1.00  0.00    -0.200 F 
ATOM     80  C   UNL A   1      39.245  35.556  39.215  1.00  0.00     0.200 A 
ATOM     81  F   UNL A   1      40.655  37.170  38.223  1.00  0.00    -0.200 F 
ATOM     82  F   UNL A   1      39.097  36.330  40.299  1.00  0.00    -0.200 F 
ENDBRANCH  48  72
BRANCH  60  83
ATOM     83  C   UNL A   1      43.887  28.784  35.186  1.00  0.00     0.064 A 
ATOM     84  C   UNL A   1      43.718  27.709  36.069  1.00  0.00     0.173 A 
ATOM     85  C   UNL A   1      45.192  29.238  34.943  1.00  0.00     0.173 A 
ATOM     86  F   UNL A   1      42.489  27.248  36.346  1.00  0.00    -0.203 F 
ATOM     87  C   UNL A   1      44.813  27.124  36.701  1.00  0.00     0.198 A 
ATOM     88  C   UNL A   1      46.287  28.632  35.553  1.00  0.00     0.198 A 
ATOM     89  F   UNL A   1      45.409  30.260  34.101  1.00  0.00    -0.203 F 
ATOM     90  F   UNL A   1      44.625  26.127  37.576  1.00  0.00    -0.200 F 
ATOM     91  C   UNL A   1      46.096  27.580  36.437  1.00  0.00     0.200 A 
ATOM     92  F   UNL A   1      47.527  29.065  35.286  1.00  0.00    -0.200 F 
ATOM     93  F   UNL A   1      47.149  27.011  37.040  1.00  0.00    -0.200 F 
ENDBRANCH  60  83
ENDBRANCH  34  35
ENDBRANCH  26  29
ENDBRANCH  24  25
ENDBRANCH  23  24
ENDBRANCH  22  23
ENDBRANCH   1  22
TORSDOF 15
ENDMDL
MODEL 2
REMARK VINA RESULT:     -11.6      1.120      1.722
REMARK SMILES CC(C)(C[NH+]1CCC(C(N)=S)CC1)C(=O)NCCCCNC(=O)c1ccc(-c2c3nc(c(-c4c(F)c(F)c(F)c(F)c4F)c4ccc([nH]4)c(-c4c(F)c(F)c(F)c(F)c4F)c4nc(c(-c5c(F)c(F)c(F)c(F)c5F)c5ccc2[nH]5)C=C4)C=C3)cc1
REMARK SMILES IDX 17 1 16 2 14 3 15 4 2 6 1 7 3 8 4 9 5 10 6 11 13 12 7 14
REMARK SMILES IDX 12 15 8 16 9 17 11 18 10 19 18 22 19 23 20 24 21 25 22 26
REMARK SMILES IDX 23 28 24 29 25 30 86 31 26 32 85 33 27 34 28 35 29 36 79 37
REMARK SMILES IDX 30 38 84 39 78 40 80 41 31 42 83 43 77 44 76 45 32 47 64 48
REMARK SMILES IDX 44 49 63 50 45 51 48 52 62 53 81 54 46 55 47 56 61 58 82 59
REMARK SMILES IDX 49 60 33 61 34 62 42 63 35 64 36 65 40 66 43 67 37 68 38 69
REMARK SMILES IDX 41 70 39 71 65 72 66 73 74 74 67 75 68 76 72 77 75 78 69 79
REMARK SMILES IDX 70 80 73 81 71 82 50 83 51 84 59 85 52 86 53 87 57 88 60 89
REMARK SMILES IDX 54 90 55 91 58 92 56 93
REMARK H PARENT 16 5 5 13 10 20 10 21 21 27 80 46 48 57
REMARK Flexibility Score: inf
ROOT
ATOM      1  C   UNL A   1      32.946  29.831  26.061  1.00  0.00     0.116 C 
ENDROOT
BRANCH   1   2
ATOM      2  N   UNL A   1      33.541  29.339  24.833  1.00  0.00    -0.355 N 
ATOM      3  C   UNL A   1      33.478  28.146  24.183  1.00  0.00     0.231 C 
ATOM      4  O   UNL A   1      34.041  28.118  23.082  1.00  0.00    -0.274 OA
ATOM      5  H   UNL A   1      34.107  30.004  24.378  1.00  0.00     0.163 HD
BRANCH   3   6
ATOM      6  C   UNL A   1      32.765  26.900  24.748  1.00  0.00     0.092 C 
ATOM      7  C   UNL A   1      31.266  27.227  24.936  1.00  0.00     0.027 C 
ATOM      8  C   UNL A   1      33.293  26.624  26.176  1.00  0.00     0.027 C 
BRANCH   6   9
ATOM      9  C   UNL A   1      32.937  25.632  23.848  1.00  0.00     0.278 C 
BRANCH   9  10
ATOM     10  N   UNL A   1      33.100  24.270  24.397  1.00  0.00    -0.334 N 
ATOM     11  C   UNL A   1      31.837  23.576  24.667  1.00  0.00     0.262 C 
ATOM     12  C   UNL A   1      34.088  23.441  23.706  1.00  0.00     0.262 C 
ATOM     13  H   UNL A   1      33.512  24.434  25.315  1.00  0.00     0.348 HD
ATOM     14  C   UNL A   1      32.050  22.239  25.385  1.00  0.00     0.072 C 
ATOM     15  C   UNL A   1      34.348  22.124  24.437  1.00  0.00     0.072 C 
ATOM     16  C   UNL A   1      33.031  21.365  24.600  1.00  0.00     0.058 C 
BRANCH  16  17
ATOM     17  C   UNL A   1      33.231  19.973  25.183  1.00  0.00     0.076 C 
ATOM     18  S   UNL A   1      33.508  18.586  24.303  1.00  0.00    -0.066 S 
BRANCH  17  19
ATOM     19  N   UNL A   1      33.140  19.894  26.545  1.00  0.00    -0.393 N 
ATOM     20  H   UNL A   1      32.423  20.375  27.019  1.00  0.00     0.157 HD
ATOM     21  H   UNL A   1      33.789  19.355  27.051  1.00  0.00     0.157 HD
ENDBRANCH  17  19
ENDBRANCH  16  17
ENDBRANCH   9  10
ENDBRANCH   6   9
ENDBRANCH   3   6
ENDBRANCH   1   2
BRANCH   1  22
ATOM     22  C   UNL A   1      31.735  30.732  25.834  1.00  0.00     0.023 C 
BRANCH  22  23
ATOM     23  C   UNL A   1      31.510  31.808  26.895  1.00  0.00     0.023 C 
BRANCH  23  24
ATOM     24  C   UNL A   1      32.733  32.650  27.233  1.00  0.00     0.116 C 
BRANCH  24  25
ATOM     25  N   UNL A   1      32.407  34.028  27.565  1.00  0.00    -0.352 N 
ATOM     26  C   UNL A   1      32.976  34.856  28.502  1.00  0.00     0.251 C 
ATOM     27  H   UNL A   1      31.672  34.425  27.044  1.00  0.00     0.163 HD
ATOM     28  O   UNL A   1      32.500  35.962  28.723  1.00  0.00    -0.269 OA
BRANCH  26  29
ATOM     29  C   UNL A   1      34.149  34.388  29.270  1.00  0.00     0.039 A 
ATOM     30  C   UNL A   1      33.937  33.666  30.446  1.00  0.00     0.014 A 
ATOM     31  C   UNL A   1      35.447  34.636  28.816  1.00  0.00     0.014 A 
ATOM     32  C   UNL A   1      35.027  33.129  31.131  1.00  0.00     0.010 A 
ATOM     33  C   UNL A   1      36.526  34.037  29.456  1.00  0.00     0.010 A 
ATOM     34  C   UNL A   1      36.326  33.276  30.619  1.00  0.00    -0.014 A 
BRANCH  34  35
ATOM     35  C   UNL A   1      37.492  32.640  31.280  1.00  0.00     0.031 A 
ATOM     36  C   UNL A   1      38.215  31.508  30.607  1.00  0.00     0.074 A 
ATOM     37  C   UNL A   1      37.851  33.033  32.518  1.00  0.00     0.049 A 
ATOM     38  N   UNL A   1      39.196  30.768  31.055  1.00  0.00    -0.248 NA
ATOM     39  C   UNL A   1      37.752  31.141  29.259  1.00  0.00     0.031 C 
ATOM     40  C   UNL A   1      37.197  34.087  33.295  1.00  0.00     0.029 A 
ATOM     41  N   UNL A   1      38.847  32.580  33.347  1.00  0.00    -0.354 N 
ATOM     42  C   UNL A   1      39.455  29.840  30.055  1.00  0.00     0.074 A 
ATOM     43  C   UNL A   1      38.493  30.074  29.000  1.00  0.00     0.031 C 
ATOM     44  C   UNL A   1      37.821  34.215  34.476  1.00  0.00     0.029 A 
ATOM     45  C   UNL A   1      38.893  33.227  34.558  1.00  0.00     0.049 A 
ATOM     46  H   UNL A   1      39.471  31.860  33.097  1.00  0.00     0.167 HD
ATOM     47  C   UNL A   1      40.423  28.894  30.011  1.00  0.00     0.037 A 
ATOM     48  C   UNL A   1      39.703  33.038  35.615  1.00  0.00     0.037 A 
ATOM     49  C   UNL A   1      41.395  28.684  31.052  1.00  0.00     0.049 A 
ATOM     50  C   UNL A   1      40.768  31.977  35.543  1.00  0.00     0.074 A 
ATOM     51  C   UNL A   1      42.453  27.794  31.077  1.00  0.00     0.029 A 
ATOM     52  N   UNL A   1      41.422  29.373  32.256  1.00  0.00    -0.354 N 
ATOM     53  N   UNL A   1      41.048  31.151  34.564  1.00  0.00    -0.248 NA
ATOM     54  C   UNL A   1      41.633  31.826  36.722  1.00  0.00     0.031 C 
ATOM     55  C   UNL A   1      43.095  27.913  32.314  1.00  0.00     0.029 A 
ATOM     56  C   UNL A   1      42.468  28.913  33.040  1.00  0.00     0.049 A 
ATOM     57  H   UNL A   1      40.792  30.085  32.514  1.00  0.00     0.167 HD
ATOM     58  C   UNL A   1      42.136  30.405  34.994  1.00  0.00     0.074 A 
ATOM     59  C   UNL A   1      42.475  30.886  36.318  1.00  0.00     0.031 C 
ATOM     60  C   UNL A   1      42.796  29.411  34.352  1.00  0.00     0.037 A 
BRANCH  47  61
ATOM     61  C   UNL A   1      40.483  28.020  28.792  1.00  0.00     0.064 A 
ATOM     62  C   UNL A   1      39.777  26.809  28.720  1.00  0.00     0.173 A 
ATOM     63  C   UNL A   1      41.228  28.413  27.670  1.00  0.00     0.173 A 
ATOM     64  F   UNL A   1      39.059  26.382  29.770  1.00  0.00    -0.203 F 
ATOM     65  C   UNL A   1      39.841  26.009  27.583  1.00  0.00     0.198 A 
ATOM     66  C   UNL A   1      41.264  27.624  26.522  1.00  0.00     0.198 A 
ATOM     67  F   UNL A   1      41.917  29.563  27.683  1.00  0.00    -0.203 F 
ATOM     68  F   UNL A   1      39.202  24.831  27.557  1.00  0.00    -0.200 F 
ATOM     69  C   UNL A   1      40.578  26.420  26.482  1.00  0.00     0.200 A 
ATOM     70  F   UNL A   1      41.967  28.029  25.455  1.00  0.00    -0.200 F 
ATOM     71  F   UNL A   1      40.633  25.651  25.386  1.00  0.00    -0.200 F 
ENDBRANCH  47  61
BRANCH  48  72
ATOM     72  C   UNL A   1      39.558  33.890  36.825  1.00  0.00     0.064 A 
ATOM     73  C   UNL A   1      38.772  33.473  37.907  1.00  0.00     0.173 A 
ATOM     74  C   UNL A   1      40.195  35.136  36.923  1.00  0.00     0.173 A 
ATOM     75  F   UNL A   1      38.126  32.299  37.852  1.00  0.00    -0.203 F 
ATOM     76  C   UNL A   1      38.610  34.278  39.033  1.00  0.00     0.198 A 
ATOM     77  C   UNL A   1      40.056  35.927  38.062  1.00  0.00     0.198 A 
ATOM     78  F   UNL A   1      40.963  35.580  35.916  1.00  0.00    -0.203 F 
ATOM     79  F   UNL A   1      37.815  33.874  40.033  1.00  0.00    -0.200 F 
ATOM     80  C   UNL A   1      39.256  35.502  39.111  1.00  0.00     0.200 A 
ATOM     81  F   UNL A   1      40.693  37.104  38.139  1.00  0.00    -0.200 F 
ATOM     82  F   UNL A   1      39.103  36.274  40.196  1.00  0.00    -0.200 F 
ENDBRANCH  48  72
BRANCH  60  83
ATOM     83  C   UNL A   1      43.975  28.801  35.052  1.00  0.00     0.064 A 
ATOM     84  C   UNL A   1      43.841  27.672  35.873  1.00  0.00     0.173 A 
ATOM     85  C   UNL A   1      45.261  29.329  34.864  1.00  0.00     0.173 A 
ATOM     86  F   UNL A   1      42.630  27.140  36.097  1.00  0.00    -0.203 F 
ATOM     87  C   UNL A   1      44.949  27.107  36.498  1.00  0.00     0.198 A 
ATOM     88  C   UNL A   1      46.371  28.743  35.466  1.00  0.00     0.198 A 
ATOM     89  F   UNL A   1      45.444  30.404  34.083  1.00  0.00    -0.203 F 
ATOM     90  F   UNL A   1      44.792  26.056  37.315  1.00  0.00    -0.200 F 
ATOM     91  C   UNL A   1      46.214  27.637  36.288  1.00  0.00     0.200 A 
ATOM     92  F   UNL A   1      47.594  29.248  35.251  1.00  0.00    -0.200 F 
ATOM     93  F   UNL A   1      47.280  27.087  36.884  1.00  0.00    -0.200 F 
ENDBRANCH  60  83
ENDBRANCH  34  35
ENDBRANCH  26  29
ENDBRANCH  24  25
ENDBRANCH  23  24
ENDBRANCH  22  23
ENDBRANCH   1  22
TORSDOF 15
ENDMDL
MODEL 3
REMARK VINA RESULT:     -11.6      0.746      2.185
REMARK SMILES CC(C)(C[NH+]1CCC(C(N)=S)CC1)C(=O)NCCCCNC(=O)c1ccc(-c2c3nc(c(-c4c(F)c(F)c(F)c(F)c4F)c4ccc([nH]4)c(-c4c(F)c(F)c(F)c(F)c4F)c4nc(c(-c5c(F)c(F)c(F)c(F)c5F)c5ccc2[nH]5)C=C4)C=C3)cc1
REMARK SMILES IDX 17 1 16 2 14 3 15 4 2 6 1 7 3 8 4 9 5 10 6 11 13 12 7 14
REMARK SMILES IDX 12 15 8 16 9 17 11 18 10 19 18 22 19 23 20 24 21 25 22 26
REMARK SMILES IDX 23 28 24 29 25 30 86 31 26 32 85 33 27 34 28 35 29 36 79 37
REMARK SMILES IDX 30 38 84 39 78 40 80 41 31 42 83 43 77 44 76 45 32 47 64 48
REMARK SMILES IDX 44 49 63 50 45 51 48 52 62 53 81 54 46 55 47 56 61 58 82 59
REMARK SMILES IDX 49 60 33 61 34 62 42 63 35 64 36 65 40 66 43 67 37 68 38 69
REMARK SMILES IDX 41 70 39 71 65 72 66 73 74 74 67 75 68 76 72 77 75 78 69 79
REMARK SMILES IDX 70 80 73 81 71 82 50 83 51 84 59 85 52 86 53 87 57 88 60 89
REMARK SMILES IDX 54 90 55 91 58 92 56 93
REMARK H PARENT 16 5 5 13 10 20 10 21 21 27 80 46 48 57
REMARK Flexibility Score: inf
ROOT
ATOM      1  C   UNL A   1      32.093  29.849  25.724  1.00  0.00     0.116 C 
ENDROOT
BRANCH   1   2
ATOM      2  N   UNL A   1      32.689  29.562  24.432  1.00  0.00    -0.355 N 
ATOM      3  C   UNL A   1      32.407  28.654  23.461  1.00  0.00     0.231 C 
ATOM      4  O   UNL A   1      33.073  28.770  22.425  1.00  0.00    -0.274 OA
ATOM      5  H   UNL A   1      33.454  30.143  24.217  1.00  0.00     0.163 HD
BRANCH   3   6
ATOM      6  C   UNL A   1      31.342  27.547  23.605  1.00  0.00     0.092 C 
ATOM      7  C   UNL A   1      31.466  26.579  22.406  1.00  0.00     0.027 C 
ATOM      8  C   UNL A   1      29.938  28.180  23.461  1.00  0.00     0.027 C 
BRANCH   6   9
ATOM      9  C   UNL A   1      31.452  26.761  24.952  1.00  0.00     0.278 C 
BRANCH   9  10
ATOM     10  N   UNL A   1      32.320  25.577  25.126  1.00  0.00    -0.334 N 
ATOM     11  C   UNL A   1      33.721  25.897  25.417  1.00  0.00     0.262 C 
ATOM     12  C   UNL A   1      31.768  24.528  25.983  1.00  0.00     0.262 C 
ATOM     13  H   UNL A   1      32.334  25.157  24.197  1.00  0.00     0.348 HD
ATOM     14  C   UNL A   1      34.613  24.651  25.426  1.00  0.00     0.072 C 
ATOM     15  C   UNL A   1      32.621  23.260  25.965  1.00  0.00     0.072 C 
ATOM     16  C   UNL A   1      34.050  23.601  26.388  1.00  0.00     0.058 C 
BRANCH  16  17
ATOM     17  C   UNL A   1      34.922  22.364  26.541  1.00  0.00     0.076 C 
ATOM     18  S   UNL A   1      36.202  21.954  25.555  1.00  0.00    -0.066 S 
BRANCH  17  19
ATOM     19  N   UNL A   1      34.577  21.531  27.569  1.00  0.00    -0.393 N 
ATOM     20  H   UNL A   1      34.569  21.869  28.495  1.00  0.00     0.157 HD
ATOM     21  H   UNL A   1      34.338  20.595  27.384  1.00  0.00     0.157 HD
ENDBRANCH  17  19
ENDBRANCH  16  17
ENDBRANCH   9  10
ENDBRANCH   6   9
ENDBRANCH   3   6
ENDBRANCH   1   2
BRANCH   1  22
ATOM     22  C   UNL A   1      31.383  31.199  25.782  1.00  0.00     0.023 C 
BRANCH  22  23
ATOM     23  C   UNL A   1      31.478  31.933  27.120  1.00  0.00     0.023 C 
BRANCH  23  24
ATOM     24  C   UNL A   1      32.712  32.809  27.291  1.00  0.00     0.116 C 
BRANCH  24  25
ATOM     25  N   UNL A   1      32.394  34.188  27.631  1.00  0.00    -0.352 N 
ATOM     26  C   UNL A   1      32.972  35.009  28.567  1.00  0.00     0.251 C 
ATOM     27  H   UNL A   1      31.658  34.589  27.115  1.00  0.00     0.163 HD
ATOM     28  O   UNL A   1      32.502  36.116  28.796  1.00  0.00    -0.269 OA
BRANCH  26  29
ATOM     29  C   UNL A   1      34.147  34.533  29.326  1.00  0.00     0.039 A 
ATOM     30  C   UNL A   1      33.948  33.968  30.588  1.00  0.00     0.014 A 
ATOM     31  C   UNL A   1      35.432  34.618  28.784  1.00  0.00     0.014 A 
ATOM     32  C   UNL A   1      35.031  33.421  31.277  1.00  0.00     0.010 A 
ATOM     33  C   UNL A   1      36.496  34.005  29.437  1.00  0.00     0.010 A 
ATOM     34  C   UNL A   1      36.305  33.399  30.688  1.00  0.00    -0.014 A 
BRANCH  34  35
ATOM     35  C   UNL A   1      37.455  32.745  31.362  1.00  0.00     0.031 A 
ATOM     36  C   UNL A   1      38.163  31.599  30.698  1.00  0.00     0.074 A 
ATOM     37  C   UNL A   1      37.809  33.136  32.601  1.00  0.00     0.049 A 
ATOM     38  N   UNL A   1      39.128  30.843  31.157  1.00  0.00    -0.248 NA
ATOM     39  C   UNL A   1      37.705  31.235  29.347  1.00  0.00     0.031 C 
ATOM     40  C   UNL A   1      37.167  34.203  33.369  1.00  0.00     0.029 A 
ATOM     41  N   UNL A   1      38.791  32.668  33.440  1.00  0.00    -0.354 N 
ATOM     42  C   UNL A   1      39.378  29.907  30.162  1.00  0.00     0.074 A 
ATOM     43  C   UNL A   1      38.430  30.155  29.098  1.00  0.00     0.031 C 
ATOM     44  C   UNL A   1      37.784  34.325  34.555  1.00  0.00     0.029 A 
ATOM     45  C   UNL A   1      38.838  33.319  34.649  1.00  0.00     0.049 A 
ATOM     46  H   UNL A   1      39.404  31.937  33.198  1.00  0.00     0.167 HD
ATOM     47  C   UNL A   1      40.330  28.945  30.129  1.00  0.00     0.037 A 
ATOM     48  C   UNL A   1      39.635  33.119  35.714  1.00  0.00     0.037 A 
ATOM     49  C   UNL A   1      41.289  28.721  31.179  1.00  0.00     0.049 A 
ATOM     50  C   UNL A   1      40.683  32.040  35.654  1.00  0.00     0.074 A 
ATOM     51  C   UNL A   1      42.331  27.812  31.216  1.00  0.00     0.029 A 
ATOM     52  N   UNL A   1      41.318  29.414  32.381  1.00  0.00    -0.354 N 
ATOM     53  N   UNL A   1      40.956  31.206  34.681  1.00  0.00    -0.248 NA
ATOM     54  C   UNL A   1      41.535  31.878  36.841  1.00  0.00     0.031 C 
ATOM     55  C   UNL A   1      42.965  27.924  32.458  1.00  0.00     0.029 A 
ATOM     56  C   UNL A   1      42.349  28.938  33.176  1.00  0.00     0.049 A 
ATOM     57  H   UNL A   1      40.699  30.137  32.632  1.00  0.00     0.167 HD
ATOM     58  C   UNL A   1      42.027  30.442  35.122  1.00  0.00     0.074 A 
ATOM     59  C   UNL A   1      42.363  30.921  36.447  1.00  0.00     0.031 C 
ATOM     60  C   UNL A   1      42.675  29.434  34.488  1.00  0.00     0.037 A 
BRANCH  47  61
ATOM     61  C   UNL A   1      40.385  28.065  28.914  1.00  0.00     0.064 A 
ATOM     62  C   UNL A   1      39.682  26.852  28.851  1.00  0.00     0.173 A 
ATOM     63  C   UNL A   1      41.123  28.455  27.786  1.00  0.00     0.173 A 
ATOM     64  F   UNL A   1      38.971  26.428  29.907  1.00  0.00    -0.203 F 
ATOM     65  C   UNL A   1      39.741  26.048  27.716  1.00  0.00     0.198 A 
ATOM     66  C   UNL A   1      41.154  27.661  26.641  1.00  0.00     0.198 A 
ATOM     67  F   UNL A   1      41.810  29.607  27.790  1.00  0.00    -0.203 F 
ATOM     68  F   UNL A   1      39.104  24.869  27.700  1.00  0.00    -0.200 F 
ATOM     69  C   UNL A   1      40.471  26.456  26.610  1.00  0.00     0.200 A 
ATOM     70  F   UNL A   1      41.850  28.064  25.568  1.00  0.00    -0.200 F 
ATOM     71  F   UNL A   1      40.521  25.682  25.517  1.00  0.00    -0.200 F 
ENDBRANCH  47  61
BRANCH  48  72
ATOM     72  C   UNL A   1      39.495  33.978  36.920  1.00  0.00     0.064 A 
ATOM     73  C   UNL A   1      40.133  35.223  36.993  1.00  0.00     0.173 A 
ATOM     74  C   UNL A   1      38.728  33.571  38.021  1.00  0.00     0.173 A 
ATOM     75  F   UNL A   1      40.895  35.646  35.974  1.00  0.00    -0.203 F 
ATOM     76  C   UNL A   1      40.028  36.020  38.131  1.00  0.00     0.198 A 
ATOM     77  C   UNL A   1      38.599  34.383  39.147  1.00  0.00     0.198 A 
ATOM     78  F   UNL A   1      38.092  32.390  37.999  1.00  0.00    -0.203 F 
ATOM     79  F   UNL A   1      40.686  37.186  38.193  1.00  0.00    -0.200 F 
ATOM     80  C   UNL A   1      39.257  35.602  39.205  1.00  0.00     0.200 A 
ATOM     81  F   UNL A   1      37.842  33.981  40.177  1.00  0.00    -0.200 F 
ATOM     82  F   UNL A   1      39.152  36.371  40.297  1.00  0.00    -0.200 F 
ENDBRANCH  48  72
BRANCH  60  83
ATOM     83  C   UNL A   1      43.837  28.806  35.201  1.00  0.00     0.064 A 
ATOM     84  C   UNL A   1      45.139  29.313  35.076  1.00  0.00     0.173 A 
ATOM     85  C   UNL A   1      43.637  27.710  36.053  1.00  0.00     0.173 A 
ATOM     86  F   UNL A   1      45.384  30.350  34.261  1.00  0.00    -0.203 F 
ATOM     87  C   UNL A   1      46.201  28.731  35.762  1.00  0.00     0.198 A 
ATOM     88  C   UNL A   1      44.696  27.150  36.761  1.00  0.00     0.198 A 
ATOM     89  F   UNL A   1      42.410  27.192  36.213  1.00  0.00    -0.203 F 
ATOM     90  F   UNL A   1      47.444  29.202  35.593  1.00  0.00    -0.200 F 
ATOM     91  C   UNL A   1      45.978  27.656  36.610  1.00  0.00     0.200 A 
ATOM     92  F   UNL A   1      44.476  26.120  37.591  1.00  0.00    -0.200 F 
ATOM     93  F   UNL A   1      47.001  27.102  37.276  1.00  0.00    -0.200 F 
ENDBRANCH  60  83
ENDBRANCH  34  35
ENDBRANCH  26  29
ENDBRANCH  24  25
ENDBRANCH  23  24
ENDBRANCH  22  23
ENDBRANCH   1  22
TORSDOF 15
ENDMDL
