MODEL 1
REMARK VINA RESULT:     -11.8      0.000      0.000
REMARK SMILES CC1(C)CCN(C(=O)[C@@H]([NH3+])CC(=O)NCCCCNC(=O)c2ccc(-c3c4nc(c(-c5c(F)c(F)c(F)c(F)c5F)c5ccc([nH]5)c(-c5c(F)c(F)c(F)c(F)c5F)c5nc(c(-c6c(F)c(F)c(F)c(F)c6F)c6ccc3[nH]6)C=C5)C=C4)cc2)C1
REMARK SMILES IDX 16 1 15 2 14 3 12 4 13 5 11 7 9 8 7 9 8 10 6 11 1 12 2 13
REMARK SMILES IDX 3 14 4 15 85 16 5 17 10 18 17 22 18 23 19 24 20 25 21 27
REMARK SMILES IDX 22 28 23 29 84 30 24 31 83 32 25 33 26 34 27 35 77 36 28 37
REMARK SMILES IDX 82 38 76 39 78 40 29 41 81 42 75 43 74 44 30 46 62 47 42 48
REMARK SMILES IDX 61 49 43 50 46 51 60 52 79 53 44 54 45 55 59 57 80 58 47 59
REMARK SMILES IDX 31 60 32 61 40 62 33 63 34 64 38 65 41 66 35 67 36 68 39 69
REMARK SMILES IDX 37 70 63 71 64 72 72 73 65 74 66 75 70 76 73 77 67 78 68 79
REMARK SMILES IDX 71 80 69 81 48 82 49 83 57 84 50 85 51 86 55 87 58 88 52 89
REMARK SMILES IDX 53 90 56 91 54 92
REMARK H PARENT 14 6 10 19 10 20 10 21 19 26 78 45 46 56
REMARK Flexibility Score: inf
ROOT
ATOM      1  C   UNL A   1      32.372  29.973  27.132  1.00  0.00     0.023 C 
ENDROOT
BRANCH   1   2
ATOM      2  C   UNL A   1      33.678  29.483  26.507  1.00  0.00     0.116 C 
BRANCH   2   3
ATOM      3  N   UNL A   1      33.662  29.693  25.074  1.00  0.00    -0.356 N 
ATOM      4  C   UNL A   1      33.436  28.800  24.070  1.00  0.00     0.226 C 
ATOM      5  O   UNL A   1      33.625  29.163  22.909  1.00  0.00    -0.275 OA
ATOM      6  H   UNL A   1      33.840  30.616  24.782  1.00  0.00     0.163 HD
BRANCH   4   7
ATOM      7  C   UNL A   1      32.933  27.406  24.381  1.00  0.00     0.175 C 
BRANCH   7   8
ATOM      8  C   UNL A   1      31.417  27.370  24.578  1.00  0.00     0.280 C 
BRANCH   8   9
ATOM      9  C   UNL A   1      30.594  27.632  23.290  1.00  0.00     0.281 C 
ATOM     10  O   UNL A   1      30.926  27.059  22.245  1.00  0.00    -0.268 OA
BRANCH   9  11
ATOM     11  N   UNL A   1      29.513  28.487  23.300  1.00  0.00    -0.337 N 
ATOM     12  C   UNL A   1      28.169  30.480  21.272  1.00  0.00     0.013 C 
ATOM     13  C   UNL A   1      28.140  30.366  22.805  1.00  0.00    -0.016 C 
ATOM     14  C   UNL A   1      27.665  31.687  23.409  1.00  0.00     0.013 C 
ATOM     15  C   UNL A   1      27.262  29.187  23.251  1.00  0.00     0.030 C 
ATOM     16  C   UNL A   1      29.518  29.948  23.351  1.00  0.00     0.126 C 
ATOM     17  C   UNL A   1      28.169  27.985  23.046  1.00  0.00     0.120 C 
ENDBRANCH   9  11
ENDBRANCH   8   9
BRANCH   8  18
ATOM     18  N   UNL A   1      30.972  26.084  25.169  1.00  0.00    -0.347 N 
ATOM     19  H   UNL A   1      30.195  25.710  24.623  1.00  0.00     0.345 HD
ATOM     20  H   UNL A   1      30.668  26.239  26.131  1.00  0.00     0.345 HD
ATOM     21  H   UNL A   1      31.746  25.419  25.160  1.00  0.00     0.345 HD
ENDBRANCH   8  18
ENDBRANCH   7   8
ENDBRANCH   4   7
ENDBRANCH   2   3
ENDBRANCH   1   2
BRANCH   1  22
ATOM     22  C   UNL A   1      32.050  31.441  26.882  1.00  0.00     0.023 C 
BRANCH  22  23
ATOM     23  C   UNL A   1      33.039  32.421  27.502  1.00  0.00     0.116 C 
BRANCH  23  24
ATOM     24  N   UNL A   1      32.531  33.777  27.671  1.00  0.00    -0.352 N 
ATOM     25  C   UNL A   1      33.025  34.773  28.485  1.00  0.00     0.251 C 
ATOM     26  H   UNL A   1      31.736  34.009  27.139  1.00  0.00     0.163 HD
ATOM     27  O   UNL A   1      32.478  35.866  28.551  1.00  0.00    -0.269 OA
BRANCH  25  28
ATOM     28  C   UNL A   1      34.197  34.471  29.333  1.00  0.00     0.039 A 
ATOM     29  C   UNL A   1      33.983  33.965  30.617  1.00  0.00     0.014 A 
ATOM     30  C   UNL A   1      35.488  34.566  28.813  1.00  0.00     0.014 A 
ATOM     31  C   UNL A   1      35.062  33.455  31.341  1.00  0.00     0.010 A 
ATOM     32  C   UNL A   1      36.545  33.978  29.496  1.00  0.00     0.010 A 
ATOM     33  C   UNL A   1      36.340  33.405  30.761  1.00  0.00    -0.014 A 
BRANCH  33  34
ATOM     34  C   UNL A   1      37.473  32.732  31.445  1.00  0.00     0.031 A 
ATOM     35  C   UNL A   1      38.163  31.571  30.791  1.00  0.00     0.074 A 
ATOM     36  C   UNL A   1      37.815  33.107  32.694  1.00  0.00     0.049 A 
ATOM     37  N   UNL A   1      39.109  30.797  31.261  1.00  0.00    -0.248 NA
ATOM     38  C   UNL A   1      37.701  31.202  29.444  1.00  0.00     0.031 C 
ATOM     39  C   UNL A   1      37.170  34.169  33.468  1.00  0.00     0.029 A 
ATOM     40  N   UNL A   1      38.784  32.625  33.537  1.00  0.00    -0.354 N 
ATOM     41  C   UNL A   1      39.335  29.840  30.282  1.00  0.00     0.074 A 
ATOM     42  C   UNL A   1      38.390  30.095  29.215  1.00  0.00     0.031 C 
ATOM     43  C   UNL A   1      37.778  34.277  34.660  1.00  0.00     0.029 A 
ATOM     44  C   UNL A   1      38.835  33.273  34.747  1.00  0.00     0.049 A 
ATOM     45  H   UNL A   1      39.388  31.884  33.298  1.00  0.00     0.167 HD
ATOM     46  C   UNL A   1      40.261  28.853  30.262  1.00  0.00     0.037 A 
ATOM     47  C   UNL A   1      39.645  33.082  35.806  1.00  0.00     0.037 A 
ATOM     48  C   UNL A   1      41.229  28.632  31.302  1.00  0.00     0.049 A 
ATOM     49  C   UNL A   1      40.700  32.013  35.738  1.00  0.00     0.074 A 
ATOM     50  C   UNL A   1      42.263  27.713  31.339  1.00  0.00     0.029 A 
ATOM     51  N   UNL A   1      41.283  29.345  32.491  1.00  0.00    -0.354 N 
ATOM     52  N   UNL A   1      40.955  31.164  34.773  1.00  0.00    -0.248 NA
ATOM     53  C   UNL A   1      41.585  31.881  36.904  1.00  0.00     0.031 C 
ATOM     54  C   UNL A   1      42.925  27.850  32.564  1.00  0.00     0.029 A 
ATOM     55  C   UNL A   1      42.327  28.879  33.274  1.00  0.00     0.049 A 
ATOM     56  H   UNL A   1      40.671  30.074  32.741  1.00  0.00     0.167 HD
ATOM     57  C   UNL A   1      42.041  30.414  35.203  1.00  0.00     0.074 A 
ATOM     58  C   UNL A   1      42.407  30.919  36.510  1.00  0.00     0.031 C 
ATOM     59  C   UNL A   1      42.678  29.398  34.570  1.00  0.00     0.037 A 
BRANCH  46  60
ATOM     60  C   UNL A   1      40.276  27.949  29.065  1.00  0.00     0.064 A 
ATOM     61  C   UNL A   1      41.014  28.266  27.915  1.00  0.00     0.173 A 
ATOM     62  C   UNL A   1      39.555  26.746  29.074  1.00  0.00     0.173 A 
ATOM     63  F   UNL A   1      41.708  29.413  27.853  1.00  0.00    -0.203 F 
ATOM     64  C   UNL A   1      41.002  27.428  26.803  1.00  0.00     0.198 A 
ATOM     65  C   UNL A   1      39.569  25.896  27.970  1.00  0.00     0.198 A 
ATOM     66  F   UNL A   1      38.835  26.395  30.149  1.00  0.00    -0.203 F 
ATOM     67  F   UNL A   1      41.669  27.779  25.695  1.00  0.00    -0.200 F 
ATOM     68  C   UNL A   1      40.284  26.242  26.834  1.00  0.00     0.200 A 
ATOM     69  F   UNL A   1      38.882  24.746  28.003  1.00  0.00    -0.200 F 
ATOM     70  F   UNL A   1      40.274  25.437  25.762  1.00  0.00    -0.200 F 
ENDBRANCH  46  60
BRANCH  47  71
ATOM     71  C   UNL A   1      39.518  33.952  37.002  1.00  0.00     0.064 A 
ATOM     72  C   UNL A   1      38.788  33.527  38.121  1.00  0.00     0.173 A 
ATOM     73  C   UNL A   1      40.122  35.216  37.057  1.00  0.00     0.173 A 
ATOM     74  F   UNL A   1      38.176  32.334  38.106  1.00  0.00    -0.203 F 
ATOM     75  C   UNL A   1      38.653  34.341  39.244  1.00  0.00     0.198 A 
ATOM     76  C   UNL A   1      40.006  36.019  38.189  1.00  0.00     0.198 A 
ATOM     77  F   UNL A   1      40.835  35.665  36.013  1.00  0.00    -0.203 F 
ATOM     78  F   UNL A   1      37.918  33.925  40.285  1.00  0.00    -0.200 F 
ATOM     79  C   UNL A   1      39.266  35.584  39.280  1.00  0.00     0.200 A 
ATOM     80  F   UNL A   1      40.607  37.215  38.225  1.00  0.00    -0.200 F 
ATOM     81  F   UNL A   1      39.139  36.364  40.361  1.00  0.00    -0.200 F 
ENDBRANCH  47  71
BRANCH  59  82
ATOM     82  C   UNL A   1      43.850  28.782  35.273  1.00  0.00     0.064 A 
ATOM     83  C   UNL A   1      43.691  27.708  36.161  1.00  0.00     0.173 A 
ATOM     84  C   UNL A   1      45.150  29.248  35.025  1.00  0.00     0.173 A 
ATOM     85  F   UNL A   1      42.466  27.240  36.441  1.00  0.00    -0.203 F 
ATOM     86  C   UNL A   1      44.792  27.135  36.792  1.00  0.00     0.198 A 
ATOM     87  C   UNL A   1      46.250  28.656  35.639  1.00  0.00     0.198 A 
ATOM     88  F   UNL A   1      45.354  30.269  34.180  1.00  0.00    -0.203 F 
ATOM     89  F   UNL A   1      44.614  26.136  37.668  1.00  0.00    -0.200 F 
ATOM     90  C   UNL A   1      46.070  27.604  36.526  1.00  0.00     0.200 A 
ATOM     91  F   UNL A   1      47.485  29.102  35.373  1.00  0.00    -0.200 F 
ATOM     92  F   UNL A   1      47.129  27.047  37.130  1.00  0.00    -0.200 F 
ENDBRANCH  59  82
ENDBRANCH  33  34
ENDBRANCH  25  28
ENDBRANCH  23  24
ENDBRANCH  22  23
ENDBRANCH   1  22
TORSDOF 15
ENDMDL
MODEL 2
REMARK VINA RESULT:     -11.6      0.786      7.523
REMARK SMILES CC1(C)CCN(C(=O)[C@@H]([NH3+])CC(=O)NCCCCNC(=O)c2ccc(-c3c4nc(c(-c5c(F)c(F)c(F)c(F)c5F)c5ccc([nH]5)c(-c5c(F)c(F)c(F)c(F)c5F)c5nc(c(-c6c(F)c(F)c(F)c(F)c6F)c6ccc3[nH]6)C=C5)C=C4)cc2)C1
REMARK SMILES IDX 16 1 15 2 14 3 12 4 13 5 11 7 9 8 7 9 8 10 6 11 1 12 2 13
REMARK SMILES IDX 3 14 4 15 85 16 5 17 10 18 17 22 18 23 19 24 20 25 21 27
REMARK SMILES IDX 22 28 23 29 84 30 24 31 83 32 25 33 26 34 27 35 77 36 28 37
REMARK SMILES IDX 82 38 76 39 78 40 29 41 81 42 75 43 74 44 30 46 62 47 42 48
REMARK SMILES IDX 61 49 43 50 46 51 60 52 79 53 44 54 45 55 59 57 80 58 47 59
REMARK SMILES IDX 31 60 32 61 40 62 33 63 34 64 38 65 41 66 35 67 36 68 39 69
REMARK SMILES IDX 37 70 63 71 64 72 72 73 65 74 66 75 70 76 73 77 67 78 68 79
REMARK SMILES IDX 71 80 69 81 48 82 49 83 57 84 50 85 51 86 55 87 58 88 52 89
REMARK SMILES IDX 53 90 56 91 54 92
REMARK H PARENT 14 6 10 19 10 20 10 21 19 26 78 45 46 56
REMARK Flexibility Score: inf
ROOT
ATOM      1  C   UNL A   1      32.404  30.498  26.615  1.00  0.00     0.023 C 
ENDROOT
BRANCH   1   2
ATOM      2  C   UNL A   1      31.550  29.704  25.627  1.00  0.00     0.116 C 
BRANCH   2   3
ATOM      3  N   UNL A   1      32.303  28.588  25.093  1.00  0.00    -0.356 N 
ATOM      4  C   UNL A   1      31.965  27.270  25.020  1.00  0.00     0.226 C 
ATOM      5  O   UNL A   1      32.824  26.463  24.667  1.00  0.00    -0.275 OA
ATOM      6  H   UNL A   1      33.190  28.814  24.730  1.00  0.00     0.163 HD
BRANCH   4   7
ATOM      7  C   UNL A   1      30.554  26.821  25.334  1.00  0.00     0.175 C 
BRANCH   7   8
ATOM      8  C   UNL A   1      29.755  26.498  24.069  1.00  0.00     0.280 C 
BRANCH   8   9
ATOM      9  C   UNL A   1      29.881  27.555  22.942  1.00  0.00     0.281 C 
ATOM     10  O   UNL A   1      30.653  27.333  22.001  1.00  0.00    -0.268 OA
BRANCH   9  11
ATOM     11  N   UNL A   1      29.152  28.725  22.979  1.00  0.00    -0.337 N 
ATOM     12  C   UNL A   1      28.027  30.775  20.878  1.00  0.00     0.013 C 
ATOM     13  C   UNL A   1      28.344  30.880  22.378  1.00  0.00    -0.016 C 
ATOM     14  C   UNL A   1      28.461  32.350  22.777  1.00  0.00     0.013 C 
ATOM     15  C   UNL A   1      27.285  30.146  23.215  1.00  0.00     0.030 C 
ATOM     16  C   UNL A   1      29.617  30.087  22.727  1.00  0.00     0.126 C 
ATOM     17  C   UNL A   1      27.700  28.688  23.095  1.00  0.00     0.120 C 
ENDBRANCH   9  11
ENDBRANCH   8   9
BRANCH   8  18
ATOM     18  N   UNL A   1      30.120  25.171  23.515  1.00  0.00    -0.347 N 
ATOM     19  H   UNL A   1      31.133  25.114  23.410  1.00  0.00     0.345 HD
ATOM     20  H   UNL A   1      29.677  25.050  22.605  1.00  0.00     0.345 HD
ATOM     21  H   UNL A   1      29.801  24.438  24.149  1.00  0.00     0.345 HD
ENDBRANCH   8  18
ENDBRANCH   7   8
ENDBRANCH   4   7
ENDBRANCH   2   3
ENDBRANCH   1   2
BRANCH   1  22
ATOM     22  C   UNL A   1      31.916  31.913  26.896  1.00  0.00     0.023 C 
BRANCH  22  23
ATOM     23  C   UNL A   1      32.999  32.874  27.372  1.00  0.00     0.116 C 
BRANCH  23  24
ATOM     24  N   UNL A   1      32.526  34.213  27.703  1.00  0.00    -0.352 N 
ATOM     25  C   UNL A   1      33.038  35.088  28.636  1.00  0.00     0.251 C 
ATOM     26  H   UNL A   1      31.743  34.531  27.196  1.00  0.00     0.163 HD
ATOM     27  O   UNL A   1      32.520  36.179  28.831  1.00  0.00    -0.269 OA
BRANCH  25  28
ATOM     28  C   UNL A   1      34.191  34.651  29.450  1.00  0.00     0.039 A 
ATOM     29  C   UNL A   1      33.950  34.053  30.689  1.00  0.00     0.014 A 
ATOM     30  C   UNL A   1      35.486  34.717  28.933  1.00  0.00     0.014 A 
ATOM     31  C   UNL A   1      34.999  33.425  31.362  1.00  0.00     0.010 A 
ATOM     32  C   UNL A   1      36.508  34.016  29.559  1.00  0.00     0.010 A 
ATOM     33  C   UNL A   1      36.272  33.352  30.773  1.00  0.00    -0.014 A 
BRANCH  33  34
ATOM     34  C   UNL A   1      37.366  32.562  31.393  1.00  0.00     0.031 A 
ATOM     35  C   UNL A   1      37.852  32.906  32.771  1.00  0.00     0.074 A 
ATOM     36  C   UNL A   1      37.983  31.601  30.678  1.00  0.00     0.049 A 
ATOM     37  N   UNL A   1      38.851  32.397  33.448  1.00  0.00    -0.248 NA
ATOM     38  C   UNL A   1      37.149  33.994  33.466  1.00  0.00     0.031 C 
ATOM     39  C   UNL A   1      37.656  31.225  29.301  1.00  0.00     0.029 A 
ATOM     40  N   UNL A   1      39.026  30.772  31.008  1.00  0.00    -0.354 N 
ATOM     41  C   UNL A   1      38.910  33.120  34.631  1.00  0.00     0.074 A 
ATOM     42  C   UNL A   1      37.883  34.137  34.558  1.00  0.00     0.031 C 
ATOM     43  C   UNL A   1      38.461  30.223  28.914  1.00  0.00     0.029 A 
ATOM     44  C   UNL A   1      39.381  29.906  30.002  1.00  0.00     0.049 A 
ATOM     45  H   UNL A   1      39.477  30.795  31.882  1.00  0.00     0.167 HD
ATOM     46  C   UNL A   1      39.729  32.936  35.693  1.00  0.00     0.037 A 
ATOM     47  C   UNL A   1      40.339  28.960  29.965  1.00  0.00     0.037 A 
ATOM     48  C   UNL A   1      40.716  31.894  35.783  1.00  0.00     0.049 A 
ATOM     49  C   UNL A   1      41.202  28.741  31.177  1.00  0.00     0.074 A 
ATOM     50  C   UNL A   1      41.537  31.571  36.848  1.00  0.00     0.029 A 
ATOM     51  N   UNL A   1      41.011  31.001  34.763  1.00  0.00    -0.354 N 
ATOM     52  N   UNL A   1      41.196  29.380  32.321  1.00  0.00    -0.248 NA
ATOM     53  C   UNL A   1      42.198  27.664  31.095  1.00  0.00     0.031 C 
ATOM     54  C   UNL A   1      42.351  30.501  36.463  1.00  0.00     0.029 A 
ATOM     55  C   UNL A   1      42.011  30.132  35.171  1.00  0.00     0.049 A 
ATOM     56  H   UNL A   1      40.574  30.985  33.881  1.00  0.00     0.167 HD
ATOM     57  C   UNL A   1      42.167  28.770  33.103  1.00  0.00     0.074 A 
ATOM     58  C   UNL A   1      42.733  27.700  32.307  1.00  0.00     0.031 C 
ATOM     59  C   UNL A   1      42.556  29.070  34.366  1.00  0.00     0.037 A 
BRANCH  46  60
ATOM     60  C   UNL A   1      39.576  33.879  36.850  1.00  0.00     0.064 A 
ATOM     61  C   UNL A   1      40.219  35.125  36.870  1.00  0.00     0.173 A 
ATOM     62  C   UNL A   1      38.768  33.538  37.944  1.00  0.00     0.173 A 
ATOM     63  F   UNL A   1      41.016  35.491  35.854  1.00  0.00    -0.203 F 
ATOM     64  C   UNL A   1      40.087  35.982  37.960  1.00  0.00     0.198 A 
ATOM     65  C   UNL A   1      38.614  34.410  39.019  1.00  0.00     0.198 A 
ATOM     66  F   UNL A   1      38.129  32.359  37.973  1.00  0.00    -0.203 F 
ATOM     67  F   UNL A   1      40.756  37.143  37.982  1.00  0.00    -0.200 F 
ATOM     68  C   UNL A   1      39.281  35.626  39.031  1.00  0.00     0.200 A 
ATOM     69  F   UNL A   1      37.828  34.069  40.050  1.00  0.00    -0.200 F 
ATOM     70  F   UNL A   1      39.154  36.452  40.078  1.00  0.00    -0.200 F 
ENDBRANCH  46  60
BRANCH  47  71
ATOM     71  C   UNL A   1      40.502  28.119  28.752  1.00  0.00     0.064 A 
ATOM     72  C   UNL A   1      39.835  26.891  28.638  1.00  0.00     0.173 A 
ATOM     73  C   UNL A   1      41.317  28.522  27.686  1.00  0.00     0.173 A 
ATOM     74  F   UNL A   1      39.061  26.456  29.643  1.00  0.00    -0.203 F 
ATOM     75  C   UNL A   1      39.992  26.090  27.510  1.00  0.00     0.198 A 
ATOM     76  C   UNL A   1      41.455  27.730  26.547  1.00  0.00     0.198 A 
ATOM     77  F   UNL A   1      41.972  29.691  27.745  1.00  0.00    -0.203 F 
ATOM     78  F   UNL A   1      39.372  24.903  27.444  1.00  0.00    -0.200 F 
ATOM     79  C   UNL A   1      40.797  26.511  26.463  1.00  0.00     0.200 A 
ATOM     80  F   UNL A   1      42.225  28.145  25.533  1.00  0.00    -0.200 F 
ATOM     81  F   UNL A   1      40.943  25.742  25.376  1.00  0.00    -0.200 F 
ENDBRANCH  47  71
BRANCH  59  82
ATOM     82  C   UNL A   1      43.627  28.215  34.974  1.00  0.00     0.064 A 
ATOM     83  C   UNL A   1      44.983  28.559  34.878  1.00  0.00     0.173 A 
ATOM     84  C   UNL A   1      43.288  27.059  35.694  1.00  0.00     0.173 A 
ATOM     85  F   UNL A   1      45.356  29.646  34.186  1.00  0.00    -0.203 F 
ATOM     86  C   UNL A   1      45.964  27.764  35.463  1.00  0.00     0.198 A 
ATOM     87  C   UNL A   1      44.270  26.281  36.299  1.00  0.00     0.198 A 
ATOM     88  F   UNL A   1      42.004  26.692  35.818  1.00  0.00    -0.203 F 
ATOM     89  F   UNL A   1      47.257  28.088  35.325  1.00  0.00    -0.200 F 
ATOM     90  C   UNL A   1      45.607  26.631  36.180  1.00  0.00     0.200 A 
ATOM     91  F   UNL A   1      43.923  25.193  36.999  1.00  0.00    -0.200 F 
ATOM     92  F   UNL A   1      46.553  25.870  36.748  1.00  0.00    -0.200 F 
ENDBRANCH  59  82
ENDBRANCH  33  34
ENDBRANCH  25  28
ENDBRANCH  23  24
ENDBRANCH  22  23
ENDBRANCH   1  22
TORSDOF 15
ENDMDL
MODEL 3
REMARK VINA RESULT:     -11.6      0.596      2.094
REMARK SMILES CC1(C)CCN(C(=O)[C@@H]([NH3+])CC(=O)NCCCCNC(=O)c2ccc(-c3c4nc(c(-c5c(F)c(F)c(F)c(F)c5F)c5ccc([nH]5)c(-c5c(F)c(F)c(F)c(F)c5F)c5nc(c(-c6c(F)c(F)c(F)c(F)c6F)c6ccc3[nH]6)C=C5)C=C4)cc2)C1
REMARK SMILES IDX 16 1 15 2 14 3 12 4 13 5 11 7 9 8 7 9 8 10 6 11 1 12 2 13
REMARK SMILES IDX 3 14 4 15 85 16 5 17 10 18 17 22 18 23 19 24 20 25 21 27
REMARK SMILES IDX 22 28 23 29 84 30 24 31 83 32 25 33 26 34 27 35 77 36 28 37
REMARK SMILES IDX 82 38 76 39 78 40 29 41 81 42 75 43 74 44 30 46 62 47 42 48
REMARK SMILES IDX 61 49 43 50 46 51 60 52 79 53 44 54 45 55 59 57 80 58 47 59
REMARK SMILES IDX 31 60 32 61 40 62 33 63 34 64 38 65 41 66 35 67 36 68 39 69
REMARK SMILES IDX 37 70 63 71 64 72 72 73 65 74 66 75 70 76 73 77 67 78 68 79
REMARK SMILES IDX 71 80 69 81 48 82 49 83 57 84 50 85 51 86 55 87 58 88 52 89
REMARK SMILES IDX 53 90 56 91 54 92
REMARK H PARENT 14 6 10 19 10 20 10 21 19 26 78 45 46 56
REMARK Flexibility Score: inf
ROOT
ATOM      1  C   UNL A   1      32.505  29.841  27.143  1.00  0.00     0.023 C 
ENDROOT
BRANCH   1   2
ATOM      2  C   UNL A   1      33.790  29.390  26.449  1.00  0.00     0.116 C 
BRANCH   2   3
ATOM      3  N   UNL A   1      33.928  27.950  26.533  1.00  0.00    -0.356 N 
ATOM      4  C   UNL A   1      33.435  26.983  25.709  1.00  0.00     0.226 C 
ATOM      5  O   UNL A   1      33.543  25.807  26.056  1.00  0.00    -0.275 OA
ATOM      6  H   UNL A   1      34.456  27.621  27.296  1.00  0.00     0.163 HD
BRANCH   4   7
ATOM      7  C   UNL A   1      32.801  27.351  24.385  1.00  0.00     0.175 C 
BRANCH   7   8
ATOM      8  C   UNL A   1      31.281  27.175  24.404  1.00  0.00     0.280 C 
BRANCH   8   9
ATOM      9  C   UNL A   1      30.561  27.658  23.119  1.00  0.00     0.281 C 
ATOM     10  O   UNL A   1      30.969  27.258  22.022  1.00  0.00    -0.268 OA
BRANCH   9  11
ATOM     11  N   UNL A   1      29.488  28.521  23.187  1.00  0.00    -0.337 N 
ATOM     12  C   UNL A   1      28.057  30.534  21.241  1.00  0.00     0.013 C 
ATOM     13  C   UNL A   1      28.104  30.411  22.773  1.00  0.00    -0.016 C 
ATOM     14  C   UNL A   1      27.669  31.731  23.408  1.00  0.00     0.013 C 
ATOM     15  C   UNL A   1      27.242  29.235  23.256  1.00  0.00     0.030 C 
ATOM     16  C   UNL A   1      29.505  29.981  23.246  1.00  0.00     0.126 C 
ATOM     17  C   UNL A   1      28.130  28.028  22.999  1.00  0.00     0.120 C 
ENDBRANCH   9  11
ENDBRANCH   8   9
BRANCH   8  18
ATOM     18  N   UNL A   1      30.896  25.765  24.659  1.00  0.00    -0.347 N 
ATOM     19  H   UNL A   1      29.991  25.739  25.129  1.00  0.00     0.345 HD
ATOM     20  H   UNL A   1      31.599  25.322  25.250  1.00  0.00     0.345 HD
ATOM     21  H   UNL A   1      30.833  25.264  23.772  1.00  0.00     0.345 HD
ENDBRANCH   8  18
ENDBRANCH   7   8
ENDBRANCH   4   7
ENDBRANCH   2   3
ENDBRANCH   1   2
BRANCH   1  22
ATOM     22  C   UNL A   1      32.116  31.293  26.896  1.00  0.00     0.023 C 
BRANCH  22  23
ATOM     23  C   UNL A   1      33.110  32.316  27.432  1.00  0.00     0.116 C 
BRANCH  23  24
ATOM     24  N   UNL A   1      32.566  33.655  27.623  1.00  0.00    -0.352 N 
ATOM     25  C   UNL A   1      33.022  34.644  28.468  1.00  0.00     0.251 C 
ATOM     26  H   UNL A   1      31.775  33.880  27.082  1.00  0.00     0.163 HD
ATOM     27  O   UNL A   1      32.448  35.721  28.549  1.00  0.00    -0.269 OA
BRANCH  25  28
ATOM     28  C   UNL A   1      34.185  34.350  29.330  1.00  0.00     0.039 A 
ATOM     29  C   UNL A   1      33.965  33.758  30.576  1.00  0.00     0.014 A 
ATOM     30  C   UNL A   1      35.483  34.541  28.853  1.00  0.00     0.014 A 
ATOM     31  C   UNL A   1      35.051  33.260  31.299  1.00  0.00     0.010 A 
ATOM     32  C   UNL A   1      36.551  33.966  29.531  1.00  0.00     0.010 A 
ATOM     33  C   UNL A   1      36.344  33.308  30.753  1.00  0.00    -0.014 A 
BRANCH  33  34
ATOM     34  C   UNL A   1      37.492  32.654  31.429  1.00  0.00     0.031 A 
ATOM     35  C   UNL A   1      38.198  31.505  30.768  1.00  0.00     0.074 A 
ATOM     36  C   UNL A   1      37.836  33.032  32.676  1.00  0.00     0.049 A 
ATOM     37  N   UNL A   1      39.159  30.746  31.231  1.00  0.00    -0.248 NA
ATOM     38  C   UNL A   1      37.733  31.131  29.424  1.00  0.00     0.031 C 
ATOM     39  C   UNL A   1      37.179  34.082  33.456  1.00  0.00     0.029 A 
ATOM     40  N   UNL A   1      38.819  32.565  33.512  1.00  0.00    -0.354 N 
ATOM     41  C   UNL A   1      39.394  29.795  30.248  1.00  0.00     0.074 A 
ATOM     42  C   UNL A   1      38.438  30.036  29.188  1.00  0.00     0.031 C 
ATOM     43  C   UNL A   1      37.794  34.198  34.644  1.00  0.00     0.029 A 
ATOM     44  C   UNL A   1      38.867  33.212  34.723  1.00  0.00     0.049 A 
ATOM     45  H   UNL A   1      39.433  31.835  33.268  1.00  0.00     0.167 HD
ATOM     46  C   UNL A   1      40.336  28.824  30.220  1.00  0.00     0.037 A 
ATOM     47  C   UNL A   1      39.687  33.032  35.776  1.00  0.00     0.037 A 
ATOM     48  C   UNL A   1      41.314  28.616  31.254  1.00  0.00     0.049 A 
ATOM     49  C   UNL A   1      40.759  31.981  35.699  1.00  0.00     0.074 A 
ATOM     50  C   UNL A   1      42.364  27.715  31.282  1.00  0.00     0.029 A 
ATOM     51  N   UNL A   1      41.365  29.328  32.443  1.00  0.00    -0.354 N 
ATOM     52  N   UNL A   1      41.022  31.138  34.731  1.00  0.00    -0.248 NA
ATOM     53  C   UNL A   1      41.655  31.862  36.859  1.00  0.00     0.031 C 
ATOM     54  C   UNL A   1      43.031  27.860  32.503  1.00  0.00     0.029 A 
ATOM     55  C   UNL A   1      42.421  28.878  33.219  1.00  0.00     0.049 A 
ATOM     56  H   UNL A   1      40.743  30.047  32.699  1.00  0.00     0.167 HD
ATOM     57  C   UNL A   1      42.123  30.406  35.152  1.00  0.00     0.074 A 
ATOM     58  C   UNL A   1      42.489  30.914  36.458  1.00  0.00     0.031 C 
ATOM     59  C   UNL A   1      42.772  29.401  34.514  1.00  0.00     0.037 A 
BRANCH  46  60
ATOM     60  C   UNL A   1      40.358  27.921  29.022  1.00  0.00     0.064 A 
ATOM     61  C   UNL A   1      39.627  26.725  28.991  1.00  0.00     0.173 A 
ATOM     62  C   UNL A   1      41.108  28.264  27.888  1.00  0.00     0.173 A 
ATOM     63  F   UNL A   1      38.906  26.345  30.058  1.00  0.00    -0.203 F 
ATOM     64  C   UNL A   1      39.673  25.885  27.881  1.00  0.00     0.198 A 
ATOM     65  C   UNL A   1      41.129  27.436  26.767  1.00  0.00     0.198 A 
ATOM     66  F   UNL A   1      41.822  29.398  27.865  1.00  0.00    -0.203 F 
ATOM     67  F   UNL A   1      39.011  24.720  27.897  1.00  0.00    -0.200 F 
ATOM     68  C   UNL A   1      40.420  26.244  26.769  1.00  0.00     0.200 A 
ATOM     69  F   UNL A   1      41.843  27.787  25.689  1.00  0.00    -0.200 F 
ATOM     70  F   UNL A   1      40.463  25.435  25.701  1.00  0.00    -0.200 F 
ENDBRANCH  46  60
BRANCH  47  71
ATOM     71  C   UNL A   1      39.554  33.898  36.974  1.00  0.00     0.064 A 
ATOM     72  C   UNL A   1      40.172  35.156  37.020  1.00  0.00     0.173 A 
ATOM     73  C   UNL A   1      38.808  33.496  38.090  1.00  0.00     0.173 A 
ATOM     74  F   UNL A   1      40.914  35.574  35.984  1.00  0.00    -0.203 F 
ATOM     75  C   UNL A   1      40.064  35.970  38.145  1.00  0.00     0.198 A 
ATOM     76  C   UNL A   1      38.680  34.321  39.205  1.00  0.00     0.198 A 
ATOM     77  F   UNL A   1      38.192  32.303  38.092  1.00  0.00    -0.203 F 
ATOM     78  F   UNL A   1      40.697  37.151  38.177  1.00  0.00    -0.200 F 
ATOM     79  C   UNL A   1      39.313  35.556  39.235  1.00  0.00     0.200 A 
ATOM     80  F   UNL A   1      37.946  33.922  40.252  1.00  0.00    -0.200 F 
ATOM     81  F   UNL A   1      39.206  36.341  40.314  1.00  0.00    -0.200 F 
ENDBRANCH  47  71
BRANCH  59  82
ATOM     82  C   UNL A   1      43.959  28.803  35.208  1.00  0.00     0.064 A 
ATOM     83  C   UNL A   1      45.254  29.299  35.003  1.00  0.00     0.173 A 
ATOM     84  C   UNL A   1      43.791  27.748  36.117  1.00  0.00     0.173 A 
ATOM     85  F   UNL A   1      45.465  30.296  34.131  1.00  0.00    -0.203 F 
ATOM     86  C   UNL A   1      46.345  28.745  35.669  1.00  0.00     0.198 A 
ATOM     87  C   UNL A   1      44.881  27.214  36.800  1.00  0.00     0.198 A 
ATOM     88  F   UNL A   1      42.571  27.243  36.351  1.00  0.00    -0.203 F 
ATOM     89  F   UNL A   1      47.579  29.207  35.428  1.00  0.00    -0.200 F 
ATOM     90  C   UNL A   1      46.156  27.709  36.572  1.00  0.00     0.200 A 
ATOM     91  F   UNL A   1      44.696  26.220  37.679  1.00  0.00    -0.200 F 
ATOM     92  F   UNL A   1      47.206  27.181  37.216  1.00  0.00    -0.200 F 
ENDBRANCH  59  82
ENDBRANCH  33  34
ENDBRANCH  25  28
ENDBRANCH  23  24
ENDBRANCH  22  23
ENDBRANCH   1  22
TORSDOF 15
ENDMDL
