MODEL 1
REMARK VINA RESULT:     -13.4      0.000      0.000
REMARK SMILES O=C(CSc1nnc2sc3ccccc3n12)N[C@H](Cc1c[nH]c2ccccc12)C(=O)NCCCCNC(=O)c1ccc(-c2c3nc(c(-c4c(F)c(F)c(F)c(F)c4F)c4ccc([nH]4)c(-c4c(F)c(F)c(F)c(F)c4F)c4nc(c(-c5c(F)c(F)c(F)c(F)c5F)c5ccc2[nH]5)C=C4)C=C3)cc1
REMARK SMILES IDX 32 1 31 2 29 3 30 4 18 6 17 7 1 8 2 9 3 11 4 12 5 13 6 14
REMARK SMILES IDX 16 15 7 16 8 17 15 18 9 19 10 20 14 21 11 22 13 23 12 24
REMARK SMILES IDX 19 25 20 26 21 27 28 28 22 29 23 30 27 31 24 33 26 34 25 35
REMARK SMILES IDX 33 36 34 37 35 38 36 39 37 40 38 42 39 43 40 44 101 45 41 46
REMARK SMILES IDX 100 47 42 48 43 49 44 50 94 51 45 52 99 53 93 54 95 55 46 56
REMARK SMILES IDX 98 57 92 58 91 59 47 61 79 62 59 63 78 64 60 65 63 66 77 67
REMARK SMILES IDX 96 68 61 69 62 70 76 72 97 73 64 74 48 75 49 76 57 77 50 78
REMARK SMILES IDX 51 79 55 80 58 81 52 82 53 83 56 84 54 85 80 86 81 87 89 88
REMARK SMILES IDX 82 89 83 90 87 91 90 92 84 93 85 94 88 95 86 96 65 97 66 98
REMARK SMILES IDX 74 99 67 100 68 101 72 102 75 103 69 104 70 105 73 106
REMARK SMILES IDX 71 107
REMARK H PARENT 31 5 17 10 22 32 36 41 95 60 63 71
REMARK Flexibility Score: inf
ROOT
ATOM      1  C   UNL A   1      31.946  26.442  26.257  1.00  0.00     0.116 C 
ENDROOT
BRANCH   1   2
ATOM      2  N   UNL A   1      31.172  25.373  26.849  1.00  0.00    -0.354 N 
ATOM      3  C   UNL A   1      30.908  24.115  26.393  1.00  0.00     0.242 C 
ATOM      4  O   UNL A   1      30.379  23.326  27.187  1.00  0.00    -0.273 OA
ATOM      5  H   UNL A   1      30.769  25.589  27.721  1.00  0.00     0.163 HD
BRANCH   3   6
ATOM      6  C   UNL A   1      31.420  23.596  25.045  1.00  0.00     0.175 C 
BRANCH   6   7
ATOM      7  N   UNL A   1      32.884  23.823  25.161  1.00  0.00    -0.343 N 
ATOM      8  O   UNL A   1      33.577  21.956  26.270  1.00  0.00    -0.274 OA
ATOM      9  C   UNL A   1      33.819  22.870  25.482  1.00  0.00     0.231 C 
ATOM     10  H   UNL A   1      33.213  24.736  24.993  1.00  0.00     0.164 HD
BRANCH   9  11
ATOM     11  C   UNL A   1      35.176  22.921  24.784  1.00  0.00     0.178 C 
BRANCH  11  12
ATOM     12  S   UNL A   1      36.533  23.617  25.726  1.00  0.00    -0.076 SA
BRANCH  12  13
ATOM     13  C   UNL A   1      37.795  22.436  25.674  1.00  0.00     0.197 A 
ATOM     14  N   UNL A   1      37.774  21.240  25.111  1.00  0.00    -0.122 NA
ATOM     15  N   UNL A   1      38.980  22.600  26.332  1.00  0.00    -0.260 N 
ATOM     16  N   UNL A   1      38.975  20.590  25.433  1.00  0.00    -0.118 NA
ATOM     17  C   UNL A   1      39.657  21.432  26.166  1.00  0.00     0.217 A 
ATOM     18  C   UNL A   1      39.618  23.575  27.095  1.00  0.00     0.068 A 
ATOM     19  S   UNL A   1      41.183  21.411  26.990  1.00  0.00    -0.094 S 
ATOM     20  C   UNL A   1      40.853  23.090  27.552  1.00  0.00     0.055 A 
ATOM     21  C   UNL A   1      39.165  24.849  27.392  1.00  0.00     0.028 A 
ATOM     22  C   UNL A   1      41.656  23.894  28.346  1.00  0.00     0.021 A 
ATOM     23  C   UNL A   1      39.976  25.657  28.185  1.00  0.00     0.002 A 
ATOM     24  C   UNL A   1      41.208  25.185  28.662  1.00  0.00     0.002 A 
ENDBRANCH  12  13
ENDBRANCH  11  12
ENDBRANCH   9  11
ENDBRANCH   6   7
BRANCH   6  25
ATOM     25  C   UNL A   1      30.693  24.023  23.763  1.00  0.00     0.072 C 
BRANCH  25  26
ATOM     26  C   UNL A   1      30.999  25.385  23.149  1.00  0.00    -0.020 A 
ATOM     27  C   UNL A   1      32.237  25.666  22.585  1.00  0.00     0.087 A 
ATOM     28  C   UNL A   1      30.268  26.640  23.118  1.00  0.00     0.003 A 
ATOM     29  N   UNL A   1      32.287  26.982  22.230  1.00  0.00    -0.361 N 
ATOM     30  C   UNL A   1      31.108  27.604  22.544  1.00  0.00     0.046 A 
ATOM     31  C   UNL A   1      29.000  27.105  23.536  1.00  0.00     0.010 A 
ATOM     32  H   UNL A   1      33.061  27.423  21.809  1.00  0.00     0.166 HD
ATOM     33  C   UNL A   1      30.743  28.951  22.374  1.00  0.00     0.026 A 
ATOM     34  C   UNL A   1      28.616  28.443  23.378  1.00  0.00     0.001 A 
ATOM     35  C   UNL A   1      29.480  29.356  22.801  1.00  0.00     0.002 A 
ENDBRANCH  25  26
ENDBRANCH   6  25
ENDBRANCH   3   6
ENDBRANCH   1   2
BRANCH   1  36
ATOM     36  C   UNL A   1      31.321  27.824  26.361  1.00  0.00     0.023 C 
BRANCH  36  37
ATOM     37  C   UNL A   1      32.282  28.997  26.197  1.00  0.00     0.023 C 
BRANCH  37  38
ATOM     38  C   UNL A   1      33.351  29.130  27.285  1.00  0.00     0.116 C 
BRANCH  38  39
ATOM     39  N   UNL A   1      33.602  30.487  27.737  1.00  0.00    -0.352 N 
ATOM     40  C   UNL A   1      34.715  31.249  27.936  1.00  0.00     0.251 C 
ATOM     41  H   UNL A   1      32.773  30.972  27.950  1.00  0.00     0.163 HD
ATOM     42  O   UNL A   1      34.523  32.459  28.115  1.00  0.00    -0.269 OA
BRANCH  40  43
ATOM     43  C   UNL A   1      36.102  30.732  28.027  1.00  0.00     0.039 A 
ATOM     44  C   UNL A   1      36.529  29.506  27.529  1.00  0.00     0.014 A 
ATOM     45  C   UNL A   1      37.013  31.520  28.759  1.00  0.00     0.014 A 
ATOM     46  C   UNL A   1      37.784  29.019  27.859  1.00  0.00     0.010 A 
ATOM     47  C   UNL A   1      38.285  31.054  29.067  1.00  0.00     0.010 A 
ATOM     48  C   UNL A   1      38.649  29.778  28.658  1.00  0.00    -0.014 A 
BRANCH  48  49
ATOM     49  C   UNL A   1      39.982  29.233  28.890  1.00  0.00     0.031 A 
ATOM     50  C   UNL A   1      40.237  28.911  30.318  1.00  0.00     0.074 A 
ATOM     51  C   UNL A   1      40.894  28.993  27.927  1.00  0.00     0.049 A 
ATOM     52  N   UNL A   1      41.069  29.496  31.115  1.00  0.00    -0.248 NA
ATOM     53  C   UNL A   1      39.357  27.936  30.981  1.00  0.00     0.031 C 
ATOM     54  C   UNL A   1      40.695  29.021  26.477  1.00  0.00     0.029 A 
ATOM     55  N   UNL A   1      42.195  28.592  28.052  1.00  0.00    -0.354 N 
ATOM     56  C   UNL A   1      40.949  28.841  32.338  1.00  0.00     0.074 A 
ATOM     57  C   UNL A   1      39.787  28.000  32.241  1.00  0.00     0.031 C 
ATOM     58  C   UNL A   1      41.754  28.440  25.869  1.00  0.00     0.029 A 
ATOM     59  C   UNL A   1      42.763  28.134  26.869  1.00  0.00     0.049 A 
ATOM     60  H   UNL A   1      42.686  28.626  28.904  1.00  0.00     0.167 HD
ATOM     61  C   UNL A   1      41.980  28.850  33.225  1.00  0.00     0.037 A 
ATOM     62  C   UNL A   1      43.960  27.509  26.736  1.00  0.00     0.037 A 
ATOM     63  C   UNL A   1      42.903  29.914  32.927  1.00  0.00     0.049 A 
ATOM     64  C   UNL A   1      44.784  27.881  27.908  1.00  0.00     0.074 A 
ATOM     65  C   UNL A   1      42.903  31.289  32.999  1.00  0.00     0.029 A 
ATOM     66  N   UNL A   1      43.928  29.550  32.097  1.00  0.00    -0.354 N 
ATOM     67  N   UNL A   1      45.254  29.078  28.115  1.00  0.00    -0.248 NA
ATOM     68  C   UNL A   1      44.834  26.981  29.053  1.00  0.00     0.031 C 
ATOM     69  C   UNL A   1      43.790  31.731  31.971  1.00  0.00     0.029 A 
ATOM     70  C   UNL A   1      44.330  30.611  31.337  1.00  0.00     0.049 A 
ATOM     71  H   UNL A   1      44.321  28.650  32.054  1.00  0.00     0.167 HD
ATOM     72  C   UNL A   1      45.241  29.216  29.489  1.00  0.00     0.074 A 
ATOM     73  C   UNL A   1      45.159  27.856  30.008  1.00  0.00     0.031 C 
ATOM     74  C   UNL A   1      44.978  30.427  30.058  1.00  0.00     0.037 A 
BRANCH  61  75
ATOM     75  C   UNL A   1      42.431  27.625  33.998  1.00  0.00     0.064 A 
ATOM     76  C   UNL A   1      42.384  27.653  35.409  1.00  0.00     0.173 A 
ATOM     77  C   UNL A   1      43.219  26.594  33.440  1.00  0.00     0.173 A 
ATOM     78  F   UNL A   1      41.696  28.608  36.051  1.00  0.00    -0.203 F 
ATOM     79  C   UNL A   1      43.130  26.766  36.192  1.00  0.00     0.198 A 
ATOM     80  C   UNL A   1      43.919  25.679  34.225  1.00  0.00     0.198 A 
ATOM     81  F   UNL A   1      43.445  26.497  32.126  1.00  0.00    -0.203 F 
ATOM     82  F   UNL A   1      43.157  26.914  37.523  1.00  0.00    -0.200 F 
ATOM     83  C   UNL A   1      43.901  25.783  35.598  1.00  0.00     0.200 A 
ATOM     84  F   UNL A   1      44.686  24.755  33.630  1.00  0.00    -0.200 F 
ATOM     85  F   UNL A   1      44.665  24.973  36.342  1.00  0.00    -0.200 F 
ENDBRANCH  61  75
BRANCH  62  86
ATOM     86  C   UNL A   1      44.356  26.409  25.823  1.00  0.00     0.064 A 
ATOM     87  C   UNL A   1      45.713  26.150  25.551  1.00  0.00     0.173 A 
ATOM     88  C   UNL A   1      43.445  25.401  25.453  1.00  0.00     0.173 A 
ATOM     89  F   UNL A   1      46.653  27.040  25.898  1.00  0.00    -0.203 F 
ATOM     90  C   UNL A   1      46.135  24.935  24.999  1.00  0.00     0.198 A 
ATOM     91  C   UNL A   1      43.868  24.192  24.895  1.00  0.00     0.198 A 
ATOM     92  F   UNL A   1      42.138  25.523  25.720  1.00  0.00    -0.203 F 
ATOM     93  F   UNL A   1      47.444  24.694  24.834  1.00  0.00    -0.200 F 
ATOM     94  C   UNL A   1      45.213  23.951  24.688  1.00  0.00     0.200 A 
ATOM     95  F   UNL A   1      42.969  23.235  24.628  1.00  0.00    -0.200 F 
ATOM     96  F   UNL A   1      45.622  22.759  24.231  1.00  0.00    -0.200 F 
ENDBRANCH  62  86
BRANCH  74  97
ATOM     97  C   UNL A   1      45.206  31.649  29.221  1.00  0.00     0.064 A 
ATOM     98  C   UNL A   1      44.231  32.254  28.412  1.00  0.00     0.173 A 
ATOM     99  C   UNL A   1      46.444  32.293  29.343  1.00  0.00     0.173 A 
ATOM    100  F   UNL A   1      42.999  31.739  28.306  1.00  0.00    -0.203 F 
ATOM    101  C   UNL A   1      44.503  33.442  27.733  1.00  0.00     0.198 A 
ATOM    102  C   UNL A   1      46.698  33.497  28.697  1.00  0.00     0.198 A 
ATOM    103  F   UNL A   1      47.396  31.774  30.135  1.00  0.00    -0.203 F 
ATOM    104  F   UNL A   1      43.565  34.001  26.955  1.00  0.00    -0.200 F 
ATOM    105  C   UNL A   1      45.731  34.067  27.887  1.00  0.00     0.200 A 
ATOM    106  F   UNL A   1      47.870  34.118  28.886  1.00  0.00    -0.200 F 
ATOM    107  F   UNL A   1      45.975  35.234  27.272  1.00  0.00    -0.200 F 
ENDBRANCH  74  97
ENDBRANCH  48  49
ENDBRANCH  40  43
ENDBRANCH  38  39
ENDBRANCH  37  38
ENDBRANCH  36  37
ENDBRANCH   1  36
TORSDOF 17
ENDMDL
MODEL 2
REMARK VINA RESULT:     -13.3      2.257      3.726
REMARK SMILES O=C(CSc1nnc2sc3ccccc3n12)N[C@H](Cc1c[nH]c2ccccc12)C(=O)NCCCCNC(=O)c1ccc(-c2c3nc(c(-c4c(F)c(F)c(F)c(F)c4F)c4ccc([nH]4)c(-c4c(F)c(F)c(F)c(F)c4F)c4nc(c(-c5c(F)c(F)c(F)c(F)c5F)c5ccc2[nH]5)C=C4)C=C3)cc1
REMARK SMILES IDX 32 1 31 2 29 3 30 4 18 6 17 7 1 8 2 9 3 11 4 12 5 13 6 14
REMARK SMILES IDX 16 15 7 16 8 17 15 18 9 19 10 20 14 21 11 22 13 23 12 24
REMARK SMILES IDX 19 25 20 26 21 27 28 28 22 29 23 30 27 31 24 33 26 34 25 35
REMARK SMILES IDX 33 36 34 37 35 38 36 39 37 40 38 42 39 43 40 44 101 45 41 46
REMARK SMILES IDX 100 47 42 48 43 49 44 50 94 51 45 52 99 53 93 54 95 55 46 56
REMARK SMILES IDX 98 57 92 58 91 59 47 61 79 62 59 63 78 64 60 65 63 66 77 67
REMARK SMILES IDX 96 68 61 69 62 70 76 72 97 73 64 74 48 75 49 76 57 77 50 78
REMARK SMILES IDX 51 79 55 80 58 81 52 82 53 83 56 84 54 85 80 86 81 87 89 88
REMARK SMILES IDX 82 89 83 90 87 91 90 92 84 93 85 94 88 95 86 96 65 97 66 98
REMARK SMILES IDX 74 99 67 100 68 101 72 102 75 103 69 104 70 105 73 106
REMARK SMILES IDX 71 107
REMARK H PARENT 31 5 17 10 22 32 36 41 95 60 63 71
REMARK Flexibility Score: inf
ROOT
ATOM      1  C   UNL A   1      34.316  28.966  26.799  1.00  0.00     0.116 C 
ENDROOT
BRANCH   1   2
ATOM      2  N   UNL A   1      33.253  28.578  27.700  1.00  0.00    -0.354 N 
ATOM      3  C   UNL A   1      31.938  28.308  27.453  1.00  0.00     0.242 C 
ATOM      4  O   UNL A   1      31.282  27.805  28.375  1.00  0.00    -0.273 OA
ATOM      5  H   UNL A   1      33.520  28.497  28.644  1.00  0.00     0.163 HD
BRANCH   3   6
ATOM      6  C   UNL A   1      31.319  28.404  26.054  1.00  0.00     0.175 C 
BRANCH   6   7
ATOM      7  N   UNL A   1      31.650  27.074  25.477  1.00  0.00    -0.343 N 
ATOM      8  O   UNL A   1      29.590  26.240  24.972  1.00  0.00    -0.274 OA
ATOM      9  C   UNL A   1      30.799  26.286  24.743  1.00  0.00     0.231 C 
ATOM     10  H   UNL A   1      32.559  26.729  25.634  1.00  0.00     0.164 HD
BRANCH   9  11
ATOM     11  C   UNL A   1      31.372  25.496  23.570  1.00  0.00     0.178 C 
BRANCH  11  12
ATOM     12  S   UNL A   1      31.057  23.731  23.564  1.00  0.00    -0.076 SA
BRANCH  12  13
ATOM     13  C   UNL A   1      31.424  23.184  25.163  1.00  0.00     0.197 A 
ATOM     14  N   UNL A   1      30.604  23.054  26.192  1.00  0.00    -0.122 NA
ATOM     15  N   UNL A   1      32.697  22.901  25.567  1.00  0.00    -0.260 N 
ATOM     16  N   UNL A   1      31.370  22.700  27.313  1.00  0.00    -0.118 NA
ATOM     17  C   UNL A   1      32.608  22.628  26.896  1.00  0.00     0.217 A 
ATOM     18  C   UNL A   1      33.973  22.847  25.014  1.00  0.00     0.068 A 
ATOM     19  S   UNL A   1      34.148  22.300  27.625  1.00  0.00    -0.094 S 
ATOM     20  C   UNL A   1      34.912  22.535  26.011  1.00  0.00     0.055 A 
ATOM     21  C   UNL A   1      34.335  23.054  23.693  1.00  0.00     0.028 A 
ATOM     22  C   UNL A   1      36.255  22.442  25.684  1.00  0.00     0.021 A 
ATOM     23  C   UNL A   1      35.685  22.954  23.367  1.00  0.00     0.002 A 
ATOM     24  C   UNL A   1      36.639  22.655  24.352  1.00  0.00     0.002 A 
ENDBRANCH  12  13
ENDBRANCH  11  12
ENDBRANCH   9  11
ENDBRANCH   6   7
BRANCH   6  25
ATOM     25  C   UNL A   1      31.568  29.667  25.220  1.00  0.00     0.072 C 
BRANCH  25  26
ATOM     26  C   UNL A   1      30.907  29.803  23.853  1.00  0.00    -0.020 A 
ATOM     27  C   UNL A   1      31.517  29.326  22.701  1.00  0.00     0.087 A 
ATOM     28  C   UNL A   1      29.716  30.499  23.398  1.00  0.00     0.003 A 
ATOM     29  N   UNL A   1      30.780  29.688  21.611  1.00  0.00    -0.361 N 
ATOM     30  C   UNL A   1      29.680  30.407  22.000  1.00  0.00     0.046 A 
ATOM     31  C   UNL A   1      28.664  31.235  23.989  1.00  0.00     0.010 A 
ATOM     32  H   UNL A   1      31.006  29.467  20.679  1.00  0.00     0.166 HD
ATOM     33  C   UNL A   1      28.676  30.989  21.208  1.00  0.00     0.026 A 
ATOM     34  C   UNL A   1      27.653  31.827  23.219  1.00  0.00     0.001 A 
ATOM     35  C   UNL A   1      27.660  31.703  21.841  1.00  0.00     0.002 A 
ENDBRANCH  25  26
ENDBRANCH   6  25
ENDBRANCH   3   6
ENDBRANCH   1   2
BRANCH   1  36
ATOM     36  C   UNL A   1      35.610  29.389  27.474  1.00  0.00     0.023 C 
BRANCH  36  37
ATOM     37  C   UNL A   1      35.815  30.893  27.626  1.00  0.00     0.023 C 
BRANCH  37  38
ATOM     38  C   UNL A   1      34.566  31.692  28.008  1.00  0.00     0.116 C 
BRANCH  38  39
ATOM     39  N   UNL A   1      34.440  31.996  29.423  1.00  0.00    -0.352 N 
ATOM     40  C   UNL A   1      35.274  31.944  30.500  1.00  0.00     0.251 C 
ATOM     41  H   UNL A   1      33.541  32.315  29.660  1.00  0.00     0.163 HD
ATOM     42  O   UNL A   1      34.873  32.507  31.527  1.00  0.00    -0.269 OA
BRANCH  40  43
ATOM     43  C   UNL A   1      36.563  31.214  30.551  1.00  0.00     0.039 A 
ATOM     44  C   UNL A   1      37.803  31.763  30.240  1.00  0.00     0.014 A 
ATOM     45  C   UNL A   1      36.489  29.838  30.849  1.00  0.00     0.014 A 
ATOM     46  C   UNL A   1      38.912  30.944  30.102  1.00  0.00     0.010 A 
ATOM     47  C   UNL A   1      37.604  29.015  30.746  1.00  0.00     0.010 A 
ATOM     48  C   UNL A   1      38.805  29.565  30.320  1.00  0.00    -0.014 A 
BRANCH  48  49
ATOM     49  C   UNL A   1      40.035  28.786  30.238  1.00  0.00     0.031 A 
ATOM     50  C   UNL A   1      40.717  28.635  31.550  1.00  0.00     0.074 A 
ATOM     51  C   UNL A   1      40.511  28.214  29.114  1.00  0.00     0.049 A 
ATOM     52  N   UNL A   1      41.851  29.139  31.906  1.00  0.00    -0.248 NA
ATOM     53  C   UNL A   1      39.980  27.983  32.645  1.00  0.00     0.031 C 
ATOM     54  C   UNL A   1      39.830  28.066  27.827  1.00  0.00     0.029 A 
ATOM     55  N   UNL A   1      41.697  27.565  28.912  1.00  0.00    -0.354 N 
ATOM     56  C   UNL A   1      42.062  28.716  33.216  1.00  0.00     0.074 A 
ATOM     57  C   UNL A   1      40.824  28.141  33.666  1.00  0.00     0.031 C 
ATOM     58  C   UNL A   1      40.512  27.186  27.059  1.00  0.00     0.029 A 
ATOM     59  C   UNL A   1      41.745  26.823  27.737  1.00  0.00     0.049 A 
ATOM     60  H   UNL A   1      42.451  27.619  29.541  1.00  0.00     0.167 HD
ATOM     61  C   UNL A   1      43.325  28.636  33.716  1.00  0.00     0.037 A 
ATOM     62  C   UNL A   1      42.711  25.942  27.376  1.00  0.00     0.037 A 
ATOM     63  C   UNL A   1      44.239  29.418  32.926  1.00  0.00     0.049 A 
ATOM     64  C   UNL A   1      43.935  26.299  28.126  1.00  0.00     0.074 A 
ATOM     65  C   UNL A   1      44.475  30.756  32.699  1.00  0.00     0.029 A 
ATOM     66  N   UNL A   1      44.846  28.722  31.917  1.00  0.00    -0.354 N 
ATOM     67  N   UNL A   1      44.626  27.384  27.917  1.00  0.00    -0.248 NA
ATOM     68  C   UNL A   1      44.240  25.591  29.364  1.00  0.00     0.031 C 
ATOM     69  C   UNL A   1      45.009  30.837  31.378  1.00  0.00     0.029 A 
ATOM     70  C   UNL A   1      45.118  29.545  30.862  1.00  0.00     0.049 A 
ATOM     71  H   UNL A   1      45.057  27.762  31.947  1.00  0.00     0.167 HD
ATOM     72  C   UNL A   1      45.110  27.725  29.165  1.00  0.00     0.074 A 
ATOM     73  C   UNL A   1      45.004  26.509  29.960  1.00  0.00     0.031 C 
ATOM     74  C   UNL A   1      45.248  29.036  29.514  1.00  0.00     0.037 A 
BRANCH  61  75
ATOM     75  C   UNL A   1      43.822  27.472  34.553  1.00  0.00     0.064 A 
ATOM     76  C   UNL A   1      43.734  26.166  34.024  1.00  0.00     0.173 A 
ATOM     77  C   UNL A   1      44.041  27.547  35.946  1.00  0.00     0.173 A 
ATOM     78  F   UNL A   1      43.493  25.971  32.719  1.00  0.00    -0.203 F 
ATOM     79  C   UNL A   1      43.784  25.032  34.841  1.00  0.00     0.198 A 
ATOM     80  C   UNL A   1      44.142  26.412  36.749  1.00  0.00     0.198 A 
ATOM     81  F   UNL A   1      44.046  28.708  36.608  1.00  0.00    -0.203 F 
ATOM     82  F   UNL A   1      43.564  23.821  34.314  1.00  0.00    -0.200 F 
ATOM     83  C   UNL A   1      43.983  25.157  36.204  1.00  0.00     0.200 A 
ATOM     84  F   UNL A   1      44.304  26.556  38.072  1.00  0.00    -0.200 F 
ATOM     85  F   UNL A   1      43.968  24.079  36.998  1.00  0.00    -0.200 F 
ENDBRANCH  61  75
BRANCH  62  86
ATOM     86  C   UNL A   1      42.593  24.658  26.642  1.00  0.00     0.064 A 
ATOM     87  C   UNL A   1      43.330  24.430  25.464  1.00  0.00     0.173 A 
ATOM     88  C   UNL A   1      42.011  23.524  27.239  1.00  0.00     0.173 A 
ATOM     89  F   UNL A   1      43.945  25.447  24.844  1.00  0.00    -0.203 F 
ATOM     90  C   UNL A   1      43.521  23.142  24.952  1.00  0.00     0.198 A 
ATOM     91  C   UNL A   1      42.196  22.240  26.722  1.00  0.00     0.198 A 
ATOM     92  F   UNL A   1      41.339  23.623  28.394  1.00  0.00    -0.203 F 
ATOM     93  F   UNL A   1      44.300  22.959  23.876  1.00  0.00    -0.200 F 
ATOM     94  C   UNL A   1      42.968  22.046  25.591  1.00  0.00     0.200 A 
ATOM     95  F   UNL A   1      41.683  21.184  27.368  1.00  0.00    -0.200 F 
ATOM     96  F   UNL A   1      43.214  20.806  25.146  1.00  0.00    -0.200 F 
ENDBRANCH  62  86
BRANCH  74  97
ATOM     97  C   UNL A   1      45.357  30.040  28.408  1.00  0.00     0.064 A 
ATOM     98  C   UNL A   1      44.263  30.656  27.779  1.00  0.00     0.173 A 
ATOM     99  C   UNL A   1      46.642  30.475  28.056  1.00  0.00     0.173 A 
ATOM    100  F   UNL A   1      43.004  30.347  28.118  1.00  0.00    -0.203 F 
ATOM    101  C   UNL A   1      44.457  31.647  26.817  1.00  0.00     0.198 A 
ATOM    102  C   UNL A   1      46.830  31.491  27.126  1.00  0.00     0.198 A 
ATOM    103  F   UNL A   1      47.719  29.945  28.656  1.00  0.00    -0.203 F 
ATOM    104  F   UNL A   1      43.402  32.216  26.217  1.00  0.00    -0.200 F 
ATOM    105  C   UNL A   1      45.739  32.071  26.501  1.00  0.00     0.200 A 
ATOM    106  F   UNL A   1      48.069  31.926  26.858  1.00  0.00    -0.200 F 
ATOM    107  F   UNL A   1      45.922  33.057  25.610  1.00  0.00    -0.200 F 
ENDBRANCH  74  97
ENDBRANCH  48  49
ENDBRANCH  40  43
ENDBRANCH  38  39
ENDBRANCH  37  38
ENDBRANCH  36  37
ENDBRANCH   1  36
TORSDOF 17
ENDMDL
MODEL 3
REMARK VINA RESULT:     -13.2      3.361      9.211
REMARK SMILES O=C(CSc1nnc2sc3ccccc3n12)N[C@H](Cc1c[nH]c2ccccc12)C(=O)NCCCCNC(=O)c1ccc(-c2c3nc(c(-c4c(F)c(F)c(F)c(F)c4F)c4ccc([nH]4)c(-c4c(F)c(F)c(F)c(F)c4F)c4nc(c(-c5c(F)c(F)c(F)c(F)c5F)c5ccc2[nH]5)C=C4)C=C3)cc1
REMARK SMILES IDX 32 1 31 2 29 3 30 4 18 6 17 7 1 8 2 9 3 11 4 12 5 13 6 14
REMARK SMILES IDX 16 15 7 16 8 17 15 18 9 19 10 20 14 21 11 22 13 23 12 24
REMARK SMILES IDX 19 25 20 26 21 27 28 28 22 29 23 30 27 31 24 33 26 34 25 35
REMARK SMILES IDX 33 36 34 37 35 38 36 39 37 40 38 42 39 43 40 44 101 45 41 46
REMARK SMILES IDX 100 47 42 48 43 49 44 50 94 51 45 52 99 53 93 54 95 55 46 56
REMARK SMILES IDX 98 57 92 58 91 59 47 61 79 62 59 63 78 64 60 65 63 66 77 67
REMARK SMILES IDX 96 68 61 69 62 70 76 72 97 73 64 74 48 75 49 76 57 77 50 78
REMARK SMILES IDX 51 79 55 80 58 81 52 82 53 83 56 84 54 85 80 86 81 87 89 88
REMARK SMILES IDX 82 89 83 90 87 91 90 92 84 93 85 94 88 95 86 96 65 97 66 98
REMARK SMILES IDX 74 99 67 100 68 101 72 102 75 103 69 104 70 105 73 106
REMARK SMILES IDX 71 107
REMARK H PARENT 31 5 17 10 22 32 36 41 95 60 63 71
REMARK Flexibility Score: inf
ROOT
ATOM      1  C   UNL A   1      36.522  20.765  24.787  1.00  0.00     0.116 C 
ENDROOT
BRANCH   1   2
ATOM      2  N   UNL A   1      35.792  21.738  25.568  1.00  0.00    -0.354 N 
ATOM      3  C   UNL A   1      34.650  22.427  25.278  1.00  0.00     0.242 C 
ATOM      4  O   UNL A   1      34.122  23.058  26.203  1.00  0.00    -0.273 OA
ATOM      5  H   UNL A   1      36.182  21.938  26.449  1.00  0.00     0.163 HD
BRANCH   3   6
ATOM      6  C   UNL A   1      33.905  22.278  23.947  1.00  0.00     0.175 C 
BRANCH   6   7
ATOM      7  N   UNL A   1      33.681  23.696  23.558  1.00  0.00    -0.343 N 
ATOM      8  O   UNL A   1      33.445  23.544  21.296  1.00  0.00    -0.274 OA
ATOM      9  C   UNL A   1      33.189  24.126  22.350  1.00  0.00     0.231 C 
ATOM     10  H   UNL A   1      33.903  24.386  24.224  1.00  0.00     0.164 HD
BRANCH   9  11
ATOM     11  C   UNL A   1      32.246  25.326  22.337  1.00  0.00     0.178 C 
BRANCH  11  12
ATOM     12  S   UNL A   1      33.011  26.945  22.419  1.00  0.00    -0.076 SA
BRANCH  12  13
ATOM     13  C   UNL A   1      31.742  28.045  22.828  1.00  0.00     0.197 A 
ATOM     14  N   UNL A   1      30.643  28.319  22.145  1.00  0.00    -0.122 NA
ATOM     15  N   UNL A   1      31.799  28.856  23.925  1.00  0.00    -0.260 N 
ATOM     16  N   UNL A   1      29.974  29.361  22.803  1.00  0.00    -0.118 NA
ATOM     17  C   UNL A   1      30.700  29.654  23.850  1.00  0.00     0.217 A 
ATOM     18  C   UNL A   1      32.645  29.077  25.009  1.00  0.00     0.068 A 
ATOM     19  S   UNL A   1      30.619  30.816  25.136  1.00  0.00    -0.094 S 
ATOM     20  C   UNL A   1      32.153  30.136  25.788  1.00  0.00     0.055 A 
ATOM     21  C   UNL A   1      33.805  28.393  25.332  1.00  0.00     0.028 A 
ATOM     22  C   UNL A   1      32.848  30.538  26.918  1.00  0.00     0.021 A 
ATOM     23  C   UNL A   1      34.499  28.796  26.471  1.00  0.00     0.002 A 
ATOM     24  C   UNL A   1      34.029  29.861  27.256  1.00  0.00     0.002 A 
ENDBRANCH  12  13
ENDBRANCH  11  12
ENDBRANCH   9  11
ENDBRANCH   6   7
BRANCH   6  25
ATOM     25  C   UNL A   1      32.741  21.283  23.858  1.00  0.00     0.072 C 
BRANCH  25  26
ATOM     26  C   UNL A   1      32.796  19.994  24.671  1.00  0.00    -0.020 A 
ATOM     27  C   UNL A   1      32.593  19.993  26.044  1.00  0.00     0.087 A 
ATOM     28  C   UNL A   1      33.173  18.632  24.336  1.00  0.00     0.003 A 
ATOM     29  N   UNL A   1      32.823  18.741  26.538  1.00  0.00    -0.361 N 
ATOM     30  C   UNL A   1      33.182  17.890  25.525  1.00  0.00     0.046 A 
ATOM     31  C   UNL A   1      33.546  17.922  23.171  1.00  0.00     0.010 A 
ATOM     32  H   UNL A   1      32.744  18.486  27.485  1.00  0.00     0.166 HD
ATOM     33  C   UNL A   1      33.527  16.530  25.591  1.00  0.00     0.026 A 
ATOM     34  C   UNL A   1      33.896  16.566  23.213  1.00  0.00     0.001 A 
ATOM     35  C   UNL A   1      33.885  15.877  24.413  1.00  0.00     0.002 A 
ENDBRANCH  25  26
ENDBRANCH   6  25
ENDBRANCH   3   6
ENDBRANCH   1   2
BRANCH   1  36
ATOM     36  C   UNL A   1      38.004  20.661  25.110  1.00  0.00     0.023 C 
BRANCH  36  37
ATOM     37  C   UNL A   1      38.622  21.884  25.779  1.00  0.00     0.023 C 
BRANCH  37  38
ATOM     38  C   UNL A   1      39.928  21.631  26.538  1.00  0.00     0.116 C 
BRANCH  38  39
ATOM     39  N   UNL A   1      41.132  22.062  25.849  1.00  0.00    -0.352 N 
ATOM     40  C   UNL A   1      41.950  23.150  25.922  1.00  0.00     0.251 C 
ATOM     41  H   UNL A   1      41.426  21.416  25.168  1.00  0.00     0.163 HD
ATOM     42  O   UNL A   1      43.030  23.062  25.323  1.00  0.00    -0.269 OA
BRANCH  40  43
ATOM     43  C   UNL A   1      41.616  24.430  26.592  1.00  0.00     0.039 A 
ATOM     44  C   UNL A   1      40.706  25.366  26.111  1.00  0.00     0.014 A 
ATOM     45  C   UNL A   1      42.358  24.740  27.749  1.00  0.00     0.014 A 
ATOM     46  C   UNL A   1      40.631  26.624  26.689  1.00  0.00     0.010 A 
ATOM     47  C   UNL A   1      42.265  25.988  28.354  1.00  0.00     0.010 A 
ATOM     48  C   UNL A   1      41.436  26.947  27.788  1.00  0.00    -0.014 A 
BRANCH  48  49
ATOM     49  C   UNL A   1      41.236  28.260  28.390  1.00  0.00     0.031 A 
ATOM     50  C   UNL A   1      42.325  29.219  28.065  1.00  0.00     0.074 A 
ATOM     51  C   UNL A   1      40.168  28.613  29.131  1.00  0.00     0.049 A 
ATOM     52  N   UNL A   1      43.194  29.721  28.878  1.00  0.00    -0.248 NA
ATOM     53  C   UNL A   1      42.576  29.533  26.649  1.00  0.00     0.031 C 
ATOM     54  C   UNL A   1      38.922  27.869  29.319  1.00  0.00     0.029 A 
ATOM     55  N   UNL A   1      39.942  29.771  29.823  1.00  0.00    -0.354 N 
ATOM     56  C   UNL A   1      43.994  30.561  28.108  1.00  0.00     0.074 A 
ATOM     57  C   UNL A   1      43.669  30.293  26.734  1.00  0.00     0.031 C 
ATOM     58  C   UNL A   1      37.995  28.681  29.878  1.00  0.00     0.029 A 
ATOM     59  C   UNL A   1      38.622  29.947  30.219  1.00  0.00     0.049 A 
ATOM     60  H   UNL A   1      40.652  30.422  30.023  1.00  0.00     0.167 HD
ATOM     61  C   UNL A   1      44.661  31.595  28.689  1.00  0.00     0.037 A 
ATOM     62  C   UNL A   1      38.079  31.072  30.748  1.00  0.00     0.037 A 
ATOM     63  C   UNL A   1      44.766  31.403  30.112  1.00  0.00     0.049 A 
ATOM     64  C   UNL A   1      39.185  31.858  31.340  1.00  0.00     0.074 A 
ATOM     65  C   UNL A   1      45.449  30.560  30.960  1.00  0.00     0.029 A 
ATOM     66  N   UNL A   1      43.746  31.963  30.831  1.00  0.00    -0.354 N 
ATOM     67  N   UNL A   1      39.852  31.492  32.398  1.00  0.00    -0.248 NA
ATOM     68  C   UNL A   1      39.786  32.933  30.561  1.00  0.00     0.031 C 
ATOM     69  C   UNL A   1      44.633  30.438  32.125  1.00  0.00     0.029 A 
ATOM     70  C   UNL A   1      43.504  31.240  31.964  1.00  0.00     0.049 A 
ATOM     71  H   UNL A   1      43.254  32.774  30.568  1.00  0.00     0.167 HD
ATOM     72  C   UNL A   1      41.131  31.961  32.173  1.00  0.00     0.074 A 
ATOM     73  C   UNL A   1      40.987  32.983  31.143  1.00  0.00     0.031 C 
ATOM     74  C   UNL A   1      42.211  31.255  32.613  1.00  0.00     0.037 A 
BRANCH  61  75
ATOM     75  C   UNL A   1      44.738  32.985  28.087  1.00  0.00     0.064 A 
ATOM     76  C   UNL A   1      46.002  33.507  27.735  1.00  0.00     0.173 A 
ATOM     77  C   UNL A   1      43.695  33.935  28.171  1.00  0.00     0.173 A 
ATOM     78  F   UNL A   1      47.075  32.705  27.658  1.00  0.00    -0.203 F 
ATOM     79  C   UNL A   1      46.214  34.878  27.559  1.00  0.00     0.198 A 
ATOM     80  C   UNL A   1      43.901  35.294  27.944  1.00  0.00     0.198 A 
ATOM     81  F   UNL A   1      42.467  33.613  28.591  1.00  0.00    -0.203 F 
ATOM     82  F   UNL A   1      47.455  35.339  27.356  1.00  0.00    -0.200 F 
ATOM     83  C   UNL A   1      45.164  35.771  27.669  1.00  0.00     0.200 A 
ATOM     84  F   UNL A   1      42.876  36.146  28.087  1.00  0.00    -0.200 F 
ATOM     85  F   UNL A   1      45.374  37.089  27.565  1.00  0.00    -0.200 F 
ENDBRANCH  61  75
BRANCH  62  86
ATOM     86  C   UNL A   1      36.728  31.653  30.553  1.00  0.00     0.064 A 
ATOM     87  C   UNL A   1      35.928  32.007  31.657  1.00  0.00     0.173 A 
ATOM     88  C   UNL A   1      36.324  32.163  29.304  1.00  0.00     0.173 A 
ATOM     89  F   UNL A   1      36.256  31.593  32.889  1.00  0.00    -0.203 F 
ATOM     90  C   UNL A   1      34.830  32.865  31.526  1.00  0.00     0.198 A 
ATOM     91  C   UNL A   1      35.223  33.012  29.175  1.00  0.00     0.198 A 
ATOM     92  F   UNL A   1      37.048  31.933  28.201  1.00  0.00    -0.203 F 
ATOM     93  F   UNL A   1      34.145  33.245  32.615  1.00  0.00    -0.200 F 
ATOM     94  C   UNL A   1      34.489  33.379  30.288  1.00  0.00     0.200 A 
ATOM     95  F   UNL A   1      34.922  33.530  27.976  1.00  0.00    -0.200 F 
ATOM     96  F   UNL A   1      33.486  34.261  30.173  1.00  0.00    -0.200 F 
ENDBRANCH  62  86
BRANCH  74  97
ATOM     97  C   UNL A   1      41.995  30.285  33.734  1.00  0.00     0.064 A 
ATOM     98  C   UNL A   1      41.617  28.944  33.566  1.00  0.00     0.173 A 
ATOM     99  C   UNL A   1      42.300  30.720  35.031  1.00  0.00     0.173 A 
ATOM    100  F   UNL A   1      41.383  28.436  32.349  1.00  0.00    -0.203 F 
ATOM    101  C   UNL A   1      41.523  28.085  34.662  1.00  0.00     0.198 A 
ATOM    102  C   UNL A   1      42.244  29.851  36.115  1.00  0.00     0.198 A 
ATOM    103  F   UNL A   1      42.703  31.983  35.239  1.00  0.00    -0.203 F 
ATOM    104  F   UNL A   1      41.148  26.810  34.486  1.00  0.00    -0.200 F 
ATOM    105  C   UNL A   1      41.848  28.537  35.932  1.00  0.00     0.200 A 
ATOM    106  F   UNL A   1      42.602  30.283  37.331  1.00  0.00    -0.200 F 
ATOM    107  F   UNL A   1      41.803  27.699  36.977  1.00  0.00    -0.200 F 
ENDBRANCH  74  97
ENDBRANCH  48  49
ENDBRANCH  40  43
ENDBRANCH  38  39
ENDBRANCH  37  38
ENDBRANCH  36  37
ENDBRANCH   1  36
TORSDOF 17
ENDMDL
