MODEL 1
REMARK VINA RESULT:     -12.3      0.000      0.000
REMARK SMILES O=C(NCCCCNC(=O)[C@@H]1C[C@H]1C(=O)N[C@@H]1CONC1=O)c1ccc(-c2c3nc(c(-c4c(F)c(F)c(F)c(F)c4F)c4ccc([nH]4)c(-c4c(F)c(F)c(F)c(F)c4F)c4nc(c(-c5c(F)c(F)c(F)c(F)c5F)c5ccc2[nH]5)C=C4)C=C3)cc1
REMARK SMILES IDX 5 1 4 2 3 3 1 4 2 5 23 7 24 8 85 9 25 10 84 11 26 12 27 13
REMARK SMILES IDX 28 14 78 15 29 16 83 17 77 18 79 19 30 20 82 21 76 22 75 23
REMARK SMILES IDX 31 25 63 26 43 27 62 28 44 29 47 30 61 31 80 32 45 33 46 34
REMARK SMILES IDX 60 36 81 37 48 38 32 39 33 40 41 41 34 42 35 43 39 44 42 45
REMARK SMILES IDX 36 46 37 47 40 48 38 49 64 50 65 51 73 52 66 53 67 54 71 55
REMARK SMILES IDX 74 56 68 57 69 58 72 59 70 60 49 61 50 62 58 63 51 64 52 65
REMARK SMILES IDX 56 66 59 67 53 68 54 69 57 70 55 71 6 72 7 73 8 74 9 75
REMARK SMILES IDX 10 77 11 78 12 79 13 80 14 81 15 82 16 83 17 85 18 86 21 87
REMARK SMILES IDX 19 88 20 89 22 90
REMARK H PARENT 3 6 79 24 47 35 8 76 16 84 20 91
REMARK Flexibility Score: inf
ROOT
ATOM      1  C   UNL A   1      31.693  31.947  26.875  1.00  0.00     0.023 C 
ENDROOT
BRANCH   1   2
ATOM      2  C   UNL A   1      32.859  32.837  27.281  1.00  0.00     0.116 C 
BRANCH   2   3
ATOM      3  N   UNL A   1      32.459  34.190  27.649  1.00  0.00    -0.352 N 
ATOM      4  O   UNL A   1      32.447  36.087  28.882  1.00  0.00    -0.269 OA
ATOM      5  C   UNL A   1      32.980  35.014  28.622  1.00  0.00     0.251 C 
ATOM      6  H   UNL A   1      31.712  34.566  27.130  1.00  0.00     0.163 HD
BRANCH   5   7
ATOM      7  C   UNL A   1      34.165  34.569  29.385  1.00  0.00     0.039 A 
ATOM      8  C   UNL A   1      35.444  34.711  28.845  1.00  0.00     0.014 A 
ATOM      9  C   UNL A   1      33.990  33.939  30.619  1.00  0.00     0.014 A 
ATOM     10  C   UNL A   1      36.508  34.033  29.423  1.00  0.00     0.010 A 
ATOM     11  C   UNL A   1      35.090  33.363  31.264  1.00  0.00     0.010 A 
ATOM     12  C   UNL A   1      36.348  33.353  30.642  1.00  0.00    -0.014 A 
BRANCH  12  13
ATOM     13  C   UNL A   1      37.520  32.661  31.241  1.00  0.00     0.031 A 
ATOM     14  C   UNL A   1      38.011  33.003  32.623  1.00  0.00     0.074 A 
ATOM     15  C   UNL A   1      38.114  31.672  30.544  1.00  0.00     0.049 A 
ATOM     16  N   UNL A   1      38.989  32.465  33.310  1.00  0.00    -0.248 NA
ATOM     17  C   UNL A   1      37.326  34.099  33.325  1.00  0.00     0.031 C 
ATOM     18  C   UNL A   1      37.732  31.249  29.194  1.00  0.00     0.029 A 
ATOM     19  N   UNL A   1      39.139  30.826  30.877  1.00  0.00    -0.354 N 
ATOM     20  C   UNL A   1      39.053  33.168  34.506  1.00  0.00     0.074 A 
ATOM     21  C   UNL A   1      38.035  34.195  34.442  1.00  0.00     0.031 C 
ATOM     22  C   UNL A   1      38.469  30.189  28.839  1.00  0.00     0.029 A 
ATOM     23  C   UNL A   1      39.426  29.903  29.901  1.00  0.00     0.049 A 
ATOM     24  H   UNL A   1      39.624  30.875  31.733  1.00  0.00     0.167 HD
ATOM     25  C   UNL A   1      39.879  32.970  35.563  1.00  0.00     0.037 A 
ATOM     26  C   UNL A   1      40.366  28.942  29.856  1.00  0.00     0.037 A 
ATOM     27  C   UNL A   1      40.880  31.935  35.628  1.00  0.00     0.049 A 
ATOM     28  C   UNL A   1      41.287  28.767  31.029  1.00  0.00     0.074 A 
ATOM     29  C   UNL A   1      41.738  31.626  36.671  1.00  0.00     0.029 A 
ATOM     30  N   UNL A   1      41.167  31.043  34.602  1.00  0.00    -0.354 N 
ATOM     31  N   UNL A   1      41.307  29.411  32.171  1.00  0.00    -0.248 NA
ATOM     32  C   UNL A   1      42.315  27.726  30.908  1.00  0.00     0.031 C 
ATOM     33  C   UNL A   1      42.586  30.595  36.252  1.00  0.00     0.029 A 
ATOM     34  C   UNL A   1      42.207  30.207  34.977  1.00  0.00     0.049 A 
ATOM     35  H   UNL A   1      40.699  31.010  33.736  1.00  0.00     0.167 HD
ATOM     36  C   UNL A   1      42.324  28.832  32.918  1.00  0.00     0.074 A 
ATOM     37  C   UNL A   1      42.884  27.773  32.103  1.00  0.00     0.031 C 
ATOM     38  C   UNL A   1      42.751  29.147  34.164  1.00  0.00     0.037 A 
BRANCH  25  39
ATOM     39  C   UNL A   1      39.761  33.910  36.733  1.00  0.00     0.064 A 
ATOM     40  C   UNL A   1      38.962  33.618  37.849  1.00  0.00     0.173 A 
ATOM     41  C   UNL A   1      40.496  35.107  36.754  1.00  0.00     0.173 A 
ATOM     42  F   UNL A   1      38.231  32.493  37.879  1.00  0.00    -0.203 F 
ATOM     43  C   UNL A   1      38.878  34.500  38.924  1.00  0.00     0.198 A 
ATOM     44  C   UNL A   1      40.438  35.970  37.846  1.00  0.00     0.198 A 
ATOM     45  F   UNL A   1      41.285  35.435  35.720  1.00  0.00    -0.203 F 
ATOM     46  F   UNL A   1      38.066  34.224  39.953  1.00  0.00    -0.200 F 
ATOM     47  C   UNL A   1      39.622  35.671  38.925  1.00  0.00     0.200 A 
ATOM     48  F   UNL A   1      41.171  37.092  37.852  1.00  0.00    -0.200 F 
ATOM     49  F   UNL A   1      39.545  36.515  39.964  1.00  0.00    -0.200 F 
ENDBRANCH  25  39
BRANCH  26  50
ATOM     50  C   UNL A   1      40.479  28.070  28.657  1.00  0.00     0.064 A 
ATOM     51  C   UNL A   1      39.812  26.838  28.596  1.00  0.00     0.173 A 
ATOM     52  C   UNL A   1      41.255  28.448  27.551  1.00  0.00     0.173 A 
ATOM     53  F   UNL A   1      39.070  26.426  29.634  1.00  0.00    -0.203 F 
ATOM     54  C   UNL A   1      39.941  26.005  27.487  1.00  0.00     0.198 A 
ATOM     55  C   UNL A   1      41.353  27.631  26.428  1.00  0.00     0.198 A 
ATOM     56  F   UNL A   1      41.905  29.621  27.555  1.00  0.00    -0.203 F 
ATOM     57  F   UNL A   1      39.339  24.808  27.477  1.00  0.00    -0.200 F 
ATOM     58  C   UNL A   1      40.707  26.405  26.401  1.00  0.00     0.200 A 
ATOM     59  F   UNL A   1      42.076  28.031  25.374  1.00  0.00    -0.200 F 
ATOM     60  F   UNL A   1      40.826  25.606  25.333  1.00  0.00    -0.200 F 
ENDBRANCH  26  50
BRANCH  38  61
ATOM     61  C   UNL A   1      43.839  28.291  34.753  1.00  0.00     0.064 A 
ATOM     62  C   UNL A   1      43.561  27.106  35.451  1.00  0.00     0.173 A 
ATOM     63  C   UNL A   1      45.184  28.664  34.605  1.00  0.00     0.173 A 
ATOM     64  F   UNL A   1      42.291  26.712  35.635  1.00  0.00    -0.203 F 
ATOM     65  C   UNL A   1      44.585  26.350  36.015  1.00  0.00     0.198 A 
ATOM     66  C   UNL A   1      46.207  27.883  35.134  1.00  0.00     0.198 A 
ATOM     67  F   UNL A   1      45.508  29.782  33.940  1.00  0.00    -0.203 F 
ATOM     68  F   UNL A   1      44.291  25.260  36.737  1.00  0.00    -0.200 F 
ATOM     69  C   UNL A   1      45.907  26.735  35.850  1.00  0.00     0.200 A 
ATOM     70  F   UNL A   1      47.486  28.248  34.959  1.00  0.00    -0.200 F 
ATOM     71  F   UNL A   1      46.892  26.004  36.390  1.00  0.00    -0.200 F 
ENDBRANCH  38  61
ENDBRANCH  12  13
ENDBRANCH   5   7
ENDBRANCH   2   3
ENDBRANCH   1   2
BRANCH   1  72
ATOM     72  C   UNL A   1      32.056  30.484  26.647  1.00  0.00     0.023 C 
BRANCH  72  73
ATOM     73  C   UNL A   1      31.531  29.908  25.337  1.00  0.00     0.116 C 
BRANCH  73  74
ATOM     74  N   UNL A   1      32.574  29.749  24.342  1.00  0.00    -0.356 N 
ATOM     75  C   UNL A   1      33.279  28.628  23.998  1.00  0.00     0.223 C 
ATOM     76  H   UNL A   1      32.809  30.564  23.844  1.00  0.00     0.163 HD
ATOM     77  O   UNL A   1      34.147  28.695  23.131  1.00  0.00    -0.275 OA
BRANCH  75  78
ATOM     78  C   UNL A   1      32.981  27.349  24.689  1.00  0.00     0.091 C 
ATOM     79  C   UNL A   1      33.937  26.786  25.710  1.00  0.00     0.028 C 
ATOM     80  C   UNL A   1      33.772  26.113  24.375  1.00  0.00     0.091 C 
BRANCH  80  81
ATOM     81  C   UNL A   1      33.195  24.765  24.163  1.00  0.00     0.224 C 
ATOM     82  O   UNL A   1      33.517  24.177  23.130  1.00  0.00    -0.275 OA
ATOM     83  N   UNL A   1      32.355  24.074  24.987  1.00  0.00    -0.342 N 
ATOM     84  H   UNL A   1      32.224  23.158  24.650  1.00  0.00     0.164 HD
BRANCH  83  85
ATOM     85  C   UNL A   1      31.588  24.276  26.216  1.00  0.00     0.202 C 
ATOM     86  C   UNL A   1      31.348  23.090  27.137  1.00  0.00     0.228 C 
ATOM     87  C   UNL A   1      30.237  24.922  26.107  1.00  0.00     0.268 C 
ATOM     88  O   UNL A   1      29.949  23.064  27.475  1.00  0.00    -0.271 OA
ATOM     89  N   UNL A   1      29.361  24.184  26.852  1.00  0.00    -0.233 N 
ATOM     90  O   UNL A   1      29.958  25.931  25.479  1.00  0.00    -0.270 OA
ATOM     91  H   UNL A   1      28.409  24.413  26.945  1.00  0.00     0.199 HD
ENDBRANCH  83  85
ENDBRANCH  80  81
ENDBRANCH  75  78
ENDBRANCH  73  74
ENDBRANCH  72  73
ENDBRANCH   1  72
TORSDOF 13
ENDMDL
MODEL 2
REMARK VINA RESULT:     -12.2      1.147      2.687
REMARK SMILES O=C(NCCCCNC(=O)[C@@H]1C[C@H]1C(=O)N[C@@H]1CONC1=O)c1ccc(-c2c3nc(c(-c4c(F)c(F)c(F)c(F)c4F)c4ccc([nH]4)c(-c4c(F)c(F)c(F)c(F)c4F)c4nc(c(-c5c(F)c(F)c(F)c(F)c5F)c5ccc2[nH]5)C=C4)C=C3)cc1
REMARK SMILES IDX 5 1 4 2 3 3 1 4 2 5 23 7 24 8 85 9 25 10 84 11 26 12 27 13
REMARK SMILES IDX 28 14 78 15 29 16 83 17 77 18 79 19 30 20 82 21 76 22 75 23
REMARK SMILES IDX 31 25 63 26 43 27 62 28 44 29 47 30 61 31 80 32 45 33 46 34
REMARK SMILES IDX 60 36 81 37 48 38 32 39 33 40 41 41 34 42 35 43 39 44 42 45
REMARK SMILES IDX 36 46 37 47 40 48 38 49 64 50 65 51 73 52 66 53 67 54 71 55
REMARK SMILES IDX 74 56 68 57 69 58 72 59 70 60 49 61 50 62 58 63 51 64 52 65
REMARK SMILES IDX 56 66 59 67 53 68 54 69 57 70 55 71 6 72 7 73 8 74 9 75
REMARK SMILES IDX 10 77 11 78 12 79 13 80 14 81 15 82 16 83 17 85 18 86 21 87
REMARK SMILES IDX 19 88 20 89 22 90
REMARK H PARENT 3 6 79 24 47 35 8 76 16 84 20 91
REMARK Flexibility Score: inf
ROOT
ATOM      1  C   UNL A   1      31.693  31.952  26.749  1.00  0.00     0.023 C 
ENDROOT
BRANCH   1   2
ATOM      2  C   UNL A   1      32.830  32.784  27.325  1.00  0.00     0.116 C 
BRANCH   2   3
ATOM      3  N   UNL A   1      32.438  34.144  27.675  1.00  0.00    -0.352 N 
ATOM      4  O   UNL A   1      32.444  36.060  28.877  1.00  0.00    -0.269 OA
ATOM      5  C   UNL A   1      32.972  34.981  28.630  1.00  0.00     0.251 C 
ATOM      6  H   UNL A   1      31.687  34.514  27.158  1.00  0.00     0.163 HD
BRANCH   5   7
ATOM      7  C   UNL A   1      34.163  34.545  29.388  1.00  0.00     0.039 A 
ATOM      8  C   UNL A   1      35.431  34.625  28.813  1.00  0.00     0.014 A 
ATOM      9  C   UNL A   1      34.001  33.984  30.657  1.00  0.00     0.014 A 
ATOM     10  C   UNL A   1      36.491  33.951  29.401  1.00  0.00     0.010 A 
ATOM     11  C   UNL A   1      35.101  33.413  31.305  1.00  0.00     0.010 A 
ATOM     12  C   UNL A   1      36.344  33.338  30.657  1.00  0.00    -0.014 A 
BRANCH  12  13
ATOM     13  C   UNL A   1      37.511  32.646  31.265  1.00  0.00     0.031 A 
ATOM     14  C   UNL A   1      37.985  32.982  32.654  1.00  0.00     0.074 A 
ATOM     15  C   UNL A   1      38.117  31.665  30.568  1.00  0.00     0.049 A 
ATOM     16  N   UNL A   1      38.957  32.443  33.349  1.00  0.00    -0.248 NA
ATOM     17  C   UNL A   1      37.287  34.070  33.356  1.00  0.00     0.031 C 
ATOM     18  C   UNL A   1      37.752  31.250  29.211  1.00  0.00     0.029 A 
ATOM     19  N   UNL A   1      39.143  30.821  30.907  1.00  0.00    -0.354 N 
ATOM     20  C   UNL A   1      39.005  33.138  34.550  1.00  0.00     0.074 A 
ATOM     21  C   UNL A   1      37.983  34.161  34.481  1.00  0.00     0.031 C 
ATOM     22  C   UNL A   1      38.498  30.195  28.857  1.00  0.00     0.029 A 
ATOM     23  C   UNL A   1      39.444  29.907  29.928  1.00  0.00     0.049 A 
ATOM     24  H   UNL A   1      39.617  30.867  31.768  1.00  0.00     0.167 HD
ATOM     25  C   UNL A   1      39.820  32.936  35.616  1.00  0.00     0.037 A 
ATOM     26  C   UNL A   1      40.389  28.950  29.887  1.00  0.00     0.037 A 
ATOM     27  C   UNL A   1      40.825  31.905  35.684  1.00  0.00     0.049 A 
ATOM     28  C   UNL A   1      41.297  28.771  31.070  1.00  0.00     0.074 A 
ATOM     29  C   UNL A   1      41.672  31.593  36.735  1.00  0.00     0.029 A 
ATOM     30  N   UNL A   1      41.126  31.022  34.656  1.00  0.00    -0.354 N 
ATOM     31  N   UNL A   1      41.302  29.407  32.216  1.00  0.00    -0.248 NA
ATOM     32  C   UNL A   1      42.331  27.735  30.953  1.00  0.00     0.031 C 
ATOM     33  C   UNL A   1      42.529  30.569  36.319  1.00  0.00     0.029 A 
ATOM     34  C   UNL A   1      42.166  30.187  35.038  1.00  0.00     0.049 A 
ATOM     35  H   UNL A   1      40.668  30.993  33.785  1.00  0.00     0.167 HD
ATOM     36  C   UNL A   1      42.312  28.827  32.970  1.00  0.00     0.074 A 
ATOM     37  C   UNL A   1      42.887  27.776  32.155  1.00  0.00     0.031 C 
ATOM     38  C   UNL A   1      42.724  29.135  34.224  1.00  0.00     0.037 A 
BRANCH  25  39
ATOM     39  C   UNL A   1      39.684  33.868  36.790  1.00  0.00     0.064 A 
ATOM     40  C   UNL A   1      40.308  35.125  36.822  1.00  0.00     0.173 A 
ATOM     41  C   UNL A   1      38.879  33.514  37.885  1.00  0.00     0.173 A 
ATOM     42  F   UNL A   1      41.096  35.513  35.807  1.00  0.00    -0.203 F 
ATOM     43  C   UNL A   1      40.158  35.975  37.916  1.00  0.00     0.198 A 
ATOM     44  C   UNL A   1      38.703  34.381  38.961  1.00  0.00     0.198 A 
ATOM     45  F   UNL A   1      38.249  32.329  37.906  1.00  0.00    -0.203 F 
ATOM     46  F   UNL A   1      40.809  37.146  37.946  1.00  0.00    -0.200 F 
ATOM     47  C   UNL A   1      39.350  35.606  38.981  1.00  0.00     0.200 A 
ATOM     48  F   UNL A   1      37.907  34.027  39.981  1.00  0.00    -0.200 F 
ATOM     49  F   UNL A   1      39.201  36.427  40.028  1.00  0.00    -0.200 F 
ENDBRANCH  25  39
BRANCH  26  50
ATOM     50  C   UNL A   1      40.519  28.087  28.684  1.00  0.00     0.064 A 
ATOM     51  C   UNL A   1      41.293  28.490  27.586  1.00  0.00     0.173 A 
ATOM     52  C   UNL A   1      39.870  26.845  28.604  1.00  0.00     0.173 A 
ATOM     53  F   UNL A   1      41.920  29.675  27.609  1.00  0.00    -0.203 F 
ATOM     54  C   UNL A   1      41.391  27.696  26.446  1.00  0.00     0.198 A 
ATOM     55  C   UNL A   1      40.000  26.037  27.478  1.00  0.00     0.198 A 
ATOM     56  F   UNL A   1      39.126  26.408  29.630  1.00  0.00    -0.203 F 
ATOM     57  F   UNL A   1      42.093  28.130  25.390  1.00  0.00    -0.200 F 
ATOM     58  C   UNL A   1      40.749  26.468  26.394  1.00  0.00     0.200 A 
ATOM     59  F   UNL A   1      39.395  24.841  27.442  1.00  0.00    -0.200 F 
ATOM     60  F   UNL A   1      40.848  25.703  25.299  1.00  0.00    -0.200 F 
ENDBRANCH  26  50
BRANCH  38  61
ATOM     61  C   UNL A   1      43.808  28.281  34.819  1.00  0.00     0.064 A 
ATOM     62  C   UNL A   1      45.166  28.617  34.713  1.00  0.00     0.173 A 
ATOM     63  C   UNL A   1      43.477  27.108  35.517  1.00  0.00     0.173 A 
ATOM     64  F   UNL A   1      45.539  29.719  34.043  1.00  0.00    -0.203 F 
ATOM     65  C   UNL A   1      46.153  27.791  35.245  1.00  0.00     0.198 A 
ATOM     66  C   UNL A   1      44.464  26.307  36.083  1.00  0.00     0.198 A 
ATOM     67  F   UNL A   1      42.195  26.743  35.657  1.00  0.00    -0.203 F 
ATOM     68  F   UNL A   1      47.446  28.097  35.070  1.00  0.00    -0.200 F 
ATOM     69  C   UNL A   1      45.801  26.642  35.936  1.00  0.00     0.200 A 
ATOM     70  F   UNL A   1      44.121  25.205  36.765  1.00  0.00    -0.200 F 
ATOM     71  F   UNL A   1      46.752  25.849  36.450  1.00  0.00    -0.200 F 
ENDBRANCH  38  61
ENDBRANCH  12  13
ENDBRANCH   5   7
ENDBRANCH   2   3
ENDBRANCH   1   2
BRANCH   1  72
ATOM     72  C   UNL A   1      31.961  30.452  26.701  1.00  0.00     0.023 C 
BRANCH  72  73
ATOM     73  C   UNL A   1      31.567  29.790  25.386  1.00  0.00     0.116 C 
BRANCH  73  74
ATOM     74  N   UNL A   1      32.680  29.686  24.461  1.00  0.00    -0.356 N 
ATOM     75  C   UNL A   1      33.365  28.574  24.051  1.00  0.00     0.223 C 
ATOM     76  H   UNL A   1      32.986  30.536  24.072  1.00  0.00     0.163 HD
ATOM     77  O   UNL A   1      34.302  28.690  23.265  1.00  0.00    -0.275 OA
BRANCH  75  78
ATOM     78  C   UNL A   1      32.961  27.246  24.576  1.00  0.00     0.091 C 
ATOM     79  C   UNL A   1      33.709  26.613  25.722  1.00  0.00     0.028 C 
ATOM     80  C   UNL A   1      33.822  26.041  24.336  1.00  0.00     0.091 C 
BRANCH  80  81
ATOM     81  C   UNL A   1      33.324  24.709  23.917  1.00  0.00     0.224 C 
ATOM     82  O   UNL A   1      32.198  24.667  23.420  1.00  0.00    -0.275 OA
ATOM     83  N   UNL A   1      33.969  23.510  23.998  1.00  0.00    -0.342 N 
ATOM     84  H   UNL A   1      33.448  22.811  23.541  1.00  0.00     0.164 HD
BRANCH  83  85
ATOM     85  C   UNL A   1      35.197  22.943  24.555  1.00  0.00     0.202 C 
ATOM     86  C   UNL A   1      35.577  23.277  25.988  1.00  0.00     0.228 C 
ATOM     87  C   UNL A   1      36.474  23.140  23.792  1.00  0.00     0.268 C 
ATOM     88  O   UNL A   1      36.961  23.673  26.002  1.00  0.00    -0.271 OA
ATOM     89  N   UNL A   1      37.431  23.546  24.678  1.00  0.00    -0.233 N 
ATOM     90  O   UNL A   1      36.647  22.962  22.596  1.00  0.00    -0.270 OA
ATOM     91  H   UNL A   1      38.362  23.734  24.418  1.00  0.00     0.199 HD
ENDBRANCH  83  85
ENDBRANCH  80  81
ENDBRANCH  75  78
ENDBRANCH  73  74
ENDBRANCH  72  73
ENDBRANCH   1  72
TORSDOF 13
ENDMDL
MODEL 3
REMARK VINA RESULT:     -12.2      1.635      3.251
REMARK SMILES O=C(NCCCCNC(=O)[C@@H]1C[C@H]1C(=O)N[C@@H]1CONC1=O)c1ccc(-c2c3nc(c(-c4c(F)c(F)c(F)c(F)c4F)c4ccc([nH]4)c(-c4c(F)c(F)c(F)c(F)c4F)c4nc(c(-c5c(F)c(F)c(F)c(F)c5F)c5ccc2[nH]5)C=C4)C=C3)cc1
REMARK SMILES IDX 5 1 4 2 3 3 1 4 2 5 23 7 24 8 85 9 25 10 84 11 26 12 27 13
REMARK SMILES IDX 28 14 78 15 29 16 83 17 77 18 79 19 30 20 82 21 76 22 75 23
REMARK SMILES IDX 31 25 63 26 43 27 62 28 44 29 47 30 61 31 80 32 45 33 46 34
REMARK SMILES IDX 60 36 81 37 48 38 32 39 33 40 41 41 34 42 35 43 39 44 42 45
REMARK SMILES IDX 36 46 37 47 40 48 38 49 64 50 65 51 73 52 66 53 67 54 71 55
REMARK SMILES IDX 74 56 68 57 69 58 72 59 70 60 49 61 50 62 58 63 51 64 52 65
REMARK SMILES IDX 56 66 59 67 53 68 54 69 57 70 55 71 6 72 7 73 8 74 9 75
REMARK SMILES IDX 10 77 11 78 12 79 13 80 14 81 15 82 16 83 17 85 18 86 21 87
REMARK SMILES IDX 19 88 20 89 22 90
REMARK H PARENT 3 6 79 24 47 35 8 76 16 84 20 91
REMARK Flexibility Score: inf
ROOT
ATOM      1  C   UNL A   1      31.695  31.886  26.578  1.00  0.00     0.023 C 
ENDROOT
BRANCH   1   2
ATOM      2  C   UNL A   1      32.765  32.628  27.367  1.00  0.00     0.116 C 
BRANCH   2   3
ATOM      3  N   UNL A   1      32.421  34.015  27.653  1.00  0.00    -0.352 N 
ATOM      4  O   UNL A   1      32.499  35.986  28.762  1.00  0.00    -0.269 OA
ATOM      5  C   UNL A   1      32.988  34.879  28.564  1.00  0.00     0.251 C 
ATOM      6  H   UNL A   1      31.680  34.386  27.122  1.00  0.00     0.163 HD
BRANCH   5   7
ATOM      7  C   UNL A   1      34.168  34.439  29.338  1.00  0.00     0.039 A 
ATOM      8  C   UNL A   1      35.454  34.642  28.837  1.00  0.00     0.014 A 
ATOM      9  C   UNL A   1      33.983  33.753  30.541  1.00  0.00     0.014 A 
ATOM     10  C   UNL A   1      36.525  33.973  29.413  1.00  0.00     0.010 A 
ATOM     11  C   UNL A   1      35.085  33.183  31.188  1.00  0.00     0.010 A 
ATOM     12  C   UNL A   1      36.357  33.238  30.599  1.00  0.00    -0.014 A 
BRANCH  12  13
ATOM     13  C   UNL A   1      37.535  32.557  31.199  1.00  0.00     0.031 A 
ATOM     14  C   UNL A   1      38.020  32.900  32.582  1.00  0.00     0.074 A 
ATOM     15  C   UNL A   1      38.141  31.576  30.500  1.00  0.00     0.049 A 
ATOM     16  N   UNL A   1      39.002  32.371  33.270  1.00  0.00    -0.248 NA
ATOM     17  C   UNL A   1      37.321  33.987  33.287  1.00  0.00     0.031 C 
ATOM     18  C   UNL A   1      37.767  31.154  29.148  1.00  0.00     0.029 A 
ATOM     19  N   UNL A   1      39.176  30.741  30.832  1.00  0.00    -0.354 N 
ATOM     20  C   UNL A   1      39.056  33.072  34.468  1.00  0.00     0.074 A 
ATOM     21  C   UNL A   1      38.026  34.087  34.405  1.00  0.00     0.031 C 
ATOM     22  C   UNL A   1      38.517  30.103  28.791  1.00  0.00     0.029 A 
ATOM     23  C   UNL A   1      39.474  29.825  29.854  1.00  0.00     0.049 A 
ATOM     24  H   UNL A   1      39.657  30.793  31.689  1.00  0.00     0.167 HD
ATOM     25  C   UNL A   1      39.882  32.879  35.527  1.00  0.00     0.037 A 
ATOM     26  C   UNL A   1      40.425  28.874  29.808  1.00  0.00     0.037 A 
ATOM     27  C   UNL A   1      40.895  31.855  35.590  1.00  0.00     0.049 A 
ATOM     28  C   UNL A   1      41.346  28.706  30.983  1.00  0.00     0.074 A 
ATOM     29  C   UNL A   1      41.753  31.553  36.634  1.00  0.00     0.029 A 
ATOM     30  N   UNL A   1      41.193  30.970  34.563  1.00  0.00    -0.354 N 
ATOM     31  N   UNL A   1      41.357  29.347  32.126  1.00  0.00    -0.248 NA
ATOM     32  C   UNL A   1      42.386  27.677  30.861  1.00  0.00     0.031 C 
ATOM     33  C   UNL A   1      42.613  30.533  36.214  1.00  0.00     0.029 A 
ATOM     34  C   UNL A   1      42.241  30.144  34.937  1.00  0.00     0.049 A 
ATOM     35  H   UNL A   1      40.727  30.934  33.696  1.00  0.00     0.167 HD
ATOM     36  C   UNL A   1      42.378  28.777  32.874  1.00  0.00     0.074 A 
ATOM     37  C   UNL A   1      42.952  27.726  32.058  1.00  0.00     0.031 C 
ATOM     38  C   UNL A   1      42.799  29.092  34.123  1.00  0.00     0.037 A 
BRANCH  25  39
ATOM     39  C   UNL A   1      39.751  33.815  36.698  1.00  0.00     0.064 A 
ATOM     40  C   UNL A   1      40.405  35.056  36.740  1.00  0.00     0.173 A 
ATOM     41  C   UNL A   1      38.920  33.481  37.781  1.00  0.00     0.173 A 
ATOM     42  F   UNL A   1      41.217  35.425  35.737  1.00  0.00    -0.203 F 
ATOM     43  C   UNL A   1      40.258  35.910  37.831  1.00  0.00     0.198 A 
ATOM     44  C   UNL A   1      38.748  34.352  38.854  1.00  0.00     0.198 A 
ATOM     45  F   UNL A   1      38.262  32.312  37.792  1.00  0.00    -0.203 F 
ATOM     46  F   UNL A   1      40.937  37.065  37.871  1.00  0.00    -0.200 F 
ATOM     47  C   UNL A   1      39.425  35.561  38.883  1.00  0.00     0.200 A 
ATOM     48  F   UNL A   1      37.928  34.019  39.861  1.00  0.00    -0.200 F 
ATOM     49  F   UNL A   1      39.280  36.387  39.928  1.00  0.00    -0.200 F 
ENDBRANCH  25  39
BRANCH  26  50
ATOM     50  C   UNL A   1      40.550  28.007  28.607  1.00  0.00     0.064 A 
ATOM     51  C   UNL A   1      41.321  28.406  27.506  1.00  0.00     0.173 A 
ATOM     52  C   UNL A   1      39.900  26.766  28.533  1.00  0.00     0.173 A 
ATOM     53  F   UNL A   1      41.950  29.591  27.523  1.00  0.00    -0.203 F 
ATOM     54  C   UNL A   1      41.415  27.609  26.367  1.00  0.00     0.198 A 
ATOM     55  C   UNL A   1      40.024  25.955  27.409  1.00  0.00     0.198 A 
ATOM     56  F   UNL A   1      39.158  26.334  29.563  1.00  0.00    -0.203 F 
ATOM     57  F   UNL A   1      42.113  28.039  25.308  1.00  0.00    -0.200 F 
ATOM     58  C   UNL A   1      40.771  26.382  26.322  1.00  0.00     0.200 A 
ATOM     59  F   UNL A   1      39.418  24.760  27.379  1.00  0.00    -0.200 F 
ATOM     60  F   UNL A   1      40.865  25.614  25.229  1.00  0.00    -0.200 F 
ENDBRANCH  26  50
BRANCH  38  61
ATOM     61  C   UNL A   1      43.895  28.248  34.711  1.00  0.00     0.064 A 
ATOM     62  C   UNL A   1      45.249  28.593  34.590  1.00  0.00     0.173 A 
ATOM     63  C   UNL A   1      43.578  27.076  35.417  1.00  0.00     0.173 A 
ATOM     64  F   UNL A   1      45.608  29.694  33.912  1.00  0.00    -0.203 F 
ATOM     65  C   UNL A   1      46.247  27.776  35.116  1.00  0.00     0.198 A 
ATOM     66  C   UNL A   1      44.576  26.284  35.977  1.00  0.00     0.198 A 
ATOM     67  F   UNL A   1      42.299  26.703  35.571  1.00  0.00    -0.203 F 
ATOM     68  F   UNL A   1      47.536  28.090  34.928  1.00  0.00    -0.200 F 
ATOM     69  C   UNL A   1      45.909  26.627  35.815  1.00  0.00     0.200 A 
ATOM     70  F   UNL A   1      44.246  25.183  36.667  1.00  0.00    -0.200 F 
ATOM     71  F   UNL A   1      46.870  25.843  36.324  1.00  0.00    -0.200 F 
ENDBRANCH  38  61
ENDBRANCH  12  13
ENDBRANCH   5   7
ENDBRANCH   2   3
ENDBRANCH   1   2
BRANCH   1  72
ATOM     72  C   UNL A   1      31.775  30.367  26.666  1.00  0.00     0.023 C 
BRANCH  72  73
ATOM     73  C   UNL A   1      33.067  29.777  26.112  1.00  0.00     0.116 C 
BRANCH  73  74
ATOM     74  N   UNL A   1      33.075  29.721  24.662  1.00  0.00    -0.356 N 
ATOM     75  C   UNL A   1      32.187  29.119  23.813  1.00  0.00     0.223 C 
ATOM     76  H   UNL A   1      33.827  30.183  24.227  1.00  0.00     0.163 HD
ATOM     77  O   UNL A   1      32.374  29.167  22.600  1.00  0.00    -0.275 OA
BRANCH  75  78
ATOM     78  C   UNL A   1      31.013  28.412  24.383  1.00  0.00     0.091 C 
ATOM     79  C   UNL A   1      31.040  26.917  24.583  1.00  0.00     0.028 C 
ATOM     80  C   UNL A   1      30.168  27.523  23.517  1.00  0.00     0.091 C 
BRANCH  80  81
ATOM     81  C   UNL A   1      28.687  27.503  23.510  1.00  0.00     0.224 C 
ATOM     82  O   UNL A   1      28.141  26.492  23.954  1.00  0.00    -0.275 OA
ATOM     83  N   UNL A   1      27.837  28.481  23.084  1.00  0.00    -0.342 N 
ATOM     84  H   UNL A   1      26.907  28.245  23.302  1.00  0.00     0.164 HD
BRANCH  83  85
ATOM     85  C   UNL A   1      27.883  29.775  22.403  1.00  0.00     0.202 C 
ATOM     86  C   UNL A   1      29.072  30.094  21.511  1.00  0.00     0.228 C 
ATOM     87  C   UNL A   1      27.715  31.015  23.230  1.00  0.00     0.268 C 
ATOM     88  O   UNL A   1      29.550  31.406  21.858  1.00  0.00    -0.271 OA
ATOM     89  N   UNL A   1      28.690  31.898  22.861  1.00  0.00    -0.233 N 
ATOM     90  O   UNL A   1      26.859  31.219  24.077  1.00  0.00    -0.270 OA
ATOM     91  H   UNL A   1      28.785  32.794  23.259  1.00  0.00     0.199 HD
ENDBRANCH  83  85
ENDBRANCH  80  81
ENDBRANCH  75  78
ENDBRANCH  73  74
ENDBRANCH  72  73
ENDBRANCH   1  72
TORSDOF 13
ENDMDL
