MODEL 1
REMARK VINA RESULT:     -12.5      0.000      0.000
REMARK SMILES C[C@H](c1ccc(Br)s1)[NH+]1CCC(CC(=O)NCCCCNC(=O)c2ccc(-c3c4nc(c(-c5c(F)c(F)c(F)c(F)c5F)c5ccc([nH]5)c(-c5c(F)c(F)c(F)c(F)c5F)c5nc(c(-c6c(F)c(F)c(F)c(F)c6F)c6ccc3[nH]6)C=C5)C=C4)cc2)CC1
REMARK SMILES IDX 18 1 17 2 16 3 14 4 15 5 13 7 12 8 9 9 10 10 88 11 11 13
REMARK SMILES IDX 87 14 2 15 1 16 3 17 4 18 8 19 5 20 6 21 7 22 19 23 20 24
REMARK SMILES IDX 21 25 22 26 23 28 24 29 25 30 86 31 26 32 85 33 27 34 28 35
REMARK SMILES IDX 29 36 79 37 30 38 84 39 78 40 80 41 31 42 83 43 77 44 76 45
REMARK SMILES IDX 32 47 64 48 44 49 63 50 45 51 48 52 62 53 81 54 46 55 47 56
REMARK SMILES IDX 61 58 82 59 49 60 33 61 34 62 42 63 35 64 36 65 40 66 43 67
REMARK SMILES IDX 37 68 38 69 41 70 39 71 65 72 66 73 74 74 67 75 68 76 72 77
REMARK SMILES IDX 75 78 69 79 70 80 73 81 71 82 50 83 51 84 59 85 52 86 53 87
REMARK SMILES IDX 57 88 60 89 54 90 55 91 58 92 56 93
REMARK H PARENT 16 6 9 12 21 27 80 46 48 57
REMARK Flexibility Score: inf
ROOT
ATOM      1  C   UNL A   1      32.675  30.070  26.517  1.00  0.00     0.023 C 
ENDROOT
BRANCH   1   2
ATOM      2  C   UNL A   1      32.523  29.679  25.042  1.00  0.00     0.116 C 
BRANCH   2   3
ATOM      3  N   UNL A   1      31.192  29.969  24.529  1.00  0.00    -0.356 N 
ATOM      4  C   UNL A   1      30.420  29.301  23.620  1.00  0.00     0.220 C 
ATOM      5  O   UNL A   1      29.318  29.775  23.339  1.00  0.00    -0.275 OA
ATOM      6  H   UNL A   1      30.778  30.783  24.899  1.00  0.00     0.163 HD
BRANCH   4   7
ATOM      7  C   UNL A   1      30.907  28.020  22.952  1.00  0.00     0.104 C 
BRANCH   7   8
ATOM      8  C   UNL A   1      30.269  26.741  23.533  1.00  0.00     0.009 C 
ATOM      9  N   UNL A   1      30.972  24.319  25.062  1.00  0.00    -0.328 N 
ATOM     10  C   UNL A   1      30.658  24.191  23.637  1.00  0.00     0.263 C 
ATOM     11  C   UNL A   1      30.068  25.317  25.650  1.00  0.00     0.263 C 
ATOM     12  H   UNL A   1      31.913  24.677  25.224  1.00  0.00     0.348 HD
ATOM     13  C   UNL A   1      30.931  25.506  22.938  1.00  0.00     0.066 C 
ATOM     14  C   UNL A   1      30.370  26.708  25.066  1.00  0.00     0.066 C 
BRANCH   9  15
ATOM     15  C   UNL A   1      30.995  22.986  25.702  1.00  0.00     0.222 C 
ATOM     16  C   UNL A   1      30.095  22.826  26.930  1.00  0.00     0.082 C 
BRANCH  15  17
ATOM     17  C   UNL A   1      32.411  22.509  25.989  1.00  0.00     0.063 A 
ATOM     18  C   UNL A   1      33.096  22.401  27.188  1.00  0.00     0.023 A 
ATOM     19  S   UNL A   1      33.389  21.940  24.683  1.00  0.00    -0.127 S 
ATOM     20  C   UNL A   1      34.409  21.865  27.032  1.00  0.00     0.028 A 
ATOM     21  C   UNL A   1      34.669  21.564  25.722  1.00  0.00     0.070 A 
ATOM     22  Br  UNL A   1      36.276  20.801  25.134  1.00  0.00    -0.039 Br
ENDBRANCH  15  17
ENDBRANCH   9  15
ENDBRANCH   7   8
ENDBRANCH   4   7
ENDBRANCH   2   3
ENDBRANCH   1   2
BRANCH   1  23
ATOM     23  C   UNL A   1      32.111  31.425  26.903  1.00  0.00     0.023 C 
BRANCH  23  24
ATOM     24  C   UNL A   1      33.132  32.371  27.501  1.00  0.00     0.116 C 
BRANCH  24  25
ATOM     25  N   UNL A   1      32.635  33.734  27.665  1.00  0.00    -0.352 N 
ATOM     26  C   UNL A   1      33.067  34.718  28.527  1.00  0.00     0.251 C 
ATOM     27  H   UNL A   1      31.887  33.985  27.077  1.00  0.00     0.163 HD
ATOM     28  O   UNL A   1      32.478  35.784  28.613  1.00  0.00    -0.269 OA
BRANCH  26  29
ATOM     29  C   UNL A   1      34.233  34.435  29.388  1.00  0.00     0.039 A 
ATOM     30  C   UNL A   1      34.020  33.906  30.662  1.00  0.00     0.014 A 
ATOM     31  C   UNL A   1      35.525  34.585  28.883  1.00  0.00     0.014 A 
ATOM     32  C   UNL A   1      35.106  33.418  31.386  1.00  0.00     0.010 A 
ATOM     33  C   UNL A   1      36.587  34.004  29.557  1.00  0.00     0.010 A 
ATOM     34  C   UNL A   1      36.387  33.404  30.810  1.00  0.00    -0.014 A 
BRANCH  34  35
ATOM     35  C   UNL A   1      37.538  32.752  31.477  1.00  0.00     0.031 A 
ATOM     36  C   UNL A   1      38.203  31.573  30.829  1.00  0.00     0.074 A 
ATOM     37  C   UNL A   1      37.908  33.152  32.709  1.00  0.00     0.049 A 
ATOM     38  N   UNL A   1      39.132  30.783  31.301  1.00  0.00    -0.248 NA
ATOM     39  C   UNL A   1      37.729  31.210  29.483  1.00  0.00     0.031 C 
ATOM     40  C   UNL A   1      37.296  34.245  33.468  1.00  0.00     0.029 A 
ATOM     41  N   UNL A   1      38.881  32.671  33.550  1.00  0.00    -0.354 N 
ATOM     42  C   UNL A   1      39.334  29.819  30.322  1.00  0.00     0.074 A 
ATOM     43  C   UNL A   1      38.392  30.085  29.259  1.00  0.00     0.031 C 
ATOM     44  C   UNL A   1      37.925  34.370  34.647  1.00  0.00     0.029 A 
ATOM     45  C   UNL A   1      38.953  33.339  34.748  1.00  0.00     0.049 A 
ATOM     46  H   UNL A   1      39.472  31.918  33.316  1.00  0.00     0.167 HD
ATOM     47  C   UNL A   1      40.246  28.818  30.303  1.00  0.00     0.037 A 
ATOM     48  C   UNL A   1      39.752  33.133  35.812  1.00  0.00     0.037 A 
ATOM     49  C   UNL A   1      41.206  28.586  31.345  1.00  0.00     0.049 A 
ATOM     50  C   UNL A   1      40.750  32.009  35.769  1.00  0.00     0.074 A 
ATOM     51  C   UNL A   1      42.236  27.664  31.381  1.00  0.00     0.029 A 
ATOM     52  N   UNL A   1      41.252  29.286  32.543  1.00  0.00    -0.354 N 
ATOM     53  N   UNL A   1      40.988  31.152  34.807  1.00  0.00    -0.248 NA
ATOM     54  C   UNL A   1      41.585  31.820  36.964  1.00  0.00     0.031 C 
ATOM     55  C   UNL A   1      42.879  27.776  32.618  1.00  0.00     0.029 A 
ATOM     56  C   UNL A   1      42.274  28.794  33.339  1.00  0.00     0.049 A 
ATOM     57  H   UNL A   1      40.648  30.022  32.790  1.00  0.00     0.167 HD
ATOM     58  C   UNL A   1      42.004  30.330  35.271  1.00  0.00     0.074 A 
ATOM     59  C   UNL A   1      42.353  30.803  36.595  1.00  0.00     0.031 C 
ATOM     60  C   UNL A   1      42.594  29.275  34.658  1.00  0.00     0.037 A 
BRANCH  47  61
ATOM     61  C   UNL A   1      40.247  27.912  29.107  1.00  0.00     0.064 A 
ATOM     62  C   UNL A   1      39.516  26.714  29.093  1.00  0.00     0.173 A 
ATOM     63  C   UNL A   1      40.979  28.249  27.959  1.00  0.00     0.173 A 
ATOM     64  F   UNL A   1      38.813  26.339  30.172  1.00  0.00    -0.203 F 
ATOM     65  C   UNL A   1      39.548  25.868  27.988  1.00  0.00     0.198 A 
ATOM     66  C   UNL A   1      40.983  27.415  26.844  1.00  0.00     0.198 A 
ATOM     67  F   UNL A   1      41.692  29.384  27.920  1.00  0.00    -0.203 F 
ATOM     68  F   UNL A   1      38.889  24.702  28.019  1.00  0.00    -0.200 F 
ATOM     69  C   UNL A   1      40.277  26.222  26.862  1.00  0.00     0.200 A 
ATOM     70  F   UNL A   1      41.681  27.762  25.753  1.00  0.00    -0.200 F 
ATOM     71  F   UNL A   1      40.306  25.408  25.799  1.00  0.00    -0.200 F 
ENDBRANCH  47  61
BRANCH  48  72
ATOM     72  C   UNL A   1      39.653  34.024  36.996  1.00  0.00     0.064 A 
ATOM     73  C   UNL A   1      40.345  35.243  37.033  1.00  0.00     0.173 A 
ATOM     74  C   UNL A   1      38.860  33.690  38.103  1.00  0.00     0.173 A 
ATOM     75  F   UNL A   1      41.132  35.595  36.006  1.00  0.00    -0.203 F 
ATOM     76  C   UNL A   1      40.255  36.088  38.136  1.00  0.00     0.198 A 
ATOM     77  C   UNL A   1      38.752  34.548  39.196  1.00  0.00     0.198 A 
ATOM     78  F   UNL A   1      38.175  32.537  38.115  1.00  0.00    -0.203 F 
ATOM     79  F   UNL A   1      40.952  37.233  38.159  1.00  0.00    -0.200 F 
ATOM     80  C   UNL A   1      39.453  35.745  39.214  1.00  0.00     0.200 A 
ATOM     81  F   UNL A   1      37.966  34.217  40.230  1.00  0.00    -0.200 F 
ATOM     82  F   UNL A   1      39.361  36.562  40.270  1.00  0.00    -0.200 F 
ENDBRANCH  48  72
BRANCH  60  83
ATOM     83  C   UNL A   1      43.674  28.560  35.414  1.00  0.00     0.064 A 
ATOM     84  C   UNL A   1      45.017  28.949  35.305  1.00  0.00     0.173 A 
ATOM     85  C   UNL A   1      43.357  27.515  36.293  1.00  0.00     0.173 A 
ATOM     86  F   UNL A   1      45.368  29.932  34.464  1.00  0.00    -0.203 F 
ATOM     87  C   UNL A   1      46.007  28.305  36.041  1.00  0.00     0.198 A 
ATOM     88  C   UNL A   1      44.347  26.890  37.046  1.00  0.00     0.198 A 
ATOM     89  F   UNL A   1      42.086  27.110  36.434  1.00  0.00    -0.203 F 
ATOM     90  F   UNL A   1      47.289  28.669  35.897  1.00  0.00    -0.200 F 
ATOM     91  C   UNL A   1      45.671  27.283  36.917  1.00  0.00     0.200 A 
ATOM     92  F   UNL A   1      44.020  25.911  37.900  1.00  0.00    -0.200 F 
ATOM     93  F   UNL A   1      46.625  26.673  37.633  1.00  0.00    -0.200 F 
ENDBRANCH  60  83
ENDBRANCH  34  35
ENDBRANCH  26  29
ENDBRANCH  24  25
ENDBRANCH  23  24
ENDBRANCH   1  23
TORSDOF 14
ENDMDL
MODEL 2
REMARK VINA RESULT:     -12.4      0.697      7.392
REMARK SMILES C[C@H](c1ccc(Br)s1)[NH+]1CCC(CC(=O)NCCCCNC(=O)c2ccc(-c3c4nc(c(-c5c(F)c(F)c(F)c(F)c5F)c5ccc([nH]5)c(-c5c(F)c(F)c(F)c(F)c5F)c5nc(c(-c6c(F)c(F)c(F)c(F)c6F)c6ccc3[nH]6)C=C5)C=C4)cc2)CC1
REMARK SMILES IDX 18 1 17 2 16 3 14 4 15 5 13 7 12 8 9 9 10 10 88 11 11 13
REMARK SMILES IDX 87 14 2 15 1 16 3 17 4 18 8 19 5 20 6 21 7 22 19 23 20 24
REMARK SMILES IDX 21 25 22 26 23 28 24 29 25 30 86 31 26 32 85 33 27 34 28 35
REMARK SMILES IDX 29 36 79 37 30 38 84 39 78 40 80 41 31 42 83 43 77 44 76 45
REMARK SMILES IDX 32 47 64 48 44 49 63 50 45 51 48 52 62 53 81 54 46 55 47 56
REMARK SMILES IDX 61 58 82 59 49 60 33 61 34 62 42 63 35 64 36 65 40 66 43 67
REMARK SMILES IDX 37 68 38 69 41 70 39 71 65 72 66 73 74 74 67 75 68 76 72 77
REMARK SMILES IDX 75 78 69 79 70 80 73 81 71 82 50 83 51 84 59 85 52 86 53 87
REMARK SMILES IDX 57 88 60 89 54 90 55 91 58 92 56 93
REMARK H PARENT 16 6 9 12 21 27 80 46 48 57
REMARK Flexibility Score: inf
ROOT
ATOM      1  C   UNL A   1      32.110  30.416  26.791  1.00  0.00     0.023 C 
ENDROOT
BRANCH   1   2
ATOM      2  C   UNL A   1      32.273  29.902  25.355  1.00  0.00     0.116 C 
BRANCH   2   3
ATOM      3  N   UNL A   1      31.066  30.091  24.562  1.00  0.00    -0.356 N 
ATOM      4  C   UNL A   1      30.527  29.332  23.562  1.00  0.00     0.220 C 
ATOM      5  O   UNL A   1      29.490  29.730  23.029  1.00  0.00    -0.275 OA
ATOM      6  H   UNL A   1      30.553  30.902  24.784  1.00  0.00     0.163 HD
BRANCH   4   7
ATOM      7  C   UNL A   1      31.194  28.042  23.095  1.00  0.00     0.104 C 
BRANCH   7   8
ATOM      8  C   UNL A   1      30.448  26.767  23.543  1.00  0.00     0.009 C 
ATOM      9  N   UNL A   1      30.903  24.227  24.970  1.00  0.00    -0.328 N 
ATOM     10  C   UNL A   1      30.704  24.199  23.519  1.00  0.00     0.263 C 
ATOM     11  C   UNL A   1      30.003  25.236  25.544  1.00  0.00     0.263 C 
ATOM     12  H   UNL A   1      31.844  24.524  25.229  1.00  0.00     0.348 HD
ATOM     13  C   UNL A   1      31.096  25.535  22.928  1.00  0.00     0.066 C 
ATOM     14  C   UNL A   1      30.420  26.640  25.074  1.00  0.00     0.066 C 
BRANCH   9  15
ATOM     15  C   UNL A   1      30.809  22.860  25.526  1.00  0.00     0.222 C 
ATOM     16  C   UNL A   1      30.372  22.770  26.991  1.00  0.00     0.082 C 
BRANCH  15  17
ATOM     17  C   UNL A   1      32.070  22.046  25.275  1.00  0.00     0.063 A 
ATOM     18  C   UNL A   1      32.239  20.830  24.634  1.00  0.00     0.023 A 
ATOM     19  S   UNL A   1      33.595  22.676  25.787  1.00  0.00    -0.127 S 
ATOM     20  C   UNL A   1      33.605  20.420  24.572  1.00  0.00     0.028 A 
ATOM     21  C   UNL A   1      34.428  21.350  25.150  1.00  0.00     0.070 A 
ATOM     22  Br  UNL A   1      36.292  21.180  25.220  1.00  0.00    -0.039 Br
ENDBRANCH  15  17
ENDBRANCH   9  15
ENDBRANCH   7   8
ENDBRANCH   4   7
ENDBRANCH   2   3
ENDBRANCH   1   2
BRANCH   1  23
ATOM     23  C   UNL A   1      31.749  31.884  26.930  1.00  0.00     0.023 C 
BRANCH  23  24
ATOM     24  C   UNL A   1      32.897  32.761  27.387  1.00  0.00     0.116 C 
BRANCH  24  25
ATOM     25  N   UNL A   1      32.496  34.132  27.688  1.00  0.00    -0.352 N 
ATOM     26  C   UNL A   1      33.000  34.996  28.634  1.00  0.00     0.251 C 
ATOM     27  H   UNL A   1      31.762  34.488  27.138  1.00  0.00     0.163 HD
ATOM     28  O   UNL A   1      32.486  36.086  28.830  1.00  0.00    -0.269 OA
BRANCH  26  29
ATOM     29  C   UNL A   1      34.151  34.554  29.448  1.00  0.00     0.039 A 
ATOM     30  C   UNL A   1      33.915  33.980  30.698  1.00  0.00     0.014 A 
ATOM     31  C   UNL A   1      35.440  34.603  28.916  1.00  0.00     0.014 A 
ATOM     32  C   UNL A   1      34.961  33.348  31.366  1.00  0.00     0.010 A 
ATOM     33  C   UNL A   1      36.453  33.884  29.530  1.00  0.00     0.010 A 
ATOM     34  C   UNL A   1      36.221  33.239  30.755  1.00  0.00    -0.014 A 
BRANCH  34  35
ATOM     35  C   UNL A   1      37.316  32.441  31.357  1.00  0.00     0.031 A 
ATOM     36  C   UNL A   1      37.827  32.793  32.723  1.00  0.00     0.074 A 
ATOM     37  C   UNL A   1      37.915  31.478  30.630  1.00  0.00     0.049 A 
ATOM     38  N   UNL A   1      38.855  32.311  33.372  1.00  0.00    -0.248 NA
ATOM     39  C   UNL A   1      37.108  33.860  33.440  1.00  0.00     0.031 C 
ATOM     40  C   UNL A   1      37.548  31.089  29.267  1.00  0.00     0.029 A 
ATOM     41  N   UNL A   1      38.976  30.662  30.932  1.00  0.00    -0.354 N 
ATOM     42  C   UNL A   1      38.919  33.032  34.557  1.00  0.00     0.074 A 
ATOM     43  C   UNL A   1      37.867  34.022  34.513  1.00  0.00     0.031 C 
ATOM     44  C   UNL A   1      38.350  30.090  28.863  1.00  0.00     0.029 A 
ATOM     45  C   UNL A   1      39.316  29.801  29.917  1.00  0.00     0.049 A 
ATOM     46  H   UNL A   1      39.450  30.690  31.796  1.00  0.00     0.167 HD
ATOM     47  C   UNL A   1      39.764  32.861  35.601  1.00  0.00     0.037 A 
ATOM     48  C   UNL A   1      40.303  28.888  29.843  1.00  0.00     0.037 A 
ATOM     49  C   UNL A   1      40.781  31.847  35.654  1.00  0.00     0.049 A 
ATOM     50  C   UNL A   1      41.234  28.724  31.013  1.00  0.00     0.074 A 
ATOM     51  C   UNL A   1      41.624  31.524  36.701  1.00  0.00     0.029 A 
ATOM     52  N   UNL A   1      41.092  30.991  34.608  1.00  0.00    -0.354 N 
ATOM     53  N   UNL A   1      41.238  29.356  32.161  1.00  0.00    -0.248 NA
ATOM     54  C   UNL A   1      42.303  27.726  30.872  1.00  0.00     0.031 C 
ATOM     55  C   UNL A   1      42.476  30.500  36.275  1.00  0.00     0.029 A 
ATOM     56  C   UNL A   1      42.138  30.159  34.974  1.00  0.00     0.049 A 
ATOM     57  H   UNL A   1      40.638  30.976  33.735  1.00  0.00     0.167 HD
ATOM     58  C   UNL A   1      42.297  28.828  32.884  1.00  0.00     0.074 A 
ATOM     59  C   UNL A   1      42.903  27.807  32.053  1.00  0.00     0.031 C 
ATOM     60  C   UNL A   1      42.731  29.159  34.124  1.00  0.00     0.037 A 
BRANCH  47  61
ATOM     61  C   UNL A   1      39.609  33.789  36.769  1.00  0.00     0.064 A 
ATOM     62  C   UNL A   1      38.833  33.440  37.885  1.00  0.00     0.173 A 
ATOM     63  C   UNL A   1      40.250  35.036  36.779  1.00  0.00     0.173 A 
ATOM     64  F   UNL A   1      38.186  32.266  37.919  1.00  0.00    -0.203 F 
ATOM     65  C   UNL A   1      38.674  34.322  38.951  1.00  0.00     0.198 A 
ATOM     66  C   UNL A   1      40.114  35.902  37.860  1.00  0.00     0.198 A 
ATOM     67  F   UNL A   1      41.006  35.416  35.737  1.00  0.00    -0.203 F 
ATOM     68  F   UNL A   1      37.882  33.992  39.980  1.00  0.00    -0.200 F 
ATOM     69  C   UNL A   1      39.319  35.550  38.940  1.00  0.00     0.200 A 
ATOM     70  F   UNL A   1      40.745  37.085  37.852  1.00  0.00    -0.200 F 
ATOM     71  F   UNL A   1      39.167  36.397  39.966  1.00  0.00    -0.200 F 
ENDBRANCH  47  61
BRANCH  48  72
ATOM     72  C   UNL A   1      40.446  28.048  28.627  1.00  0.00     0.064 A 
ATOM     73  C   UNL A   1      41.215  28.488  27.541  1.00  0.00     0.173 A 
ATOM     74  C   UNL A   1      39.835  26.789  28.528  1.00  0.00     0.173 A 
ATOM     75  F   UNL A   1      41.800  29.693  27.583  1.00  0.00    -0.203 F 
ATOM     76  C   UNL A   1      41.359  27.705  26.398  1.00  0.00     0.198 A 
ATOM     77  C   UNL A   1      40.000  25.997  27.393  1.00  0.00     0.198 A 
ATOM     78  F   UNL A   1      39.092  26.321  29.542  1.00  0.00    -0.203 F 
ATOM     79  F   UNL A   1      42.074  28.164  25.361  1.00  0.00    -0.200 F 
ATOM     80  C   UNL A   1      40.758  26.458  26.327  1.00  0.00     0.200 A 
ATOM     81  F   UNL A   1      39.428  24.787  27.334  1.00  0.00    -0.200 F 
ATOM     82  F   UNL A   1      40.905  25.703  25.231  1.00  0.00    -0.200 F 
ENDBRANCH  48  72
BRANCH  60  83
ATOM     83  C   UNL A   1      43.919  28.414  34.654  1.00  0.00     0.064 A 
ATOM     84  C   UNL A   1      43.773  27.184  35.312  1.00  0.00     0.173 A 
ATOM     85  C   UNL A   1      45.217  28.908  34.457  1.00  0.00     0.173 A 
ATOM     86  F   UNL A   1      42.550  26.682  35.538  1.00  0.00    -0.203 F 
ATOM     87  C   UNL A   1      44.885  26.481  35.765  1.00  0.00     0.198 A 
ATOM     88  C   UNL A   1      46.328  28.189  34.889  1.00  0.00     0.198 A 
ATOM     89  F   UNL A   1      45.408  30.078  33.830  1.00  0.00    -0.203 F 
ATOM     90  F   UNL A   1      44.722  25.324  36.422  1.00  0.00    -0.200 F 
ATOM     91  C   UNL A   1      46.161  26.979  35.546  1.00  0.00     0.200 A 
ATOM     92  F   UNL A   1      47.561  28.665  34.667  1.00  0.00    -0.200 F 
ATOM     93  F   UNL A   1      47.230  26.294  35.973  1.00  0.00    -0.200 F 
ENDBRANCH  60  83
ENDBRANCH  34  35
ENDBRANCH  26  29
ENDBRANCH  24  25
ENDBRANCH  23  24
ENDBRANCH   1  23
TORSDOF 14
ENDMDL
MODEL 3
REMARK VINA RESULT:     -12.4      0.390      2.019
REMARK SMILES C[C@H](c1ccc(Br)s1)[NH+]1CCC(CC(=O)NCCCCNC(=O)c2ccc(-c3c4nc(c(-c5c(F)c(F)c(F)c(F)c5F)c5ccc([nH]5)c(-c5c(F)c(F)c(F)c(F)c5F)c5nc(c(-c6c(F)c(F)c(F)c(F)c6F)c6ccc3[nH]6)C=C5)C=C4)cc2)CC1
REMARK SMILES IDX 18 1 17 2 16 3 14 4 15 5 13 7 12 8 9 9 10 10 88 11 11 13
REMARK SMILES IDX 87 14 2 15 1 16 3 17 4 18 8 19 5 20 6 21 7 22 19 23 20 24
REMARK SMILES IDX 21 25 22 26 23 28 24 29 25 30 86 31 26 32 85 33 27 34 28 35
REMARK SMILES IDX 29 36 79 37 30 38 84 39 78 40 80 41 31 42 83 43 77 44 76 45
REMARK SMILES IDX 32 47 64 48 44 49 63 50 45 51 48 52 62 53 81 54 46 55 47 56
REMARK SMILES IDX 61 58 82 59 49 60 33 61 34 62 42 63 35 64 36 65 40 66 43 67
REMARK SMILES IDX 37 68 38 69 41 70 39 71 65 72 66 73 74 74 67 75 68 76 72 77
REMARK SMILES IDX 75 78 69 79 70 80 73 81 71 82 50 83 51 84 59 85 52 86 53 87
REMARK SMILES IDX 57 88 60 89 54 90 55 91 58 92 56 93
REMARK H PARENT 16 6 9 12 21 27 80 46 48 57
REMARK Flexibility Score: inf
ROOT
ATOM      1  C   UNL A   1      32.652  30.096  26.713  1.00  0.00     0.023 C 
ENDROOT
BRANCH   1   2
ATOM      2  C   UNL A   1      32.665  29.659  25.244  1.00  0.00     0.116 C 
BRANCH   2   3
ATOM      3  N   UNL A   1      31.413  29.965  24.566  1.00  0.00    -0.356 N 
ATOM      4  C   UNL A   1      30.739  29.291  23.587  1.00  0.00     0.220 C 
ATOM      5  O   UNL A   1      29.692  29.783  23.162  1.00  0.00    -0.275 OA
ATOM      6  H   UNL A   1      30.980  30.798  24.863  1.00  0.00     0.163 HD
BRANCH   4   7
ATOM      7  C   UNL A   1      31.270  27.982  23.014  1.00  0.00     0.104 C 
BRANCH   7   8
ATOM      8  C   UNL A   1      30.502  26.737  23.508  1.00  0.00     0.009 C 
ATOM      9  N   UNL A   1      30.940  24.186  24.921  1.00  0.00    -0.328 N 
ATOM     10  C   UNL A   1      30.659  24.161  23.484  1.00  0.00     0.263 C 
ATOM     11  C   UNL A   1      30.112  25.230  25.539  1.00  0.00     0.263 C 
ATOM     12  H   UNL A   1      31.904  24.448  25.126  1.00  0.00     0.348 HD
ATOM     13  C   UNL A   1      31.069  25.479  22.864  1.00  0.00     0.066 C 
ATOM     14  C   UNL A   1      30.555  26.616  25.039  1.00  0.00     0.066 C 
BRANCH   9  15
ATOM     15  C   UNL A   1      30.825  22.825  25.489  1.00  0.00     0.222 C 
ATOM     16  C   UNL A   1      30.309  22.749  26.928  1.00  0.00     0.082 C 
BRANCH  15  17
ATOM     17  C   UNL A   1      32.104  22.019  25.318  1.00  0.00     0.063 A 
ATOM     18  C   UNL A   1      32.287  20.668  25.067  1.00  0.00     0.023 A 
ATOM     19  S   UNL A   1      33.628  22.832  25.378  1.00  0.00    -0.127 S 
ATOM     20  C   UNL A   1      33.662  20.309  24.934  1.00  0.00     0.028 A 
ATOM     21  C   UNL A   1      34.475  21.402  25.068  1.00  0.00     0.070 A 
ATOM     22  Br  UNL A   1      36.340  21.329  24.911  1.00  0.00    -0.039 Br
ENDBRANCH  15  17
ENDBRANCH   9  15
ENDBRANCH   7   8
ENDBRANCH   4   7
ENDBRANCH   2   3
ENDBRANCH   1   2
BRANCH   1  23
ATOM     23  C   UNL A   1      32.117  31.491  26.982  1.00  0.00     0.023 C 
BRANCH  23  24
ATOM     24  C   UNL A   1      33.153  32.455  27.525  1.00  0.00     0.116 C 
BRANCH  24  25
ATOM     25  N   UNL A   1      32.647  33.813  27.701  1.00  0.00    -0.352 N 
ATOM     26  C   UNL A   1      33.076  34.794  28.567  1.00  0.00     0.251 C 
ATOM     27  H   UNL A   1      31.892  34.061  27.120  1.00  0.00     0.163 HD
ATOM     28  O   UNL A   1      32.479  35.855  28.664  1.00  0.00    -0.269 OA
BRANCH  26  29
ATOM     29  C   UNL A   1      34.250  34.515  29.418  1.00  0.00     0.039 A 
ATOM     30  C   UNL A   1      34.049  34.019  30.707  1.00  0.00     0.014 A 
ATOM     31  C   UNL A   1      35.537  34.635  28.891  1.00  0.00     0.014 A 
ATOM     32  C   UNL A   1      35.138  33.532  31.427  1.00  0.00     0.010 A 
ATOM     33  C   UNL A   1      36.600  34.054  29.564  1.00  0.00     0.010 A 
ATOM     34  C   UNL A   1      36.409  33.486  30.833  1.00  0.00    -0.014 A 
BRANCH  34  35
ATOM     35  C   UNL A   1      37.561  32.833  31.500  1.00  0.00     0.031 A 
ATOM     36  C   UNL A   1      38.231  31.660  30.846  1.00  0.00     0.074 A 
ATOM     37  C   UNL A   1      37.927  33.228  32.735  1.00  0.00     0.049 A 
ATOM     38  N   UNL A   1      39.160  30.870  31.316  1.00  0.00    -0.248 NA
ATOM     39  C   UNL A   1      37.761  31.303  29.497  1.00  0.00     0.031 C 
ATOM     40  C   UNL A   1      37.310  34.314  33.498  1.00  0.00     0.029 A 
ATOM     41  N   UNL A   1      38.899  32.744  33.575  1.00  0.00    -0.354 N 
ATOM     42  C   UNL A   1      39.368  29.912  30.332  1.00  0.00     0.074 A 
ATOM     43  C   UNL A   1      38.427  30.182  29.268  1.00  0.00     0.031 C 
ATOM     44  C   UNL A   1      37.936  34.434  34.680  1.00  0.00     0.029 A 
ATOM     45  C   UNL A   1      38.966  33.405  34.778  1.00  0.00     0.049 A 
ATOM     46  H   UNL A   1      39.492  31.994  33.339  1.00  0.00     0.167 HD
ATOM     47  C   UNL A   1      40.282  28.914  30.309  1.00  0.00     0.037 A 
ATOM     48  C   UNL A   1      39.763  33.196  35.842  1.00  0.00     0.037 A 
ATOM     49  C   UNL A   1      41.241  28.678  31.353  1.00  0.00     0.049 A 
ATOM     50  C   UNL A   1      40.765  32.075  35.795  1.00  0.00     0.074 A 
ATOM     51  C   UNL A   1      42.273  27.759  31.386  1.00  0.00     0.029 A 
ATOM     52  N   UNL A   1      41.281  29.371  32.554  1.00  0.00    -0.354 N 
ATOM     53  N   UNL A   1      41.007  31.224  34.829  1.00  0.00    -0.248 NA
ATOM     54  C   UNL A   1      41.597  31.881  36.991  1.00  0.00     0.031 C 
ATOM     55  C   UNL A   1      42.912  27.866  32.625  1.00  0.00     0.029 A 
ATOM     56  C   UNL A   1      42.302  28.878  33.350  1.00  0.00     0.049 A 
ATOM     57  H   UNL A   1      40.675  30.104  32.805  1.00  0.00     0.167 HD
ATOM     58  C   UNL A   1      42.024  30.401  35.291  1.00  0.00     0.074 A 
ATOM     59  C   UNL A   1      42.369  30.869  36.618  1.00  0.00     0.031 C 
ATOM     60  C   UNL A   1      42.618  29.352  34.673  1.00  0.00     0.037 A 
BRANCH  47  61
ATOM     61  C   UNL A   1      40.288  28.015  29.109  1.00  0.00     0.064 A 
ATOM     62  C   UNL A   1      41.015  28.339  27.953  1.00  0.00     0.173 A 
ATOM     63  C   UNL A   1      39.567  26.812  29.115  1.00  0.00     0.173 A 
ATOM     64  F   UNL A   1      41.709  29.485  27.889  1.00  0.00    -0.203 F 
ATOM     65  C   UNL A   1      40.990  27.509  26.835  1.00  0.00     0.198 A 
ATOM     66  C   UNL A   1      39.569  25.971  28.006  1.00  0.00     0.198 A 
ATOM     67  F   UNL A   1      38.857  26.455  30.196  1.00  0.00    -0.203 F 
ATOM     68  F   UNL A   1      41.645  27.868  25.722  1.00  0.00    -0.200 F 
ATOM     69  C   UNL A   1      40.272  26.324  26.864  1.00  0.00     0.200 A 
ATOM     70  F   UNL A   1      38.881  24.821  28.039  1.00  0.00    -0.200 F 
ATOM     71  F   UNL A   1      40.248  25.526  25.788  1.00  0.00    -0.200 F 
ENDBRANCH  47  61
BRANCH  48  72
ATOM     72  C   UNL A   1      39.659  34.080  37.031  1.00  0.00     0.064 A 
ATOM     73  C   UNL A   1      38.871  33.710  38.129  1.00  0.00     0.173 A 
ATOM     74  C   UNL A   1      40.350  35.298  37.104  1.00  0.00     0.173 A 
ATOM     75  F   UNL A   1      38.176  32.564  38.096  1.00  0.00    -0.203 F 
ATOM     76  C   UNL A   1      38.770  34.529  39.252  1.00  0.00     0.198 A 
ATOM     77  C   UNL A   1      40.267  36.106  38.237  1.00  0.00     0.198 A 
ATOM     78  F   UNL A   1      41.120  35.696  36.080  1.00  0.00    -0.203 F 
ATOM     79  F   UNL A   1      37.984  34.166  40.275  1.00  0.00    -0.200 F 
ATOM     80  C   UNL A   1      39.473  35.723  39.308  1.00  0.00     0.200 A 
ATOM     81  F   UNL A   1      40.958  37.252  38.292  1.00  0.00    -0.200 F 
ATOM     82  F   UNL A   1      39.382  36.506  40.391  1.00  0.00    -0.200 F 
ENDBRANCH  48  72
BRANCH  60  83
ATOM     83  C   UNL A   1      43.698  28.636  35.427  1.00  0.00     0.064 A 
ATOM     84  C   UNL A   1      43.398  27.584  36.304  1.00  0.00     0.173 A 
ATOM     85  C   UNL A   1      45.046  28.969  35.231  1.00  0.00     0.173 A 
ATOM     86  F   UNL A   1      42.122  27.242  36.535  1.00  0.00    -0.203 F 
ATOM     87  C   UNL A   1      44.410  26.899  36.970  1.00  0.00     0.198 A 
ATOM     88  C   UNL A   1      46.057  28.265  35.879  1.00  0.00     0.198 A 
ATOM     89  F   UNL A   1      45.383  29.965  34.399  1.00  0.00    -0.203 F 
ATOM     90  F   UNL A   1      44.100  25.920  37.831  1.00  0.00    -0.200 F 
ATOM     91  C   UNL A   1      45.738  27.234  36.750  1.00  0.00     0.200 A 
ATOM     92  F   UNL A   1      47.340  28.581  35.658  1.00  0.00    -0.200 F 
ATOM     93  F   UNL A   1      46.711  26.565  37.384  1.00  0.00    -0.200 F 
ENDBRANCH  60  83
ENDBRANCH  34  35
ENDBRANCH  26  29
ENDBRANCH  24  25
ENDBRANCH  23  24
ENDBRANCH   1  23
TORSDOF 14
ENDMDL
