MODEL 1
REMARK VINA RESULT:     -14.4      0.000      0.000
REMARK SMILES CN1C(=O)C[C@@H](C(=O)NCCCCNC(=O)c2ccc(-c3c4nc(c(-c5c(F)c(F)c(F)c(F)c5F)c5ccc([nH]5)c(-c5c(F)c(F)c(F)c(F)c5F)c5nc(c(-c6c(F)c(F)c(F)c(F)c6F)c6ccc3[nH]6)C=C5)C=C4)cc2)C12CCN(C(=O)c1ccccc1-n1cccn1)CC2
REMARK SMILES IDX 11 1 10 2 9 3 7 4 8 5 6 7 1 8 2 9 3 10 80 11 4 12 5 13 81 14
REMARK SMILES IDX 98 15 82 16 97 17 83 18 84 19 85 20 86 21 87 22 91 23 88 24
REMARK SMILES IDX 90 25 89 26 92 27 93 28 96 29 94 30 95 31 12 32 13 33 14 34
REMARK SMILES IDX 15 35 16 37 17 38 18 39 79 40 19 41 78 42 20 43 21 44 22 45
REMARK SMILES IDX 72 46 23 47 77 48 71 49 73 50 24 51 76 52 70 53 69 54 25 56
REMARK SMILES IDX 57 57 37 58 56 59 38 60 41 61 55 62 74 63 39 64 40 65 54 67
REMARK SMILES IDX 75 68 42 69 26 70 27 71 35 72 28 73 29 74 33 75 36 76 30 77
REMARK SMILES IDX 31 78 34 79 32 80 58 81 59 82 67 83 60 84 61 85 65 86 68 87
REMARK SMILES IDX 62 88 63 89 66 90 64 91 43 92 44 93 52 94 45 95 46 96 50 97
REMARK SMILES IDX 53 98 47 99 48 100 51 101 49 102
REMARK H PARENT 9 6 14 36 73 55 41 66
REMARK Flexibility Score: inf
ROOT
ATOM      1  C   UNL A   1      31.795  30.544  26.813  1.00  0.00     0.023 C 
ENDROOT
BRANCH   1   2
ATOM      2  C   UNL A   1      31.588  29.897  25.439  1.00  0.00     0.116 C 
BRANCH   2   3
ATOM      3  N   UNL A   1      32.806  29.748  24.656  1.00  0.00    -0.356 N 
ATOM      4  C   UNL A   1      33.097  29.177  23.459  1.00  0.00     0.226 C 
ATOM      5  O   UNL A   1      34.270  29.289  23.080  1.00  0.00    -0.275 OA
ATOM      6  H   UNL A   1      33.592  30.152  25.089  1.00  0.00     0.163 HD
BRANCH   4   7
ATOM      7  C   UNL A   1      32.123  28.376  22.585  1.00  0.00     0.113 C 
ATOM      8  C   UNL A   1      29.525  26.551  24.558  1.00  0.00     0.147 C 
ATOM      9  N   UNL A   1      30.325  27.390  23.686  1.00  0.00    -0.339 N 
ATOM     10  C   UNL A   1      29.793  28.525  23.082  1.00  0.00     0.223 C 
ATOM     11  C   UNL A   1      31.639  27.015  23.135  1.00  0.00     0.058 C 
ATOM     12  O   UNL A   1      28.667  28.971  23.229  1.00  0.00    -0.275 OA
ATOM     13  C   UNL A   1      30.862  29.162  22.238  1.00  0.00     0.116 C 
ATOM     14  C   UNL A   1      32.631  26.407  24.151  1.00  0.00     0.051 C 
ATOM     15  C   UNL A   1      31.381  25.973  21.996  1.00  0.00     0.051 C 
ATOM     16  C   UNL A   1      33.875  25.821  23.493  1.00  0.00     0.122 C 
ATOM     17  C   UNL A   1      32.634  25.266  21.474  1.00  0.00     0.122 C 
ATOM     18  N   UNL A   1      33.454  24.780  22.576  1.00  0.00    -0.338 N 
ATOM     19  C   UNL A   1      33.725  23.418  22.710  1.00  0.00     0.256 C 
ATOM     20  O   UNL A   1      33.286  22.559  21.950  1.00  0.00    -0.269 OA
BRANCH  19  21
ATOM     21  C   UNL A   1      34.643  22.966  23.782  1.00  0.00     0.065 A 
ATOM     22  C   UNL A   1      35.981  22.795  23.382  1.00  0.00     0.016 A 
ATOM     23  C   UNL A   1      34.298  22.807  25.133  1.00  0.00     0.077 A 
ATOM     24  C   UNL A   1      36.972  22.507  24.321  1.00  0.00     0.001 A 
ATOM     25  C   UNL A   1      35.317  22.574  26.078  1.00  0.00     0.029 A 
ATOM     26  C   UNL A   1      36.643  22.414  25.670  1.00  0.00     0.002 A 
BRANCH  23  27
ATOM     27  N   UNL A   1      32.963  22.861  25.608  1.00  0.00    -0.240 N 
ATOM     28  C   UNL A   1      31.901  22.038  25.307  1.00  0.00     0.115 A 
ATOM     29  N   UNL A   1      32.598  23.818  26.507  1.00  0.00    -0.177 NA
ATOM     30  C   UNL A   1      30.815  22.500  26.012  1.00  0.00     0.042 A 
ATOM     31  C   UNL A   1      31.300  23.608  26.720  1.00  0.00     0.135 A 
ENDBRANCH  23  27
ENDBRANCH  19  21
ENDBRANCH   4   7
ENDBRANCH   2   3
ENDBRANCH   1   2
BRANCH   1  32
ATOM     32  C   UNL A   1      31.569  32.052  26.848  1.00  0.00     0.023 C 
BRANCH  32  33
ATOM     33  C   UNL A   1      32.799  32.852  27.250  1.00  0.00     0.116 C 
BRANCH  33  34
ATOM     34  N   UNL A   1      32.487  34.225  27.629  1.00  0.00    -0.352 N 
ATOM     35  C   UNL A   1      33.031  34.976  28.640  1.00  0.00     0.251 C 
ATOM     36  H   UNL A   1      31.795  34.671  27.089  1.00  0.00     0.163 HD
ATOM     37  O   UNL A   1      32.579  36.079  28.923  1.00  0.00    -0.269 OA
BRANCH  35  38
ATOM     38  C   UNL A   1      34.154  34.410  29.405  1.00  0.00     0.039 A 
ATOM     39  C   UNL A   1      33.884  33.631  30.532  1.00  0.00     0.014 A 
ATOM     40  C   UNL A   1      35.462  34.583  28.945  1.00  0.00     0.014 A 
ATOM     41  C   UNL A   1      34.931  32.956  31.158  1.00  0.00     0.010 A 
ATOM     42  C   UNL A   1      36.487  33.845  29.518  1.00  0.00     0.010 A 
ATOM     43  C   UNL A   1      36.230  33.026  30.628  1.00  0.00    -0.014 A 
BRANCH  43  44
ATOM     44  C   UNL A   1      37.352  32.258  31.217  1.00  0.00     0.031 A 
ATOM     45  C   UNL A   1      37.859  32.626  32.582  1.00  0.00     0.074 A 
ATOM     46  C   UNL A   1      37.968  31.307  30.489  1.00  0.00     0.049 A 
ATOM     47  N   UNL A   1      38.910  32.184  33.221  1.00  0.00    -0.248 NA
ATOM     48  C   UNL A   1      37.103  33.660  33.307  1.00  0.00     0.031 C 
ATOM     49  C   UNL A   1      37.595  30.902  29.133  1.00  0.00     0.029 A 
ATOM     50  N   UNL A   1      39.052  30.522  30.784  1.00  0.00    -0.354 N 
ATOM     51  C   UNL A   1      38.956  32.904  34.407  1.00  0.00     0.074 A 
ATOM     52  C   UNL A   1      37.862  33.848  34.377  1.00  0.00     0.031 C 
ATOM     53  C   UNL A   1      38.422  29.929  28.722  1.00  0.00     0.029 A 
ATOM     54  C   UNL A   1      39.408  29.670  29.768  1.00  0.00     0.049 A 
ATOM     55  H   UNL A   1      39.530  30.564  31.644  1.00  0.00     0.167 HD
ATOM     56  C   UNL A   1      39.820  32.770  35.440  1.00  0.00     0.037 A 
ATOM     57  C   UNL A   1      40.420  28.786  29.689  1.00  0.00     0.037 A 
ATOM     58  C   UNL A   1      40.880  31.799  35.480  1.00  0.00     0.049 A 
ATOM     59  C   UNL A   1      41.357  28.645  30.859  1.00  0.00     0.074 A 
ATOM     60  C   UNL A   1      41.771  31.536  36.505  1.00  0.00     0.029 A 
ATOM     61  N   UNL A   1      41.183  30.923  34.448  1.00  0.00    -0.354 N 
ATOM     62  N   UNL A   1      41.357  29.291  32.001  1.00  0.00    -0.248 NA
ATOM     63  C   UNL A   1      42.431  27.651  30.732  1.00  0.00     0.031 C 
ATOM     64  C   UNL A   1      42.635  30.521  36.080  1.00  0.00     0.029 A 
ATOM     65  C   UNL A   1      42.256  30.125  34.807  1.00  0.00     0.049 A 
ATOM     66  H   UNL A   1      40.707  30.876  33.588  1.00  0.00     0.167 HD
ATOM     67  C   UNL A   1      42.409  28.763  32.736  1.00  0.00     0.074 A 
ATOM     68  C   UNL A   1      43.018  27.736  31.917  1.00  0.00     0.031 C 
ATOM     69  C   UNL A   1      42.833  29.097  33.980  1.00  0.00     0.037 A 
BRANCH  56  70
ATOM     70  C   UNL A   1      39.644  33.689  36.611  1.00  0.00     0.064 A 
ATOM     71  C   UNL A   1      40.266  34.946  36.659  1.00  0.00     0.173 A 
ATOM     72  C   UNL A   1      38.828  33.319  37.691  1.00  0.00     0.173 A 
ATOM     73  F   UNL A   1      41.070  35.339  35.658  1.00  0.00    -0.203 F 
ATOM     74  C   UNL A   1      40.102  35.786  37.756  1.00  0.00     0.198 A 
ATOM     75  C   UNL A   1      38.642  34.175  38.773  1.00  0.00     0.198 A 
ATOM     76  F   UNL A   1      38.208  32.130  37.695  1.00  0.00    -0.203 F 
ATOM     77  F   UNL A   1      40.749  36.959  37.802  1.00  0.00    -0.200 F 
ATOM     78  C   UNL A   1      39.286  35.403  38.809  1.00  0.00     0.200 A 
ATOM     79  F   UNL A   1      37.845  33.809  39.786  1.00  0.00    -0.200 F 
ATOM     80  F   UNL A   1      39.124  36.215  39.864  1.00  0.00    -0.200 F 
ENDBRANCH  56  70
BRANCH  57  81
ATOM     81  C   UNL A   1      40.584  27.945  28.476  1.00  0.00     0.064 A 
ATOM     82  C   UNL A   1      39.972  26.688  28.389  1.00  0.00     0.173 A 
ATOM     83  C   UNL A   1      41.356  28.373  27.386  1.00  0.00     0.173 A 
ATOM     84  F   UNL A   1      39.240  26.229  29.416  1.00  0.00    -0.203 F 
ATOM     85  C   UNL A   1      40.139  25.881  27.267  1.00  0.00     0.198 A 
ATOM     86  C   UNL A   1      41.502  27.576  26.253  1.00  0.00     0.198 A 
ATOM     87  F   UNL A   1      41.957  29.570  27.417  1.00  0.00    -0.203 F 
ATOM     88  F   UNL A   1      39.577  24.665  27.229  1.00  0.00    -0.200 F 
ATOM     89  C   UNL A   1      40.901  26.327  26.197  1.00  0.00     0.200 A 
ATOM     90  F   UNL A   1      42.228  28.015  25.216  1.00  0.00    -0.200 F 
ATOM     91  F   UNL A   1      41.062  25.551  25.117  1.00  0.00    -0.200 F 
ENDBRANCH  57  81
BRANCH  69  92
ATOM     92  C   UNL A   1      43.983  28.320  34.545  1.00  0.00     0.064 A 
ATOM     93  C   UNL A   1      45.305  28.769  34.419  1.00  0.00     0.173 A 
ATOM     94  C   UNL A   1      43.752  27.141  35.270  1.00  0.00     0.173 A 
ATOM     95  F   UNL A   1      45.576  29.882  33.721  1.00  0.00    -0.203 F 
ATOM     96  C   UNL A   1      46.357  28.055  34.984  1.00  0.00     0.198 A 
ATOM     97  C   UNL A   1      44.803  26.445  35.856  1.00  0.00     0.198 A 
ATOM     98  F   UNL A   1      42.502  26.676  35.423  1.00  0.00    -0.203 F 
ATOM     99  F   UNL A   1      47.617  28.480  34.820  1.00  0.00    -0.200 F 
ATOM    100  C   UNL A   1      46.105  26.898  35.708  1.00  0.00     0.200 A 
ATOM    101  F   UNL A   1      44.557  25.335  36.565  1.00  0.00    -0.200 F 
ATOM    102  F   UNL A   1      47.119  26.219  36.262  1.00  0.00    -0.200 F 
ENDBRANCH  69  92
ENDBRANCH  43  44
ENDBRANCH  35  38
ENDBRANCH  33  34
ENDBRANCH  32  33
ENDBRANCH   1  32
TORSDOF 13
ENDMDL
MODEL 2
REMARK VINA RESULT:     -14.4      0.630      6.999
REMARK SMILES CN1C(=O)C[C@@H](C(=O)NCCCCNC(=O)c2ccc(-c3c4nc(c(-c5c(F)c(F)c(F)c(F)c5F)c5ccc([nH]5)c(-c5c(F)c(F)c(F)c(F)c5F)c5nc(c(-c6c(F)c(F)c(F)c(F)c6F)c6ccc3[nH]6)C=C5)C=C4)cc2)C12CCN(C(=O)c1ccccc1-n1cccn1)CC2
REMARK SMILES IDX 11 1 10 2 9 3 7 4 8 5 6 7 1 8 2 9 3 10 80 11 4 12 5 13 81 14
REMARK SMILES IDX 98 15 82 16 97 17 83 18 84 19 85 20 86 21 87 22 91 23 88 24
REMARK SMILES IDX 90 25 89 26 92 27 93 28 96 29 94 30 95 31 12 32 13 33 14 34
REMARK SMILES IDX 15 35 16 37 17 38 18 39 79 40 19 41 78 42 20 43 21 44 22 45
REMARK SMILES IDX 72 46 23 47 77 48 71 49 73 50 24 51 76 52 70 53 69 54 25 56
REMARK SMILES IDX 57 57 37 58 56 59 38 60 41 61 55 62 74 63 39 64 40 65 54 67
REMARK SMILES IDX 75 68 42 69 26 70 27 71 35 72 28 73 29 74 33 75 36 76 30 77
REMARK SMILES IDX 31 78 34 79 32 80 58 81 59 82 67 83 60 84 61 85 65 86 68 87
REMARK SMILES IDX 62 88 63 89 66 90 64 91 43 92 44 93 52 94 45 95 46 96 50 97
REMARK SMILES IDX 53 98 47 99 48 100 51 101 49 102
REMARK H PARENT 9 6 14 36 73 55 41 66
REMARK Flexibility Score: inf
ROOT
ATOM      1  C   UNL A   1      32.040  30.449  26.817  1.00  0.00     0.023 C 
ENDROOT
BRANCH   1   2
ATOM      2  C   UNL A   1      31.779  29.820  25.444  1.00  0.00     0.116 C 
BRANCH   2   3
ATOM      3  N   UNL A   1      32.966  29.678  24.614  1.00  0.00    -0.356 N 
ATOM      4  C   UNL A   1      33.212  29.114  23.404  1.00  0.00     0.226 C 
ATOM      5  O   UNL A   1      34.370  29.230  22.981  1.00  0.00    -0.275 OA
ATOM      6  H   UNL A   1      33.768  30.081  25.019  1.00  0.00     0.163 HD
BRANCH   4   7
ATOM      7  C   UNL A   1      32.206  28.316  22.563  1.00  0.00     0.113 C 
ATOM      8  C   UNL A   1      29.622  26.565  24.618  1.00  0.00     0.147 C 
ATOM      9  N   UNL A   1      30.416  27.378  23.717  1.00  0.00    -0.339 N 
ATOM     10  C   UNL A   1      29.890  28.512  23.108  1.00  0.00     0.223 C 
ATOM     11  C   UNL A   1      31.712  26.972  23.143  1.00  0.00     0.058 C 
ATOM     12  O   UNL A   1      28.775  28.979  23.272  1.00  0.00    -0.275 OA
ATOM     13  C   UNL A   1      30.951  29.119  22.231  1.00  0.00     0.116 C 
ATOM     14  C   UNL A   1      32.715  26.362  24.147  1.00  0.00     0.051 C 
ATOM     15  C   UNL A   1      31.412  25.919  22.026  1.00  0.00     0.051 C 
ATOM     16  C   UNL A   1      33.934  25.747  23.472  1.00  0.00     0.122 C 
ATOM     17  C   UNL A   1      32.641  25.182  21.488  1.00  0.00     0.122 C 
ATOM     18  N   UNL A   1      33.477  24.699  22.579  1.00  0.00    -0.338 N 
ATOM     19  C   UNL A   1      33.728  23.335  22.728  1.00  0.00     0.256 C 
ATOM     20  O   UNL A   1      33.259  22.473  21.991  1.00  0.00    -0.269 OA
BRANCH  19  21
ATOM     21  C   UNL A   1      34.662  22.883  23.787  1.00  0.00     0.065 A 
ATOM     22  C   UNL A   1      35.990  22.697  23.364  1.00  0.00     0.016 A 
ATOM     23  C   UNL A   1      34.340  22.738  25.145  1.00  0.00     0.077 A 
ATOM     24  C   UNL A   1      36.996  22.408  24.287  1.00  0.00     0.001 A 
ATOM     25  C   UNL A   1      35.374  22.503  26.073  1.00  0.00     0.029 A 
ATOM     26  C   UNL A   1      36.691  22.329  25.643  1.00  0.00     0.002 A 
BRANCH  23  27
ATOM     27  N   UNL A   1      33.014  22.807  25.644  1.00  0.00    -0.240 N 
ATOM     28  C   UNL A   1      31.925  22.027  25.324  1.00  0.00     0.115 A 
ATOM     29  N   UNL A   1      32.689  23.733  26.589  1.00  0.00    -0.177 NA
ATOM     30  C   UNL A   1      30.863  22.487  26.067  1.00  0.00     0.042 A 
ATOM     31  C   UNL A   1      31.389  23.549  26.815  1.00  0.00     0.135 A 
ENDBRANCH  23  27
ENDBRANCH  19  21
ENDBRANCH   4   7
ENDBRANCH   2   3
ENDBRANCH   1   2
BRANCH   1  32
ATOM     32  C   UNL A   1      31.728  31.940  26.906  1.00  0.00     0.023 C 
BRANCH  32  33
ATOM     33  C   UNL A   1      32.853  32.772  27.502  1.00  0.00     0.116 C 
BRANCH  33  34
ATOM     34  N   UNL A   1      32.476  34.163  27.725  1.00  0.00    -0.352 N 
ATOM     35  C   UNL A   1      33.003  35.056  28.624  1.00  0.00     0.251 C 
ATOM     36  H   UNL A   1      31.749  34.506  27.156  1.00  0.00     0.163 HD
ATOM     37  O   UNL A   1      32.498  36.161  28.788  1.00  0.00    -0.269 OA
BRANCH  35  38
ATOM     38  C   UNL A   1      34.172  34.643  29.417  1.00  0.00     0.039 A 
ATOM     39  C   UNL A   1      33.982  34.204  30.728  1.00  0.00     0.014 A 
ATOM     40  C   UNL A   1      35.435  34.611  28.822  1.00  0.00     0.014 A 
ATOM     41  C   UNL A   1      35.058  33.655  31.424  1.00  0.00     0.010 A 
ATOM     42  C   UNL A   1      36.482  33.989  29.485  1.00  0.00     0.010 A 
ATOM     43  C   UNL A   1      36.303  33.505  30.789  1.00  0.00    -0.014 A 
BRANCH  43  44
ATOM     44  C   UNL A   1      37.446  32.852  31.468  1.00  0.00     0.031 A 
ATOM     45  C   UNL A   1      38.127  31.688  30.809  1.00  0.00     0.074 A 
ATOM     46  C   UNL A   1      37.802  33.244  32.706  1.00  0.00     0.049 A 
ATOM     47  N   UNL A   1      39.045  30.888  31.284  1.00  0.00    -0.248 NA
ATOM     48  C   UNL A   1      37.683  31.353  29.446  1.00  0.00     0.031 C 
ATOM     49  C   UNL A   1      37.178  34.329  33.465  1.00  0.00     0.029 A 
ATOM     50  N   UNL A   1      38.765  32.758  33.552  1.00  0.00    -0.354 N 
ATOM     51  C   UNL A   1      39.268  29.943  30.291  1.00  0.00     0.074 A 
ATOM     52  C   UNL A   1      38.353  30.235  29.210  1.00  0.00     0.031 C 
ATOM     53  C   UNL A   1      37.789  34.440  34.656  1.00  0.00     0.029 A 
ATOM     54  C   UNL A   1      38.818  33.410  34.760  1.00  0.00     0.049 A 
ATOM     55  H   UNL A   1      39.363  32.011  33.317  1.00  0.00     0.167 HD
ATOM     56  C   UNL A   1      40.174  28.938  30.274  1.00  0.00     0.037 A 
ATOM     57  C   UNL A   1      39.604  33.193  35.831  1.00  0.00     0.037 A 
ATOM     58  C   UNL A   1      41.111  28.682  31.335  1.00  0.00     0.049 A 
ATOM     59  C   UNL A   1      40.616  32.079  35.778  1.00  0.00     0.074 A 
ATOM     60  C   UNL A   1      42.113  27.732  31.390  1.00  0.00     0.029 A 
ATOM     61  N   UNL A   1      41.162  29.392  32.526  1.00  0.00    -0.354 N 
ATOM     62  N   UNL A   1      40.858  31.227  34.812  1.00  0.00    -0.248 NA
ATOM     63  C   UNL A   1      41.464  31.900  36.964  1.00  0.00     0.031 C 
ATOM     64  C   UNL A   1      42.753  27.845  32.629  1.00  0.00     0.029 A 
ATOM     65  C   UNL A   1      42.174  28.893  33.329  1.00  0.00     0.049 A 
ATOM     66  H   UNL A   1      40.568  30.140  32.765  1.00  0.00     0.167 HD
ATOM     67  C   UNL A   1      41.903  30.431  35.259  1.00  0.00     0.074 A 
ATOM     68  C   UNL A   1      42.256  30.909  36.580  1.00  0.00     0.031 C 
ATOM     69  C   UNL A   1      42.517  29.397  34.633  1.00  0.00     0.037 A 
BRANCH  56  70
ATOM     70  C   UNL A   1      40.201  28.053  29.065  1.00  0.00     0.064 A 
ATOM     71  C   UNL A   1      40.930  28.400  27.917  1.00  0.00     0.173 A 
ATOM     72  C   UNL A   1      39.508  26.833  29.058  1.00  0.00     0.173 A 
ATOM     73  F   UNL A   1      41.596  29.565  27.867  1.00  0.00    -0.203 F 
ATOM     74  C   UNL A   1      40.940  27.574  26.796  1.00  0.00     0.198 A 
ATOM     75  C   UNL A   1      39.545  25.995  27.947  1.00  0.00     0.198 A 
ATOM     76  F   UNL A   1      38.798  26.452  30.131  1.00  0.00    -0.203 F 
ATOM     77  F   UNL A   1      41.600  27.952  25.694  1.00  0.00    -0.200 F 
ATOM     78  C   UNL A   1      40.254  26.370  26.815  1.00  0.00     0.200 A 
ATOM     79  F   UNL A   1      38.890  24.826  27.968  1.00  0.00    -0.200 F 
ATOM     80  F   UNL A   1      40.268  25.572  25.737  1.00  0.00    -0.200 F 
ENDBRANCH  56  70
BRANCH  57  81
ATOM     81  C   UNL A   1      39.491  34.064  37.028  1.00  0.00     0.064 A 
ATOM     82  C   UNL A   1      40.138  35.306  37.073  1.00  0.00     0.173 A 
ATOM     83  C   UNL A   1      38.744  33.675  38.149  1.00  0.00     0.173 A 
ATOM     84  F   UNL A   1      40.880  35.710  36.032  1.00  0.00    -0.203 F 
ATOM     85  C   UNL A   1      40.058  36.119  38.201  1.00  0.00     0.198 A 
ATOM     86  C   UNL A   1      38.643  34.501  39.267  1.00  0.00     0.198 A 
ATOM     87  F   UNL A   1      38.101  32.499  38.154  1.00  0.00    -0.203 F 
ATOM     88  F   UNL A   1      40.723  37.283  38.233  1.00  0.00    -0.200 F 
ATOM     89  C   UNL A   1      39.308  35.718  39.296  1.00  0.00     0.200 A 
ATOM     90  F   UNL A   1      37.907  34.116  40.319  1.00  0.00    -0.200 F 
ATOM     91  F   UNL A   1      39.231  36.501  40.381  1.00  0.00    -0.200 F 
ENDBRANCH  57  81
BRANCH  69  92
ATOM     92  C   UNL A   1      43.657  28.739  35.349  1.00  0.00     0.064 A 
ATOM     93  C   UNL A   1      44.985  29.134  35.135  1.00  0.00     0.173 A 
ATOM     94  C   UNL A   1      43.410  27.740  36.304  1.00  0.00     0.173 A 
ATOM     95  F   UNL A   1      45.271  30.073  34.221  1.00  0.00    -0.203 F 
ATOM     96  C   UNL A   1      46.028  28.539  35.838  1.00  0.00     0.198 A 
ATOM     97  C   UNL A   1      44.453  27.167  37.024  1.00  0.00     0.198 A 
ATOM     98  F   UNL A   1      42.154  27.335  36.548  1.00  0.00    -0.203 F 
ATOM     99  F   UNL A   1      47.294  28.903  35.591  1.00  0.00    -0.200 F 
ATOM    100  C   UNL A   1      45.760  27.562  36.787  1.00  0.00     0.200 A 
ATOM    101  F   UNL A   1      44.192  26.233  37.949  1.00  0.00    -0.200 F 
ATOM    102  F   UNL A   1      46.766  26.999  37.472  1.00  0.00    -0.200 F 
ENDBRANCH  69  92
ENDBRANCH  43  44
ENDBRANCH  35  38
ENDBRANCH  33  34
ENDBRANCH  32  33
ENDBRANCH   1  32
TORSDOF 13
ENDMDL
MODEL 3
REMARK VINA RESULT:     -13.8      5.074      9.687
REMARK SMILES CN1C(=O)C[C@@H](C(=O)NCCCCNC(=O)c2ccc(-c3c4nc(c(-c5c(F)c(F)c(F)c(F)c5F)c5ccc([nH]5)c(-c5c(F)c(F)c(F)c(F)c5F)c5nc(c(-c6c(F)c(F)c(F)c(F)c6F)c6ccc3[nH]6)C=C5)C=C4)cc2)C12CCN(C(=O)c1ccccc1-n1cccn1)CC2
REMARK SMILES IDX 11 1 10 2 9 3 7 4 8 5 6 7 1 8 2 9 3 10 80 11 4 12 5 13 81 14
REMARK SMILES IDX 98 15 82 16 97 17 83 18 84 19 85 20 86 21 87 22 91 23 88 24
REMARK SMILES IDX 90 25 89 26 92 27 93 28 96 29 94 30 95 31 12 32 13 33 14 34
REMARK SMILES IDX 15 35 16 37 17 38 18 39 79 40 19 41 78 42 20 43 21 44 22 45
REMARK SMILES IDX 72 46 23 47 77 48 71 49 73 50 24 51 76 52 70 53 69 54 25 56
REMARK SMILES IDX 57 57 37 58 56 59 38 60 41 61 55 62 74 63 39 64 40 65 54 67
REMARK SMILES IDX 75 68 42 69 26 70 27 71 35 72 28 73 29 74 33 75 36 76 30 77
REMARK SMILES IDX 31 78 34 79 32 80 58 81 59 82 67 83 60 84 61 85 65 86 68 87
REMARK SMILES IDX 62 88 63 89 66 90 64 91 43 92 44 93 52 94 45 95 46 96 50 97
REMARK SMILES IDX 53 98 47 99 48 100 51 101 49 102
REMARK H PARENT 9 6 14 36 73 55 41 66
REMARK Flexibility Score: inf
ROOT
ATOM      1  C   UNL A   1      39.133  23.165  26.267  1.00  0.00     0.023 C 
ENDROOT
BRANCH   1   2
ATOM      2  C   UNL A   1      37.801  23.901  26.082  1.00  0.00     0.116 C 
BRANCH   2   3
ATOM      3  N   UNL A   1      37.182  23.703  24.779  1.00  0.00    -0.356 N 
ATOM      4  C   UNL A   1      36.002  23.177  24.363  1.00  0.00     0.226 C 
ATOM      5  O   UNL A   1      35.793  23.219  23.144  1.00  0.00    -0.275 OA
ATOM      6  H   UNL A   1      37.743  24.022  24.036  1.00  0.00     0.163 HD
BRANCH   4   7
ATOM      7  C   UNL A   1      34.954  22.501  25.258  1.00  0.00     0.113 C 
ATOM      8  C   UNL A   1      32.153  20.944  23.332  1.00  0.00     0.147 C 
ATOM      9  N   UNL A   1      33.289  21.298  24.161  1.00  0.00    -0.339 N 
ATOM     10  C   UNL A   1      34.177  20.333  24.626  1.00  0.00     0.223 C 
ATOM     11  C   UNL A   1      33.477  22.606  24.814  1.00  0.00     0.058 C 
ATOM     12  O   UNL A   1      34.154  19.139  24.378  1.00  0.00    -0.275 OA
ATOM     13  C   UNL A   1      35.227  21.012  25.462  1.00  0.00     0.116 C 
ATOM     14  C   UNL A   1      33.221  23.835  23.914  1.00  0.00     0.051 C 
ATOM     15  C   UNL A   1      32.495  22.658  26.032  1.00  0.00     0.051 C 
ATOM     16  C   UNL A   1      33.195  25.146  24.689  1.00  0.00     0.122 C 
ATOM     17  C   UNL A   1      32.351  24.036  26.683  1.00  0.00     0.122 C 
ATOM     18  N   UNL A   1      32.137  25.068  25.677  1.00  0.00    -0.338 N 
ATOM     19  C   UNL A   1      30.973  25.835  25.687  1.00  0.00     0.256 C 
ATOM     20  O   UNL A   1      30.065  25.685  26.501  1.00  0.00    -0.269 OA
BRANCH  19  21
ATOM     21  C   UNL A   1      30.829  26.943  24.713  1.00  0.00     0.065 A 
ATOM     22  C   UNL A   1      29.923  26.698  23.666  1.00  0.00     0.016 A 
ATOM     23  C   UNL A   1      31.434  28.206  24.825  1.00  0.00     0.077 A 
ATOM     24  C   UNL A   1      29.592  27.707  22.761  1.00  0.00     0.001 A 
ATOM     25  C   UNL A   1      31.046  29.232  23.941  1.00  0.00     0.029 A 
ATOM     26  C   UNL A   1      30.140  28.978  22.910  1.00  0.00     0.002 A 
BRANCH  23  27
ATOM     27  N   UNL A   1      32.432  28.510  25.786  1.00  0.00    -0.240 N 
ATOM     28  C   UNL A   1      32.286  28.823  27.119  1.00  0.00     0.115 A 
ATOM     29  N   UNL A   1      33.747  28.494  25.431  1.00  0.00    -0.177 NA
ATOM     30  C   UNL A   1      33.544  29.042  27.626  1.00  0.00     0.042 A 
ATOM     31  C   UNL A   1      34.403  28.842  26.536  1.00  0.00     0.135 A 
ENDBRANCH  23  27
ENDBRANCH  19  21
ENDBRANCH   4   7
ENDBRANCH   2   3
ENDBRANCH   1   2
BRANCH   1  32
ATOM     32  C   UNL A   1      39.002  21.675  26.570  1.00  0.00     0.023 C 
BRANCH  32  33
ATOM     33  C   UNL A   1      39.282  20.775  25.376  1.00  0.00     0.116 C 
BRANCH  33  34
ATOM     34  N   UNL A   1      40.048  19.586  25.727  1.00  0.00    -0.352 N 
ATOM     35  C   UNL A   1      41.345  19.504  26.169  1.00  0.00     0.251 C 
ATOM     36  H   UNL A   1      39.573  18.728  25.637  1.00  0.00     0.163 HD
ATOM     37  O   UNL A   1      41.901  18.421  26.305  1.00  0.00    -0.269 OA
BRANCH  35  38
ATOM     38  C   UNL A   1      42.070  20.756  26.441  1.00  0.00     0.039 A 
ATOM     39  C   UNL A   1      42.454  21.566  25.372  1.00  0.00     0.014 A 
ATOM     40  C   UNL A   1      42.284  21.157  27.763  1.00  0.00     0.014 A 
ATOM     41  C   UNL A   1      42.988  22.827  25.631  1.00  0.00     0.010 A 
ATOM     42  C   UNL A   1      42.736  22.444  28.016  1.00  0.00     0.010 A 
ATOM     43  C   UNL A   1      43.091  23.289  26.954  1.00  0.00    -0.014 A 
BRANCH  43  44
ATOM     44  C   UNL A   1      43.577  24.653  27.265  1.00  0.00     0.031 A 
ATOM     45  C   UNL A   1      42.623  25.663  27.833  1.00  0.00     0.074 A 
ATOM     46  C   UNL A   1      44.838  25.003  26.946  1.00  0.00     0.049 A 
ATOM     47  N   UNL A   1      42.799  26.942  28.043  1.00  0.00    -0.248 NA
ATOM     48  C   UNL A   1      41.276  25.177  28.170  1.00  0.00     0.031 C 
ATOM     49  C   UNL A   1      45.838  24.120  26.342  1.00  0.00     0.029 A 
ATOM     50  N   UNL A   1      45.488  26.204  27.070  1.00  0.00    -0.354 N 
ATOM     51  C   UNL A   1      41.581  27.414  28.510  1.00  0.00     0.074 A 
ATOM     52  C   UNL A   1      40.658  26.301  28.502  1.00  0.00     0.031 C 
ATOM     53  C   UNL A   1      46.980  24.803  26.168  1.00  0.00     0.029 A 
ATOM     54  C   UNL A   1      46.781  26.181  26.609  1.00  0.00     0.049 A 
ATOM     55  H   UNL A   1      45.067  27.008  27.452  1.00  0.00     0.167 HD
ATOM     56  C   UNL A   1      41.268  28.661  28.933  1.00  0.00     0.037 A 
ATOM     57  C   UNL A   1      47.699  27.164  26.545  1.00  0.00     0.037 A 
ATOM     58  C   UNL A   1      42.203  29.753  28.980  1.00  0.00     0.049 A 
ATOM     59  C   UNL A   1      47.330  28.537  27.039  1.00  0.00     0.074 A 
ATOM     60  C   UNL A   1      42.008  31.037  29.451  1.00  0.00     0.029 A 
ATOM     61  N   UNL A   1      43.518  29.679  28.544  1.00  0.00    -0.354 N 
ATOM     62  N   UNL A   1      46.192  28.961  27.533  1.00  0.00    -0.248 NA
ATOM     63  C   UNL A   1      48.374  29.568  26.968  1.00  0.00     0.031 C 
ATOM     64  C   UNL A   1      43.197  31.753  29.272  1.00  0.00     0.029 A 
ATOM     65  C   UNL A   1      44.144  30.901  28.726  1.00  0.00     0.049 A 
ATOM     66  H   UNL A   1      43.944  28.877  28.163  1.00  0.00     0.167 HD
ATOM     67  C   UNL A   1      46.390  30.295  27.858  1.00  0.00     0.074 A 
ATOM     68  C   UNL A   1      47.762  30.609  27.515  1.00  0.00     0.031 C 
ATOM     69  C   UNL A   1      45.516  31.182  28.393  1.00  0.00     0.037 A 
BRANCH  56  70
ATOM     70  C   UNL A   1      39.861  28.904  29.390  1.00  0.00     0.064 A 
ATOM     71  C   UNL A   1      39.460  28.637  30.708  1.00  0.00     0.173 A 
ATOM     72  C   UNL A   1      38.905  29.428  28.507  1.00  0.00     0.173 A 
ATOM     73  F   UNL A   1      40.333  28.119  31.587  1.00  0.00    -0.203 F 
ATOM     74  C   UNL A   1      38.148  28.858  31.117  1.00  0.00     0.198 A 
ATOM     75  C   UNL A   1      37.601  29.675  28.928  1.00  0.00     0.198 A 
ATOM     76  F   UNL A   1      39.236  29.703  27.236  1.00  0.00    -0.203 F 
ATOM     77  F   UNL A   1      37.777  28.546  32.367  1.00  0.00    -0.200 F 
ATOM     78  C   UNL A   1      37.222  29.383  30.230  1.00  0.00     0.200 A 
ATOM     79  F   UNL A   1      36.708  30.192  28.072  1.00  0.00    -0.200 F 
ATOM     80  F   UNL A   1      35.960  29.600  30.626  1.00  0.00    -0.200 F 
ENDBRANCH  56  70
BRANCH  57  81
ATOM     81  C   UNL A   1      49.060  26.881  26.025  1.00  0.00     0.064 A 
ATOM     82  C   UNL A   1      49.374  27.112  24.679  1.00  0.00     0.173 A 
ATOM     83  C   UNL A   1      50.071  26.371  26.853  1.00  0.00     0.173 A 
ATOM     84  F   UNL A   1      48.434  27.580  23.845  1.00  0.00    -0.203 F 
ATOM     85  C   UNL A   1      50.641  26.827  24.175  1.00  0.00     0.198 A 
ATOM     86  C   UNL A   1      51.345  26.110  26.354  1.00  0.00     0.198 A 
ATOM     87  F   UNL A   1      49.823  26.139  28.150  1.00  0.00    -0.203 F 
ATOM     88  F   UNL A   1      50.900  27.016  22.874  1.00  0.00    -0.200 F 
ATOM     89  C   UNL A   1      51.627  26.330  25.014  1.00  0.00     0.200 A 
ATOM     90  F   UNL A   1      52.300  25.642  27.170  1.00  0.00    -0.200 F 
ATOM     91  F   UNL A   1      52.846  26.056  24.529  1.00  0.00    -0.200 F 
ENDBRANCH  57  81
BRANCH  69  92
ATOM     92  C   UNL A   1      46.027  32.563  28.677  1.00  0.00     0.064 A 
ATOM     93  C   UNL A   1      46.647  32.880  29.894  1.00  0.00     0.173 A 
ATOM     94  C   UNL A   1      45.942  33.563  27.697  1.00  0.00     0.173 A 
ATOM     95  F   UNL A   1      46.736  31.960  30.866  1.00  0.00    -0.203 F 
ATOM     96  C   UNL A   1      47.150  34.157  30.126  1.00  0.00     0.198 A 
ATOM     97  C   UNL A   1      46.470  34.830  27.923  1.00  0.00     0.198 A 
ATOM     98  F   UNL A   1      45.363  33.305  26.514  1.00  0.00    -0.203 F 
ATOM     99  F   UNL A   1      47.705  34.451  31.309  1.00  0.00    -0.200 F 
ATOM    100  C   UNL A   1      47.068  35.128  29.138  1.00  0.00     0.200 A 
ATOM    101  F   UNL A   1      46.401  35.764  26.963  1.00  0.00    -0.200 F 
ATOM    102  F   UNL A   1      47.564  36.353  29.359  1.00  0.00    -0.200 F 
ENDBRANCH  69  92
ENDBRANCH  43  44
ENDBRANCH  35  38
ENDBRANCH  33  34
ENDBRANCH  32  33
ENDBRANCH   1  32
TORSDOF 13
ENDMDL
