MODEL 1
REMARK VINA RESULT:     -13.3      0.000      0.000
REMARK SMILES O=C(NCCCCNC(=O)[C@@H]1CCCC[C@@H]1C(=O)Nc1cccc(Br)c1)c1ccc(-c2c3nc(c(-c4c(F)c(F)c(F)c(F)c4F)c4ccc([nH]4)c(-c4c(F)c(F)c(F)c(F)c4F)c4nc(c(-c5c(F)c(F)c(F)c(F)c5F)c5ccc2[nH]5)C=C4)C=C3)cc1
REMARK SMILES IDX 5 1 4 2 3 3 1 4 2 5 27 7 28 8 89 9 29 10 88 11 30 12 31 13
REMARK SMILES IDX 32 14 82 15 33 16 87 17 81 18 83 19 34 20 86 21 80 22 79 23
REMARK SMILES IDX 35 25 67 26 47 27 66 28 48 29 51 30 65 31 84 32 49 33 50 34
REMARK SMILES IDX 64 36 85 37 52 38 36 39 37 40 45 41 38 42 39 43 43 44 46 45
REMARK SMILES IDX 40 46 41 47 44 48 42 49 68 50 69 51 77 52 70 53 71 54 75 55
REMARK SMILES IDX 78 56 72 57 73 58 76 59 74 60 53 61 54 62 62 63 55 64 56 65
REMARK SMILES IDX 60 66 63 67 57 68 58 69 61 70 59 71 6 72 7 73 8 74 9 75
REMARK SMILES IDX 10 77 11 78 12 79 16 80 13 81 15 82 14 83 17 84 18 85 19 86
REMARK SMILES IDX 20 88 21 89 26 90 22 91 24 92 23 93 25 94
REMARK H PARENT 3 6 83 24 51 35 8 76 19 87
REMARK Flexibility Score: inf
ROOT
ATOM      1  C   UNL A   1      31.379  32.248  26.508  1.00  0.00     0.023 C 
ENDROOT
BRANCH   1   2
ATOM      2  C   UNL A   1      32.556  32.832  27.276  1.00  0.00     0.116 C 
BRANCH   2   3
ATOM      3  N   UNL A   1      32.352  34.230  27.621  1.00  0.00    -0.352 N 
ATOM      4  O   UNL A   1      32.568  36.086  28.892  1.00  0.00    -0.269 OA
ATOM      5  C   UNL A   1      32.979  34.968  28.594  1.00  0.00     0.251 C 
ATOM      6  H   UNL A   1      31.676  34.708  27.090  1.00  0.00     0.163 HD
BRANCH   5   7
ATOM      7  C   UNL A   1      34.151  34.399  29.287  1.00  0.00     0.039 A 
ATOM      8  C   UNL A   1      33.985  33.681  30.474  1.00  0.00     0.014 A 
ATOM      9  C   UNL A   1      35.424  34.578  28.740  1.00  0.00     0.014 A 
ATOM     10  C   UNL A   1      35.098  33.233  31.172  1.00  0.00     0.010 A 
ATOM     11  C   UNL A   1      36.537  34.052  29.399  1.00  0.00     0.010 A 
ATOM     12  C   UNL A   1      36.382  33.380  30.622  1.00  0.00    -0.014 A 
BRANCH  12  13
ATOM     13  C   UNL A   1      37.528  32.700  31.270  1.00  0.00     0.031 A 
ATOM     14  C   UNL A   1      38.216  31.534  30.625  1.00  0.00     0.074 A 
ATOM     15  C   UNL A   1      37.925  33.148  32.478  1.00  0.00     0.049 A 
ATOM     16  N   UNL A   1      39.198  30.802  31.089  1.00  0.00    -0.248 NA
ATOM     17  C   UNL A   1      37.744  31.130  29.292  1.00  0.00     0.031 C 
ATOM     18  C   UNL A   1      37.310  34.266  33.202  1.00  0.00     0.029 A 
ATOM     19  N   UNL A   1      38.926  32.725  33.314  1.00  0.00    -0.354 N 
ATOM     20  C   UNL A   1      39.446  29.838  30.120  1.00  0.00     0.074 A 
ATOM     21  C   UNL A   1      38.505  30.071  29.044  1.00  0.00     0.031 C 
ATOM     22  C   UNL A   1      37.956  34.449  34.362  1.00  0.00     0.029 A 
ATOM     23  C   UNL A   1      38.978  33.420  34.498  1.00  0.00     0.049 A 
ATOM     24  H   UNL A   1      39.546  31.994  33.088  1.00  0.00     0.167 HD
ATOM     25  C   UNL A   1      40.375  28.854  30.140  1.00  0.00     0.037 A 
ATOM     26  C   UNL A   1      39.730  33.220  35.595  1.00  0.00     0.037 A 
ATOM     27  C   UNL A   1      41.319  28.652  31.211  1.00  0.00     0.049 A 
ATOM     28  C   UNL A   1      40.720  32.092  35.596  1.00  0.00     0.074 A 
ATOM     29  C   UNL A   1      42.355  27.738  31.284  1.00  0.00     0.029 A 
ATOM     30  N   UNL A   1      41.327  29.361  32.403  1.00  0.00    -0.354 N 
ATOM     31  N   UNL A   1      41.001  31.239  34.642  1.00  0.00    -0.248 NA
ATOM     32  C   UNL A   1      41.494  31.890  36.829  1.00  0.00     0.031 C 
ATOM     33  C   UNL A   1      42.945  27.843  32.547  1.00  0.00     0.029 A 
ATOM     34  C   UNL A   1      42.318  28.867  33.238  1.00  0.00     0.049 A 
ATOM     35  H   UNL A   1      40.722  30.104  32.624  1.00  0.00     0.167 HD
ATOM     36  C   UNL A   1      41.988  30.409  35.152  1.00  0.00     0.074 A 
ATOM     37  C   UNL A   1      42.280  30.880  36.490  1.00  0.00     0.031 C 
ATOM     38  C   UNL A   1      42.592  29.345  34.569  1.00  0.00     0.037 A 
BRANCH  25  39
ATOM     39  C   UNL A   1      40.423  27.891  28.989  1.00  0.00     0.064 A 
ATOM     40  C   UNL A   1      39.645  26.726  28.964  1.00  0.00     0.173 A 
ATOM     41  C   UNL A   1      41.180  28.200  27.847  1.00  0.00     0.173 A 
ATOM     42  F   UNL A   1      38.907  26.382  30.030  1.00  0.00    -0.203 F 
ATOM     43  C   UNL A   1      39.627  25.902  27.839  1.00  0.00     0.198 A 
ATOM     44  C   UNL A   1      41.139  27.389  26.717  1.00  0.00     0.198 A 
ATOM     45  F   UNL A   1      41.935  29.309  27.817  1.00  0.00    -0.203 F 
ATOM     46  F   UNL A   1      38.891  24.781  27.843  1.00  0.00    -0.200 F 
ATOM     47  C   UNL A   1      40.365  26.240  26.714  1.00  0.00     0.200 A 
ATOM     48  F   UNL A   1      41.840  27.728  25.626  1.00  0.00    -0.200 F 
ATOM     49  F   UNL A   1      40.327  25.460  25.625  1.00  0.00    -0.200 F 
ENDBRANCH  25  39
BRANCH  26  50
ATOM     50  C   UNL A   1      39.535  34.074  36.796  1.00  0.00     0.064 A 
ATOM     51  C   UNL A   1      40.136  35.334  36.897  1.00  0.00     0.173 A 
ATOM     52  C   UNL A   1      38.757  33.634  37.880  1.00  0.00     0.173 A 
ATOM     53  F   UNL A   1      40.902  35.793  35.896  1.00  0.00    -0.203 F 
ATOM     54  C   UNL A   1      39.994  36.109  38.048  1.00  0.00     0.198 A 
ATOM     55  C   UNL A   1      38.584  34.425  39.013  1.00  0.00     0.198 A 
ATOM     56  F   UNL A   1      38.153  32.438  37.833  1.00  0.00    -0.203 F 
ATOM     57  F   UNL A   1      40.630  37.284  38.142  1.00  0.00    -0.200 F 
ATOM     58  C   UNL A   1      39.214  35.656  39.101  1.00  0.00     0.200 A 
ATOM     59  F   UNL A   1      37.812  33.991  40.018  1.00  0.00    -0.200 F 
ATOM     60  F   UNL A   1      39.079  36.402  40.206  1.00  0.00    -0.200 F 
ENDBRANCH  26  50
BRANCH  38  61
ATOM     61  C   UNL A   1      43.633  28.625  35.372  1.00  0.00     0.064 A 
ATOM     62  C   UNL A   1      44.992  28.960  35.277  1.00  0.00     0.173 A 
ATOM     63  C   UNL A   1      43.266  27.622  36.282  1.00  0.00     0.173 A 
ATOM     64  F   UNL A   1      45.396  29.898  34.406  1.00  0.00    -0.203 F 
ATOM     65  C   UNL A   1      45.946  28.304  36.048  1.00  0.00     0.198 A 
ATOM     66  C   UNL A   1      44.218  26.991  37.076  1.00  0.00     0.198 A 
ATOM     67  F   UNL A   1      41.978  27.267  36.414  1.00  0.00    -0.203 F 
ATOM     68  F   UNL A   1      47.244  28.609  35.907  1.00  0.00    -0.200 F 
ATOM     69  C   UNL A   1      45.557  27.328  36.954  1.00  0.00     0.200 A 
ATOM     70  F   UNL A   1      43.840  26.059  37.961  1.00  0.00    -0.200 F 
ATOM     71  F   UNL A   1      46.477  26.708  37.706  1.00  0.00    -0.200 F 
ENDBRANCH  38  61
ENDBRANCH  12  13
ENDBRANCH   5   7
ENDBRANCH   2   3
ENDBRANCH   1   2
BRANCH   1  72
ATOM     72  C   UNL A   1      31.532  30.771  26.140  1.00  0.00     0.023 C 
BRANCH  72  73
ATOM     73  C   UNL A   1      32.895  30.180  26.489  1.00  0.00     0.116 C 
BRANCH  73  74
ATOM     74  N   UNL A   1      33.570  29.696  25.299  1.00  0.00    -0.356 N 
ATOM     75  C   UNL A   1      33.672  28.442  24.779  1.00  0.00     0.223 C 
ATOM     76  H   UNL A   1      34.033  30.393  24.779  1.00  0.00     0.163 HD
ATOM     77  O   UNL A   1      34.397  28.295  23.797  1.00  0.00    -0.275 OA
BRANCH  75  78
ATOM     78  C   UNL A   1      32.848  27.311  25.368  1.00  0.00     0.091 C 
ATOM     79  C   UNL A   1      33.628  25.996  25.309  1.00  0.00     0.014 C 
ATOM     80  C   UNL A   1      31.452  27.234  24.721  1.00  0.00     0.091 C 
ATOM     81  C   UNL A   1      32.819  24.875  25.952  1.00  0.00     0.001 C 
ATOM     82  C   UNL A   1      30.665  26.013  25.240  1.00  0.00     0.014 C 
ATOM     83  C   UNL A   1      31.465  24.710  25.274  1.00  0.00     0.001 C 
BRANCH  80  84
ATOM     84  C   UNL A   1      31.475  27.211  23.187  1.00  0.00     0.228 C 
ATOM     85  O   UNL A   1      32.335  26.569  22.576  1.00  0.00    -0.274 OA
ATOM     86  N   UNL A   1      30.455  27.747  22.448  1.00  0.00    -0.326 N 
ATOM     87  H   UNL A   1      30.465  27.461  21.505  1.00  0.00     0.169 HD
BRANCH  86  88
ATOM     88  C   UNL A   1      29.397  28.616  22.755  1.00  0.00     0.042 A 
ATOM     89  C   UNL A   1      28.106  28.193  23.068  1.00  0.00     0.026 A 
ATOM     90  C   UNL A   1      29.681  29.986  22.802  1.00  0.00     0.041 A 
ATOM     91  C   UNL A   1      27.089  29.112  23.343  1.00  0.00     0.003 A 
ATOM     92  C   UNL A   1      28.661  30.905  23.063  1.00  0.00     0.020 A 
ATOM     93  C   UNL A   1      27.363  30.475  23.323  1.00  0.00     0.016 A 
ATOM     94  Br  UNL A   1      29.041  32.757  23.043  1.00  0.00    -0.051 Br
ENDBRANCH  86  88
ENDBRANCH  80  84
ENDBRANCH  75  78
ENDBRANCH  73  74
ENDBRANCH  72  73
ENDBRANCH   1  72
TORSDOF 13
ENDMDL
MODEL 2
REMARK VINA RESULT:     -13.3      0.098      1.130
REMARK SMILES O=C(NCCCCNC(=O)[C@@H]1CCCC[C@@H]1C(=O)Nc1cccc(Br)c1)c1ccc(-c2c3nc(c(-c4c(F)c(F)c(F)c(F)c4F)c4ccc([nH]4)c(-c4c(F)c(F)c(F)c(F)c4F)c4nc(c(-c5c(F)c(F)c(F)c(F)c5F)c5ccc2[nH]5)C=C4)C=C3)cc1
REMARK SMILES IDX 5 1 4 2 3 3 1 4 2 5 27 7 28 8 89 9 29 10 88 11 30 12 31 13
REMARK SMILES IDX 32 14 82 15 33 16 87 17 81 18 83 19 34 20 86 21 80 22 79 23
REMARK SMILES IDX 35 25 67 26 47 27 66 28 48 29 51 30 65 31 84 32 49 33 50 34
REMARK SMILES IDX 64 36 85 37 52 38 36 39 37 40 45 41 38 42 39 43 43 44 46 45
REMARK SMILES IDX 40 46 41 47 44 48 42 49 68 50 69 51 77 52 70 53 71 54 75 55
REMARK SMILES IDX 78 56 72 57 73 58 76 59 74 60 53 61 54 62 62 63 55 64 56 65
REMARK SMILES IDX 60 66 63 67 57 68 58 69 61 70 59 71 6 72 7 73 8 74 9 75
REMARK SMILES IDX 10 77 11 78 12 79 16 80 13 81 15 82 14 83 17 84 18 85 19 86
REMARK SMILES IDX 20 88 21 89 26 90 22 91 24 92 23 93 25 94
REMARK H PARENT 3 6 83 24 51 35 8 76 19 87
REMARK Flexibility Score: inf
ROOT
ATOM      1  C   UNL A   1      31.402  32.253  26.577  1.00  0.00     0.023 C 
ENDROOT
BRANCH   1   2
ATOM      2  C   UNL A   1      32.605  32.842  27.298  1.00  0.00     0.116 C 
BRANCH   2   3
ATOM      3  N   UNL A   1      32.404  34.236  27.660  1.00  0.00    -0.352 N 
ATOM      4  O   UNL A   1      32.627  36.077  28.951  1.00  0.00    -0.269 OA
ATOM      5  C   UNL A   1      33.035  34.962  28.640  1.00  0.00     0.251 C 
ATOM      6  H   UNL A   1      31.728  34.722  27.136  1.00  0.00     0.163 HD
BRANCH   5   7
ATOM      7  C   UNL A   1      34.208  34.383  29.324  1.00  0.00     0.039 A 
ATOM      8  C   UNL A   1      34.044  33.654  30.505  1.00  0.00     0.014 A 
ATOM      9  C   UNL A   1      35.480  34.563  28.774  1.00  0.00     0.014 A 
ATOM     10  C   UNL A   1      35.158  33.196  31.194  1.00  0.00     0.010 A 
ATOM     11  C   UNL A   1      36.593  34.027  29.423  1.00  0.00     0.010 A 
ATOM     12  C   UNL A   1      36.440  33.345  30.640  1.00  0.00    -0.014 A 
BRANCH  12  13
ATOM     13  C   UNL A   1      37.587  32.655  31.278  1.00  0.00     0.031 A 
ATOM     14  C   UNL A   1      38.264  31.487  30.623  1.00  0.00     0.074 A 
ATOM     15  C   UNL A   1      37.994  33.095  32.485  1.00  0.00     0.049 A 
ATOM     16  N   UNL A   1      39.244  30.748  31.077  1.00  0.00    -0.248 NA
ATOM     17  C   UNL A   1      37.781  31.092  29.291  1.00  0.00     0.031 C 
ATOM     18  C   UNL A   1      37.391  34.213  33.218  1.00  0.00     0.029 A 
ATOM     19  N   UNL A   1      38.998  32.662  33.313  1.00  0.00    -0.354 N 
ATOM     20  C   UNL A   1      39.480  29.787  30.103  1.00  0.00     0.074 A 
ATOM     21  C   UNL A   1      38.534  30.030  29.034  1.00  0.00     0.031 C 
ATOM     22  C   UNL A   1      38.045  34.387  34.375  1.00  0.00     0.029 A 
ATOM     23  C   UNL A   1      39.061  33.351  34.499  1.00  0.00     0.049 A 
ATOM     24  H   UNL A   1      39.612  31.929  33.080  1.00  0.00     0.167 HD
ATOM     25  C   UNL A   1      40.403  28.797  30.112  1.00  0.00     0.037 A 
ATOM     26  C   UNL A   1      39.820  33.143  35.591  1.00  0.00     0.037 A 
ATOM     27  C   UNL A   1      41.353  28.585  31.176  1.00  0.00     0.049 A 
ATOM     28  C   UNL A   1      40.803  32.009  35.581  1.00  0.00     0.074 A 
ATOM     29  C   UNL A   1      42.384  27.664  31.238  1.00  0.00     0.029 A 
ATOM     30  N   UNL A   1      41.373  29.288  32.372  1.00  0.00    -0.354 N 
ATOM     31  N   UNL A   1      41.073  31.158  34.621  1.00  0.00    -0.248 NA
ATOM     32  C   UNL A   1      41.583  31.797  36.807  1.00  0.00     0.031 C 
ATOM     33  C   UNL A   1      42.983  27.761  32.497  1.00  0.00     0.029 A 
ATOM     34  C   UNL A   1      42.366  28.784  33.198  1.00  0.00     0.049 A 
ATOM     35  H   UNL A   1      40.774  30.034  32.600  1.00  0.00     0.167 HD
ATOM     36  C   UNL A   1      42.058  30.320  35.120  1.00  0.00     0.074 A 
ATOM     37  C   UNL A   1      42.362  30.783  36.459  1.00  0.00     0.031 C 
ATOM     38  C   UNL A   1      42.652  29.256  34.529  1.00  0.00     0.037 A 
BRANCH  25  39
ATOM     39  C   UNL A   1      40.438  27.839  28.957  1.00  0.00     0.064 A 
ATOM     40  C   UNL A   1      39.667  26.669  28.940  1.00  0.00     0.173 A 
ATOM     41  C   UNL A   1      41.173  28.158  27.803  1.00  0.00     0.173 A 
ATOM     42  F   UNL A   1      38.951  26.315  30.017  1.00  0.00    -0.203 F 
ATOM     43  C   UNL A   1      39.636  25.849  27.812  1.00  0.00     0.198 A 
ATOM     44  C   UNL A   1      41.119  27.351  26.671  1.00  0.00     0.198 A 
ATOM     45  F   UNL A   1      41.920  29.272  27.765  1.00  0.00    -0.203 F 
ATOM     46  F   UNL A   1      38.908  24.724  27.824  1.00  0.00    -0.200 F 
ATOM     47  C   UNL A   1      40.352  26.197  26.676  1.00  0.00     0.200 A 
ATOM     48  F   UNL A   1      41.798  27.699  25.569  1.00  0.00    -0.200 F 
ATOM     49  F   UNL A   1      40.301  25.420  25.585  1.00  0.00    -0.200 F 
ENDBRANCH  25  39
BRANCH  26  50
ATOM     50  C   UNL A   1      39.637  33.992  36.797  1.00  0.00     0.064 A 
ATOM     51  C   UNL A   1      38.841  33.569  37.869  1.00  0.00     0.173 A 
ATOM     52  C   UNL A   1      40.239  35.257  36.891  1.00  0.00     0.173 A 
ATOM     53  F   UNL A   1      38.230  32.376  37.820  1.00  0.00    -0.203 F 
ATOM     54  C   UNL A   1      38.628  34.391  38.975  1.00  0.00     0.198 A 
ATOM     55  C   UNL A   1      40.058  36.061  38.013  1.00  0.00     0.198 A 
ATOM     56  F   UNL A   1      41.017  35.709  35.896  1.00  0.00    -0.203 F 
ATOM     57  F   UNL A   1      37.814  33.987  39.958  1.00  0.00    -0.200 F 
ATOM     58  C   UNL A   1      39.242  35.633  39.048  1.00  0.00     0.200 A 
ATOM     59  F   UNL A   1      40.670  37.251  38.088  1.00  0.00    -0.200 F 
ATOM     60  F   UNL A   1      39.037  36.421  40.112  1.00  0.00    -0.200 F 
ENDBRANCH  26  50
BRANCH  38  61
ATOM     61  C   UNL A   1      43.694  28.526  35.322  1.00  0.00     0.064 A 
ATOM     62  C   UNL A   1      45.054  28.854  35.220  1.00  0.00     0.173 A 
ATOM     63  C   UNL A   1      43.327  27.520  36.228  1.00  0.00     0.173 A 
ATOM     64  F   UNL A   1      45.457  29.795  34.352  1.00  0.00    -0.203 F 
ATOM     65  C   UNL A   1      46.009  28.189  35.983  1.00  0.00     0.198 A 
ATOM     66  C   UNL A   1      44.280  26.880  37.013  1.00  0.00     0.198 A 
ATOM     67  F   UNL A   1      42.038  27.170  36.366  1.00  0.00    -0.203 F 
ATOM     68  F   UNL A   1      47.308  28.487  35.835  1.00  0.00    -0.200 F 
ATOM     69  C   UNL A   1      45.621  27.210  36.885  1.00  0.00     0.200 A 
ATOM     70  F   UNL A   1      43.903  25.944  37.896  1.00  0.00    -0.200 F 
ATOM     71  F   UNL A   1      46.542  26.581  37.629  1.00  0.00    -0.200 F 
ENDBRANCH  38  61
ENDBRANCH  12  13
ENDBRANCH   5   7
ENDBRANCH   2   3
ENDBRANCH   1   2
BRANCH   1  72
ATOM     72  C   UNL A   1      31.565  30.790  26.160  1.00  0.00     0.023 C 
BRANCH  72  73
ATOM     73  C   UNL A   1      32.927  30.193  26.506  1.00  0.00     0.116 C 
BRANCH  73  74
ATOM     74  N   UNL A   1      33.594  29.700  25.315  1.00  0.00    -0.356 N 
ATOM     75  C   UNL A   1      33.700  28.441  24.808  1.00  0.00     0.223 C 
ATOM     76  H   UNL A   1      34.047  30.394  24.783  1.00  0.00     0.163 HD
ATOM     77  O   UNL A   1      34.417  28.287  23.821  1.00  0.00    -0.275 OA
BRANCH  75  78
ATOM     78  C   UNL A   1      32.890  27.310  25.418  1.00  0.00     0.091 C 
ATOM     79  C   UNL A   1      33.685  26.004  25.384  1.00  0.00     0.014 C 
ATOM     80  C   UNL A   1      31.494  27.205  24.774  1.00  0.00     0.091 C 
ATOM     81  C   UNL A   1      32.891  24.886  26.047  1.00  0.00     0.001 C 
ATOM     82  C   UNL A   1      30.723  25.984  25.316  1.00  0.00     0.014 C 
ATOM     83  C   UNL A   1      31.539  24.691  25.373  1.00  0.00     0.001 C 
BRANCH  80  84
ATOM     84  C   UNL A   1      31.518  27.154  23.241  1.00  0.00     0.228 C 
ATOM     85  O   UNL A   1      32.389  26.517  22.641  1.00  0.00    -0.274 OA
ATOM     86  N   UNL A   1      30.487  27.656  22.493  1.00  0.00    -0.326 N 
ATOM     87  H   UNL A   1      30.502  27.354  21.556  1.00  0.00     0.169 HD
BRANCH  86  88
ATOM     88  C   UNL A   1      29.412  28.511  22.785  1.00  0.00     0.042 A 
ATOM     89  C   UNL A   1      28.126  28.069  23.093  1.00  0.00     0.026 A 
ATOM     90  C   UNL A   1      29.673  29.885  22.821  1.00  0.00     0.041 A 
ATOM     91  C   UNL A   1      27.093  28.973  23.353  1.00  0.00     0.003 A 
ATOM     92  C   UNL A   1      28.636  30.789  23.066  1.00  0.00     0.020 A 
ATOM     93  C   UNL A   1      27.344  30.340  23.322  1.00  0.00     0.016 A 
ATOM     94  Br  UNL A   1      28.985  32.647  23.031  1.00  0.00    -0.051 Br
ENDBRANCH  86  88
ENDBRANCH  80  84
ENDBRANCH  75  78
ENDBRANCH  73  74
ENDBRANCH  72  73
ENDBRANCH   1  72
TORSDOF 13
ENDMDL
MODEL 3
REMARK VINA RESULT:     -13.3      6.517     11.688
REMARK SMILES O=C(NCCCCNC(=O)[C@@H]1CCCC[C@@H]1C(=O)Nc1cccc(Br)c1)c1ccc(-c2c3nc(c(-c4c(F)c(F)c(F)c(F)c4F)c4ccc([nH]4)c(-c4c(F)c(F)c(F)c(F)c4F)c4nc(c(-c5c(F)c(F)c(F)c(F)c5F)c5ccc2[nH]5)C=C4)C=C3)cc1
REMARK SMILES IDX 5 1 4 2 3 3 1 4 2 5 27 7 28 8 89 9 29 10 88 11 30 12 31 13
REMARK SMILES IDX 32 14 82 15 33 16 87 17 81 18 83 19 34 20 86 21 80 22 79 23
REMARK SMILES IDX 35 25 67 26 47 27 66 28 48 29 51 30 65 31 84 32 49 33 50 34
REMARK SMILES IDX 64 36 85 37 52 38 36 39 37 40 45 41 38 42 39 43 43 44 46 45
REMARK SMILES IDX 40 46 41 47 44 48 42 49 68 50 69 51 77 52 70 53 71 54 75 55
REMARK SMILES IDX 78 56 72 57 73 58 76 59 74 60 53 61 54 62 62 63 55 64 56 65
REMARK SMILES IDX 60 66 63 67 57 68 58 69 61 70 59 71 6 72 7 73 8 74 9 75
REMARK SMILES IDX 10 77 11 78 12 79 16 80 13 81 15 82 14 83 17 84 18 85 19 86
REMARK SMILES IDX 20 88 21 89 26 90 22 91 24 92 23 93 25 94
REMARK H PARENT 3 6 83 24 51 35 8 76 19 87
REMARK Flexibility Score: inf
ROOT
ATOM      1  C   UNL A   1      38.161  19.279  24.990  1.00  0.00     0.023 C 
ENDROOT
BRANCH   1   2
ATOM      2  C   UNL A   1      39.365  19.810  25.756  1.00  0.00     0.116 C 
BRANCH   2   3
ATOM      3  N   UNL A   1      40.427  18.824  25.870  1.00  0.00    -0.352 N 
ATOM      4  O   UNL A   1      42.569  18.112  25.954  1.00  0.00    -0.269 OA
ATOM      5  C   UNL A   1      41.769  19.036  26.065  1.00  0.00     0.251 C 
ATOM      6  H   UNL A   1      40.148  17.884  25.797  1.00  0.00     0.163 HD
BRANCH   5   7
ATOM      7  C   UNL A   1      42.243  20.392  26.402  1.00  0.00     0.039 A 
ATOM      8  C   UNL A   1      42.684  21.254  25.394  1.00  0.00     0.014 A 
ATOM      9  C   UNL A   1      42.238  20.808  27.736  1.00  0.00     0.014 A 
ATOM     10  C   UNL A   1      43.219  22.490  25.726  1.00  0.00     0.010 A 
ATOM     11  C   UNL A   1      42.697  22.086  28.061  1.00  0.00     0.010 A 
ATOM     12  C   UNL A   1      43.195  22.933  27.058  1.00  0.00    -0.014 A 
BRANCH  12  13
ATOM     13  C   UNL A   1      43.563  24.337  27.360  1.00  0.00     0.031 A 
ATOM     14  C   UNL A   1      42.548  25.326  27.851  1.00  0.00     0.074 A 
ATOM     15  C   UNL A   1      44.842  24.711  27.155  1.00  0.00     0.049 A 
ATOM     16  N   UNL A   1      42.702  26.601  28.108  1.00  0.00    -0.248 NA
ATOM     17  C   UNL A   1      41.183  24.829  28.081  1.00  0.00     0.031 C 
ATOM     18  C   UNL A   1      45.905  23.830  26.661  1.00  0.00     0.029 A 
ATOM     19  N   UNL A   1      45.467  25.919  27.327  1.00  0.00    -0.354 N 
ATOM     20  C   UNL A   1      41.455  27.064  28.506  1.00  0.00     0.074 A 
ATOM     21  C   UNL A   1      40.549  25.936  28.447  1.00  0.00     0.031 C 
ATOM     22  C   UNL A   1      47.051  24.521  26.586  1.00  0.00     0.029 A 
ATOM     23  C   UNL A   1      46.790  25.906  26.953  1.00  0.00     0.049 A 
ATOM     24  H   UNL A   1      45.015  26.717  27.683  1.00  0.00     0.167 HD
ATOM     25  C   UNL A   1      41.111  28.318  28.881  1.00  0.00     0.037 A 
ATOM     26  C   UNL A   1      47.683  26.908  26.867  1.00  0.00     0.037 A 
ATOM     27  C   UNL A   1      42.033  29.424  28.955  1.00  0.00     0.049 A 
ATOM     28  C   UNL A   1      47.252  28.294  27.251  1.00  0.00     0.074 A 
ATOM     29  C   UNL A   1      41.799  30.711  29.407  1.00  0.00     0.029 A 
ATOM     30  N   UNL A   1      43.358  29.379  28.548  1.00  0.00    -0.354 N 
ATOM     31  N   UNL A   1      46.091  28.703  27.702  1.00  0.00    -0.248 NA
ATOM     32  C   UNL A   1      48.250  29.362  27.105  1.00  0.00     0.031 C 
ATOM     33  C   UNL A   1      42.959  31.463  29.207  1.00  0.00     0.029 A 
ATOM     34  C   UNL A   1      43.937  30.631  28.689  1.00  0.00     0.049 A 
ATOM     35  H   UNL A   1      43.819  28.578  28.209  1.00  0.00     0.167 HD
ATOM     36  C   UNL A   1      46.222  30.068  27.906  1.00  0.00     0.074 A 
ATOM     37  C   UNL A   1      47.584  30.415  27.558  1.00  0.00     0.031 C 
ATOM     38  C   UNL A   1      45.294  30.958  28.333  1.00  0.00     0.037 A 
BRANCH  25  39
ATOM     39  C   UNL A   1      39.675  28.594  29.224  1.00  0.00     0.064 A 
ATOM     40  C   UNL A   1      39.177  28.426  30.523  1.00  0.00     0.173 A 
ATOM     41  C   UNL A   1      38.815  29.140  28.256  1.00  0.00     0.173 A 
ATOM     42  F   UNL A   1      39.955  27.904  31.483  1.00  0.00    -0.203 F 
ATOM     43  C   UNL A   1      37.869  28.789  30.839  1.00  0.00     0.198 A 
ATOM     44  C   UNL A   1      37.519  29.525  28.583  1.00  0.00     0.198 A 
ATOM     45  F   UNL A   1      39.246  29.329  27.000  1.00  0.00    -0.203 F 
ATOM     46  F   UNL A   1      37.406  28.602  32.084  1.00  0.00    -0.200 F 
ATOM     47  C   UNL A   1      37.045  29.348  29.873  1.00  0.00     0.200 A 
ATOM     48  F   UNL A   1      36.731  30.081  27.651  1.00  0.00    -0.200 F 
ATOM     49  F   UNL A   1      35.796  29.719  30.186  1.00  0.00    -0.200 F 
ENDBRANCH  25  39
BRANCH  26  50
ATOM     50  C   UNL A   1      49.050  26.644  26.346  1.00  0.00     0.064 A 
ATOM     51  C   UNL A   1      49.373  26.878  25.004  1.00  0.00     0.173 A 
ATOM     52  C   UNL A   1      50.056  26.128  27.178  1.00  0.00     0.173 A 
ATOM     53  F   UNL A   1      48.443  27.355  24.163  1.00  0.00    -0.203 F 
ATOM     54  C   UNL A   1      50.641  26.578  24.506  1.00  0.00     0.198 A 
ATOM     55  C   UNL A   1      51.333  25.865  26.690  1.00  0.00     0.198 A 
ATOM     56  F   UNL A   1      49.802  25.891  28.474  1.00  0.00    -0.203 F 
ATOM     57  F   UNL A   1      50.905  26.756  23.205  1.00  0.00    -0.200 F 
ATOM     58  C   UNL A   1      51.620  26.078  25.351  1.00  0.00     0.200 A 
ATOM     59  F   UNL A   1      52.281  25.401  27.515  1.00  0.00    -0.200 F 
ATOM     60  F   UNL A   1      52.838  25.790  24.872  1.00  0.00    -0.200 F 
ENDBRANCH  26  50
BRANCH  38  61
ATOM     61  C   UNL A   1      45.725  32.389  28.455  1.00  0.00     0.064 A 
ATOM     62  C   UNL A   1      45.555  33.297  27.400  1.00  0.00     0.173 A 
ATOM     63  C   UNL A   1      46.268  32.871  29.656  1.00  0.00     0.173 A 
ATOM     64  F   UNL A   1      45.059  32.880  26.225  1.00  0.00    -0.203 F 
ATOM     65  C   UNL A   1      45.932  34.630  27.535  1.00  0.00     0.198 A 
ATOM     66  C   UNL A   1      46.613  34.211  29.800  1.00  0.00     0.198 A 
ATOM     67  F   UNL A   1      46.448  32.043  30.697  1.00  0.00    -0.203 F 
ATOM     68  F   UNL A   1      45.804  35.469  26.498  1.00  0.00    -0.200 F 
ATOM     69  C   UNL A   1      46.451  35.087  28.738  1.00  0.00     0.200 A 
ATOM     70  F   UNL A   1      47.100  34.656  30.966  1.00  0.00    -0.200 F 
ATOM     71  F   UNL A   1      46.800  36.375  28.870  1.00  0.00    -0.200 F 
ENDBRANCH  38  61
ENDBRANCH  12  13
ENDBRANCH   5   7
ENDBRANCH   2   3
ENDBRANCH   1   2
BRANCH   1  72
ATOM     72  C   UNL A   1      36.963  20.228  24.952  1.00  0.00     0.023 C 
BRANCH  72  73
ATOM     73  C   UNL A   1      37.283  21.653  25.397  1.00  0.00     0.116 C 
BRANCH  73  74
ATOM     74  N   UNL A   1      36.320  22.119  26.377  1.00  0.00    -0.356 N 
ATOM     75  C   UNL A   1      35.249  22.951  26.251  1.00  0.00     0.223 C 
ATOM     76  H   UNL A   1      36.464  21.775  27.288  1.00  0.00     0.163 HD
ATOM     77  O   UNL A   1      34.650  23.261  27.278  1.00  0.00    -0.275 OA
BRANCH  75  78
ATOM     78  C   UNL A   1      34.797  23.395  24.871  1.00  0.00     0.091 C 
ATOM     79  C   UNL A   1      34.149  24.779  24.941  1.00  0.00     0.014 C 
ATOM     80  C   UNL A   1      33.912  22.328  24.197  1.00  0.00     0.091 C 
ATOM     81  C   UNL A   1      33.747  25.245  23.547  1.00  0.00     0.001 C 
ATOM     82  C   UNL A   1      33.363  22.835  22.847  1.00  0.00     0.014 C 
ATOM     83  C   UNL A   1      32.796  24.256  22.885  1.00  0.00     0.001 C 
BRANCH  80  84
ATOM     84  C   UNL A   1      32.750  21.839  25.070  1.00  0.00     0.228 C 
ATOM     85  O   UNL A   1      32.164  22.611  25.835  1.00  0.00    -0.274 OA
ATOM     86  N   UNL A   1      32.208  20.593  24.907  1.00  0.00    -0.326 N 
ATOM     87  H   UNL A   1      31.333  20.488  25.346  1.00  0.00     0.169 HD
BRANCH  86  88
ATOM     88  C   UNL A   1      32.641  19.434  24.243  1.00  0.00     0.042 A 
ATOM     89  C   UNL A   1      32.265  19.094  22.944  1.00  0.00     0.026 A 
ATOM     90  C   UNL A   1      33.548  18.607  24.914  1.00  0.00     0.041 A 
ATOM     91  C   UNL A   1      32.713  17.913  22.346  1.00  0.00     0.003 A 
ATOM     92  C   UNL A   1      33.985  17.419  24.321  1.00  0.00     0.020 A 
ATOM     93  C   UNL A   1      33.563  17.062  23.044  1.00  0.00     0.016 A 
ATOM     94  Br  UNL A   1      35.147  16.270  25.272  1.00  0.00    -0.051 Br
ENDBRANCH  86  88
ENDBRANCH  80  84
ENDBRANCH  75  78
ENDBRANCH  73  74
ENDBRANCH  72  73
ENDBRANCH   1  72
TORSDOF 13
ENDMDL
