MODEL 1
REMARK VINA RESULT:     -14.8      0.000      0.000
REMARK SMILES Cc1ccc(NC(=O)[C@@H]2[C@@H](C(=O)NCCCCNC(=O)c3ccc(-c4c5nc(c(-c6c(F)c(F)c(F)c(F)c6F)c6ccc([nH]6)c(-c6c(F)c(F)c(F)c(F)c6F)c6nc(c(-c7c(F)c(F)c(F)c(F)c7F)c7ccc4[nH]7)C=C6)C=C5)cc3)[C@@H]3C=C[C@H]2C3)cc1NC(=O)c1ccc(Cl)cc1
REMARK SMILES IDX 14 1 13 2 11 3 12 4 10 6 9 7 87 8 84 9 86 10 88 11 85 12
REMARK SMILES IDX 7 13 6 14 8 16 5 17 1 18 2 19 3 20 90 21 4 22 89 23 91 24
REMARK SMILES IDX 92 25 93 27 94 28 95 29 100 30 96 31 99 32 97 33 98 34 15 35
REMARK SMILES IDX 16 36 17 37 18 38 19 39 20 41 21 42 22 43 83 44 23 45 82 46
REMARK SMILES IDX 24 47 25 48 26 49 76 50 27 51 81 52 75 53 77 54 28 55 80 56
REMARK SMILES IDX 74 57 73 58 29 60 61 61 41 62 60 63 42 64 45 65 59 66 78 67
REMARK SMILES IDX 43 68 44 69 58 71 79 72 46 73 30 74 31 75 39 76 32 77 33 78
REMARK SMILES IDX 37 79 40 80 34 81 35 82 38 83 36 84 62 85 63 86 71 87 64 88
REMARK SMILES IDX 65 89 69 90 72 91 66 92 67 93 70 94 68 95 47 96 48 97 56 98
REMARK SMILES IDX 49 99 50 100 54 101 57 102 51 103 52 104 55 105 53 106
REMARK H PARENT 13 5 6 15 91 26 18 40 77 59 45 70
REMARK Flexibility Score: inf
ROOT
ATOM      1  C   UNL A   1      36.100  20.330  24.956  1.00  0.00     0.116 C 
ENDROOT
BRANCH   1   2
ATOM      2  N   UNL A   1      34.696  20.296  25.332  1.00  0.00    -0.356 N 
ATOM      3  C   UNL A   1      33.714  21.213  25.515  1.00  0.00     0.224 C 
ATOM      4  O   UNL A   1      32.633  20.734  25.884  1.00  0.00    -0.275 OA
ATOM      5  H   UNL A   1      34.378  19.378  25.494  1.00  0.00     0.163 HD
BRANCH   3   6
ATOM      6  C   UNL A   1      33.769  22.709  25.179  1.00  0.00     0.098 C 
ATOM      7  C   UNL A   1      35.085  23.048  24.437  1.00  0.00     0.099 C 
ATOM      8  C   UNL A   1      35.503  24.413  25.043  1.00  0.00     0.025 C 
ATOM      9  C   UNL A   1      33.815  23.730  26.345  1.00  0.00     0.025 C 
ATOM     10  C   UNL A   1      34.389  25.433  24.919  1.00  0.00    -0.027 C 
ATOM     11  C   UNL A   1      35.315  24.082  26.509  1.00  0.00     0.017 C 
ATOM     12  C   UNL A   1      33.390  25.044  25.730  1.00  0.00    -0.027 C 
BRANCH   7  13
ATOM     13  C   UNL A   1      35.232  23.145  22.943  1.00  0.00     0.228 C 
ATOM     14  N   UNL A   1      34.097  23.339  22.174  1.00  0.00    -0.326 N 
ATOM     15  H   UNL A   1      34.224  23.082  21.232  1.00  0.00     0.169 HD
ATOM     16  O   UNL A   1      36.309  22.956  22.378  1.00  0.00    -0.274 OA
BRANCH  14  17
ATOM     17  C   UNL A   1      32.788  23.826  22.447  1.00  0.00     0.043 A 
ATOM     18  C   UNL A   1      29.542  25.916  24.335  1.00  0.00     0.046 C 
ATOM     19  C   UNL A   1      30.556  25.184  23.508  1.00  0.00    -0.027 A 
ATOM     20  C   UNL A   1      30.740  23.828  23.736  1.00  0.00     0.008 A 
ATOM     21  C   UNL A   1      31.333  25.794  22.513  1.00  0.00     0.046 A 
ATOM     22  C   UNL A   1      31.779  23.144  23.120  1.00  0.00     0.026 A 
ATOM     23  C   UNL A   1      32.507  25.153  22.084  1.00  0.00     0.052 A 
BRANCH  21  24
ATOM     24  N   UNL A   1      30.871  27.016  21.997  1.00  0.00    -0.322 N 
ATOM     25  C   UNL A   1      30.935  28.314  22.435  1.00  0.00     0.255 C 
ATOM     26  H   UNL A   1      30.399  26.919  21.139  1.00  0.00     0.170 HD
ATOM     27  O   UNL A   1      30.364  29.184  21.773  1.00  0.00    -0.269 OA
BRANCH  25  28
ATOM     28  C   UNL A   1      31.698  28.748  23.624  1.00  0.00     0.040 A 
ATOM     29  C   UNL A   1      30.994  29.464  24.601  1.00  0.00     0.015 A 
ATOM     30  C   UNL A   1      33.079  28.559  23.760  1.00  0.00     0.015 A 
ATOM     31  C   UNL A   1      31.648  29.928  25.742  1.00  0.00     0.021 A 
ATOM     32  C   UNL A   1      33.730  29.009  24.915  1.00  0.00     0.021 A 
ATOM     33  C   UNL A   1      33.011  29.687  25.901  1.00  0.00     0.041 A 
ATOM     34  Cl  UNL A   1      33.813  30.238  27.320  1.00  0.00    -0.084 Cl
ENDBRANCH  25  28
ENDBRANCH  21  24
ENDBRANCH  14  17
ENDBRANCH   7  13
ENDBRANCH   3   6
ENDBRANCH   1   2
BRANCH   1  35
ATOM     35  C   UNL A   1      36.987  21.046  25.977  1.00  0.00     0.023 C 
BRANCH  35  36
ATOM     36  C   UNL A   1      38.275  21.644  25.415  1.00  0.00     0.023 C 
BRANCH  36  37
ATOM     37  C   UNL A   1      38.740  22.909  26.127  1.00  0.00     0.116 C 
BRANCH  37  38
ATOM     38  N   UNL A   1      40.184  23.032  26.287  1.00  0.00    -0.352 N 
ATOM     39  C   UNL A   1      40.946  24.167  26.541  1.00  0.00     0.251 C 
ATOM     40  H   UNL A   1      40.692  22.192  26.203  1.00  0.00     0.163 HD
ATOM     41  O   UNL A   1      42.159  24.102  26.585  1.00  0.00    -0.269 OA
BRANCH  39  42
ATOM     42  C   UNL A   1      40.253  25.433  26.894  1.00  0.00     0.039 A 
ATOM     43  C   UNL A   1      40.679  26.608  26.264  1.00  0.00     0.014 A 
ATOM     44  C   UNL A   1      39.371  25.493  27.968  1.00  0.00     0.014 A 
ATOM     45  C   UNL A   1      40.429  27.834  26.875  1.00  0.00     0.010 A 
ATOM     46  C   UNL A   1      39.218  26.691  28.637  1.00  0.00     0.010 A 
ATOM     47  C   UNL A   1      39.800  27.850  28.121  1.00  0.00    -0.014 A 
BRANCH  47  48
ATOM     48  C   UNL A   1      39.800  29.026  28.980  1.00  0.00     0.031 A 
ATOM     49  C   UNL A   1      38.723  30.029  28.869  1.00  0.00     0.074 A 
ATOM     50  C   UNL A   1      40.767  29.165  29.915  1.00  0.00     0.049 A 
ATOM     51  N   UNL A   1      38.862  31.271  29.188  1.00  0.00    -0.248 NA
ATOM     52  C   UNL A   1      37.390  29.710  28.372  1.00  0.00     0.031 C 
ATOM     53  C   UNL A   1      40.836  30.177  30.961  1.00  0.00     0.029 A 
ATOM     54  N   UNL A   1      41.990  28.481  30.016  1.00  0.00    -0.354 N 
ATOM     55  C   UNL A   1      37.617  31.852  29.180  1.00  0.00     0.074 A 
ATOM     56  C   UNL A   1      36.739  30.851  28.619  1.00  0.00     0.031 C 
ATOM     57  C   UNL A   1      42.080  30.224  31.459  1.00  0.00     0.029 A 
ATOM     58  C   UNL A   1      42.899  29.386  30.608  1.00  0.00     0.049 A 
ATOM     59  H   UNL A   1      42.175  27.557  29.733  1.00  0.00     0.167 HD
ATOM     60  C   UNL A   1      37.442  33.072  29.768  1.00  0.00     0.037 A 
ATOM     61  C   UNL A   1      43.976  29.849  29.909  1.00  0.00     0.037 A 
ATOM     62  C   UNL A   1      38.696  33.574  30.328  1.00  0.00     0.049 A 
ATOM     63  C   UNL A   1      43.935  31.344  29.684  1.00  0.00     0.074 A 
ATOM     64  C   UNL A   1      39.196  33.595  31.620  1.00  0.00     0.029 A 
ATOM     65  N   UNL A   1      39.773  33.857  29.489  1.00  0.00    -0.354 N 
ATOM     66  N   UNL A   1      42.835  32.051  29.694  1.00  0.00    -0.248 NA
ATOM     67  C   UNL A   1      45.123  32.160  29.470  1.00  0.00     0.031 C 
ATOM     68  C   UNL A   1      40.592  33.817  31.553  1.00  0.00     0.029 A 
ATOM     69  C   UNL A   1      40.938  33.986  30.223  1.00  0.00     0.049 A 
ATOM     70  H   UNL A   1      39.712  33.952  28.511  1.00  0.00     0.167 HD
ATOM     71  C   UNL A   1      43.146  33.378  29.551  1.00  0.00     0.074 A 
ATOM     72  C   UNL A   1      44.590  33.392  29.398  1.00  0.00     0.031 C 
ATOM     73  C   UNL A   1      42.197  34.361  29.600  1.00  0.00     0.037 A 
BRANCH  60  74
ATOM     74  C   UNL A   1      36.073  33.629  30.091  1.00  0.00     0.064 A 
ATOM     75  C   UNL A   1      35.240  34.171  29.086  1.00  0.00     0.173 A 
ATOM     76  C   UNL A   1      35.550  33.708  31.394  1.00  0.00     0.173 A 
ATOM     77  F   UNL A   1      35.545  34.062  27.789  1.00  0.00    -0.203 F 
ATOM     78  C   UNL A   1      34.059  34.857  29.381  1.00  0.00     0.198 A 
ATOM     79  C   UNL A   1      34.397  34.443  31.697  1.00  0.00     0.198 A 
ATOM     80  F   UNL A   1      36.124  33.046  32.408  1.00  0.00    -0.203 F 
ATOM     81  F   UNL A   1      33.321  35.367  28.386  1.00  0.00    -0.200 F 
ATOM     82  C   UNL A   1      33.660  35.031  30.690  1.00  0.00     0.200 A 
ATOM     83  F   UNL A   1      34.014  34.584  32.974  1.00  0.00    -0.200 F 
ATOM     84  F   UNL A   1      32.561  35.742  30.977  1.00  0.00    -0.200 F 
ENDBRANCH  60  74
BRANCH  61  85
ATOM     85  C   UNL A   1      44.550  28.828  28.994  1.00  0.00     0.064 A 
ATOM     86  C   UNL A   1      45.304  27.786  29.573  1.00  0.00     0.173 A 
ATOM     87  C   UNL A   1      44.059  28.626  27.700  1.00  0.00     0.173 A 
ATOM     88  F   UNL A   1      45.788  27.923  30.818  1.00  0.00    -0.203 F 
ATOM     89  C   UNL A   1      45.448  26.554  28.941  1.00  0.00     0.198 A 
ATOM     90  C   UNL A   1      44.223  27.394  27.059  1.00  0.00     0.198 A 
ATOM     91  F   UNL A   1      43.313  29.567  27.104  1.00  0.00    -0.203 F 
ATOM     92  F   UNL A   1      46.056  25.543  29.579  1.00  0.00    -0.200 F 
ATOM     93  C   UNL A   1      44.883  26.350  27.694  1.00  0.00     0.200 A 
ATOM     94  F   UNL A   1      43.658  27.187  25.861  1.00  0.00    -0.200 F 
ATOM     95  F   UNL A   1      44.934  25.136  27.128  1.00  0.00    -0.200 F 
ENDBRANCH  61  85
BRANCH  73  96
ATOM     96  C   UNL A   1      42.394  35.811  29.215  1.00  0.00     0.064 A 
ATOM     97  C   UNL A   1      43.184  36.711  29.946  1.00  0.00     0.173 A 
ATOM     98  C   UNL A   1      41.907  36.301  27.976  1.00  0.00     0.173 A 
ATOM     99  F   UNL A   1      43.804  36.337  31.073  1.00  0.00    -0.203 F 
ATOM    100  C   UNL A   1      43.415  38.019  29.507  1.00  0.00     0.198 A 
ATOM    101  C   UNL A   1      42.188  37.585  27.514  1.00  0.00     0.198 A 
ATOM    102  F   UNL A   1      41.167  35.540  27.157  1.00  0.00    -0.203 F 
ATOM    103  F   UNL A   1      44.143  38.851  30.264  1.00  0.00    -0.200 F 
ATOM    104  C   UNL A   1      42.929  38.450  28.288  1.00  0.00     0.200 A 
ATOM    105  F   UNL A   1      41.754  37.967  26.304  1.00  0.00    -0.200 F 
ATOM    106  F   UNL A   1      43.198  39.687  27.849  1.00  0.00    -0.200 F 
ENDBRANCH  73  96
ENDBRANCH  47  48
ENDBRANCH  39  42
ENDBRANCH  37  38
ENDBRANCH  36  37
ENDBRANCH  35  36
ENDBRANCH   1  35
TORSDOF 15
ENDMDL
MODEL 2
REMARK VINA RESULT:     -14.8      1.190      1.994
REMARK SMILES Cc1ccc(NC(=O)[C@@H]2[C@@H](C(=O)NCCCCNC(=O)c3ccc(-c4c5nc(c(-c6c(F)c(F)c(F)c(F)c6F)c6ccc([nH]6)c(-c6c(F)c(F)c(F)c(F)c6F)c6nc(c(-c7c(F)c(F)c(F)c(F)c7F)c7ccc4[nH]7)C=C6)C=C5)cc3)[C@@H]3C=C[C@H]2C3)cc1NC(=O)c1ccc(Cl)cc1
REMARK SMILES IDX 14 1 13 2 11 3 12 4 10 6 9 7 87 8 84 9 86 10 88 11 85 12
REMARK SMILES IDX 7 13 6 14 8 16 5 17 1 18 2 19 3 20 90 21 4 22 89 23 91 24
REMARK SMILES IDX 92 25 93 27 94 28 95 29 100 30 96 31 99 32 97 33 98 34 15 35
REMARK SMILES IDX 16 36 17 37 18 38 19 39 20 41 21 42 22 43 83 44 23 45 82 46
REMARK SMILES IDX 24 47 25 48 26 49 76 50 27 51 81 52 75 53 77 54 28 55 80 56
REMARK SMILES IDX 74 57 73 58 29 60 61 61 41 62 60 63 42 64 45 65 59 66 78 67
REMARK SMILES IDX 43 68 44 69 58 71 79 72 46 73 30 74 31 75 39 76 32 77 33 78
REMARK SMILES IDX 37 79 40 80 34 81 35 82 38 83 36 84 62 85 63 86 71 87 64 88
REMARK SMILES IDX 65 89 69 90 72 91 66 92 67 93 70 94 68 95 47 96 48 97 56 98
REMARK SMILES IDX 49 99 50 100 54 101 57 102 51 103 52 104 55 105 53 106
REMARK H PARENT 13 5 6 15 91 26 18 40 77 59 45 70
REMARK Flexibility Score: inf
ROOT
ATOM      1  C   UNL A   1      36.056  20.868  25.313  1.00  0.00     0.116 C 
ENDROOT
BRANCH   1   2
ATOM      2  N   UNL A   1      35.513  21.623  26.430  1.00  0.00    -0.356 N 
ATOM      3  C   UNL A   1      34.492  22.498  26.610  1.00  0.00     0.224 C 
ATOM      4  O   UNL A   1      34.404  22.949  27.761  1.00  0.00    -0.275 OA
ATOM      5  H   UNL A   1      36.010  21.460  27.265  1.00  0.00     0.163 HD
BRANCH   3   6
ATOM      6  C   UNL A   1      33.391  22.856  25.604  1.00  0.00     0.098 C 
ATOM      7  C   UNL A   1      32.013  22.367  26.116  1.00  0.00     0.099 C 
ATOM      8  C   UNL A   1      31.319  21.834  24.836  1.00  0.00     0.025 C 
ATOM      9  C   UNL A   1      33.432  22.208  24.196  1.00  0.00     0.025 C 
ATOM     10  C   UNL A   1      31.287  22.889  23.747  1.00  0.00    -0.027 C 
ATOM     11  C   UNL A   1      32.459  21.005  24.283  1.00  0.00     0.017 C 
ATOM     12  C   UNL A   1      32.551  23.086  23.336  1.00  0.00    -0.027 C 
BRANCH   7  13
ATOM     13  C   UNL A   1      31.018  23.217  26.857  1.00  0.00     0.228 C 
ATOM     14  N   UNL A   1      31.115  24.595  26.760  1.00  0.00    -0.326 N 
ATOM     15  H   UNL A   1      30.655  25.064  27.492  1.00  0.00     0.169 HD
ATOM     16  O   UNL A   1      30.188  22.732  27.626  1.00  0.00    -0.274 OA
BRANCH  14  17
ATOM     17  C   UNL A   1      31.737  25.480  25.835  1.00  0.00     0.043 A 
ATOM     18  C   UNL A   1      33.623  26.961  22.268  1.00  0.00     0.046 C 
ATOM     19  C   UNL A   1      32.916  26.641  23.552  1.00  0.00    -0.027 A 
ATOM     20  C   UNL A   1      33.681  26.319  24.664  1.00  0.00     0.008 A 
ATOM     21  C   UNL A   1      31.522  26.647  23.693  1.00  0.00     0.046 A 
ATOM     22  C   UNL A   1      33.078  25.851  25.823  1.00  0.00     0.026 A 
ATOM     23  C   UNL A   1      30.949  25.960  24.777  1.00  0.00     0.052 A 
BRANCH  21  24
ATOM     24  N   UNL A   1      30.784  27.361  22.736  1.00  0.00    -0.322 N 
ATOM     25  C   UNL A   1      30.262  28.629  22.693  1.00  0.00     0.255 C 
ATOM     26  H   UNL A   1      30.600  26.839  21.922  1.00  0.00     0.170 HD
ATOM     27  O   UNL A   1      29.589  28.952  21.712  1.00  0.00    -0.269 OA
BRANCH  25  28
ATOM     28  C   UNL A   1      30.505  29.657  23.727  1.00  0.00     0.040 A 
ATOM     29  C   UNL A   1      31.523  29.393  24.654  1.00  0.00     0.015 A 
ATOM     30  C   UNL A   1      29.714  30.803  23.870  1.00  0.00     0.015 A 
ATOM     31  C   UNL A   1      31.798  30.303  25.675  1.00  0.00     0.021 A 
ATOM     32  C   UNL A   1      30.003  31.724  24.884  1.00  0.00     0.021 A 
ATOM     33  C   UNL A   1      31.046  31.472  25.777  1.00  0.00     0.041 A 
ATOM     34  Cl  UNL A   1      31.401  32.605  27.022  1.00  0.00    -0.084 Cl
ENDBRANCH  25  28
ENDBRANCH  21  24
ENDBRANCH  14  17
ENDBRANCH   7  13
ENDBRANCH   3   6
ENDBRANCH   1   2
BRANCH   1  35
ATOM     35  C   UNL A   1      37.332  21.477  24.728  1.00  0.00     0.023 C 
BRANCH  35  36
ATOM     36  C   UNL A   1      38.556  21.424  25.639  1.00  0.00     0.023 C 
BRANCH  36  37
ATOM     37  C   UNL A   1      38.976  22.776  26.202  1.00  0.00     0.116 C 
BRANCH  37  38
ATOM     38  N   UNL A   1      40.415  22.972  26.329  1.00  0.00    -0.352 N 
ATOM     39  C   UNL A   1      41.124  24.142  26.578  1.00  0.00     0.251 C 
ATOM     40  H   UNL A   1      40.963  22.161  26.224  1.00  0.00     0.163 HD
ATOM     41  O   UNL A   1      42.339  24.140  26.593  1.00  0.00    -0.269 OA
BRANCH  39  42
ATOM     42  C   UNL A   1      40.375  25.367  26.961  1.00  0.00     0.039 A 
ATOM     43  C   UNL A   1      40.687  26.559  26.296  1.00  0.00     0.014 A 
ATOM     44  C   UNL A   1      39.557  25.386  28.087  1.00  0.00     0.014 A 
ATOM     45  C   UNL A   1      40.399  27.774  26.911  1.00  0.00     0.010 A 
ATOM     46  C   UNL A   1      39.370  26.580  28.753  1.00  0.00     0.010 A 
ATOM     47  C   UNL A   1      39.846  27.767  28.192  1.00  0.00    -0.014 A 
BRANCH  47  48
ATOM     48  C   UNL A   1      39.824  28.951  29.039  1.00  0.00     0.031 A 
ATOM     49  C   UNL A   1      38.751  29.954  28.890  1.00  0.00     0.074 A 
ATOM     50  C   UNL A   1      40.765  29.100  29.997  1.00  0.00     0.049 A 
ATOM     51  N   UNL A   1      38.881  31.198  29.199  1.00  0.00    -0.248 NA
ATOM     52  C   UNL A   1      37.431  29.630  28.360  1.00  0.00     0.031 C 
ATOM     53  C   UNL A   1      40.807  30.122  31.035  1.00  0.00     0.029 A 
ATOM     54  N   UNL A   1      41.985  28.417  30.138  1.00  0.00    -0.354 N 
ATOM     55  C   UNL A   1      37.637  31.780  29.153  1.00  0.00     0.074 A 
ATOM     56  C   UNL A   1      36.773  30.773  28.579  1.00  0.00     0.031 C 
ATOM     57  C   UNL A   1      42.038  30.174  31.565  1.00  0.00     0.029 A 
ATOM     58  C   UNL A   1      42.878  29.327  30.744  1.00  0.00     0.049 A 
ATOM     59  H   UNL A   1      42.177  27.490  29.869  1.00  0.00     0.167 HD
ATOM     60  C   UNL A   1      37.447  33.005  29.724  1.00  0.00     0.037 A 
ATOM     61  C   UNL A   1      43.974  29.783  30.069  1.00  0.00     0.037 A 
ATOM     62  C   UNL A   1      38.686  33.513  30.312  1.00  0.00     0.049 A 
ATOM     63  C   UNL A   1      43.939  31.276  29.829  1.00  0.00     0.074 A 
ATOM     64  C   UNL A   1      39.151  33.547  31.616  1.00  0.00     0.029 A 
ATOM     65  N   UNL A   1      39.785  33.788  29.499  1.00  0.00    -0.354 N 
ATOM     66  N   UNL A   1      42.840  31.983  29.803  1.00  0.00    -0.248 NA
ATOM     67  C   UNL A   1      45.133  32.090  29.638  1.00  0.00     0.031 C 
ATOM     68  C   UNL A   1      40.549  33.768  31.583  1.00  0.00     0.029 A 
ATOM     69  C   UNL A   1      40.930  33.923  30.262  1.00  0.00     0.049 A 
ATOM     70  H   UNL A   1      39.750  33.873  28.519  1.00  0.00     0.167 HD
ATOM     71  C   UNL A   1      43.154  33.308  29.654  1.00  0.00     0.074 A 
ATOM     72  C   UNL A   1      44.602  33.321  29.540  1.00  0.00     0.031 C 
ATOM     73  C   UNL A   1      42.206  34.292  29.669  1.00  0.00     0.037 A 
BRANCH  60  74
ATOM     74  C   UNL A   1      36.070  33.566  30.004  1.00  0.00     0.064 A 
ATOM     75  C   UNL A   1      35.241  34.044  28.966  1.00  0.00     0.173 A 
ATOM     76  C   UNL A   1      35.536  33.710  31.298  1.00  0.00     0.173 A 
ATOM     77  F   UNL A   1      35.558  33.868  27.679  1.00  0.00    -0.203 F 
ATOM     78  C   UNL A   1      34.051  34.734  29.213  1.00  0.00     0.198 A 
ATOM     79  C   UNL A   1      34.373  34.450  31.551  1.00  0.00     0.198 A 
ATOM     80  F   UNL A   1      36.107  33.110  32.351  1.00  0.00    -0.203 F 
ATOM     81  F   UNL A   1      33.317  35.182  28.185  1.00  0.00    -0.200 F 
ATOM     82  C   UNL A   1      33.639  34.975  30.507  1.00  0.00     0.200 A 
ATOM     83  F   UNL A   1      33.978  34.656  32.815  1.00  0.00    -0.200 F 
ATOM     84  F   UNL A   1      32.532  35.690  30.746  1.00  0.00    -0.200 F 
ENDBRANCH  60  74
BRANCH  61  85
ATOM     85  C   UNL A   1      44.572  28.753  29.180  1.00  0.00     0.064 A 
ATOM     86  C   UNL A   1      45.357  27.750  29.784  1.00  0.00     0.173 A 
ATOM     87  C   UNL A   1      44.079  28.501  27.896  1.00  0.00     0.173 A 
ATOM     88  F   UNL A   1      45.844  27.936  31.022  1.00  0.00    -0.203 F 
ATOM     89  C   UNL A   1      45.532  26.504  29.186  1.00  0.00     0.198 A 
ATOM     90  C   UNL A   1      44.274  27.255  27.289  1.00  0.00     0.198 A 
ATOM     91  F   UNL A   1      43.304  29.403  27.278  1.00  0.00    -0.203 F 
ATOM     92  F   UNL A   1      46.172  25.529  29.849  1.00  0.00    -0.200 F 
ATOM     93  C   UNL A   1      44.967  26.249  27.949  1.00  0.00     0.200 A 
ATOM     94  F   UNL A   1      43.709  26.999  26.101  1.00  0.00    -0.200 F 
ATOM     95  F   UNL A   1      45.049  25.022  27.417  1.00  0.00    -0.200 F 
ENDBRANCH  61  85
BRANCH  73  96
ATOM     96  C   UNL A   1      42.413  35.738  29.274  1.00  0.00     0.064 A 
ATOM     97  C   UNL A   1      43.221  36.633  29.992  1.00  0.00     0.173 A 
ATOM     98  C   UNL A   1      41.916  36.228  28.039  1.00  0.00     0.173 A 
ATOM     99  F   UNL A   1      43.851  36.258  31.113  1.00  0.00    -0.203 F 
ATOM    100  C   UNL A   1      43.461  37.936  29.544  1.00  0.00     0.198 A 
ATOM    101  C   UNL A   1      42.205  37.506  27.567  1.00  0.00     0.198 A 
ATOM    102  F   UNL A   1      41.159  35.471  27.232  1.00  0.00    -0.203 F 
ATOM    103  F   UNL A   1      44.207  38.764  30.289  1.00  0.00    -0.200 F 
ATOM    104  C   UNL A   1      42.965  38.368  28.328  1.00  0.00     0.200 A 
ATOM    105  F   UNL A   1      41.762  37.887  26.361  1.00  0.00    -0.200 F 
ATOM    106  F   UNL A   1      43.241  39.599  27.881  1.00  0.00    -0.200 F 
ENDBRANCH  73  96
ENDBRANCH  47  48
ENDBRANCH  39  42
ENDBRANCH  37  38
ENDBRANCH  36  37
ENDBRANCH  35  36
ENDBRANCH   1  35
TORSDOF 15
ENDMDL
MODEL 3
REMARK VINA RESULT:     -14.8      3.581     10.026
REMARK SMILES Cc1ccc(NC(=O)[C@@H]2[C@@H](C(=O)NCCCCNC(=O)c3ccc(-c4c5nc(c(-c6c(F)c(F)c(F)c(F)c6F)c6ccc([nH]6)c(-c6c(F)c(F)c(F)c(F)c6F)c6nc(c(-c7c(F)c(F)c(F)c(F)c7F)c7ccc4[nH]7)C=C6)C=C5)cc3)[C@@H]3C=C[C@H]2C3)cc1NC(=O)c1ccc(Cl)cc1
REMARK SMILES IDX 14 1 13 2 11 3 12 4 10 6 9 7 87 8 84 9 86 10 88 11 85 12
REMARK SMILES IDX 7 13 6 14 8 16 5 17 1 18 2 19 3 20 90 21 4 22 89 23 91 24
REMARK SMILES IDX 92 25 93 27 94 28 95 29 100 30 96 31 99 32 97 33 98 34 15 35
REMARK SMILES IDX 16 36 17 37 18 38 19 39 20 41 21 42 22 43 83 44 23 45 82 46
REMARK SMILES IDX 24 47 25 48 26 49 76 50 27 51 81 52 75 53 77 54 28 55 80 56
REMARK SMILES IDX 74 57 73 58 29 60 61 61 41 62 60 63 42 64 45 65 59 66 78 67
REMARK SMILES IDX 43 68 44 69 58 71 79 72 46 73 30 74 31 75 39 76 32 77 33 78
REMARK SMILES IDX 37 79 40 80 34 81 35 82 38 83 36 84 62 85 63 86 71 87 64 88
REMARK SMILES IDX 65 89 69 90 72 91 66 92 67 93 70 94 68 95 47 96 48 97 56 98
REMARK SMILES IDX 49 99 50 100 54 101 57 102 51 103 52 104 55 105 53 106
REMARK H PARENT 13 5 6 15 91 26 18 40 77 59 45 70
REMARK Flexibility Score: inf
ROOT
ATOM      1  C   UNL A   1      34.143  28.460  26.454  1.00  0.00     0.116 C 
ENDROOT
BRANCH   1   2
ATOM      2  N   UNL A   1      34.172  28.851  25.054  1.00  0.00    -0.356 N 
ATOM      3  C   UNL A   1      33.653  28.368  23.897  1.00  0.00     0.224 C 
ATOM      4  O   UNL A   1      33.969  29.015  22.889  1.00  0.00    -0.275 OA
ATOM      5  H   UNL A   1      34.699  29.669  24.908  1.00  0.00     0.163 HD
BRANCH   3   6
ATOM      6  C   UNL A   1      32.635  27.232  23.741  1.00  0.00     0.098 C 
ATOM      7  C   UNL A   1      32.327  26.984  22.244  1.00  0.00     0.099 C 
ATOM      8  C   UNL A   1      30.800  26.718  22.226  1.00  0.00     0.025 C 
ATOM      9  C   UNL A   1      31.206  27.433  24.308  1.00  0.00     0.025 C 
ATOM     10  C   UNL A   1      30.425  25.597  23.175  1.00  0.00    -0.027 C 
ATOM     11  C   UNL A   1      30.353  27.877  23.093  1.00  0.00     0.017 C 
ATOM     12  C   UNL A   1      30.633  26.039  24.427  1.00  0.00    -0.027 C 
BRANCH   7  13
ATOM     13  C   UNL A   1      32.985  25.935  21.390  1.00  0.00     0.228 C 
ATOM     14  N   UNL A   1      33.666  24.902  22.012  1.00  0.00    -0.326 N 
ATOM     15  H   UNL A   1      34.311  24.455  21.419  1.00  0.00     0.169 HD
ATOM     16  O   UNL A   1      33.027  26.021  20.164  1.00  0.00    -0.274 OA
BRANCH  14  17
ATOM     17  C   UNL A   1      33.638  24.346  23.322  1.00  0.00     0.043 A 
ATOM     18  C   UNL A   1      32.261  23.254  27.245  1.00  0.00     0.046 C 
ATOM     19  C   UNL A   1      32.875  23.479  25.895  1.00  0.00    -0.027 A 
ATOM     20  C   UNL A   1      33.731  24.558  25.731  1.00  0.00     0.008 A 
ATOM     21  C   UNL A   1      32.632  22.659  24.785  1.00  0.00     0.046 A 
ATOM     22  C   UNL A   1      34.189  24.909  24.469  1.00  0.00     0.026 A 
ATOM     23  C   UNL A   1      32.910  23.159  23.501  1.00  0.00     0.052 A 
BRANCH  21  24
ATOM     24  N   UNL A   1      32.132  21.371  25.036  1.00  0.00    -0.322 N 
ATOM     25  C   UNL A   1      32.710  20.130  25.122  1.00  0.00     0.255 C 
ATOM     26  H   UNL A   1      31.159  21.356  25.180  1.00  0.00     0.170 HD
ATOM     27  O   UNL A   1      31.977  19.154  25.297  1.00  0.00    -0.269 OA
BRANCH  25  28
ATOM     28  C   UNL A   1      34.168  19.893  25.075  1.00  0.00     0.040 A 
ATOM     29  C   UNL A   1      34.996  20.984  25.373  1.00  0.00     0.015 A 
ATOM     30  C   UNL A   1      34.736  18.683  24.660  1.00  0.00     0.015 A 
ATOM     31  C   UNL A   1      36.383  20.848  25.328  1.00  0.00     0.021 A 
ATOM     32  C   UNL A   1      36.128  18.542  24.632  1.00  0.00     0.021 A 
ATOM     33  C   UNL A   1      36.944  19.623  24.971  1.00  0.00     0.041 A 
ATOM     34  Cl  UNL A   1      38.655  19.449  24.938  1.00  0.00    -0.084 Cl
ENDBRANCH  25  28
ENDBRANCH  21  24
ENDBRANCH  14  17
ENDBRANCH   7  13
ENDBRANCH   3   6
ENDBRANCH   1   2
BRANCH   1  35
ATOM     35  C   UNL A   1      33.007  29.111  27.246  1.00  0.00     0.023 C 
BRANCH  35  36
ATOM     36  C   UNL A   1      33.153  30.613  27.478  1.00  0.00     0.023 C 
BRANCH  36  37
ATOM     37  C   UNL A   1      34.594  31.107  27.488  1.00  0.00     0.116 C 
BRANCH  37  38
ATOM     38  N   UNL A   1      35.035  31.700  28.745  1.00  0.00    -0.352 N 
ATOM     39  C   UNL A   1      35.955  31.219  29.669  1.00  0.00     0.251 C 
ATOM     40  H   UNL A   1      34.622  32.565  28.972  1.00  0.00     0.163 HD
ATOM     41  O   UNL A   1      36.164  31.816  30.706  1.00  0.00    -0.269 OA
BRANCH  39  42
ATOM     42  C   UNL A   1      36.782  30.037  29.309  1.00  0.00     0.039 A 
ATOM     43  C   UNL A   1      37.052  29.099  30.312  1.00  0.00     0.014 A 
ATOM     44  C   UNL A   1      37.451  29.973  28.090  1.00  0.00     0.014 A 
ATOM     45  C   UNL A   1      38.166  28.273  30.187  1.00  0.00     0.010 A 
ATOM     46  C   UNL A   1      38.618  29.240  28.010  1.00  0.00     0.010 A 
ATOM     47  C   UNL A   1      39.006  28.438  29.084  1.00  0.00    -0.014 A 
BRANCH  47  48
ATOM     48  C   UNL A   1      40.348  27.875  29.035  1.00  0.00     0.031 A 
ATOM     49  C   UNL A   1      40.552  26.473  28.619  1.00  0.00     0.074 A 
ATOM     50  C   UNL A   1      41.409  28.661  29.324  1.00  0.00     0.049 A 
ATOM     51  N   UNL A   1      41.555  25.752  28.989  1.00  0.00    -0.248 NA
ATOM     52  C   UNL A   1      39.623  25.759  27.752  1.00  0.00     0.031 C 
ATOM     53  C   UNL A   1      42.818  28.324  29.169  1.00  0.00     0.029 A 
ATOM     54  N   UNL A   1      41.422  29.909  29.969  1.00  0.00    -0.354 N 
ATOM     55  C   UNL A   1      41.549  24.600  28.242  1.00  0.00     0.074 A 
ATOM     56  C   UNL A   1      40.298  24.630  27.518  1.00  0.00     0.031 C 
ATOM     57  C   UNL A   1      43.566  29.186  29.873  1.00  0.00     0.029 A 
ATOM     58  C   UNL A   1      42.649  29.979  30.666  1.00  0.00     0.049 A 
ATOM     59  H   UNL A   1      40.718  30.597  29.940  1.00  0.00     0.167 HD
ATOM     60  C   UNL A   1      42.660  23.808  28.219  1.00  0.00     0.037 A 
ATOM     61  C   UNL A   1      42.674  30.019  32.030  1.00  0.00     0.037 A 
ATOM     62  C   UNL A   1      43.723  24.363  29.056  1.00  0.00     0.049 A 
ATOM     63  C   UNL A   1      43.359  28.817  32.642  1.00  0.00     0.074 A 
ATOM     64  C   UNL A   1      44.862  25.090  28.754  1.00  0.00     0.029 A 
ATOM     65  N   UNL A   1      43.536  24.486  30.432  1.00  0.00    -0.354 N 
ATOM     66  N   UNL A   1      43.478  27.663  32.040  1.00  0.00    -0.248 NA
ATOM     67  C   UNL A   1      43.991  28.832  33.955  1.00  0.00     0.031 C 
ATOM     68  C   UNL A   1      45.319  25.714  29.940  1.00  0.00     0.029 A 
ATOM     69  C   UNL A   1      44.491  25.325  30.978  1.00  0.00     0.049 A 
ATOM     70  H   UNL A   1      42.824  24.038  30.944  1.00  0.00     0.167 HD
ATOM     71  C   UNL A   1      44.222  26.817  32.821  1.00  0.00     0.074 A 
ATOM     72  C   UNL A   1      44.506  27.592  34.016  1.00  0.00     0.031 C 
ATOM     73  C   UNL A   1      44.573  25.561  32.410  1.00  0.00     0.037 A 
BRANCH  60  74
ATOM     74  C   UNL A   1      42.859  22.716  27.190  1.00  0.00     0.064 A 
ATOM     75  C   UNL A   1      42.163  21.490  27.270  1.00  0.00     0.173 A 
ATOM     76  C   UNL A   1      43.776  22.805  26.126  1.00  0.00     0.173 A 
ATOM     77  F   UNL A   1      41.176  21.300  28.151  1.00  0.00    -0.203 F 
ATOM     78  C   UNL A   1      42.464  20.402  26.446  1.00  0.00     0.198 A 
ATOM     79  C   UNL A   1      44.118  21.699  25.338  1.00  0.00     0.198 A 
ATOM     80  F   UNL A   1      44.341  23.975  25.799  1.00  0.00    -0.203 F 
ATOM     81  F   UNL A   1      41.783  19.256  26.584  1.00  0.00    -0.200 F 
ATOM     82  C   UNL A   1      43.473  20.492  25.509  1.00  0.00     0.200 A 
ATOM     83  F   UNL A   1      45.087  21.813  24.418  1.00  0.00    -0.200 F 
ATOM     84  F   UNL A   1      43.804  19.430  24.763  1.00  0.00    -0.200 F 
ENDBRANCH  60  74
BRANCH  61  85
ATOM     85  C   UNL A   1      41.535  30.782  32.604  1.00  0.00     0.064 A 
ATOM     86  C   UNL A   1      41.597  32.189  32.541  1.00  0.00     0.173 A 
ATOM     87  C   UNL A   1      40.281  30.201  32.818  1.00  0.00     0.173 A 
ATOM     88  F   UNL A   1      42.775  32.798  32.323  1.00  0.00    -0.203 F 
ATOM     89  C   UNL A   1      40.445  32.970  32.559  1.00  0.00     0.198 A 
ATOM     90  C   UNL A   1      39.127  30.990  32.857  1.00  0.00     0.198 A 
ATOM     91  F   UNL A   1      40.151  28.868  32.863  1.00  0.00    -0.203 F 
ATOM     92  F   UNL A   1      40.531  34.294  32.360  1.00  0.00    -0.200 F 
ATOM     93  C   UNL A   1      39.206  32.366  32.690  1.00  0.00     0.200 A 
ATOM     94  F   UNL A   1      37.925  30.406  32.962  1.00  0.00    -0.200 F 
ATOM     95  F   UNL A   1      38.091  33.105  32.607  1.00  0.00    -0.200 F 
ENDBRANCH  61  85
BRANCH  73  96
ATOM     96  C   UNL A   1      45.173  24.475  33.276  1.00  0.00     0.064 A 
ATOM     97  C   UNL A   1      44.493  23.302  33.637  1.00  0.00     0.173 A 
ATOM     98  C   UNL A   1      46.543  24.518  33.643  1.00  0.00     0.173 A 
ATOM     99  F   UNL A   1      43.230  23.081  33.248  1.00  0.00    -0.203 F 
ATOM    100  C   UNL A   1      45.113  22.280  34.362  1.00  0.00     0.198 A 
ATOM    101  C   UNL A   1      47.174  23.473  34.314  1.00  0.00     0.198 A 
ATOM    102  F   UNL A   1      47.325  25.563  33.334  1.00  0.00    -0.203 F 
ATOM    103  F   UNL A   1      44.407  21.198  34.717  1.00  0.00    -0.200 F 
ATOM    104  C   UNL A   1      46.454  22.360  34.689  1.00  0.00     0.200 A 
ATOM    105  F   UNL A   1      48.487  23.545  34.573  1.00  0.00    -0.200 F 
ATOM    106  F   UNL A   1      47.056  21.355  35.338  1.00  0.00    -0.200 F 
ENDBRANCH  73  96
ENDBRANCH  47  48
ENDBRANCH  39  42
ENDBRANCH  37  38
ENDBRANCH  36  37
ENDBRANCH  35  36
ENDBRANCH   1  35
TORSDOF 15
ENDMDL
