MODEL 1
REMARK VINA RESULT:     -12.1      0.000      0.000
REMARK SMILES C/C(=C/C[NH+]1C[C@@H](C)[C@H](C)C1)C(=O)NCCCCNC(=O)c1ccc(-c2c3nc(c(-c4c(F)c(F)c(F)c(F)c4F)c4ccc([nH]4)c(-c4c(F)c(F)c(F)c(F)c4F)c4nc(c(-c5c(F)c(F)c(F)c(F)c5F)c5ccc2[nH]5)C=C4)C=C3)cc1
REMARK SMILES IDX 16 1 15 2 14 3 12 4 13 5 2 7 1 8 3 9 4 10 5 11 6 12 11 13
REMARK SMILES IDX 7 15 9 16 8 17 10 18 17 19 18 20 19 21 20 22 21 24 22 25
REMARK SMILES IDX 23 26 84 27 24 28 83 29 25 30 26 31 27 32 77 33 28 34 82 35
REMARK SMILES IDX 76 36 78 37 29 38 81 39 75 40 74 41 30 43 62 44 42 45 61 46
REMARK SMILES IDX 43 47 46 48 60 49 79 50 44 51 45 52 59 54 80 55 47 56 31 57
REMARK SMILES IDX 32 58 40 59 33 60 34 61 38 62 41 63 35 64 36 65 39 66 37 67
REMARK SMILES IDX 63 68 64 69 72 70 65 71 66 72 70 73 73 74 67 75 68 76 71 77
REMARK SMILES IDX 69 78 48 79 49 80 57 81 50 82 51 83 55 84 58 85 52 86 53 87
REMARK SMILES IDX 56 88 54 89
REMARK H PARENT 14 6 5 14 19 23 78 42 46 53
REMARK Flexibility Score: inf
ROOT
ATOM      1  C   UNL A   1      31.978  30.212  26.685  1.00  0.00     0.023 C 
ENDROOT
BRANCH   1   2
ATOM      2  C   UNL A   1      33.196  29.714  25.896  1.00  0.00     0.116 C 
BRANCH   2   3
ATOM      3  N   UNL A   1      32.913  29.673  24.480  1.00  0.00    -0.352 N 
ATOM      4  C   UNL A   1      32.164  28.942  23.633  1.00  0.00     0.246 C 
ATOM      5  O   UNL A   1      32.266  29.305  22.452  1.00  0.00    -0.270 OA
ATOM      6  H   UNL A   1      33.406  30.377  24.000  1.00  0.00     0.163 HD
BRANCH   4   7
ATOM      7  C   UNL A   1      31.193  27.827  23.949  1.00  0.00     0.015 C 
ATOM      8  C   UNL A   1      31.933  26.702  24.670  1.00  0.00     0.050 C 
ATOM      9  C   UNL A   1      29.867  27.633  23.789  1.00  0.00     0.042 C 
BRANCH   9  10
ATOM     10  C   UNL A   1      28.758  28.468  23.252  1.00  0.00     0.291 C 
BRANCH  10  11
ATOM     11  N   UNL A   1      29.177  29.784  22.775  1.00  0.00    -0.331 N 
ATOM     12  C   UNL A   1      28.576  30.132  21.484  1.00  0.00     0.266 C 
ATOM     13  C   UNL A   1      29.006  30.925  23.683  1.00  0.00     0.266 C 
ATOM     14  H   UNL A   1      30.185  29.643  22.696  1.00  0.00     0.348 HD
ATOM     15  C   UNL A   1      28.787  31.638  21.392  1.00  0.00     0.049 C 
ATOM     16  C   UNL A   1      28.493  32.086  22.824  1.00  0.00     0.049 C 
ATOM     17  C   UNL A   1      27.885  32.292  20.355  1.00  0.00     0.014 C 
ATOM     18  C   UNL A   1      29.123  33.420  23.191  1.00  0.00     0.014 C 
ENDBRANCH  10  11
ENDBRANCH   9  10
ENDBRANCH   4   7
ENDBRANCH   2   3
ENDBRANCH   1   2
BRANCH   1  19
ATOM     19  C   UNL A   1      31.757  31.723  26.616  1.00  0.00     0.023 C 
BRANCH  19  20
ATOM     20  C   UNL A   1      32.789  32.553  27.371  1.00  0.00     0.116 C 
BRANCH  20  21
ATOM     21  N   UNL A   1      32.383  33.928  27.623  1.00  0.00    -0.352 N 
ATOM     22  C   UNL A   1      32.957  34.820  28.502  1.00  0.00     0.251 C 
ATOM     23  H   UNL A   1      31.613  34.258  27.106  1.00  0.00     0.163 HD
ATOM     24  O   UNL A   1      32.486  35.939  28.668  1.00  0.00    -0.269 OA
BRANCH  22  25
ATOM     25  C   UNL A   1      34.121  34.373  29.293  1.00  0.00     0.039 A 
ATOM     26  C   UNL A   1      33.899  33.695  30.494  1.00  0.00     0.014 A 
ATOM     27  C   UNL A   1      35.416  34.526  28.791  1.00  0.00     0.014 A 
ATOM     28  C   UNL A   1      34.972  33.089  31.148  1.00  0.00     0.010 A 
ATOM     29  C   UNL A   1      36.473  33.868  29.410  1.00  0.00     0.010 A 
ATOM     30  C   UNL A   1      36.258  33.130  30.584  1.00  0.00    -0.014 A 
BRANCH  30  31
ATOM     31  C   UNL A   1      37.385  32.377  31.189  1.00  0.00     0.031 A 
ATOM     32  C   UNL A   1      37.885  32.737  32.557  1.00  0.00     0.074 A 
ATOM     33  C   UNL A   1      38.013  31.428  30.467  1.00  0.00     0.049 A 
ATOM     34  N   UNL A   1      38.902  32.250  33.221  1.00  0.00    -0.248 NA
ATOM     35  C   UNL A   1      37.163  33.808  33.262  1.00  0.00     0.031 C 
ATOM     36  C   UNL A   1      37.665  31.033  29.102  1.00  0.00     0.029 A 
ATOM     37  N   UNL A   1      39.087  30.632  30.779  1.00  0.00    -0.354 N 
ATOM     38  C   UNL A   1      38.955  32.966  34.408  1.00  0.00     0.074 A 
ATOM     39  C   UNL A   1      37.895  33.951  34.356  1.00  0.00     0.031 C 
ATOM     40  C   UNL A   1      38.496  30.057  28.700  1.00  0.00     0.029 A 
ATOM     41  C   UNL A   1      39.451  29.777  29.768  1.00  0.00     0.049 A 
ATOM     42  H   UNL A   1      39.553  30.671  31.646  1.00  0.00     0.167 HD
ATOM     43  C   UNL A   1      39.797  32.804  35.455  1.00  0.00     0.037 A 
ATOM     44  C   UNL A   1      40.444  28.870  29.710  1.00  0.00     0.037 A 
ATOM     45  C   UNL A   1      40.826  31.800  35.522  1.00  0.00     0.049 A 
ATOM     46  C   UNL A   1      41.343  28.683  30.902  1.00  0.00     0.074 A 
ATOM     47  C   UNL A   1      41.681  31.509  36.569  1.00  0.00     0.029 A 
ATOM     48  N   UNL A   1      41.135  30.920  34.496  1.00  0.00    -0.354 N 
ATOM     49  N   UNL A   1      41.335  29.317  32.049  1.00  0.00    -0.248 NA
ATOM     50  C   UNL A   1      42.383  27.651  30.793  1.00  0.00     0.031 C 
ATOM     51  C   UNL A   1      42.529  30.470  36.167  1.00  0.00     0.029 A 
ATOM     52  C   UNL A   1      42.177  30.093  34.880  1.00  0.00     0.049 A 
ATOM     53  H   UNL A   1      40.681  30.889  33.622  1.00  0.00     0.167 HD
ATOM     54  C   UNL A   1      42.348  28.745  32.805  1.00  0.00     0.074 A 
ATOM     55  C   UNL A   1      42.944  27.706  31.993  1.00  0.00     0.031 C 
ATOM     56  C   UNL A   1      42.749  29.056  34.062  1.00  0.00     0.037 A 
BRANCH  43  57
ATOM     57  C   UNL A   1      39.632  33.730  36.622  1.00  0.00     0.064 A 
ATOM     58  C   UNL A   1      38.835  33.384  37.724  1.00  0.00     0.173 A 
ATOM     59  C   UNL A   1      40.296  34.965  36.652  1.00  0.00     0.173 A 
ATOM     60  F   UNL A   1      38.169  32.219  37.736  1.00  0.00    -0.203 F 
ATOM     61  C   UNL A   1      38.688  34.252  38.802  1.00  0.00     0.198 A 
ATOM     62  C   UNL A   1      40.167  35.820  37.744  1.00  0.00     0.198 A 
ATOM     63  F   UNL A   1      41.072  35.341  35.624  1.00  0.00    -0.203 F 
ATOM     64  F   UNL A   1      37.886  33.921  39.823  1.00  0.00    -0.200 F 
ATOM     65  C   UNL A   1      39.358  35.467  38.813  1.00  0.00     0.200 A 
ATOM     66  F   UNL A   1      40.821  36.989  37.757  1.00  0.00    -0.200 F 
ATOM     67  F   UNL A   1      39.216  36.301  39.852  1.00  0.00    -0.200 F 
ENDBRANCH  43  57
BRANCH  44  68
ATOM     68  C   UNL A   1      40.618  28.038  28.492  1.00  0.00     0.064 A 
ATOM     69  C   UNL A   1      41.407  28.488  27.425  1.00  0.00     0.173 A 
ATOM     70  C   UNL A   1      40.002  26.785  28.368  1.00  0.00     0.173 A 
ATOM     71  F   UNL A   1      41.999  29.691  27.492  1.00  0.00    -0.203 F 
ATOM     72  C   UNL A   1      41.559  27.724  26.270  1.00  0.00     0.198 A 
ATOM     73  C   UNL A   1      40.173  26.011  27.222  1.00  0.00     0.198 A 
ATOM     74  F   UNL A   1      39.241  26.309  29.364  1.00  0.00    -0.203 F 
ATOM     75  F   UNL A   1      42.287  28.196  25.250  1.00  0.00    -0.200 F 
ATOM     76  C   UNL A   1      40.946  26.484  26.172  1.00  0.00     0.200 A 
ATOM     77  F   UNL A   1      39.588  24.809  27.134  1.00  0.00    -0.200 F 
ATOM     78  F   UNL A   1      41.094  25.748  25.061  1.00  0.00    -0.200 F 
ENDBRANCH  44  68
BRANCH  56  79
ATOM     79  C   UNL A   1      43.864  28.243  34.647  1.00  0.00     0.064 A 
ATOM     80  C   UNL A   1      43.617  27.039  35.323  1.00  0.00     0.173 A 
ATOM     81  C   UNL A   1      45.197  28.652  34.491  1.00  0.00     0.173 A 
ATOM     82  F   UNL A   1      42.357  26.617  35.510  1.00  0.00    -0.203 F 
ATOM     83  C   UNL A   1      44.665  26.282  35.838  1.00  0.00     0.198 A 
ATOM     84  C   UNL A   1      46.243  27.880  34.987  1.00  0.00     0.198 A 
ATOM     85  F   UNL A   1      45.483  29.793  33.849  1.00  0.00    -0.203 F 
ATOM     86  F   UNL A   1      44.406  25.153  36.512  1.00  0.00    -0.200 F 
ATOM     87  C   UNL A   1      45.977  26.699  35.664  1.00  0.00     0.200 A 
ATOM     88  F   UNL A   1      47.510  28.279  34.810  1.00  0.00    -0.200 F 
ATOM     89  F   UNL A   1      46.985  25.965  36.154  1.00  0.00    -0.200 F 
ENDBRANCH  56  79
ENDBRANCH  30  31
ENDBRANCH  22  25
ENDBRANCH  20  21
ENDBRANCH  19  20
ENDBRANCH   1  19
TORSDOF 13
ENDMDL
MODEL 2
REMARK VINA RESULT:     -12.1      6.831     11.148
REMARK SMILES C/C(=C/C[NH+]1C[C@@H](C)[C@H](C)C1)C(=O)NCCCCNC(=O)c1ccc(-c2c3nc(c(-c4c(F)c(F)c(F)c(F)c4F)c4ccc([nH]4)c(-c4c(F)c(F)c(F)c(F)c4F)c4nc(c(-c5c(F)c(F)c(F)c(F)c5F)c5ccc2[nH]5)C=C4)C=C3)cc1
REMARK SMILES IDX 16 1 15 2 14 3 12 4 13 5 2 7 1 8 3 9 4 10 5 11 6 12 11 13
REMARK SMILES IDX 7 15 9 16 8 17 10 18 17 19 18 20 19 21 20 22 21 24 22 25
REMARK SMILES IDX 23 26 84 27 24 28 83 29 25 30 26 31 27 32 77 33 28 34 82 35
REMARK SMILES IDX 76 36 78 37 29 38 81 39 75 40 74 41 30 43 62 44 42 45 61 46
REMARK SMILES IDX 43 47 46 48 60 49 79 50 44 51 45 52 59 54 80 55 47 56 31 57
REMARK SMILES IDX 32 58 40 59 33 60 34 61 38 62 41 63 35 64 36 65 39 66 37 67
REMARK SMILES IDX 63 68 64 69 72 70 65 71 66 72 70 73 73 74 67 75 68 76 71 77
REMARK SMILES IDX 69 78 48 79 49 80 57 81 50 82 51 83 55 84 58 85 52 86 53 87
REMARK SMILES IDX 56 88 54 89
REMARK H PARENT 14 6 5 14 19 23 78 42 46 53
REMARK Flexibility Score: inf
ROOT
ATOM      1  C   UNL A   1      37.459  21.771  24.692  1.00  0.00     0.023 C 
ENDROOT
BRANCH   1   2
ATOM      2  C   UNL A   1      35.928  21.732  24.600  1.00  0.00     0.116 C 
BRANCH   2   3
ATOM      3  N   UNL A   1      35.333  21.653  25.914  1.00  0.00    -0.352 N 
ATOM      4  C   UNL A   1      34.099  21.595  26.449  1.00  0.00     0.246 C 
ATOM      5  O   UNL A   1      34.105  21.544  27.688  1.00  0.00    -0.270 OA
ATOM      6  H   UNL A   1      36.025  21.635  26.615  1.00  0.00     0.163 HD
BRANCH   4   7
ATOM      7  C   UNL A   1      32.765  21.511  25.744  1.00  0.00     0.015 C 
ATOM      8  C   UNL A   1      31.894  22.693  26.166  1.00  0.00     0.050 C 
ATOM      9  C   UNL A   1      32.213  20.690  24.826  1.00  0.00     0.042 C 
BRANCH   9  10
ATOM     10  C   UNL A   1      32.705  19.506  24.070  1.00  0.00     0.291 C 
BRANCH  10  11
ATOM     11  N   UNL A   1      33.272  18.454  24.909  1.00  0.00    -0.331 N 
ATOM     12  C   UNL A   1      32.341  17.341  25.122  1.00  0.00     0.266 C 
ATOM     13  C   UNL A   1      34.572  17.895  24.519  1.00  0.00     0.266 C 
ATOM     14  H   UNL A   1      33.443  18.972  25.771  1.00  0.00     0.348 HD
ATOM     15  C   UNL A   1      33.242  16.221  25.627  1.00  0.00     0.049 C 
ATOM     16  C   UNL A   1      34.475  16.381  24.738  1.00  0.00     0.049 C 
ATOM     17  C   UNL A   1      32.588  14.851  25.515  1.00  0.00     0.014 C 
ATOM     18  C   UNL A   1      35.742  15.784  25.331  1.00  0.00     0.014 C 
ENDBRANCH  10  11
ENDBRANCH   9  10
ENDBRANCH   4   7
ENDBRANCH   2   3
ENDBRANCH   1   2
BRANCH   1  19
ATOM     19  C   UNL A   1      38.103  20.438  25.072  1.00  0.00     0.023 C 
BRANCH  19  20
ATOM     20  C   UNL A   1      39.406  20.559  25.854  1.00  0.00     0.116 C 
BRANCH  20  21
ATOM     21  N   UNL A   1      40.206  19.343  25.874  1.00  0.00    -0.352 N 
ATOM     22  C   UNL A   1      41.552  19.235  26.145  1.00  0.00     0.251 C 
ATOM     23  H   UNL A   1      39.733  18.504  25.672  1.00  0.00     0.163 HD
ATOM     24  O   UNL A   1      42.129  18.156  26.075  1.00  0.00    -0.269 OA
BRANCH  22  25
ATOM     25  C   UNL A   1      42.304  20.466  26.462  1.00  0.00     0.039 A 
ATOM     26  C   UNL A   1      42.894  21.182  25.419  1.00  0.00     0.014 A 
ATOM     27  C   UNL A   1      42.326  20.962  27.769  1.00  0.00     0.014 A 
ATOM     28  C   UNL A   1      43.429  22.446  25.671  1.00  0.00     0.010 A 
ATOM     29  C   UNL A   1      42.801  22.247  28.005  1.00  0.00     0.010 A 
ATOM     30  C   UNL A   1      43.341  23.007  26.956  1.00  0.00    -0.014 A 
BRANCH  30  31
ATOM     31  C   UNL A   1      43.778  24.402  27.216  1.00  0.00     0.031 A 
ATOM     32  C   UNL A   1      42.797  25.418  27.721  1.00  0.00     0.074 A 
ATOM     33  C   UNL A   1      45.038  24.770  26.913  1.00  0.00     0.049 A 
ATOM     34  N   UNL A   1      42.967  26.698  27.935  1.00  0.00    -0.248 NA
ATOM     35  C   UNL A   1      41.433  24.939  27.995  1.00  0.00     0.031 C 
ATOM     36  C   UNL A   1      46.066  23.892  26.353  1.00  0.00     0.029 A 
ATOM     37  N   UNL A   1      45.664  25.987  27.020  1.00  0.00    -0.354 N 
ATOM     38  C   UNL A   1      41.733  27.179  28.346  1.00  0.00     0.074 A 
ATOM     39  C   UNL A   1      40.810  26.064  28.311  1.00  0.00     0.031 C 
ATOM     40  C   UNL A   1      47.200  24.592  26.184  1.00  0.00     0.029 A 
ATOM     41  C   UNL A   1      46.971  25.974  26.597  1.00  0.00     0.049 A 
ATOM     42  H   UNL A   1      45.218  26.794  27.367  1.00  0.00     0.167 HD
ATOM     43  C   UNL A   1      41.403  28.433  28.739  1.00  0.00     0.037 A 
ATOM     44  C   UNL A   1      47.880  26.965  26.549  1.00  0.00     0.037 A 
ATOM     45  C   UNL A   1      42.330  29.531  28.810  1.00  0.00     0.049 A 
ATOM     46  C   UNL A   1      47.499  28.340  27.025  1.00  0.00     0.074 A 
ATOM     47  C   UNL A   1      42.108  30.819  29.264  1.00  0.00     0.029 A 
ATOM     48  N   UNL A   1      43.659  29.468  28.417  1.00  0.00    -0.354 N 
ATOM     49  N   UNL A   1      46.347  28.765  27.483  1.00  0.00    -0.248 NA
ATOM     50  C   UNL A   1      48.546  29.370  26.984  1.00  0.00     0.031 C 
ATOM     51  C   UNL A   1      43.296  31.545  29.120  1.00  0.00     0.029 A 
ATOM     52  C   UNL A   1      44.266  30.697  28.607  1.00  0.00     0.049 A 
ATOM     53  H   UNL A   1      44.103  28.666  28.056  1.00  0.00     0.167 HD
ATOM     54  C   UNL A   1      46.537  30.100  27.808  1.00  0.00     0.074 A 
ATOM     55  C   UNL A   1      47.917  30.414  27.505  1.00  0.00     0.031 C 
ATOM     56  C   UNL A   1      45.644  30.988  28.311  1.00  0.00     0.037 A 
BRANCH  43  57
ATOM     57  C   UNL A   1      39.978  28.678  29.133  1.00  0.00     0.064 A 
ATOM     58  C   UNL A   1      39.033  29.145  28.206  1.00  0.00     0.173 A 
ATOM     59  C   UNL A   1      39.546  28.422  30.442  1.00  0.00     0.173 A 
ATOM     60  F   UNL A   1      39.402  29.419  26.946  1.00  0.00    -0.203 F 
ATOM     61  C   UNL A   1      37.712  29.371  28.584  1.00  0.00     0.198 A 
ATOM     62  C   UNL A   1      38.218  28.623  30.809  1.00  0.00     0.198 A 
ATOM     63  F   UNL A   1      40.410  27.971  31.364  1.00  0.00    -0.203 F 
ATOM     64  F   UNL A   1      36.838  29.860  27.695  1.00  0.00    -0.200 F 
ATOM     65  C   UNL A   1      37.305  29.105  29.883  1.00  0.00     0.200 A 
ATOM     66  F   UNL A   1      37.824  28.358  32.062  1.00  0.00    -0.200 F 
ATOM     67  F   UNL A   1      36.032  29.321  30.244  1.00  0.00    -0.200 F 
ENDBRANCH  43  57
BRANCH  44  68
ATOM     68  C   UNL A   1      49.256  26.685  26.065  1.00  0.00     0.064 A 
ATOM     69  C   UNL A   1      49.624  26.976  24.744  1.00  0.00     0.173 A 
ATOM     70  C   UNL A   1      50.227  26.122  26.905  1.00  0.00     0.173 A 
ATOM     71  F   UNL A   1      48.721  27.498  23.898  1.00  0.00    -0.203 F 
ATOM     72  C   UNL A   1      50.905  26.698  24.276  1.00  0.00     0.198 A 
ATOM     73  C   UNL A   1      51.515  25.865  26.442  1.00  0.00     0.198 A 
ATOM     74  F   UNL A   1      49.924  25.829  28.179  1.00  0.00    -0.203 F 
ATOM     75  F   UNL A   1      51.218  26.952  22.998  1.00  0.00    -0.200 F 
ATOM     76  C   UNL A   1      51.851  26.148  25.127  1.00  0.00     0.200 A 
ATOM     77  F   UNL A   1      52.430  25.342  27.269  1.00  0.00    -0.200 F 
ATOM     78  F   UNL A   1      53.086  25.882  24.676  1.00  0.00    -0.200 F 
ENDBRANCH  44  68
BRANCH  56  79
ATOM     79  C   UNL A   1      46.141  32.373  28.595  1.00  0.00     0.064 A 
ATOM     80  C   UNL A   1      46.066  33.390  27.633  1.00  0.00     0.173 A 
ATOM     81  C   UNL A   1      46.659  32.696  29.859  1.00  0.00     0.173 A 
ATOM     82  F   UNL A   1      45.594  33.123  26.405  1.00  0.00    -0.203 F 
ATOM     83  C   UNL A   1      46.507  34.678  27.919  1.00  0.00     0.198 A 
ATOM     84  C   UNL A   1      47.077  33.991  30.149  1.00  0.00     0.198 A 
ATOM     85  F   UNL A   1      46.747  31.758  30.812  1.00  0.00    -0.203 F 
ATOM     86  F   UNL A   1      46.460  35.627  26.975  1.00  0.00    -0.200 F 
ATOM     87  C   UNL A   1      47.006  34.980  29.179  1.00  0.00     0.200 A 
ATOM     88  F   UNL A   1      47.550  34.283  31.369  1.00  0.00    -0.200 F 
ATOM     89  F   UNL A   1      47.424  36.222  29.456  1.00  0.00    -0.200 F 
ENDBRANCH  56  79
ENDBRANCH  30  31
ENDBRANCH  22  25
ENDBRANCH  20  21
ENDBRANCH  19  20
ENDBRANCH   1  19
TORSDOF 13
ENDMDL
MODEL 3
REMARK VINA RESULT:     -12.1      6.859     11.180
REMARK SMILES C/C(=C/C[NH+]1C[C@@H](C)[C@H](C)C1)C(=O)NCCCCNC(=O)c1ccc(-c2c3nc(c(-c4c(F)c(F)c(F)c(F)c4F)c4ccc([nH]4)c(-c4c(F)c(F)c(F)c(F)c4F)c4nc(c(-c5c(F)c(F)c(F)c(F)c5F)c5ccc2[nH]5)C=C4)C=C3)cc1
REMARK SMILES IDX 16 1 15 2 14 3 12 4 13 5 2 7 1 8 3 9 4 10 5 11 6 12 11 13
REMARK SMILES IDX 7 15 9 16 8 17 10 18 17 19 18 20 19 21 20 22 21 24 22 25
REMARK SMILES IDX 23 26 84 27 24 28 83 29 25 30 26 31 27 32 77 33 28 34 82 35
REMARK SMILES IDX 76 36 78 37 29 38 81 39 75 40 74 41 30 43 62 44 42 45 61 46
REMARK SMILES IDX 43 47 46 48 60 49 79 50 44 51 45 52 59 54 80 55 47 56 31 57
REMARK SMILES IDX 32 58 40 59 33 60 34 61 38 62 41 63 35 64 36 65 39 66 37 67
REMARK SMILES IDX 63 68 64 69 72 70 65 71 66 72 70 73 73 74 67 75 68 76 71 77
REMARK SMILES IDX 69 78 48 79 49 80 57 81 50 82 51 83 55 84 58 85 52 86 53 87
REMARK SMILES IDX 56 88 54 89
REMARK H PARENT 14 6 5 14 19 23 78 42 46 53
REMARK Flexibility Score: inf
ROOT
ATOM      1  C   UNL A   1      37.336  21.640  25.341  1.00  0.00     0.023 C 
ENDROOT
BRANCH   1   2
ATOM      2  C   UNL A   1      35.877  21.233  25.099  1.00  0.00     0.116 C 
BRANCH   2   3
ATOM      3  N   UNL A   1      35.091  21.388  26.301  1.00  0.00    -0.352 N 
ATOM      4  C   UNL A   1      33.792  21.513  26.636  1.00  0.00     0.246 C 
ATOM      5  O   UNL A   1      33.611  21.634  27.856  1.00  0.00    -0.270 OA
ATOM      6  H   UNL A   1      35.666  21.408  27.100  1.00  0.00     0.163 HD
BRANCH   4   7
ATOM      7  C   UNL A   1      32.574  21.449  25.742  1.00  0.00     0.015 C 
ATOM      8  C   UNL A   1      31.630  22.597  26.092  1.00  0.00     0.050 C 
ATOM      9  C   UNL A   1      32.176  20.669  24.716  1.00  0.00     0.042 C 
BRANCH   9  10
ATOM     10  C   UNL A   1      32.794  19.531  23.982  1.00  0.00     0.291 C 
BRANCH  10  11
ATOM     11  N   UNL A   1      33.328  18.481  24.846  1.00  0.00    -0.331 N 
ATOM     12  C   UNL A   1      32.350  17.424  25.118  1.00  0.00     0.266 C 
ATOM     13  C   UNL A   1      34.591  17.847  24.449  1.00  0.00     0.266 C 
ATOM     14  H   UNL A   1      33.543  19.020  25.686  1.00  0.00     0.348 HD
ATOM     15  C   UNL A   1      33.207  16.278  25.643  1.00  0.00     0.049 C 
ATOM     16  C   UNL A   1      34.426  16.348  24.723  1.00  0.00     0.049 C 
ATOM     17  C   UNL A   1      32.486  14.939  25.593  1.00  0.00     0.014 C 
ATOM     18  C   UNL A   1      35.675  15.710  25.311  1.00  0.00     0.014 C 
ENDBRANCH  10  11
ENDBRANCH   9  10
ENDBRANCH   4   7
ENDBRANCH   2   3
ENDBRANCH   1   2
BRANCH   1  19
ATOM     19  C   UNL A   1      38.352  20.525  25.093  1.00  0.00     0.023 C 
BRANCH  19  20
ATOM     20  C   UNL A   1      39.505  20.481  26.089  1.00  0.00     0.116 C 
BRANCH  20  21
ATOM     21  N   UNL A   1      40.342  19.295  25.984  1.00  0.00    -0.352 N 
ATOM     22  C   UNL A   1      41.708  19.221  26.139  1.00  0.00     0.251 C 
ATOM     23  H   UNL A   1      39.879  18.450  25.778  1.00  0.00     0.163 HD
ATOM     24  O   UNL A   1      42.311  18.167  25.968  1.00  0.00    -0.269 OA
BRANCH  22  25
ATOM     25  C   UNL A   1      42.445  20.461  26.457  1.00  0.00     0.039 A 
ATOM     26  C   UNL A   1      43.012  21.193  25.411  1.00  0.00     0.014 A 
ATOM     27  C   UNL A   1      42.474  20.949  27.766  1.00  0.00     0.014 A 
ATOM     28  C   UNL A   1      43.531  22.463  25.666  1.00  0.00     0.010 A 
ATOM     29  C   UNL A   1      42.933  22.239  28.006  1.00  0.00     0.010 A 
ATOM     30  C   UNL A   1      43.449  23.014  26.956  1.00  0.00    -0.014 A 
BRANCH  30  31
ATOM     31  C   UNL A   1      43.868  24.413  27.220  1.00  0.00     0.031 A 
ATOM     32  C   UNL A   1      42.866  25.424  27.698  1.00  0.00     0.074 A 
ATOM     33  C   UNL A   1      45.132  24.791  26.947  1.00  0.00     0.049 A 
ATOM     34  N   UNL A   1      43.021  26.706  27.911  1.00  0.00    -0.248 NA
ATOM     35  C   UNL A   1      41.500  24.934  27.940  1.00  0.00     0.031 C 
ATOM     36  C   UNL A   1      46.181  23.919  26.416  1.00  0.00     0.029 A 
ATOM     37  N   UNL A   1      45.745  26.014  27.064  1.00  0.00    -0.354 N 
ATOM     38  C   UNL A   1      41.773  27.178  28.289  1.00  0.00     0.074 A 
ATOM     39  C   UNL A   1      40.861  26.055  28.236  1.00  0.00     0.031 C 
ATOM     40  C   UNL A   1      47.312  24.629  26.272  1.00  0.00     0.029 A 
ATOM     41  C   UNL A   1      47.062  26.009  26.673  1.00  0.00     0.049 A 
ATOM     42  H   UNL A   1      45.284  26.818  27.397  1.00  0.00     0.167 HD
ATOM     43  C   UNL A   1      41.424  28.430  28.669  1.00  0.00     0.037 A 
ATOM     44  C   UNL A   1      47.964  27.008  26.643  1.00  0.00     0.037 A 
ATOM     45  C   UNL A   1      42.339  29.536  28.758  1.00  0.00     0.049 A 
ATOM     46  C   UNL A   1      47.560  28.382  27.104  1.00  0.00     0.074 A 
ATOM     47  C   UNL A   1      42.096  30.824  29.201  1.00  0.00     0.029 A 
ATOM     48  N   UNL A   1      43.677  29.483  28.398  1.00  0.00    -0.354 N 
ATOM     49  N   UNL A   1      46.394  28.799  27.532  1.00  0.00    -0.248 NA
ATOM     50  C   UNL A   1      48.599  29.421  27.084  1.00  0.00     0.031 C 
ATOM     51  C   UNL A   1      43.280  31.559  29.082  1.00  0.00     0.029 A 
ATOM     52  C   UNL A   1      44.270  30.718  28.597  1.00  0.00     0.049 A 
ATOM     53  H   UNL A   1      44.137  28.684  28.051  1.00  0.00     0.167 HD
ATOM     54  C   UNL A   1      46.564  30.137  27.856  1.00  0.00     0.074 A 
ATOM     55  C   UNL A   1      47.949  30.461  27.585  1.00  0.00     0.031 C 
ATOM     56  C   UNL A   1      45.652  31.019  28.334  1.00  0.00     0.037 A 
BRANCH  43  57
ATOM     57  C   UNL A   1      39.987  28.665  29.027  1.00  0.00     0.064 A 
ATOM     58  C   UNL A   1      39.511  28.440  30.328  1.00  0.00     0.173 A 
ATOM     59  C   UNL A   1      39.083  29.145  28.068  1.00  0.00     0.173 A 
ATOM     60  F   UNL A   1      40.335  27.968  31.275  1.00  0.00    -0.203 F 
ATOM     61  C   UNL A   1      38.175  28.661  30.648  1.00  0.00     0.198 A 
ATOM     62  C   UNL A   1      37.752  29.390  28.400  1.00  0.00     0.198 A 
ATOM     63  F   UNL A   1      39.490  29.379  26.812  1.00  0.00    -0.203 F 
ATOM     64  F   UNL A   1      37.732  28.394  31.885  1.00  0.00    -0.200 F 
ATOM     65  C   UNL A   1      37.298  29.140  29.686  1.00  0.00     0.200 A 
ATOM     66  F   UNL A   1      36.909  29.861  27.472  1.00  0.00    -0.200 F 
ATOM     67  F   UNL A   1      36.012  29.354  29.998  1.00  0.00    -0.200 F 
ENDBRANCH  43  57
BRANCH  44  68
ATOM     68  C   UNL A   1      49.353  26.738  26.194  1.00  0.00     0.064 A 
ATOM     69  C   UNL A   1      50.314  26.250  27.090  1.00  0.00     0.173 A 
ATOM     70  C   UNL A   1      49.750  26.963  24.868  1.00  0.00     0.173 A 
ATOM     71  F   UNL A   1      49.984  26.039  28.373  1.00  0.00    -0.203 F 
ATOM     72  C   UNL A   1      51.624  26.013  26.682  1.00  0.00     0.198 A 
ATOM     73  C   UNL A   1      51.055  26.704  24.455  1.00  0.00     0.198 A 
ATOM     74  F   UNL A   1      48.866  27.426  23.971  1.00  0.00    -0.203 F 
ATOM     75  F   UNL A   1      52.531  25.583  27.569  1.00  0.00    -0.200 F 
ATOM     76  C   UNL A   1      51.992  26.236  25.364  1.00  0.00     0.200 A 
ATOM     77  F   UNL A   1      51.406  26.911  23.179  1.00  0.00    -0.200 F 
ATOM     78  F   UNL A   1      53.254  26.006  24.972  1.00  0.00    -0.200 F 
ENDBRANCH  44  68
BRANCH  56  79
ATOM     79  C   UNL A   1      46.131  32.410  28.624  1.00  0.00     0.064 A 
ATOM     80  C   UNL A   1      46.664  32.756  29.874  1.00  0.00     0.173 A 
ATOM     81  C   UNL A   1      46.093  33.395  27.626  1.00  0.00     0.173 A 
ATOM     82  F   UNL A   1      46.703  31.850  30.864  1.00  0.00    -0.203 F 
ATOM     83  C   UNL A   1      47.128  34.044  30.120  1.00  0.00     0.198 A 
ATOM     84  C   UNL A   1      46.580  34.676  27.869  1.00  0.00     0.198 A 
ATOM     85  F   UNL A   1      45.596  33.110  26.414  1.00  0.00    -0.203 F 
ATOM     86  F   UNL A   1      47.600  34.364  31.332  1.00  0.00    -0.200 F 
ATOM     87  C   UNL A   1      47.092  35.001  29.116  1.00  0.00     0.200 A 
ATOM     88  F   UNL A   1      46.553  35.597  26.895  1.00  0.00    -0.200 F 
ATOM     89  F   UNL A   1      47.545  36.240  29.352  1.00  0.00    -0.200 F 
ENDBRANCH  56  79
ENDBRANCH  30  31
ENDBRANCH  22  25
ENDBRANCH  20  21
ENDBRANCH  19  20
ENDBRANCH   1  19
TORSDOF 13
ENDMDL
