MODEL 1
REMARK VINA RESULT:     -13.1      0.000      0.000
REMARK SMILES O=C(NCCCCNC(=O)c1ccc2nc(-c3c[nH]nc3-c3ccc(F)cc3F)[nH]c2c1)c1ccc(-c2c3nc(c(-c4c(F)c(F)c(F)c(F)c4F)c4ccc([nH]4)c(-c4c(F)c(F)c(F)c(F)c4F)c4nc(c(-c5c(F)c(F)c(F)c(F)c5F)c5ccc2[nH]5)C=C4)C=C3)cc1
REMARK SMILES IDX 5 1 4 2 3 3 1 4 2 5 33 7 34 8 95 9 35 10 94 11 36 12 37 13
REMARK SMILES IDX 38 14 88 15 39 16 93 17 87 18 89 19 40 20 92 21 86 22 85 23
REMARK SMILES IDX 41 25 73 26 53 27 72 28 54 29 57 30 71 31 90 32 55 33 56 34
REMARK SMILES IDX 70 36 91 37 58 38 42 39 43 40 51 41 44 42 45 43 49 44 52 45
REMARK SMILES IDX 46 46 47 47 50 48 48 49 74 50 75 51 83 52 76 53 77 54 81 55
REMARK SMILES IDX 84 56 78 57 79 58 82 59 80 60 59 61 60 62 68 63 61 64 62 65
REMARK SMILES IDX 66 66 69 67 63 68 64 69 67 70 65 71 6 72 7 73 8 74 9 75
REMARK SMILES IDX 10 77 11 78 12 79 32 80 13 81 31 82 14 83 30 84 15 85 16 86
REMARK SMILES IDX 17 88 18 89 21 90 19 91 20 92 22 94 23 95 28 96 24 97 27 98
REMARK SMILES IDX 29 99 25 100 26 101
REMARK H PARENT 3 6 89 24 57 35 8 76 30 87 19 93
REMARK Flexibility Score: inf
ROOT
ATOM      1  C   UNL A   1      35.505  23.215  25.586  1.00  0.00     0.023 C 
ENDROOT
BRANCH   1   2
ATOM      2  C   UNL A   1      36.910  23.784  25.429  1.00  0.00     0.116 C 
BRANCH   2   3
ATOM      3  N   UNL A   1      37.950  22.789  25.640  1.00  0.00    -0.352 N 
ATOM      4  O   UNL A   1      40.003  22.017  26.175  1.00  0.00    -0.269 OA
ATOM      5  C   UNL A   1      39.195  22.941  26.202  1.00  0.00     0.251 C 
ATOM      6  H   UNL A   1      37.731  21.879  25.338  1.00  0.00     0.163 HD
BRANCH   5   7
ATOM      7  C   UNL A   1      39.571  24.233  26.814  1.00  0.00     0.039 A 
ATOM      8  C   UNL A   1      40.234  25.209  26.067  1.00  0.00     0.014 A 
ATOM      9  C   UNL A   1      39.256  24.467  28.155  1.00  0.00     0.014 A 
ATOM     10  C   UNL A   1      40.708  26.355  26.696  1.00  0.00     0.010 A 
ATOM     11  C   UNL A   1      39.660  25.657  28.766  1.00  0.00     0.010 A 
ATOM     12  C   UNL A   1      40.415  26.597  28.048  1.00  0.00    -0.014 A 
BRANCH  12  13
ATOM     13  C   UNL A   1      40.852  27.873  28.667  1.00  0.00     0.031 A 
ATOM     14  C   UNL A   1      42.297  28.132  28.981  1.00  0.00     0.074 A 
ATOM     15  C   UNL A   1      39.924  28.817  28.916  1.00  0.00     0.049 A 
ATOM     16  N   UNL A   1      42.846  29.199  29.508  1.00  0.00    -0.248 NA
ATOM     17  C   UNL A   1      43.254  27.058  28.669  1.00  0.00     0.031 C 
ATOM     18  C   UNL A   1      38.490  28.670  28.655  1.00  0.00     0.029 A 
ATOM     19  N   UNL A   1      40.044  30.087  29.417  1.00  0.00    -0.354 N 
ATOM     20  C   UNL A   1      44.203  28.921  29.604  1.00  0.00     0.074 A 
ATOM     21  C   UNL A   1      44.396  27.577  29.103  1.00  0.00     0.031 C 
ATOM     22  C   UNL A   1      37.871  29.822  28.951  1.00  0.00     0.029 A 
ATOM     23  C   UNL A   1      38.852  30.764  29.478  1.00  0.00     0.049 A 
ATOM     24  H   UNL A   1      40.901  30.475  29.707  1.00  0.00     0.167 HD
ATOM     25  C   UNL A   1      45.194  29.723  30.061  1.00  0.00     0.037 A 
ATOM     26  C   UNL A   1      38.573  32.003  29.922  1.00  0.00     0.037 A 
ATOM     27  C   UNL A   1      44.996  31.068  30.541  1.00  0.00     0.049 A 
ATOM     28  C   UNL A   1      39.687  32.860  30.446  1.00  0.00     0.074 A 
ATOM     29  C   UNL A   1      45.944  31.968  30.996  1.00  0.00     0.029 A 
ATOM     30  N   UNL A   1      43.767  31.705  30.626  1.00  0.00    -0.354 N 
ATOM     31  N   UNL A   1      40.968  32.591  30.516  1.00  0.00    -0.248 NA
ATOM     32  C   UNL A   1      39.320  34.187  30.959  1.00  0.00     0.031 C 
ATOM     33  C   UNL A   1      45.285  33.134  31.396  1.00  0.00     0.029 A 
ATOM     34  C   UNL A   1      43.931  32.979  31.147  1.00  0.00     0.049 A 
ATOM     35  H   UNL A   1      42.906  31.311  30.356  1.00  0.00     0.167 HD
ATOM     36  C   UNL A   1      41.562  33.713  31.074  1.00  0.00     0.074 A 
ATOM     37  C   UNL A   1      40.504  34.676  31.302  1.00  0.00     0.031 C 
ATOM     38  C   UNL A   1      42.867  33.924  31.373  1.00  0.00     0.037 A 
BRANCH  25  39
ATOM     39  C   UNL A   1      46.592  29.177  30.077  1.00  0.00     0.064 A 
ATOM     40  C   UNL A   1      47.406  29.276  28.938  1.00  0.00     0.173 A 
ATOM     41  C   UNL A   1      47.097  28.484  31.186  1.00  0.00     0.173 A 
ATOM     42  F   UNL A   1      46.967  29.924  27.847  1.00  0.00    -0.203 F 
ATOM     43  C   UNL A   1      48.667  28.689  28.904  1.00  0.00     0.198 A 
ATOM     44  C   UNL A   1      48.369  27.916  31.157  1.00  0.00     0.198 A 
ATOM     45  F   UNL A   1      46.362  28.369  32.302  1.00  0.00    -0.203 F 
ATOM     46  F   UNL A   1      49.415  28.770  27.794  1.00  0.00    -0.200 F 
ATOM     47  C   UNL A   1      49.149  28.012  30.014  1.00  0.00     0.200 A 
ATOM     48  F   UNL A   1      48.841  27.279  32.238  1.00  0.00    -0.200 F 
ATOM     49  F   UNL A   1      50.366  27.451  29.983  1.00  0.00    -0.200 F 
ENDBRANCH  25  39
BRANCH  26  50
ATOM     50  C   UNL A   1      37.173  32.495  29.874  1.00  0.00     0.064 A 
ATOM     51  C   UNL A   1      36.696  33.224  28.774  1.00  0.00     0.173 A 
ATOM     52  C   UNL A   1      36.302  32.292  30.951  1.00  0.00     0.173 A 
ATOM     53  F   UNL A   1      37.496  33.451  27.721  1.00  0.00    -0.203 F 
ATOM     54  C   UNL A   1      35.409  33.754  28.767  1.00  0.00     0.198 A 
ATOM     55  C   UNL A   1      35.005  32.799  30.931  1.00  0.00     0.198 A 
ATOM     56  F   UNL A   1      36.709  31.586  32.017  1.00  0.00    -0.203 F 
ATOM     57  F   UNL A   1      34.992  34.484  27.722  1.00  0.00    -0.200 F 
ATOM     58  C   UNL A   1      34.563  33.538  29.844  1.00  0.00     0.200 A 
ATOM     59  F   UNL A   1      34.182  32.572  31.965  1.00  0.00    -0.200 F 
ATOM     60  F   UNL A   1      33.322  34.043  29.834  1.00  0.00    -0.200 F 
ENDBRANCH  26  50
BRANCH  38  61
ATOM     61  C   UNL A   1      43.229  35.248  31.973  1.00  0.00     0.064 A 
ATOM     62  C   UNL A   1      43.096  35.466  33.352  1.00  0.00     0.173 A 
ATOM     63  C   UNL A   1      43.648  36.321  31.173  1.00  0.00     0.173 A 
ATOM     64  F   UNL A   1      42.693  34.472  34.157  1.00  0.00    -0.203 F 
ATOM     65  C   UNL A   1      43.361  36.713  33.908  1.00  0.00     0.198 A 
ATOM     66  C   UNL A   1      43.936  37.561  31.736  1.00  0.00     0.198 A 
ATOM     67  F   UNL A   1      43.804  36.157  29.851  1.00  0.00    -0.203 F 
ATOM     68  F   UNL A   1      43.201  36.907  35.225  1.00  0.00    -0.200 F 
ATOM     69  C   UNL A   1      43.783  37.759  33.100  1.00  0.00     0.200 A 
ATOM     70  F   UNL A   1      44.367  38.564  30.958  1.00  0.00    -0.200 F 
ATOM     71  F   UNL A   1      44.049  38.957  33.639  1.00  0.00    -0.200 F 
ENDBRANCH  38  61
ENDBRANCH  12  13
ENDBRANCH   5   7
ENDBRANCH   2   3
ENDBRANCH   1   2
BRANCH   1  72
ATOM     72  C   UNL A   1      35.442  21.778  26.101  1.00  0.00     0.023 C 
BRANCH  72  73
ATOM     73  C   UNL A   1      34.192  21.438  26.907  1.00  0.00     0.116 C 
BRANCH  73  74
ATOM     74  N   UNL A   1      33.429  20.360  26.298  1.00  0.00    -0.352 N 
ATOM     75  C   UNL A   1      32.512  20.437  25.284  1.00  0.00     0.251 C 
ATOM     76  H   UNL A   1      33.595  19.460  26.660  1.00  0.00     0.163 HD
ATOM     77  O   UNL A   1      31.824  19.470  24.977  1.00  0.00    -0.269 OA
BRANCH  75  78
ATOM     78  C   UNL A   1      32.352  21.713  24.569  1.00  0.00     0.042 A 
ATOM     79  C   UNL A   1      32.910  21.858  23.291  1.00  0.00     0.016 A 
ATOM     80  C   UNL A   1      31.648  22.747  25.205  1.00  0.00     0.042 A 
ATOM     81  C   UNL A   1      32.783  23.067  22.602  1.00  0.00     0.031 A 
ATOM     82  C   UNL A   1      31.564  23.947  24.498  1.00  0.00     0.067 A 
ATOM     83  C   UNL A   1      32.083  24.113  23.219  1.00  0.00     0.089 A 
ATOM     84  N   UNL A   1      31.018  25.170  24.801  1.00  0.00    -0.338 N 
ATOM     85  N   UNL A   1      31.781  25.351  22.731  1.00  0.00    -0.228 NA
ATOM     86  C   UNL A   1      31.132  25.969  23.695  1.00  0.00     0.142 A 
ATOM     87  H   UNL A   1      30.615  25.427  25.663  1.00  0.00     0.168 HD
BRANCH  86  88
ATOM     88  C   UNL A   1      30.574  27.331  23.549  1.00  0.00     0.063 A 
ATOM     89  C   UNL A   1      29.657  27.762  22.622  1.00  0.00     0.117 A 
ATOM     90  C   UNL A   1      30.900  28.473  24.333  1.00  0.00     0.106 A 
ATOM     91  N   UNL A   1      29.420  29.070  22.937  1.00  0.00    -0.284 N 
ATOM     92  N   UNL A   1      30.190  29.539  23.931  1.00  0.00    -0.175 NA
ATOM     93  H   UNL A   1      28.744  29.619  22.477  1.00  0.00     0.189 HD
BRANCH  90  94
ATOM     94  C   UNL A   1      31.963  28.581  25.322  1.00  0.00     0.039 A 
ATOM     95  C   UNL A   1      31.654  28.384  26.681  1.00  0.00     0.016 A 
ATOM     96  C   UNL A   1      33.268  28.922  24.966  1.00  0.00     0.135 A 
ATOM     97  C   UNL A   1      32.636  28.542  27.658  1.00  0.00     0.040 A 
ATOM     98  C   UNL A   1      34.255  29.075  25.939  1.00  0.00     0.079 A 
ATOM     99  F   UNL A   1      33.599  29.140  23.685  1.00  0.00    -0.206 F 
ATOM    100  C   UNL A   1      33.928  28.887  27.276  1.00  0.00     0.126 A 
ATOM    101  F   UNL A   1      34.868  29.047  28.216  1.00  0.00    -0.207 F 
ENDBRANCH  90  94
ENDBRANCH  86  88
ENDBRANCH  75  78
ENDBRANCH  73  74
ENDBRANCH  72  73
ENDBRANCH   1  72
TORSDOF 13
ENDMDL
MODEL 2
REMARK VINA RESULT:     -13.0      2.781      4.262
REMARK SMILES O=C(NCCCCNC(=O)c1ccc2nc(-c3c[nH]nc3-c3ccc(F)cc3F)[nH]c2c1)c1ccc(-c2c3nc(c(-c4c(F)c(F)c(F)c(F)c4F)c4ccc([nH]4)c(-c4c(F)c(F)c(F)c(F)c4F)c4nc(c(-c5c(F)c(F)c(F)c(F)c5F)c5ccc2[nH]5)C=C4)C=C3)cc1
REMARK SMILES IDX 5 1 4 2 3 3 1 4 2 5 33 7 34 8 95 9 35 10 94 11 36 12 37 13
REMARK SMILES IDX 38 14 88 15 39 16 93 17 87 18 89 19 40 20 92 21 86 22 85 23
REMARK SMILES IDX 41 25 73 26 53 27 72 28 54 29 57 30 71 31 90 32 55 33 56 34
REMARK SMILES IDX 70 36 91 37 58 38 42 39 43 40 51 41 44 42 45 43 49 44 52 45
REMARK SMILES IDX 46 46 47 47 50 48 48 49 74 50 75 51 83 52 76 53 77 54 81 55
REMARK SMILES IDX 84 56 78 57 79 58 82 59 80 60 59 61 60 62 68 63 61 64 62 65
REMARK SMILES IDX 66 66 69 67 63 68 64 69 67 70 65 71 6 72 7 73 8 74 9 75
REMARK SMILES IDX 10 77 11 78 12 79 32 80 13 81 31 82 14 83 30 84 15 85 16 86
REMARK SMILES IDX 17 88 18 89 21 90 19 91 20 92 22 94 23 95 28 96 24 97 27 98
REMARK SMILES IDX 29 99 25 100 26 101
REMARK H PARENT 3 6 89 24 57 35 8 76 30 87 19 93
REMARK Flexibility Score: inf
ROOT
ATOM      1  C   UNL A   1      37.898  20.054  24.864  1.00  0.00     0.023 C 
ENDROOT
BRANCH   1   2
ATOM      2  C   UNL A   1      38.948  20.331  25.932  1.00  0.00     0.116 C 
BRANCH   2   3
ATOM      3  N   UNL A   1      40.021  19.348  25.939  1.00  0.00    -0.352 N 
ATOM      4  O   UNL A   1      42.152  18.605  25.939  1.00  0.00    -0.269 OA
ATOM      5  C   UNL A   1      41.372  19.538  26.099  1.00  0.00     0.251 C 
ATOM      6  H   UNL A   1      39.738  18.414  25.812  1.00  0.00     0.163 HD
BRANCH   5   7
ATOM      7  C   UNL A   1      41.889  20.882  26.435  1.00  0.00     0.039 A 
ATOM      8  C   UNL A   1      42.165  21.229  27.759  1.00  0.00     0.014 A 
ATOM      9  C   UNL A   1      42.098  21.806  25.408  1.00  0.00     0.014 A 
ATOM     10  C   UNL A   1      42.510  22.539  28.071  1.00  0.00     0.010 A 
ATOM     11  C   UNL A   1      42.527  23.100  25.715  1.00  0.00     0.010 A 
ATOM     12  C   UNL A   1      42.708  23.485  27.052  1.00  0.00    -0.014 A 
BRANCH  12  13
ATOM     13  C   UNL A   1      43.170  24.849  27.408  1.00  0.00     0.031 A 
ATOM     14  C   UNL A   1      44.573  25.298  27.119  1.00  0.00     0.074 A 
ATOM     15  C   UNL A   1      42.289  25.698  27.971  1.00  0.00     0.049 A 
ATOM     16  N   UNL A   1      45.130  26.460  27.353  1.00  0.00    -0.248 NA
ATOM     17  C   UNL A   1      45.474  24.318  26.491  1.00  0.00     0.031 C 
ATOM     18  C   UNL A   1      40.900  25.367  28.300  1.00  0.00     0.029 A 
ATOM     19  N   UNL A   1      42.416  27.011  28.343  1.00  0.00    -0.354 N 
ATOM     20  C   UNL A   1      46.443  26.349  26.917  1.00  0.00     0.074 A 
ATOM     21  C   UNL A   1      46.612  24.999  26.424  1.00  0.00     0.031 C 
ATOM     22  C   UNL A   1      40.291  26.461  28.778  1.00  0.00     0.029 A 
ATOM     23  C   UNL A   1      41.259  27.551  28.847  1.00  0.00     0.049 A 
ATOM     24  H   UNL A   1      43.256  27.518  28.260  1.00  0.00     0.167 HD
ATOM     25  C   UNL A   1      47.413  27.294  26.921  1.00  0.00     0.037 A 
ATOM     26  C   UNL A   1      41.004  28.782  29.324  1.00  0.00     0.037 A 
ATOM     27  C   UNL A   1      47.231  28.643  27.397  1.00  0.00     0.049 A 
ATOM     28  C   UNL A   1      42.104  29.802  29.340  1.00  0.00     0.074 A 
ATOM     29  C   UNL A   1      48.148  29.681  27.413  1.00  0.00     0.029 A 
ATOM     30  N   UNL A   1      46.056  29.141  27.938  1.00  0.00    -0.354 N 
ATOM     31  N   UNL A   1      43.337  29.688  28.910  1.00  0.00    -0.248 NA
ATOM     32  C   UNL A   1      41.784  31.116  29.913  1.00  0.00     0.031 C 
ATOM     33  C   UNL A   1      47.539  30.793  28.003  1.00  0.00     0.029 A 
ATOM     34  C   UNL A   1      46.230  30.464  28.311  1.00  0.00     0.049 A 
ATOM     35  H   UNL A   1      45.220  28.629  28.041  1.00  0.00     0.167 HD
ATOM     36  C   UNL A   1      43.939  30.913  29.152  1.00  0.00     0.074 A 
ATOM     37  C   UNL A   1      42.929  31.765  29.747  1.00  0.00     0.031 C 
ATOM     38  C   UNL A   1      45.215  31.296  28.907  1.00  0.00     0.037 A 
BRANCH  25  39
ATOM     39  C   UNL A   1      48.769  26.915  26.404  1.00  0.00     0.064 A 
ATOM     40  C   UNL A   1      49.090  27.102  25.050  1.00  0.00     0.173 A 
ATOM     41  C   UNL A   1      49.721  26.292  27.224  1.00  0.00     0.173 A 
ATOM     42  F   UNL A   1      48.212  27.687  24.221  1.00  0.00    -0.203 F 
ATOM     43  C   UNL A   1      50.308  26.665  24.535  1.00  0.00     0.198 A 
ATOM     44  C   UNL A   1      50.947  25.877  26.710  1.00  0.00     0.198 A 
ATOM     45  F   UNL A   1      49.466  26.100  28.527  1.00  0.00    -0.203 F 
ATOM     46  F   UNL A   1      50.580  26.826  23.232  1.00  0.00    -0.200 F 
ATOM     47  C   UNL A   1      51.236  26.056  25.365  1.00  0.00     0.200 A 
ATOM     48  F   UNL A   1      51.852  25.306  27.518  1.00  0.00    -0.200 F 
ATOM     49  F   UNL A   1      52.410  25.640  24.869  1.00  0.00    -0.200 F 
ENDBRANCH  25  39
BRANCH  26  50
ATOM     50  C   UNL A   1      39.641  29.105  29.815  1.00  0.00     0.064 A 
ATOM     51  C   UNL A   1      39.263  28.841  31.140  1.00  0.00     0.173 A 
ATOM     52  C   UNL A   1      38.672  29.634  28.952  1.00  0.00     0.173 A 
ATOM     53  F   UNL A   1      40.154  28.328  32.002  1.00  0.00    -0.203 F 
ATOM     54  C   UNL A   1      37.962  29.070  31.576  1.00  0.00     0.198 A 
ATOM     55  C   UNL A   1      37.377  29.888  29.397  1.00  0.00     0.198 A 
ATOM     56  F   UNL A   1      38.992  29.918  27.681  1.00  0.00    -0.203 F 
ATOM     57  F   UNL A   1      37.615  28.768  32.835  1.00  0.00    -0.200 F 
ATOM     58  C   UNL A   1      37.020  29.596  30.705  1.00  0.00     0.200 A 
ATOM     59  F   UNL A   1      36.474  30.416  28.558  1.00  0.00    -0.200 F 
ATOM     60  F   UNL A   1      35.768  29.821  31.126  1.00  0.00    -0.200 F 
ENDBRANCH  26  50
BRANCH  38  61
ATOM     61  C   UNL A   1      45.595  32.699  29.273  1.00  0.00     0.064 A 
ATOM     62  C   UNL A   1      46.095  32.991  30.550  1.00  0.00     0.173 A 
ATOM     63  C   UNL A   1      45.404  33.762  28.380  1.00  0.00     0.173 A 
ATOM     64  F   UNL A   1      46.289  32.008  31.441  1.00  0.00    -0.203 F 
ATOM     65  C   UNL A   1      46.381  34.301  30.923  1.00  0.00     0.198 A 
ATOM     66  C   UNL A   1      45.714  35.069  28.748  1.00  0.00     0.198 A 
ATOM     67  F   UNL A   1      44.940  33.530  27.142  1.00  0.00    -0.203 F 
ATOM     68  F   UNL A   1      46.833  34.561  32.158  1.00  0.00    -0.200 F 
ATOM     69  C   UNL A   1      46.193  35.338  30.022  1.00  0.00     0.200 A 
ATOM     70  F   UNL A   1      45.555  36.067  27.868  1.00  0.00    -0.200 F 
ATOM     71  F   UNL A   1      46.480  36.597  30.379  1.00  0.00    -0.200 F 
ENDBRANCH  38  61
ENDBRANCH  12  13
ENDBRANCH   5   7
ENDBRANCH   2   3
ENDBRANCH   1   2
BRANCH   1  72
ATOM     72  C   UNL A   1      37.035  21.255  24.477  1.00  0.00     0.023 C 
BRANCH  72  73
ATOM     73  C   UNL A   1      35.803  21.470  25.350  1.00  0.00     0.116 C 
BRANCH  73  74
ATOM     74  N   UNL A   1      34.914  20.320  25.328  1.00  0.00    -0.352 N 
ATOM     75  C   UNL A   1      33.564  20.285  25.561  1.00  0.00     0.251 C 
ATOM     76  H   UNL A   1      35.336  19.456  25.116  1.00  0.00     0.163 HD
ATOM     77  O   UNL A   1      32.967  19.220  25.668  1.00  0.00    -0.269 OA
BRANCH  75  78
ATOM     78  C   UNL A   1      32.836  21.556  25.696  1.00  0.00     0.042 A 
ATOM     79  C   UNL A   1      32.870  22.241  26.919  1.00  0.00     0.016 A 
ATOM     80  C   UNL A   1      32.121  22.033  24.586  1.00  0.00     0.042 A 
ATOM     81  C   UNL A   1      32.172  23.441  27.072  1.00  0.00     0.031 A 
ATOM     82  C   UNL A   1      31.416  23.220  24.784  1.00  0.00     0.067 A 
ATOM     83  C   UNL A   1      31.453  23.936  25.976  1.00  0.00     0.089 A 
ATOM     84  N   UNL A   1      30.582  23.953  23.977  1.00  0.00    -0.338 N 
ATOM     85  N   UNL A   1      30.749  25.099  25.864  1.00  0.00    -0.228 NA
ATOM     86  C   UNL A   1      30.240  25.096  24.650  1.00  0.00     0.142 A 
ATOM     87  H   UNL A   1      30.282  23.702  23.073  1.00  0.00     0.168 HD
BRANCH  86  88
ATOM     88  C   UNL A   1      29.444  26.218  24.104  1.00  0.00     0.063 A 
ATOM     89  C   UNL A   1      28.080  26.280  23.963  1.00  0.00     0.117 A 
ATOM     90  C   UNL A   1      29.945  27.447  23.594  1.00  0.00     0.106 A 
ATOM     91  N   UNL A   1      27.830  27.531  23.475  1.00  0.00    -0.284 N 
ATOM     92  N   UNL A   1      28.936  28.239  23.197  1.00  0.00    -0.175 NA
ATOM     93  H   UNL A   1      26.920  27.883  23.341  1.00  0.00     0.189 HD
BRANCH  90  94
ATOM     94  C   UNL A   1      31.339  27.791  23.349  1.00  0.00     0.039 A 
ATOM     95  C   UNL A   1      31.939  28.802  24.122  1.00  0.00     0.016 A 
ATOM     96  C   UNL A   1      32.080  27.180  22.337  1.00  0.00     0.135 A 
ATOM     97  C   UNL A   1      33.252  29.197  23.869  1.00  0.00     0.040 A 
ATOM     98  C   UNL A   1      33.395  27.566  22.085  1.00  0.00     0.079 A 
ATOM     99  F   UNL A   1      31.538  26.227  21.564  1.00  0.00    -0.206 F 
ATOM    100  C   UNL A   1      33.967  28.575  22.852  1.00  0.00     0.126 A 
ATOM    101  F   UNL A   1      35.225  28.961  22.605  1.00  0.00    -0.207 F 
ENDBRANCH  90  94
ENDBRANCH  86  88
ENDBRANCH  75  78
ENDBRANCH  73  74
ENDBRANCH  72  73
ENDBRANCH   1  72
TORSDOF 13
ENDMDL
MODEL 3
REMARK VINA RESULT:     -12.9      3.432      8.692
REMARK SMILES O=C(NCCCCNC(=O)c1ccc2nc(-c3c[nH]nc3-c3ccc(F)cc3F)[nH]c2c1)c1ccc(-c2c3nc(c(-c4c(F)c(F)c(F)c(F)c4F)c4ccc([nH]4)c(-c4c(F)c(F)c(F)c(F)c4F)c4nc(c(-c5c(F)c(F)c(F)c(F)c5F)c5ccc2[nH]5)C=C4)C=C3)cc1
REMARK SMILES IDX 5 1 4 2 3 3 1 4 2 5 33 7 34 8 95 9 35 10 94 11 36 12 37 13
REMARK SMILES IDX 38 14 88 15 39 16 93 17 87 18 89 19 40 20 92 21 86 22 85 23
REMARK SMILES IDX 41 25 73 26 53 27 72 28 54 29 57 30 71 31 90 32 55 33 56 34
REMARK SMILES IDX 70 36 91 37 58 38 42 39 43 40 51 41 44 42 45 43 49 44 52 45
REMARK SMILES IDX 46 46 47 47 50 48 48 49 74 50 75 51 83 52 76 53 77 54 81 55
REMARK SMILES IDX 84 56 78 57 79 58 82 59 80 60 59 61 60 62 68 63 61 64 62 65
REMARK SMILES IDX 66 66 69 67 63 68 64 69 67 70 65 71 6 72 7 73 8 74 9 75
REMARK SMILES IDX 10 77 11 78 12 79 32 80 13 81 31 82 14 83 30 84 15 85 16 86
REMARK SMILES IDX 17 88 18 89 21 90 19 91 20 92 22 94 23 95 28 96 24 97 27 98
REMARK SMILES IDX 29 99 25 100 26 101
REMARK H PARENT 3 6 89 24 57 35 8 76 30 87 19 93
REMARK Flexibility Score: inf
ROOT
ATOM      1  C   UNL A   1      33.652  27.993  25.324  1.00  0.00     0.023 C 
ENDROOT
BRANCH   1   2
ATOM      2  C   UNL A   1      33.924  28.242  26.802  1.00  0.00     0.116 C 
BRANCH   2   3
ATOM      3  N   UNL A   1      33.684  29.621  27.197  1.00  0.00    -0.352 N 
ATOM      4  O   UNL A   1      34.073  31.567  28.274  1.00  0.00    -0.269 OA
ATOM      5  C   UNL A   1      34.494  30.473  27.907  1.00  0.00     0.251 C 
ATOM      6  H   UNL A   1      32.820  29.997  26.916  1.00  0.00     0.163 HD
BRANCH   5   7
ATOM      7  C   UNL A   1      35.869  30.058  28.258  1.00  0.00     0.039 A 
ATOM      8  C   UNL A   1      36.152  29.517  29.515  1.00  0.00     0.014 A 
ATOM      9  C   UNL A   1      36.888  30.213  27.315  1.00  0.00     0.014 A 
ATOM     10  C   UNL A   1      37.470  29.269  29.878  1.00  0.00     0.010 A 
ATOM     11  C   UNL A   1      38.203  29.884  27.652  1.00  0.00     0.010 A 
ATOM     12  C   UNL A   1      38.509  29.436  28.946  1.00  0.00    -0.014 A 
BRANCH  12  13
ATOM     13  C   UNL A   1      39.894  29.072  29.331  1.00  0.00     0.031 A 
ATOM     14  C   UNL A   1      40.691  29.926  30.275  1.00  0.00     0.074 A 
ATOM     15  C   UNL A   1      40.419  27.934  28.840  1.00  0.00     0.049 A 
ATOM     16  N   UNL A   1      41.908  29.741  30.725  1.00  0.00    -0.248 NA
ATOM     17  C   UNL A   1      40.046  31.148  30.780  1.00  0.00     0.031 C 
ATOM     18  C   UNL A   1      39.736  27.029  27.911  1.00  0.00     0.029 A 
ATOM     19  N   UNL A   1      41.628  27.329  29.065  1.00  0.00    -0.354 N 
ATOM     20  C   UNL A   1      42.179  30.824  31.549  1.00  0.00     0.074 A 
ATOM     21  C   UNL A   1      41.010  31.678  31.523  1.00  0.00     0.031 C 
ATOM     22  C   UNL A   1      40.515  25.962  27.686  1.00  0.00     0.029 A 
ATOM     23  C   UNL A   1      41.774  26.135  28.403  1.00  0.00     0.049 A 
ATOM     24  H   UNL A   1      42.325  27.714  29.644  1.00  0.00     0.167 HD
ATOM     25  C   UNL A   1      43.300  31.074  32.267  1.00  0.00     0.037 A 
ATOM     26  C   UNL A   1      42.810  25.278  28.365  1.00  0.00     0.037 A 
ATOM     27  C   UNL A   1      44.452  30.209  32.302  1.00  0.00     0.049 A 
ATOM     28  C   UNL A   1      44.048  25.593  29.151  1.00  0.00     0.074 A 
ATOM     29  C   UNL A   1      45.623  30.364  33.025  1.00  0.00     0.029 A 
ATOM     30  N   UNL A   1      44.579  29.029  31.585  1.00  0.00    -0.354 N 
ATOM     31  N   UNL A   1      44.285  26.612  29.939  1.00  0.00    -0.248 NA
ATOM     32  C   UNL A   1      45.165  24.646  29.038  1.00  0.00     0.031 C 
ATOM     33  C   UNL A   1      46.474  29.300  32.712  1.00  0.00     0.029 A 
ATOM     34  C   UNL A   1      45.817  28.456  31.832  1.00  0.00     0.049 A 
ATOM     35  H   UNL A   1      43.891  28.653  30.990  1.00  0.00     0.167 HD
ATOM     36  C   UNL A   1      45.572  26.430  30.421  1.00  0.00     0.074 A 
ATOM     37  C   UNL A   1      46.058  25.188  29.855  1.00  0.00     0.031 C 
ATOM     38  C   UNL A   1      46.287  27.223  31.256  1.00  0.00     0.037 A 
BRANCH  25  39
ATOM     39  C   UNL A   1      43.351  32.336  33.077  1.00  0.00     0.064 A 
ATOM     40  C   UNL A   1      43.912  33.504  32.537  1.00  0.00     0.173 A 
ATOM     41  C   UNL A   1      42.924  32.370  34.412  1.00  0.00     0.173 A 
ATOM     42  F   UNL A   1      44.343  33.522  31.266  1.00  0.00    -0.203 F 
ATOM     43  C   UNL A   1      44.057  34.654  33.308  1.00  0.00     0.198 A 
ATOM     44  C   UNL A   1      43.049  33.530  35.175  1.00  0.00     0.198 A 
ATOM     45  F   UNL A   1      42.373  31.283  34.972  1.00  0.00    -0.203 F 
ATOM     46  F   UNL A   1      44.623  35.748  32.781  1.00  0.00    -0.200 F 
ATOM     47  C   UNL A   1      43.622  34.666  34.625  1.00  0.00     0.200 A 
ATOM     48  F   UNL A   1      42.611  33.546  36.441  1.00  0.00    -0.200 F 
ATOM     49  F   UNL A   1      43.757  35.776  35.367  1.00  0.00    -0.200 F 
ENDBRANCH  25  39
BRANCH  26  50
ATOM     50  C   UNL A   1      42.699  24.039  27.555  1.00  0.00     0.064 A 
ATOM     51  C   UNL A   1      42.319  22.820  28.137  1.00  0.00     0.173 A 
ATOM     52  C   UNL A   1      43.025  24.039  26.193  1.00  0.00     0.173 A 
ATOM     53  F   UNL A   1      42.004  22.769  29.440  1.00  0.00    -0.203 F 
ATOM     54  C   UNL A   1      42.295  21.645  27.393  1.00  0.00     0.198 A 
ATOM     55  C   UNL A   1      42.974  22.867  25.443  1.00  0.00     0.198 A 
ATOM     56  F   UNL A   1      43.378  25.184  25.589  1.00  0.00    -0.203 F 
ATOM     57  F   UNL A   1      41.970  20.486  27.984  1.00  0.00    -0.200 F 
ATOM     58  C   UNL A   1      42.619  21.669  26.045  1.00  0.00     0.200 A 
ATOM     59  F   UNL A   1      43.268  22.897  24.135  1.00  0.00    -0.200 F 
ATOM     60  F   UNL A   1      42.590  20.538  25.327  1.00  0.00    -0.200 F 
ENDBRANCH  26  50
BRANCH  38  61
ATOM     61  C   UNL A   1      47.670  26.771  31.616  1.00  0.00     0.064 A 
ATOM     62  C   UNL A   1      48.778  27.211  30.877  1.00  0.00     0.173 A 
ATOM     63  C   UNL A   1      47.890  25.853  32.652  1.00  0.00     0.173 A 
ATOM     64  F   UNL A   1      48.616  28.085  29.873  1.00  0.00    -0.203 F 
ATOM     65  C   UNL A   1      50.057  26.741  31.158  1.00  0.00     0.198 A 
ATOM     66  C   UNL A   1      49.175  25.402  32.946  1.00  0.00     0.198 A 
ATOM     67  F   UNL A   1      46.863  25.413  33.395  1.00  0.00    -0.203 F 
ATOM     68  F   UNL A   1      51.098  27.155  30.423  1.00  0.00    -0.200 F 
ATOM     69  C   UNL A   1      50.255  25.840  32.194  1.00  0.00     0.200 A 
ATOM     70  F   UNL A   1      49.367  24.550  33.962  1.00  0.00    -0.200 F 
ATOM     71  F   UNL A   1      51.488  25.396  32.470  1.00  0.00    -0.200 F 
ENDBRANCH  38  61
ENDBRANCH  12  13
ENDBRANCH   5   7
ENDBRANCH   2   3
ENDBRANCH   1   2
BRANCH   1  72
ATOM     72  C   UNL A   1      33.198  29.219  24.533  1.00  0.00     0.023 C 
BRANCH  72  73
ATOM     73  C   UNL A   1      33.158  29.030  23.019  1.00  0.00     0.116 C 
BRANCH  73  74
ATOM     74  N   UNL A   1      31.830  29.267  22.477  1.00  0.00    -0.352 N 
ATOM     75  C   UNL A   1      30.766  28.405  22.426  1.00  0.00     0.251 C 
ATOM     76  H   UNL A   1      31.675  30.163  22.100  1.00  0.00     0.163 HD
ATOM     77  O   UNL A   1      29.754  28.684  21.794  1.00  0.00    -0.269 OA
BRANCH  75  78
ATOM     78  C   UNL A   1      30.863  27.120  23.136  1.00  0.00     0.042 A 
ATOM     79  C   UNL A   1      30.049  26.891  24.254  1.00  0.00     0.016 A 
ATOM     80  C   UNL A   1      31.781  26.169  22.665  1.00  0.00     0.042 A 
ATOM     81  C   UNL A   1      30.137  25.683  24.951  1.00  0.00     0.031 A 
ATOM     82  C   UNL A   1      31.859  24.986  23.401  1.00  0.00     0.067 A 
ATOM     83  C   UNL A   1      31.047  24.718  24.497  1.00  0.00     0.089 A 
ATOM     84  N   UNL A   1      32.651  23.870  23.289  1.00  0.00    -0.338 N 
ATOM     85  N   UNL A   1      31.271  23.459  24.970  1.00  0.00    -0.228 NA
ATOM     86  C   UNL A   1      32.234  22.961  24.224  1.00  0.00     0.142 A 
ATOM     87  H   UNL A   1      33.390  23.746  22.650  1.00  0.00     0.168 HD
BRANCH  86  88
ATOM     88  C   UNL A   1      32.742  21.579  24.375  1.00  0.00     0.063 A 
ATOM     89  C   UNL A   1      32.014  20.415  24.339  1.00  0.00     0.117 A 
ATOM     90  C   UNL A   1      34.088  21.189  24.614  1.00  0.00     0.106 A 
ATOM     91  N   UNL A   1      32.936  19.415  24.464  1.00  0.00    -0.284 N 
ATOM     92  N   UNL A   1      34.187  19.852  24.680  1.00  0.00    -0.175 NA
ATOM     93  H   UNL A   1      32.705  18.460  24.400  1.00  0.00     0.189 HD
BRANCH  90  94
ATOM     94  C   UNL A   1      35.211  22.063  24.924  1.00  0.00     0.039 A 
ATOM     95  C   UNL A   1      36.212  22.259  23.954  1.00  0.00     0.016 A 
ATOM     96  C   UNL A   1      35.348  22.671  26.172  1.00  0.00     0.135 A 
ATOM     97  C   UNL A   1      37.331  23.039  24.243  1.00  0.00     0.040 A 
ATOM     98  C   UNL A   1      36.461  23.457  26.463  1.00  0.00     0.079 A 
ATOM     99  F   UNL A   1      34.427  22.492  27.132  1.00  0.00    -0.206 F 
ATOM    100  C   UNL A   1      37.444  23.630  25.497  1.00  0.00     0.126 A 
ATOM    101  F   UNL A   1      38.523  24.372  25.775  1.00  0.00    -0.207 F 
ENDBRANCH  90  94
ENDBRANCH  86  88
ENDBRANCH  75  78
ENDBRANCH  73  74
ENDBRANCH  72  73
ENDBRANCH   1  72
TORSDOF 13
ENDMDL
