MODEL 1
REMARK VINA RESULT:     -10.2      0.000      0.000
REMARK SMILES C[C@@H](C(=O)NCCCCNC(=O)c1ccc(-c2c3nc(c(-c4c(F)c(F)c(F)c(F)c4F)c4ccc([nH]4)c(-c4c(F)c(F)c(F)c(F)c4F)c4nc(c(-c5c(F)c(F)c(F)c(F)c5F)c5ccc2[nH]5)C=C4)C=C3)cc1)c1ccc(-c2cccc(OC(=O)NCCC3CCCCC3)c2)c(F)c1
REMARK SMILES IDX 3 1 4 2 5 3 2 5 1 6 76 7 77 8 100 9 78 10 98 11 79 12 99 13
REMARK SMILES IDX 80 14 81 15 97 16 82 17 84 18 83 19 85 20 86 21 87 22 88 23
REMARK SMILES IDX 89 25 90 26 91 27 92 28 96 29 93 30 95 31 94 32 6 33 7 34
REMARK SMILES IDX 8 35 9 36 10 37 11 38 12 40 13 41 14 42 75 43 15 44 74 45
REMARK SMILES IDX 16 46 17 47 18 48 68 49 19 50 73 51 67 52 69 53 20 54 72 55
REMARK SMILES IDX 66 56 65 57 21 59 53 60 33 61 52 62 34 63 37 64 51 65 70 66
REMARK SMILES IDX 35 67 36 68 50 70 71 71 38 72 22 73 23 74 31 75 24 76 25 77
REMARK SMILES IDX 29 78 32 79 26 80 27 81 30 82 28 83 54 84 55 85 63 86 56 87
REMARK SMILES IDX 57 88 61 89 64 90 58 91 59 92 62 93 60 94 39 95 40 96 48 97
REMARK SMILES IDX 41 98 42 99 46 100 49 101 43 102 44 103 47 104 45 105
REMARK H PARENT 5 4 88 24 10 39 69 58 37 69
REMARK Flexibility Score: inf
ROOT
ATOM      1  C   UNL A   1      42.594  22.155  25.721  1.00  0.00     0.227 C 
ATOM      2  O   UNL A   1      42.026  21.109  25.401  1.00  0.00    -0.274 OA
ATOM      3  N   UNL A   1      43.080  22.920  24.699  1.00  0.00    -0.356 N 
ATOM      4  H   UNL A   1      42.782  22.657  23.798  1.00  0.00     0.163 HD
ENDROOT
BRANCH   1   5
ATOM      5  C   UNL A   1      42.723  22.644  27.176  1.00  0.00     0.105 C 
ATOM      6  C   UNL A   1      42.349  21.530  28.163  1.00  0.00     0.023 C 
BRANCH   5   7
ATOM      7  C   UNL A   1      41.938  23.935  27.427  1.00  0.00    -0.033 A 
ATOM      8  C   UNL A   1      42.581  25.065  27.967  1.00  0.00     0.005 A 
ATOM      9  C   UNL A   1      40.567  24.034  27.161  1.00  0.00     0.044 A 
ATOM     10  C   UNL A   1      41.879  26.253  28.210  1.00  0.00     0.012 A 
ATOM     11  C   UNL A   1      39.875  25.209  27.414  1.00  0.00     0.131 A 
ATOM     12  C   UNL A   1      40.507  26.337  27.946  1.00  0.00     0.018 A 
ATOM     13  F   UNL A   1      38.558  25.226  27.153  1.00  0.00    -0.206 F 
BRANCH  12  14
ATOM     14  C   UNL A   1      39.718  27.517  28.305  1.00  0.00    -0.012 A 
ATOM     15  C   UNL A   1      39.523  28.595  27.433  1.00  0.00     0.009 A 
ATOM     16  C   UNL A   1      39.112  27.556  29.571  1.00  0.00     0.056 A 
ATOM     17  C   UNL A   1      38.727  29.677  27.818  1.00  0.00     0.004 A 
ATOM     18  C   UNL A   1      38.338  28.638  29.965  1.00  0.00     0.133 A 
ATOM     19  C   UNL A   1      38.132  29.699  29.084  1.00  0.00     0.047 A 
BRANCH  18  20
ATOM     20  O   UNL A   1      37.720  28.742  31.235  1.00  0.00    -0.410 OA
BRANCH  20  21
ATOM     21  C   UNL A   1      38.268  28.259  32.422  1.00  0.00     0.412 C 
ATOM     22  O   UNL A   1      38.153  27.128  32.884  1.00  0.00    -0.224 OA
ATOM     23  N   UNL A   1      39.026  29.168  33.092  1.00  0.00    -0.321 N 
ATOM     24  H   UNL A   1      39.464  28.844  33.913  1.00  0.00     0.167 HD
BRANCH  23  25
ATOM     25  C   UNL A   1      39.269  30.550  32.750  1.00  0.00     0.119 C 
BRANCH  25  26
ATOM     26  C   UNL A   1      37.989  31.379  32.869  1.00  0.00     0.025 C 
BRANCH  26  27
ATOM     27  C   UNL A   1      37.919  32.590  31.913  1.00  0.00    -0.009 C 
ATOM     28  C   UNL A   1      39.211  32.754  31.094  1.00  0.00     0.003 C 
ATOM     29  C   UNL A   1      36.700  32.454  30.986  1.00  0.00     0.003 C 
ATOM     30  C   UNL A   1      39.111  33.890  30.079  1.00  0.00     0.000 C 
ATOM     31  C   UNL A   1      36.612  33.607  29.990  1.00  0.00     0.000 C 
ATOM     32  C   UNL A   1      37.893  33.736  29.175  1.00  0.00     0.000 C 
ENDBRANCH  26  27
ENDBRANCH  25  26
ENDBRANCH  23  25
ENDBRANCH  20  21
ENDBRANCH  18  20
ENDBRANCH  12  14
ENDBRANCH   5   7
ENDBRANCH   1   5
BRANCH   3  33
ATOM     33  C   UNL A   1      43.969  24.061  24.747  1.00  0.00     0.116 C 
BRANCH  33  34
ATOM     34  C   UNL A   1      45.427  23.601  24.835  1.00  0.00     0.023 C 
BRANCH  34  35
ATOM     35  C   UNL A   1      46.041  23.723  26.228  1.00  0.00     0.023 C 
BRANCH  35  36
ATOM     36  C   UNL A   1      47.106  24.798  26.350  1.00  0.00     0.116 C 
BRANCH  36  37
ATOM     37  N   UNL A   1      47.410  25.437  25.078  1.00  0.00    -0.352 N 
ATOM     38  C   UNL A   1      47.033  26.688  24.650  1.00  0.00     0.251 C 
ATOM     39  H   UNL A   1      47.951  24.910  24.447  1.00  0.00     0.163 HD
ATOM     40  O   UNL A   1      47.235  27.053  23.498  1.00  0.00    -0.269 OA
BRANCH  38  41
ATOM     41  C   UNL A   1      46.341  27.570  25.606  1.00  0.00     0.039 A 
ATOM     42  C   UNL A   1      44.945  27.604  25.617  1.00  0.00     0.014 A 
ATOM     43  C   UNL A   1      47.083  28.273  26.558  1.00  0.00     0.014 A 
ATOM     44  C   UNL A   1      44.287  28.288  26.641  1.00  0.00     0.010 A 
ATOM     45  C   UNL A   1      46.427  28.875  27.622  1.00  0.00     0.010 A 
ATOM     46  C   UNL A   1      45.024  28.887  27.674  1.00  0.00    -0.014 A 
BRANCH  46  47
ATOM     47  C   UNL A   1      44.366  29.542  28.831  1.00  0.00     0.031 A 
ATOM     48  C   UNL A   1      44.096  31.017  28.789  1.00  0.00     0.074 A 
ATOM     49  C   UNL A   1      44.130  28.842  29.956  1.00  0.00     0.049 A 
ATOM     50  N   UNL A   1      43.698  31.818  29.744  1.00  0.00    -0.248 NA
ATOM     51  C   UNL A   1      44.350  31.690  27.505  1.00  0.00     0.031 C 
ATOM     52  C   UNL A   1      44.392  27.414  30.137  1.00  0.00     0.029 A 
ATOM     53  N   UNL A   1      43.647  29.248  31.177  1.00  0.00    -0.354 N 
ATOM     54  C   UNL A   1      43.686  33.088  29.185  1.00  0.00     0.074 A 
ATOM     55  C   UNL A   1      44.169  32.959  27.827  1.00  0.00     0.031 C 
ATOM     56  C   UNL A   1      44.069  27.063  31.391  1.00  0.00     0.029 A 
ATOM     57  C   UNL A   1      43.626  28.249  32.118  1.00  0.00     0.049 A 
ATOM     58  H   UNL A   1      43.345  30.167  31.358  1.00  0.00     0.167 HD
ATOM     59  C   UNL A   1      43.291  34.254  29.750  1.00  0.00     0.037 A 
ATOM     60  C   UNL A   1      43.317  28.290  33.428  1.00  0.00     0.037 A 
ATOM     61  C   UNL A   1      42.797  34.366  31.098  1.00  0.00     0.049 A 
ATOM     62  C   UNL A   1      42.888  29.595  34.043  1.00  0.00     0.074 A 
ATOM     63  C   UNL A   1      42.301  35.483  31.743  1.00  0.00     0.029 A 
ATOM     64  N   UNL A   1      42.751  33.321  32.011  1.00  0.00    -0.354 N 
ATOM     65  N   UNL A   1      42.808  30.781  33.490  1.00  0.00    -0.248 NA
ATOM     66  C   UNL A   1      42.501  29.567  35.460  1.00  0.00     0.031 C 
ATOM     67  C   UNL A   1      42.020  35.133  33.068  1.00  0.00     0.029 A 
ATOM     68  C   UNL A   1      42.267  33.777  33.227  1.00  0.00     0.049 A 
ATOM     69  H   UNL A   1      43.021  32.393  31.823  1.00  0.00     0.167 HD
ATOM     70  C   UNL A   1      42.334  31.633  34.478  1.00  0.00     0.074 A 
ATOM     71  C   UNL A   1      42.142  30.827  35.666  1.00  0.00     0.031 C 
ATOM     72  C   UNL A   1      42.074  32.963  34.401  1.00  0.00     0.037 A 
BRANCH  59  73
ATOM     73  C   UNL A   1      43.409  35.499  28.917  1.00  0.00     0.064 A 
ATOM     74  C   UNL A   1      42.345  35.973  28.131  1.00  0.00     0.173 A 
ATOM     75  C   UNL A   1      44.609  36.225  28.895  1.00  0.00     0.173 A 
ATOM     76  F   UNL A   1      41.177  35.314  28.106  1.00  0.00    -0.203 F 
ATOM     77  C   UNL A   1      42.499  37.090  27.315  1.00  0.00     0.198 A 
ATOM     78  C   UNL A   1      44.746  37.367  28.109  1.00  0.00     0.198 A 
ATOM     79  F   UNL A   1      45.657  35.825  29.631  1.00  0.00    -0.203 F 
ATOM     80  F   UNL A   1      41.496  37.474  26.512  1.00  0.00    -0.200 F 
ATOM     81  C   UNL A   1      43.696  37.789  27.307  1.00  0.00     0.200 A 
ATOM     82  F   UNL A   1      45.898  38.049  28.117  1.00  0.00    -0.200 F 
ATOM     83  F   UNL A   1      43.843  38.861  26.518  1.00  0.00    -0.200 F 
ENDBRANCH  59  73
BRANCH  60  84
ATOM     84  C   UNL A   1      43.400  27.044  34.235  1.00  0.00     0.064 A 
ATOM     85  C   UNL A   1      42.250  26.309  34.552  1.00  0.00     0.173 A 
ATOM     86  C   UNL A   1      44.635  26.540  34.667  1.00  0.00     0.173 A 
ATOM     87  F   UNL A   1      41.043  26.760  34.177  1.00  0.00    -0.203 F 
ATOM     88  C   UNL A   1      42.331  25.121  35.274  1.00  0.00     0.198 A 
ATOM     89  C   UNL A   1      44.720  25.338  35.365  1.00  0.00     0.198 A 
ATOM     90  F   UNL A   1      45.768  27.203  34.383  1.00  0.00    -0.203 F 
ATOM     91  F   UNL A   1      41.214  24.452  35.589  1.00  0.00    -0.200 F 
ATOM     92  C   UNL A   1      43.567  24.630  35.672  1.00  0.00     0.200 A 
ATOM     93  F   UNL A   1      45.916  24.858  35.730  1.00  0.00    -0.200 F 
ATOM     94  F   UNL A   1      43.646  23.478  36.350  1.00  0.00    -0.200 F 
ENDBRANCH  60  84
BRANCH  72  95
ATOM     95  C   UNL A   1      41.507  33.634  35.619  1.00  0.00     0.064 A 
ATOM     96  C   UNL A   1      42.319  34.293  36.552  1.00  0.00     0.173 A 
ATOM     97  C   UNL A   1      40.116  33.683  35.811  1.00  0.00     0.173 A 
ATOM     98  F   UNL A   1      43.655  34.264  36.424  1.00  0.00    -0.203 F 
ATOM     99  C   UNL A   1      41.763  34.965  37.638  1.00  0.00     0.198 A 
ATOM    100  C   UNL A   1      39.562  34.384  36.878  1.00  0.00     0.198 A 
ATOM    101  F   UNL A   1      39.293  33.075  34.944  1.00  0.00    -0.203 F 
ATOM    102  F   UNL A   1      42.560  35.559  38.536  1.00  0.00    -0.200 F 
ATOM    103  C   UNL A   1      40.386  35.020  37.792  1.00  0.00     0.200 A 
ATOM    104  F   UNL A   1      38.230  34.451  37.014  1.00  0.00    -0.200 F 
ATOM    105  F   UNL A   1      39.851  35.687  38.826  1.00  0.00    -0.200 F 
ENDBRANCH  72  95
ENDBRANCH  46  47
ENDBRANCH  38  41
ENDBRANCH  36  37
ENDBRANCH  35  36
ENDBRANCH  34  35
ENDBRANCH  33  34
ENDBRANCH   3  33
TORSDOF 18
ENDMDL
MODEL 2
REMARK VINA RESULT:     -10.2      1.365      2.441
REMARK SMILES C[C@@H](C(=O)NCCCCNC(=O)c1ccc(-c2c3nc(c(-c4c(F)c(F)c(F)c(F)c4F)c4ccc([nH]4)c(-c4c(F)c(F)c(F)c(F)c4F)c4nc(c(-c5c(F)c(F)c(F)c(F)c5F)c5ccc2[nH]5)C=C4)C=C3)cc1)c1ccc(-c2cccc(OC(=O)NCCC3CCCCC3)c2)c(F)c1
REMARK SMILES IDX 3 1 4 2 5 3 2 5 1 6 76 7 77 8 100 9 78 10 98 11 79 12 99 13
REMARK SMILES IDX 80 14 81 15 97 16 82 17 84 18 83 19 85 20 86 21 87 22 88 23
REMARK SMILES IDX 89 25 90 26 91 27 92 28 96 29 93 30 95 31 94 32 6 33 7 34
REMARK SMILES IDX 8 35 9 36 10 37 11 38 12 40 13 41 14 42 75 43 15 44 74 45
REMARK SMILES IDX 16 46 17 47 18 48 68 49 19 50 73 51 67 52 69 53 20 54 72 55
REMARK SMILES IDX 66 56 65 57 21 59 53 60 33 61 52 62 34 63 37 64 51 65 70 66
REMARK SMILES IDX 35 67 36 68 50 70 71 71 38 72 22 73 23 74 31 75 24 76 25 77
REMARK SMILES IDX 29 78 32 79 26 80 27 81 30 82 28 83 54 84 55 85 63 86 56 87
REMARK SMILES IDX 57 88 61 89 64 90 58 91 59 92 62 93 60 94 39 95 40 96 48 97
REMARK SMILES IDX 41 98 42 99 46 100 49 101 43 102 44 103 47 104 45 105
REMARK H PARENT 5 4 88 24 10 39 69 58 37 69
REMARK Flexibility Score: inf
ROOT
ATOM      1  C   UNL A   1      41.551  24.145  26.486  1.00  0.00     0.227 C 
ATOM      2  O   UNL A   1      40.454  23.611  26.659  1.00  0.00    -0.274 OA
ATOM      3  N   UNL A   1      42.280  23.705  25.417  1.00  0.00    -0.356 N 
ATOM      4  H   UNL A   1      41.793  23.128  24.785  1.00  0.00     0.163 HD
ENDROOT
BRANCH   1   5
ATOM      5  C   UNL A   1      42.090  25.292  27.362  1.00  0.00     0.105 C 
ATOM      6  C   UNL A   1      42.884  24.741  28.555  1.00  0.00     0.023 C 
BRANCH   5   7
ATOM      7  C   UNL A   1      40.986  26.263  27.793  1.00  0.00    -0.033 A 
ATOM      8  C   UNL A   1      40.698  27.401  27.017  1.00  0.00     0.005 A 
ATOM      9  C   UNL A   1      40.252  26.076  28.970  1.00  0.00     0.044 A 
ATOM     10  C   UNL A   1      39.697  28.305  27.398  1.00  0.00     0.012 A 
ATOM     11  C   UNL A   1      39.269  26.979  29.348  1.00  0.00     0.131 A 
ATOM     12  C   UNL A   1      38.974  28.111  28.581  1.00  0.00     0.018 A 
ATOM     13  F   UNL A   1      38.618  26.748  30.500  1.00  0.00    -0.206 F 
BRANCH  12  14
ATOM     14  C   UNL A   1      38.011  29.098  29.074  1.00  0.00    -0.012 A 
ATOM     15  C   UNL A   1      37.328  28.953  30.287  1.00  0.00     0.009 A 
ATOM     16  C   UNL A   1      37.782  30.249  28.304  1.00  0.00     0.056 A 
ATOM     17  C   UNL A   1      36.449  29.949  30.723  1.00  0.00     0.004 A 
ATOM     18  C   UNL A   1      36.894  31.230  28.724  1.00  0.00     0.133 A 
ATOM     19  C   UNL A   1      36.232  31.088  29.943  1.00  0.00     0.047 A 
BRANCH  18  20
ATOM     20  O   UNL A   1      36.608  32.401  27.981  1.00  0.00    -0.410 OA
BRANCH  20  21
ATOM     21  C   UNL A   1      35.968  33.528  28.496  1.00  0.00     0.412 C 
ATOM     22  O   UNL A   1      34.773  33.795  28.430  1.00  0.00    -0.224 OA
ATOM     23  N   UNL A   1      36.797  34.380  29.159  1.00  0.00    -0.321 N 
ATOM     24  H   UNL A   1      36.368  35.164  29.574  1.00  0.00     0.167 HD
BRANCH  23  25
ATOM     25  C   UNL A   1      38.227  34.279  29.331  1.00  0.00     0.119 C 
BRANCH  25  26
ATOM     26  C   UNL A   1      38.619  34.456  30.799  1.00  0.00     0.025 C 
BRANCH  26  27
ATOM     27  C   UNL A   1      39.446  33.292  31.387  1.00  0.00    -0.009 C 
ATOM     28  C   UNL A   1      38.649  32.486  32.426  1.00  0.00     0.003 C 
ATOM     29  C   UNL A   1      39.943  32.380  30.253  1.00  0.00     0.003 C 
ATOM     30  C   UNL A   1      39.427  31.276  32.940  1.00  0.00     0.000 C 
ATOM     31  C   UNL A   1      40.730  31.187  30.788  1.00  0.00     0.000 C 
ATOM     32  C   UNL A   1      39.913  30.390  31.799  1.00  0.00     0.000 C 
ENDBRANCH  26  27
ENDBRANCH  25  26
ENDBRANCH  23  25
ENDBRANCH  20  21
ENDBRANCH  18  20
ENDBRANCH  12  14
ENDBRANCH   5   7
ENDBRANCH   1   5
BRANCH   3  33
ATOM     33  C   UNL A   1      43.663  23.963  25.078  1.00  0.00     0.116 C 
BRANCH  33  34
ATOM     34  C   UNL A   1      44.558  22.824  25.577  1.00  0.00     0.023 C 
BRANCH  34  35
ATOM     35  C   UNL A   1      45.999  23.237  25.862  1.00  0.00     0.023 C 
BRANCH  35  36
ATOM     36  C   UNL A   1      46.185  24.722  26.119  1.00  0.00     0.116 C 
BRANCH  36  37
ATOM     37  N   UNL A   1      46.785  25.418  24.989  1.00  0.00    -0.352 N 
ATOM     38  C   UNL A   1      46.724  26.759  24.694  1.00  0.00     0.251 C 
ATOM     39  H   UNL A   1      47.296  24.860  24.359  1.00  0.00     0.163 HD
ATOM     40  O   UNL A   1      47.153  27.197  23.635  1.00  0.00    -0.269 OA
BRANCH  38  41
ATOM     41  C   UNL A   1      46.089  27.658  25.676  1.00  0.00     0.039 A 
ATOM     42  C   UNL A   1      44.696  27.713  25.750  1.00  0.00     0.014 A 
ATOM     43  C   UNL A   1      46.884  28.356  26.587  1.00  0.00     0.014 A 
ATOM     44  C   UNL A   1      44.096  28.413  26.798  1.00  0.00     0.010 A 
ATOM     45  C   UNL A   1      46.287  28.974  27.676  1.00  0.00     0.010 A 
ATOM     46  C   UNL A   1      44.888  29.007  27.793  1.00  0.00    -0.014 A 
BRANCH  46  47
ATOM     47  C   UNL A   1      44.294  29.679  28.974  1.00  0.00     0.031 A 
ATOM     48  C   UNL A   1      44.054  31.160  28.938  1.00  0.00     0.074 A 
ATOM     49  C   UNL A   1      44.090  28.987  30.111  1.00  0.00     0.049 A 
ATOM     50  N   UNL A   1      43.714  31.971  29.906  1.00  0.00    -0.248 NA
ATOM     51  C   UNL A   1      44.267  31.823  27.642  1.00  0.00     0.031 C 
ATOM     52  C   UNL A   1      44.329  27.554  30.284  1.00  0.00     0.029 A 
ATOM     53  N   UNL A   1      43.668  29.407  31.349  1.00  0.00    -0.354 N 
ATOM     54  C   UNL A   1      43.705  33.240  29.344  1.00  0.00     0.074 A 
ATOM     55  C   UNL A   1      44.128  33.097  27.968  1.00  0.00     0.031 C 
ATOM     56  C   UNL A   1      44.051  27.213  31.552  1.00  0.00     0.029 A 
ATOM     57  C   UNL A   1      43.666  28.410  32.294  1.00  0.00     0.049 A 
ATOM     58  H   UNL A   1      43.394  30.333  31.539  1.00  0.00     0.167 HD
ATOM     59  C   UNL A   1      43.359  34.415  29.921  1.00  0.00     0.037 A 
ATOM     60  C   UNL A   1      43.412  28.461  33.616  1.00  0.00     0.037 A 
ATOM     61  C   UNL A   1      42.925  34.542  31.288  1.00  0.00     0.049 A 
ATOM     62  C   UNL A   1      43.038  29.777  34.243  1.00  0.00     0.074 A 
ATOM     63  C   UNL A   1      42.481  35.671  31.950  1.00  0.00     0.029 A 
ATOM     64  N   UNL A   1      42.895  33.500  32.206  1.00  0.00    -0.354 N 
ATOM     65  N   UNL A   1      42.960  30.963  33.690  1.00  0.00    -0.248 NA
ATOM     66  C   UNL A   1      42.710  29.761  35.675  1.00  0.00     0.031 C 
ATOM     67  C   UNL A   1      42.249  35.330  33.286  1.00  0.00     0.029 A 
ATOM     68  C   UNL A   1      42.473  33.970  33.440  1.00  0.00     0.049 A 
ATOM     69  H   UNL A   1      43.137  32.566  32.010  1.00  0.00     0.167 HD
ATOM     70  C   UNL A   1      42.547  31.828  34.694  1.00  0.00     0.074 A 
ATOM     71  C   UNL A   1      42.388  31.029  35.892  1.00  0.00     0.031 C 
ATOM     72  C   UNL A   1      42.313  33.162  34.624  1.00  0.00     0.037 A 
BRANCH  59  73
ATOM     73  C   UNL A   1      43.469  35.655  29.080  1.00  0.00     0.064 A 
ATOM     74  C   UNL A   1      42.396  36.126  28.304  1.00  0.00     0.173 A 
ATOM     75  C   UNL A   1      44.670  36.380  29.039  1.00  0.00     0.173 A 
ATOM     76  F   UNL A   1      41.227  35.469  28.297  1.00  0.00    -0.203 F 
ATOM     77  C   UNL A   1      42.542  37.239  27.480  1.00  0.00     0.198 A 
ATOM     78  C   UNL A   1      44.798  37.517  28.245  1.00  0.00     0.198 A 
ATOM     79  F   UNL A   1      45.726  35.982  29.765  1.00  0.00    -0.203 F 
ATOM     80  F   UNL A   1      41.529  37.620  26.687  1.00  0.00    -0.200 F 
ATOM     81  C   UNL A   1      43.739  37.936  27.453  1.00  0.00     0.200 A 
ATOM     82  F   UNL A   1      45.952  38.198  28.235  1.00  0.00    -0.200 F 
ATOM     83  F   UNL A   1      43.878  39.003  26.656  1.00  0.00    -0.200 F 
ENDBRANCH  59  73
BRANCH  60  84
ATOM     84  C   UNL A   1      43.503  27.216  34.422  1.00  0.00     0.064 A 
ATOM     85  C   UNL A   1      42.366  26.442  34.688  1.00  0.00     0.173 A 
ATOM     86  C   UNL A   1      44.735  26.752  34.905  1.00  0.00     0.173 A 
ATOM     87  F   UNL A   1      41.162  26.855  34.264  1.00  0.00    -0.203 F 
ATOM     88  C   UNL A   1      42.456  25.255  35.411  1.00  0.00     0.198 A 
ATOM     89  C   UNL A   1      44.830  25.550  35.603  1.00  0.00     0.198 A 
ATOM     90  F   UNL A   1      45.856  27.452  34.670  1.00  0.00    -0.203 F 
ATOM     91  F   UNL A   1      41.349  24.548  35.677  1.00  0.00    -0.200 F 
ATOM     92  C   UNL A   1      43.690  24.804  35.860  1.00  0.00     0.200 A 
ATOM     93  F   UNL A   1      46.025  25.109  36.017  1.00  0.00    -0.200 F 
ATOM     94  F   UNL A   1      43.778  23.653  36.538  1.00  0.00    -0.200 F 
ENDBRANCH  60  84
BRANCH  72  95
ATOM     95  C   UNL A   1      41.811  33.849  35.863  1.00  0.00     0.064 A 
ATOM     96  C   UNL A   1      40.444  33.953  36.154  1.00  0.00     0.173 A 
ATOM     97  C   UNL A   1      42.723  34.343  36.810  1.00  0.00     0.173 A 
ATOM     98  F   UNL A   1      39.531  33.510  35.276  1.00  0.00    -0.203 F 
ATOM     99  C   UNL A   1      40.008  34.535  37.341  1.00  0.00     0.198 A 
ATOM    100  C   UNL A   1      42.285  34.894  38.010  1.00  0.00     0.198 A 
ATOM    101  F   UNL A   1      44.043  34.263  36.583  1.00  0.00    -0.203 F 
ATOM    102  F   UNL A   1      38.696  34.656  37.584  1.00  0.00    -0.200 F 
ATOM    103  C   UNL A   1      40.928  34.994  38.273  1.00  0.00     0.200 A 
ATOM    104  F   UNL A   1      43.177  35.319  38.916  1.00  0.00    -0.200 F 
ATOM    105  F   UNL A   1      40.506  35.535  39.425  1.00  0.00    -0.200 F 
ENDBRANCH  72  95
ENDBRANCH  46  47
ENDBRANCH  38  41
ENDBRANCH  36  37
ENDBRANCH  35  36
ENDBRANCH  34  35
ENDBRANCH  33  34
ENDBRANCH   3  33
TORSDOF 18
ENDMDL
MODEL 3
REMARK VINA RESULT:      -9.8      4.472      7.865
REMARK SMILES C[C@@H](C(=O)NCCCCNC(=O)c1ccc(-c2c3nc(c(-c4c(F)c(F)c(F)c(F)c4F)c4ccc([nH]4)c(-c4c(F)c(F)c(F)c(F)c4F)c4nc(c(-c5c(F)c(F)c(F)c(F)c5F)c5ccc2[nH]5)C=C4)C=C3)cc1)c1ccc(-c2cccc(OC(=O)NCCC3CCCCC3)c2)c(F)c1
REMARK SMILES IDX 3 1 4 2 5 3 2 5 1 6 76 7 77 8 100 9 78 10 98 11 79 12 99 13
REMARK SMILES IDX 80 14 81 15 97 16 82 17 84 18 83 19 85 20 86 21 87 22 88 23
REMARK SMILES IDX 89 25 90 26 91 27 92 28 96 29 93 30 95 31 94 32 6 33 7 34
REMARK SMILES IDX 8 35 9 36 10 37 11 38 12 40 13 41 14 42 75 43 15 44 74 45
REMARK SMILES IDX 16 46 17 47 18 48 68 49 19 50 73 51 67 52 69 53 20 54 72 55
REMARK SMILES IDX 66 56 65 57 21 59 53 60 33 61 52 62 34 63 37 64 51 65 70 66
REMARK SMILES IDX 35 67 36 68 50 70 71 71 38 72 22 73 23 74 31 75 24 76 25 77
REMARK SMILES IDX 29 78 32 79 26 80 27 81 30 82 28 83 54 84 55 85 63 86 56 87
REMARK SMILES IDX 57 88 61 89 64 90 58 91 59 92 62 93 60 94 39 95 40 96 48 97
REMARK SMILES IDX 41 98 42 99 46 100 49 101 43 102 44 103 47 104 45 105
REMARK H PARENT 5 4 88 24 10 39 69 58 37 69
REMARK Flexibility Score: inf
ROOT
ATOM      1  C   UNL A   1      41.054  21.650  27.119  1.00  0.00     0.227 C 
ATOM      2  O   UNL A   1      40.452  20.879  27.869  1.00  0.00    -0.274 OA
ATOM      3  N   UNL A   1      42.260  21.217  26.643  1.00  0.00    -0.356 N 
ATOM      4  H   UNL A   1      42.457  20.265  26.801  1.00  0.00     0.163 HD
ENDROOT
BRANCH   1   5
ATOM      5  C   UNL A   1      40.495  23.012  26.666  1.00  0.00     0.105 C 
ATOM      6  C   UNL A   1      40.759  24.091  27.726  1.00  0.00     0.023 C 
BRANCH   5   7
ATOM      7  C   UNL A   1      39.018  22.931  26.270  1.00  0.00    -0.033 A 
ATOM      8  C   UNL A   1      38.165  24.031  26.479  1.00  0.00     0.005 A 
ATOM      9  C   UNL A   1      38.459  21.771  25.721  1.00  0.00     0.044 A 
ATOM     10  C   UNL A   1      36.808  23.975  26.130  1.00  0.00     0.012 A 
ATOM     11  C   UNL A   1      37.114  21.717  25.387  1.00  0.00     0.131 A 
ATOM     12  C   UNL A   1      36.260  22.807  25.587  1.00  0.00     0.018 A 
ATOM     13  F   UNL A   1      36.641  20.565  24.883  1.00  0.00    -0.206 F 
BRANCH  12  14
ATOM     14  C   UNL A   1      34.826  22.670  25.329  1.00  0.00    -0.012 A 
ATOM     15  C   UNL A   1      34.316  22.083  24.164  1.00  0.00     0.009 A 
ATOM     16  C   UNL A   1      33.925  23.127  26.303  1.00  0.00     0.056 A 
ATOM     17  C   UNL A   1      32.935  21.946  23.991  1.00  0.00     0.004 A 
ATOM     18  C   UNL A   1      32.553  23.011  26.126  1.00  0.00     0.133 A 
ATOM     19  C   UNL A   1      32.053  22.408  24.972  1.00  0.00     0.047 A 
BRANCH  18  20
ATOM     20  O   UNL A   1      31.597  23.472  27.064  1.00  0.00    -0.410 OA
BRANCH  20  21
ATOM     21  C   UNL A   1      30.217  23.364  26.904  1.00  0.00     0.412 C 
ATOM     22  O   UNL A   1      29.521  22.376  27.118  1.00  0.00    -0.224 OA
ATOM     23  N   UNL A   1      29.616  24.513  26.490  1.00  0.00    -0.321 N 
ATOM     24  H   UNL A   1      28.635  24.483  26.410  1.00  0.00     0.167 HD
BRANCH  23  25
ATOM     25  C   UNL A   1      30.239  25.772  26.153  1.00  0.00     0.119 C 
BRANCH  25  26
ATOM     26  C   UNL A   1      30.003  26.126  24.684  1.00  0.00     0.025 C 
BRANCH  26  27
ATOM     27  C   UNL A   1      31.292  26.324  23.857  1.00  0.00    -0.009 C 
ATOM     28  C   UNL A   1      32.550  26.327  24.743  1.00  0.00     0.003 C 
ATOM     29  C   UNL A   1      31.390  25.238  22.774  1.00  0.00     0.003 C 
ATOM     30  C   UNL A   1      33.833  26.425  23.922  1.00  0.00     0.000 C 
ATOM     31  C   UNL A   1      32.673  25.364  21.957  1.00  0.00     0.000 C 
ATOM     32  C   UNL A   1      33.906  25.341  22.853  1.00  0.00     0.000 C 
ENDBRANCH  26  27
ENDBRANCH  25  26
ENDBRANCH  23  25
ENDBRANCH  20  21
ENDBRANCH  18  20
ENDBRANCH  12  14
ENDBRANCH   5   7
ENDBRANCH   1   5
BRANCH   3  33
ATOM     33  C   UNL A   1      43.290  21.952  25.941  1.00  0.00     0.116 C 
BRANCH  33  34
ATOM     34  C   UNL A   1      44.106  22.800  26.922  1.00  0.00     0.023 C 
BRANCH  34  35
ATOM     35  C   UNL A   1      45.602  22.839  26.624  1.00  0.00     0.023 C 
BRANCH  35  36
ATOM     36  C   UNL A   1      46.266  24.170  26.926  1.00  0.00     0.116 C 
BRANCH  36  37
ATOM     37  N   UNL A   1      46.646  24.897  25.723  1.00  0.00    -0.352 N 
ATOM     38  C   UNL A   1      46.189  26.120  25.295  1.00  0.00     0.251 C 
ATOM     39  H   UNL A   1      47.311  24.458  25.144  1.00  0.00     0.163 HD
ATOM     40  O   UNL A   1      46.483  26.557  24.189  1.00  0.00    -0.269 OA
BRANCH  38  41
ATOM     41  C   UNL A   1      45.298  26.881  26.190  1.00  0.00     0.039 A 
ATOM     42  C   UNL A   1      44.271  26.213  26.859  1.00  0.00     0.014 A 
ATOM     43  C   UNL A   1      45.560  28.229  26.441  1.00  0.00     0.014 A 
ATOM     44  C   UNL A   1      43.550  26.886  27.847  1.00  0.00     0.010 A 
ATOM     45  C   UNL A   1      44.903  28.866  27.483  1.00  0.00     0.010 A 
ATOM     46  C   UNL A   1      43.893  28.201  28.197  1.00  0.00    -0.014 A 
BRANCH  46  47
ATOM     47  C   UNL A   1      43.219  28.922  29.304  1.00  0.00     0.031 A 
ATOM     48  C   UNL A   1      43.879  28.991  30.650  1.00  0.00     0.074 A 
ATOM     49  C   UNL A   1      41.971  29.399  29.136  1.00  0.00     0.049 A 
ATOM     50  N   UNL A   1      43.398  29.410  31.792  1.00  0.00    -0.248 NA
ATOM     51  C   UNL A   1      45.256  28.479  30.727  1.00  0.00     0.031 C 
ATOM     52  C   UNL A   1      41.207  29.350  27.890  1.00  0.00     0.029 A 
ATOM     53  N   UNL A   1      41.112  29.988  30.031  1.00  0.00    -0.354 N 
ATOM     54  C   UNL A   1      44.400  29.182  32.725  1.00  0.00     0.074 A 
ATOM     55  C   UNL A   1      45.491  28.537  32.027  1.00  0.00     0.031 C 
ATOM     56  C   UNL A   1      39.994  29.886  28.098  1.00  0.00     0.029 A 
ATOM     57  C   UNL A   1      39.876  30.267  29.502  1.00  0.00     0.049 A 
ATOM     58  H   UNL A   1      41.360  30.192  30.962  1.00  0.00     0.167 HD
ATOM     59  C   UNL A   1      44.412  29.497  34.042  1.00  0.00     0.037 A 
ATOM     60  C   UNL A   1      38.763  30.746  30.090  1.00  0.00     0.037 A 
ATOM     61  C   UNL A   1      43.326  30.153  34.721  1.00  0.00     0.049 A 
ATOM     62  C   UNL A   1      38.791  31.084  31.556  1.00  0.00     0.074 A 
ATOM     63  C   UNL A   1      43.265  30.585  36.033  1.00  0.00     0.029 A 
ATOM     64  N   UNL A   1      42.102  30.459  34.140  1.00  0.00    -0.354 N 
ATOM     65  N   UNL A   1      39.767  30.933  32.419  1.00  0.00    -0.248 NA
ATOM     66  C   UNL A   1      37.569  31.663  32.129  1.00  0.00     0.031 C 
ATOM     67  C   UNL A   1      41.982  31.088  36.267  1.00  0.00     0.029 A 
ATOM     68  C   UNL A   1      41.267  31.042  35.080  1.00  0.00     0.049 A 
ATOM     69  H   UNL A   1      41.863  30.287  33.201  1.00  0.00     0.167 HD
ATOM     70  C   UNL A   1      39.290  31.425  33.626  1.00  0.00     0.074 A 
ATOM     71  C   UNL A   1      37.937  31.881  33.384  1.00  0.00     0.031 C 
ATOM     72  C   UNL A   1      39.922  31.498  34.824  1.00  0.00     0.037 A 
BRANCH  59  73
ATOM     73  C   UNL A   1      45.629  29.106  34.832  1.00  0.00     0.064 A 
ATOM     74  C   UNL A   1      45.724  27.868  35.489  1.00  0.00     0.173 A 
ATOM     75  C   UNL A   1      46.715  29.987  34.943  1.00  0.00     0.173 A 
ATOM     76  F   UNL A   1      44.713  26.988  35.425  1.00  0.00    -0.203 F 
ATOM     77  C   UNL A   1      46.833  27.554  36.272  1.00  0.00     0.198 A 
ATOM     78  C   UNL A   1      47.840  29.653  35.693  1.00  0.00     0.198 A 
ATOM     79  F   UNL A   1      46.685  31.181  34.331  1.00  0.00    -0.203 F 
ATOM     80  F   UNL A   1      46.863  26.401  36.955  1.00  0.00    -0.200 F 
ATOM     81  C   UNL A   1      47.891  28.443  36.369  1.00  0.00     0.200 A 
ATOM     82  F   UNL A   1      48.869  30.507  35.771  1.00  0.00    -0.200 F 
ATOM     83  F   UNL A   1      48.955  28.141  37.126  1.00  0.00    -0.200 F 
ENDBRANCH  59  73
BRANCH  60  84
ATOM     84  C   UNL A   1      37.534  30.936  29.275  1.00  0.00     0.064 A 
ATOM     85  C   UNL A   1      36.673  29.864  29.006  1.00  0.00     0.173 A 
ATOM     86  C   UNL A   1      37.173  32.200  28.787  1.00  0.00     0.173 A 
ATOM     87  F   UNL A   1      36.984  28.631  29.434  1.00  0.00    -0.203 F 
ATOM     88  C   UNL A   1      35.500  30.049  28.276  1.00  0.00     0.198 A 
ATOM     89  C   UNL A   1      35.988  32.390  28.082  1.00  0.00     0.198 A 
ATOM     90  F   UNL A   1      37.961  33.262  29.025  1.00  0.00    -0.203 F 
ATOM     91  F   UNL A   1      34.709  29.002  28.007  1.00  0.00    -0.200 F 
ATOM     92  C   UNL A   1      35.154  31.313  27.823  1.00  0.00     0.200 A 
ATOM     93  F   UNL A   1      35.647  33.616  27.664  1.00  0.00    -0.200 F 
ATOM     94  F   UNL A   1      34.017  31.493  27.137  1.00  0.00    -0.200 F 
ENDBRANCH  60  84
BRANCH  72  95
ATOM     95  C   UNL A   1      39.183  32.137  35.966  1.00  0.00     0.064 A 
ATOM     96  C   UNL A   1      38.332  31.404  36.803  1.00  0.00     0.173 A 
ATOM     97  C   UNL A   1      39.396  33.492  36.270  1.00  0.00     0.173 A 
ATOM     98  F   UNL A   1      38.083  30.110  36.548  1.00  0.00    -0.203 F 
ATOM     99  C   UNL A   1      37.710  32.005  37.896  1.00  0.00     0.198 A 
ATOM    100  C   UNL A   1      38.800  34.080  37.381  1.00  0.00     0.198 A 
ATOM    101  F   UNL A   1      40.206  34.237  35.505  1.00  0.00    -0.203 F 
ATOM    102  F   UNL A   1      36.873  31.294  38.663  1.00  0.00    -0.200 F 
ATOM    103  C   UNL A   1      37.955  33.338  38.190  1.00  0.00     0.200 A 
ATOM    104  F   UNL A   1      39.053  35.364  37.674  1.00  0.00    -0.200 F 
ATOM    105  F   UNL A   1      37.373  33.909  39.255  1.00  0.00    -0.200 F 
ENDBRANCH  72  95
ENDBRANCH  46  47
ENDBRANCH  38  41
ENDBRANCH  36  37
ENDBRANCH  35  36
ENDBRANCH  34  35
ENDBRANCH  33  34
ENDBRANCH   3  33
TORSDOF 18
ENDMDL
