MODEL 1
REMARK VINA RESULT:     -15.8      0.000      0.000
REMARK SMILES C[C@]12C(=O)N(c3ccc(C(=O)NCCCCNC(=O)c4ccc(-c5c6nc(c(-c7c(F)c(F)c(F)c(F)c7F)c7ccc([nH]7)c(-c7c(F)c(F)c(F)c(F)c7F)c7nc(c(-c8c(F)c(F)c(F)c(F)c8F)c8ccc5[nH]8)C=C7)C=C6)cc4)cc3)C(=O)[C@H]1[C@H]1c3ccccc3[C@@H]2c2ccccc21
REMARK SMILES IDX 15 1 14 2 13 3 12 4 10 5 11 6 9 8 6 9 7 10 84 11 8 12 83 13
REMARK SMILES IDX 5 14 1 15 2 16 3 17 87 18 95 19 4 20 85 21 88 22 94 23 96 24
REMARK SMILES IDX 86 25 89 26 101 27 93 28 97 29 90 30 100 31 92 32 98 33
REMARK SMILES IDX 91 34 99 35 16 36 17 37 18 38 19 40 20 41 21 42 82 43 22 44
REMARK SMILES IDX 81 45 23 46 24 47 25 48 75 49 26 50 80 51 74 52 76 53 27 54
REMARK SMILES IDX 79 55 73 56 72 57 28 59 60 60 40 61 59 62 41 63 44 64 58 65
REMARK SMILES IDX 77 66 42 67 43 68 57 70 78 71 45 72 29 73 30 74 38 75 31 76
REMARK SMILES IDX 32 77 36 78 39 79 33 80 34 81 37 82 35 83 61 84 62 85 70 86
REMARK SMILES IDX 63 87 64 88 68 89 71 90 65 91 66 92 69 93 67 94 46 95 47 96
REMARK SMILES IDX 55 97 48 98 49 99 53 100 56 101 50 102 51 103 54 104 52 105
REMARK H PARENT 12 7 17 39 76 58 44 69
REMARK Flexibility Score: inf
ROOT
ATOM      1  C   UNL A   1      31.261  30.410  25.309  1.00  0.00     0.023 C 
ENDROOT
BRANCH   1   2
ATOM      2  C   UNL A   1      30.148  31.405  25.011  1.00  0.00     0.023 C 
BRANCH   2   3
ATOM      3  C   UNL A   1      29.601  31.370  23.591  1.00  0.00     0.116 C 
BRANCH   3   4
ATOM      4  N   UNL A   1      28.259  30.820  23.510  1.00  0.00    -0.352 N 
ATOM      5  C   UNL A   1      27.852  29.529  23.285  1.00  0.00     0.251 C 
ATOM      6  O   UNL A   1      26.658  29.282  23.146  1.00  0.00    -0.269 OA
ATOM      7  H   UNL A   1      27.531  31.472  23.636  1.00  0.00     0.163 HD
BRANCH   5   8
ATOM      8  C   UNL A   1      28.843  28.437  23.177  1.00  0.00     0.039 A 
ATOM      9  C   UNL A   1      30.786  26.392  22.914  1.00  0.00     0.052 A 
ATOM     10  C   UNL A   1      30.898  27.609  22.217  1.00  0.00     0.027 A 
ATOM     11  C   UNL A   1      29.665  26.230  23.743  1.00  0.00     0.027 A 
ATOM     12  C   UNL A   1      29.941  28.621  22.343  1.00  0.00     0.016 A 
ATOM     13  C   UNL A   1      28.685  27.222  23.841  1.00  0.00     0.016 A 
BRANCH   9  14
ATOM     14  N   UNL A   1      31.652  25.292  22.636  1.00  0.00    -0.250 N 
ATOM     15  C   UNL A   1      32.633  21.897  22.587  1.00  0.00     0.024 C 
ATOM     16  C   UNL A   1      32.681  23.284  23.241  1.00  0.00     0.071 C 
ATOM     17  C   UNL A   1      31.375  23.992  22.993  1.00  0.00     0.241 C 
ATOM     18  C   UNL A   1      33.739  24.201  22.566  1.00  0.00     0.107 C 
ATOM     19  C   UNL A   1      32.927  23.243  24.794  1.00  0.00     0.066 C 
ATOM     20  O   UNL A   1      30.294  23.440  23.129  1.00  0.00    -0.273 OA
ATOM     21  C   UNL A   1      32.925  25.391  22.109  1.00  0.00     0.238 C 
ATOM     22  C   UNL A   1      34.821  24.646  23.606  1.00  0.00     0.063 C 
ATOM     23  C   UNL A   1      33.037  24.691  25.307  1.00  0.00    -0.036 A 
ATOM     24  C   UNL A   1      34.317  22.636  24.951  1.00  0.00    -0.036 A 
ATOM     25  O   UNL A   1      33.401  26.267  21.398  1.00  0.00    -0.274 OA
ATOM     26  C   UNL A   1      34.075  25.436  24.684  1.00  0.00    -0.036 A 
ATOM     27  C   UNL A   1      35.334  23.374  24.285  1.00  0.00    -0.036 A 
ATOM     28  C   UNL A   1      32.192  25.304  26.221  1.00  0.00     0.005 A 
ATOM     29  C   UNL A   1      34.613  21.489  25.672  1.00  0.00     0.005 A 
ATOM     30  C   UNL A   1      34.274  26.778  24.982  1.00  0.00     0.004 A 
ATOM     31  C   UNL A   1      36.653  22.953  24.349  1.00  0.00     0.004 A 
ATOM     32  C   UNL A   1      32.388  26.659  26.510  1.00  0.00     0.000 A 
ATOM     33  C   UNL A   1      35.941  21.070  25.727  1.00  0.00     0.000 A 
ATOM     34  C   UNL A   1      33.422  27.387  25.901  1.00  0.00     0.000 A 
ATOM     35  C   UNL A   1      36.949  21.794  25.073  1.00  0.00     0.000 A 
ENDBRANCH   9  14
ENDBRANCH   5   8
ENDBRANCH   3   4
ENDBRANCH   2   3
ENDBRANCH   1   2
BRANCH   1  36
ATOM     36  C   UNL A   1      32.167  30.763  26.481  1.00  0.00     0.116 C 
BRANCH  36  37
ATOM     37  N   UNL A   1      32.054  32.146  26.929  1.00  0.00    -0.352 N 
ATOM     38  C   UNL A   1      32.966  32.930  27.597  1.00  0.00     0.251 C 
ATOM     39  H   UNL A   1      31.198  32.585  26.721  1.00  0.00     0.163 HD
ATOM     40  O   UNL A   1      32.672  34.071  27.938  1.00  0.00    -0.269 OA
BRANCH  38  41
ATOM     41  C   UNL A   1      34.284  32.368  27.958  1.00  0.00     0.039 A 
ATOM     42  C   UNL A   1      34.399  31.040  28.365  1.00  0.00     0.014 A 
ATOM     43  C   UNL A   1      35.401  33.207  27.967  1.00  0.00     0.014 A 
ATOM     44  C   UNL A   1      35.565  30.619  28.990  1.00  0.00     0.010 A 
ATOM     45  C   UNL A   1      36.608  32.748  28.501  1.00  0.00     0.010 A 
ATOM     46  C   UNL A   1      36.679  31.473  29.082  1.00  0.00    -0.014 A 
BRANCH  46  47
ATOM     47  C   UNL A   1      37.882  31.004  29.819  1.00  0.00     0.031 A 
ATOM     48  C   UNL A   1      38.087  31.356  31.270  1.00  0.00     0.074 A 
ATOM     49  C   UNL A   1      38.737  30.165  29.202  1.00  0.00     0.049 A 
ATOM     50  N   UNL A   1      39.029  30.956  32.089  1.00  0.00    -0.248 NA
ATOM     51  C   UNL A   1      37.116  32.274  31.887  1.00  0.00     0.031 C 
ATOM     52  C   UNL A   1      38.635  29.744  27.804  1.00  0.00     0.029 A 
ATOM     53  N   UNL A   1      39.825  29.478  29.677  1.00  0.00    -0.354 N 
ATOM     54  C   UNL A   1      38.773  31.581  33.302  1.00  0.00     0.074 A 
ATOM     55  C   UNL A   1      37.605  32.411  33.113  1.00  0.00     0.031 C 
ATOM     56  C   UNL A   1      39.563  28.809  27.558  1.00  0.00     0.029 A 
ATOM     57  C   UNL A   1      40.368  28.612  28.759  1.00  0.00     0.049 A 
ATOM     58  H   UNL A   1      40.182  29.595  30.588  1.00  0.00     0.167 HD
ATOM     59  C   UNL A   1      39.442  31.457  34.473  1.00  0.00     0.037 A 
ATOM     60  C   UNL A   1      41.397  27.751  28.872  1.00  0.00     0.037 A 
ATOM     61  C   UNL A   1      40.582  30.604  34.674  1.00  0.00     0.049 A 
ATOM     62  C   UNL A   1      42.137  27.660  30.175  1.00  0.00     0.074 A 
ATOM     63  C   UNL A   1      41.319  30.405  35.830  1.00  0.00     0.029 A 
ATOM     64  N   UNL A   1      41.145  29.797  33.697  1.00  0.00    -0.354 N 
ATOM     65  N   UNL A   1      41.883  28.260  31.312  1.00  0.00    -0.248 NA
ATOM     66  C   UNL A   1      43.317  26.786  30.207  1.00  0.00     0.031 C 
ATOM     67  C   UNL A   1      42.346  29.503  35.544  1.00  0.00     0.029 A 
ATOM     68  C   UNL A   1      42.228  29.110  34.221  1.00  0.00     0.049 A 
ATOM     69  H   UNL A   1      40.823  29.722  32.770  1.00  0.00     0.167 HD
ATOM     70  C   UNL A   1      42.861  27.831  32.195  1.00  0.00     0.074 A 
ATOM     71  C   UNL A   1      43.704  26.901  31.470  1.00  0.00     0.031 C 
ATOM     72  C   UNL A   1      43.049  28.183  33.489  1.00  0.00     0.037 A 
BRANCH  59  73
ATOM     73  C   UNL A   1      38.962  32.255  35.652  1.00  0.00     0.064 A 
ATOM     74  C   UNL A   1      38.194  31.666  36.667  1.00  0.00     0.173 A 
ATOM     75  C   UNL A   1      39.365  33.589  35.819  1.00  0.00     0.173 A 
ATOM     76  F   UNL A   1      37.778  30.397  36.549  1.00  0.00    -0.203 F 
ATOM     77  C   UNL A   1      37.845  32.386  37.806  1.00  0.00     0.198 A 
ATOM     78  C   UNL A   1      39.032  34.298  36.970  1.00  0.00     0.198 A 
ATOM     79  F   UNL A   1      40.108  34.193  34.879  1.00  0.00    -0.203 F 
ATOM     80  F   UNL A   1      37.098  31.809  38.758  1.00  0.00    -0.200 F 
ATOM     81  C   UNL A   1      38.273  33.696  37.962  1.00  0.00     0.200 A 
ATOM     82  F   UNL A   1      39.458  35.559  37.125  1.00  0.00    -0.200 F 
ATOM     83  F   UNL A   1      37.956  34.380  39.071  1.00  0.00    -0.200 F 
ENDBRANCH  59  73
BRANCH  60  84
ATOM     84  C   UNL A   1      41.774  26.898  27.716  1.00  0.00     0.064 A 
ATOM     85  C   UNL A   1      42.770  27.306  26.817  1.00  0.00     0.173 A 
ATOM     86  C   UNL A   1      41.166  25.654  27.498  1.00  0.00     0.173 A 
ATOM     87  F   UNL A   1      43.367  28.497  26.974  1.00  0.00    -0.203 F 
ATOM     88  C   UNL A   1      43.138  26.502  25.740  1.00  0.00     0.198 A 
ATOM     89  C   UNL A   1      41.554  24.840  26.437  1.00  0.00     0.198 A 
ATOM     90  F   UNL A   1      40.209  25.219  28.331  1.00  0.00    -0.203 F 
ATOM     91  F   UNL A   1      44.070  26.929  24.878  1.00  0.00    -0.200 F 
ATOM     92  C   UNL A   1      42.535  25.267  25.556  1.00  0.00     0.200 A 
ATOM     93  F   UNL A   1      40.980  23.640  26.272  1.00  0.00    -0.200 F 
ATOM     94  F   UNL A   1      42.899  24.489  24.527  1.00  0.00    -0.200 F 
ENDBRANCH  60  84
BRANCH  72  95
ATOM     95  C   UNL A   1      44.201  27.560  34.216  1.00  0.00     0.064 A 
ATOM     96  C   UNL A   1      45.443  28.206  34.297  1.00  0.00     0.173 A 
ATOM     97  C   UNL A   1      44.037  26.350  34.906  1.00  0.00     0.173 A 
ATOM     98  F   UNL A   1      45.648  29.358  33.643  1.00  0.00    -0.203 F 
ATOM     99  C   UNL A   1      46.484  27.656  35.040  1.00  0.00     0.198 A 
ATOM    100  C   UNL A   1      45.074  25.816  35.666  1.00  0.00     0.198 A 
ATOM    101  F   UNL A   1      42.864  25.701  34.863  1.00  0.00    -0.203 F 
ATOM    102  F   UNL A   1      47.671  28.277  35.086  1.00  0.00    -0.200 F 
ATOM    103  C   UNL A   1      46.296  26.468  35.731  1.00  0.00     0.200 A 
ATOM    104  F   UNL A   1      44.887  24.674  36.343  1.00  0.00    -0.200 F 
ATOM    105  F   UNL A   1      47.294  25.950  36.460  1.00  0.00    -0.200 F 
ENDBRANCH  72  95
ENDBRANCH  46  47
ENDBRANCH  38  41
ENDBRANCH  36  37
ENDBRANCH   1  36
TORSDOF 12
ENDMDL
MODEL 2
REMARK VINA RESULT:     -15.6      1.195      2.131
REMARK SMILES C[C@]12C(=O)N(c3ccc(C(=O)NCCCCNC(=O)c4ccc(-c5c6nc(c(-c7c(F)c(F)c(F)c(F)c7F)c7ccc([nH]7)c(-c7c(F)c(F)c(F)c(F)c7F)c7nc(c(-c8c(F)c(F)c(F)c(F)c8F)c8ccc5[nH]8)C=C7)C=C6)cc4)cc3)C(=O)[C@H]1[C@H]1c3ccccc3[C@@H]2c2ccccc21
REMARK SMILES IDX 15 1 14 2 13 3 12 4 10 5 11 6 9 8 6 9 7 10 84 11 8 12 83 13
REMARK SMILES IDX 5 14 1 15 2 16 3 17 87 18 95 19 4 20 85 21 88 22 94 23 96 24
REMARK SMILES IDX 86 25 89 26 101 27 93 28 97 29 90 30 100 31 92 32 98 33
REMARK SMILES IDX 91 34 99 35 16 36 17 37 18 38 19 40 20 41 21 42 82 43 22 44
REMARK SMILES IDX 81 45 23 46 24 47 25 48 75 49 26 50 80 51 74 52 76 53 27 54
REMARK SMILES IDX 79 55 73 56 72 57 28 59 60 60 40 61 59 62 41 63 44 64 58 65
REMARK SMILES IDX 77 66 42 67 43 68 57 70 78 71 45 72 29 73 30 74 38 75 31 76
REMARK SMILES IDX 32 77 36 78 39 79 33 80 34 81 37 82 35 83 61 84 62 85 70 86
REMARK SMILES IDX 63 87 64 88 68 89 71 90 65 91 66 92 69 93 67 94 46 95 47 96
REMARK SMILES IDX 55 97 48 98 49 99 53 100 56 101 50 102 51 103 54 104 52 105
REMARK H PARENT 12 7 17 39 76 58 44 69
REMARK Flexibility Score: inf
ROOT
ATOM      1  C   UNL A   1      31.650  28.954  25.160  1.00  0.00     0.023 C 
ENDROOT
BRANCH   1   2
ATOM      2  C   UNL A   1      30.805  29.808  24.223  1.00  0.00     0.023 C 
BRANCH   2   3
ATOM      3  C   UNL A   1      30.222  29.079  23.021  1.00  0.00     0.116 C 
BRANCH   3   4
ATOM      4  N   UNL A   1      28.824  28.723  23.192  1.00  0.00    -0.352 N 
ATOM      5  C   UNL A   1      28.264  27.537  23.592  1.00  0.00     0.251 C 
ATOM      6  O   UNL A   1      27.044  27.401  23.572  1.00  0.00    -0.269 OA
ATOM      7  H   UNL A   1      28.182  29.443  22.992  1.00  0.00     0.163 HD
BRANCH   5   8
ATOM      8  C   UNL A   1      29.119  26.408  24.016  1.00  0.00     0.039 A 
ATOM      9  C   UNL A   1      30.748  24.268  24.909  1.00  0.00     0.052 A 
ATOM     10  C   UNL A   1      30.173  25.183  25.810  1.00  0.00     0.027 A 
ATOM     11  C   UNL A   1      30.486  24.464  23.544  1.00  0.00     0.027 A 
ATOM     12  C   UNL A   1      29.368  26.240  25.374  1.00  0.00     0.016 A 
ATOM     13  C   UNL A   1      29.716  25.543  23.100  1.00  0.00     0.016 A 
BRANCH   9  14
ATOM     14  N   UNL A   1      31.719  23.314  25.335  1.00  0.00    -0.250 N 
ATOM     15  C   UNL A   1      34.029  21.850  27.575  1.00  0.00     0.024 C 
ATOM     16  C   UNL A   1      33.738  22.762  26.376  1.00  0.00     0.071 C 
ATOM     17  C   UNL A   1      32.373  23.377  26.545  1.00  0.00     0.241 C 
ATOM     18  C   UNL A   1      33.623  21.954  25.053  1.00  0.00     0.107 C 
ATOM     19  C   UNL A   1      34.779  23.927  26.198  1.00  0.00     0.066 C 
ATOM     20  O   UNL A   1      31.994  23.850  27.605  1.00  0.00    -0.273 OA
ATOM     21  C   UNL A   1      32.236  22.296  24.557  1.00  0.00     0.238 C 
ATOM     22  C   UNL A   1      34.703  22.429  24.026  1.00  0.00     0.063 C 
ATOM     23  C   UNL A   1      34.421  24.709  24.921  1.00  0.00    -0.036 A 
ATOM     24  C   UNL A   1      36.100  23.224  25.903  1.00  0.00    -0.036 A 
ATOM     25  O   UNL A   1      31.730  21.723  23.599  1.00  0.00    -0.274 OA
ATOM     26  C   UNL A   1      34.406  23.905  23.749  1.00  0.00    -0.036 A 
ATOM     27  C   UNL A   1      36.051  22.392  24.750  1.00  0.00    -0.036 A 
ATOM     28  C   UNL A   1      34.054  26.045  24.854  1.00  0.00     0.005 A 
ATOM     29  C   UNL A   1      37.263  23.360  26.645  1.00  0.00     0.005 A 
ATOM     30  C   UNL A   1      34.042  24.435  22.518  1.00  0.00     0.004 A 
ATOM     31  C   UNL A   1      37.181  21.698  24.345  1.00  0.00     0.004 A 
ATOM     32  C   UNL A   1      33.676  26.574  23.614  1.00  0.00     0.000 A 
ATOM     33  C   UNL A   1      38.393  22.655  26.235  1.00  0.00     0.000 A 
ATOM     34  C   UNL A   1      33.675  25.779  22.458  1.00  0.00     0.000 A 
ATOM     35  C   UNL A   1      38.352  21.833  25.098  1.00  0.00     0.000 A 
ENDBRANCH   9  14
ENDBRANCH   5   8
ENDBRANCH   3   4
ENDBRANCH   2   3
ENDBRANCH   1   2
BRANCH   1  36
ATOM     36  C   UNL A   1      32.807  29.670  25.843  1.00  0.00     0.116 C 
BRANCH  36  37
ATOM     37  N   UNL A   1      32.447  30.946  26.449  1.00  0.00    -0.352 N 
ATOM     38  C   UNL A   1      33.181  31.762  27.280  1.00  0.00     0.251 C 
ATOM     39  H   UNL A   1      31.545  31.273  26.231  1.00  0.00     0.163 HD
ATOM     40  O   UNL A   1      32.687  32.788  27.737  1.00  0.00    -0.269 OA
BRANCH  38  41
ATOM     41  C   UNL A   1      34.548  31.363  27.671  1.00  0.00     0.039 A 
ATOM     42  C   UNL A   1      34.836  30.035  27.984  1.00  0.00     0.014 A 
ATOM     43  C   UNL A   1      35.531  32.347  27.805  1.00  0.00     0.014 A 
ATOM     44  C   UNL A   1      36.022  29.733  28.639  1.00  0.00     0.010 A 
ATOM     45  C   UNL A   1      36.767  32.020  28.368  1.00  0.00     0.010 A 
ATOM     46  C   UNL A   1      36.996  30.724  28.856  1.00  0.00    -0.014 A 
BRANCH  46  47
ATOM     47  C   UNL A   1      38.220  30.371  29.622  1.00  0.00     0.031 A 
ATOM     48  C   UNL A   1      38.396  30.816  31.051  1.00  0.00     0.074 A 
ATOM     49  C   UNL A   1      39.127  29.551  29.055  1.00  0.00     0.049 A 
ATOM     50  N   UNL A   1      39.355  30.520  31.893  1.00  0.00    -0.248 NA
ATOM     51  C   UNL A   1      37.368  31.708  31.612  1.00  0.00     0.031 C 
ATOM     52  C   UNL A   1      39.059  29.046  27.683  1.00  0.00     0.029 A 
ATOM     53  N   UNL A   1      40.251  28.958  29.572  1.00  0.00    -0.354 N 
ATOM     54  C   UNL A   1      39.055  31.196  33.069  1.00  0.00     0.074 A 
ATOM     55  C   UNL A   1      37.840  31.943  32.829  1.00  0.00     0.031 C 
ATOM     56  C   UNL A   1      40.042  28.155  27.493  1.00  0.00     0.029 A 
ATOM     57  C   UNL A   1      40.850  28.075  28.706  1.00  0.00     0.049 A 
ATOM     58  H   UNL A   1      40.595  29.147  30.475  1.00  0.00     0.167 HD
ATOM     59  C   UNL A   1      39.722  31.180  34.247  1.00  0.00     0.037 A 
ATOM     60  C   UNL A   1      41.928  27.285  28.870  1.00  0.00     0.037 A 
ATOM     61  C   UNL A   1      40.911  30.408  34.498  1.00  0.00     0.049 A 
ATOM     62  C   UNL A   1      42.664  27.312  30.179  1.00  0.00     0.074 A 
ATOM     63  C   UNL A   1      41.651  30.320  35.665  1.00  0.00     0.029 A 
ATOM     64  N   UNL A   1      41.527  29.582  33.571  1.00  0.00    -0.354 N 
ATOM     65  N   UNL A   1      42.368  27.960  31.278  1.00  0.00    -0.248 NA
ATOM     66  C   UNL A   1      43.894  26.513  30.263  1.00  0.00     0.031 C 
ATOM     67  C   UNL A   1      42.732  29.466  35.434  1.00  0.00     0.029 A 
ATOM     68  C   UNL A   1      42.645  28.992  34.136  1.00  0.00     0.049 A 
ATOM     69  H   UNL A   1      41.215  29.436  32.648  1.00  0.00     0.167 HD
ATOM     70  C   UNL A   1      43.365  27.640  32.187  1.00  0.00     0.074 A 
ATOM     71  C   UNL A   1      44.265  26.723  31.519  1.00  0.00     0.031 C 
ATOM     72  C   UNL A   1      43.524  28.076  33.460  1.00  0.00     0.037 A 
BRANCH  59  73
ATOM     73  C   UNL A   1      39.190  32.013  35.376  1.00  0.00     0.064 A 
ATOM     74  C   UNL A   1      38.397  31.450  36.387  1.00  0.00     0.173 A 
ATOM     75  C   UNL A   1      39.564  33.359  35.505  1.00  0.00     0.173 A 
ATOM     76  F   UNL A   1      38.007  30.170  36.304  1.00  0.00    -0.203 F 
ATOM     77  C   UNL A   1      37.997  32.206  37.485  1.00  0.00     0.198 A 
ATOM     78  C   UNL A   1      39.180  34.106  36.616  1.00  0.00     0.198 A 
ATOM     79  F   UNL A   1      40.329  33.940  34.569  1.00  0.00    -0.203 F 
ATOM     80  F   UNL A   1      37.227  31.652  38.433  1.00  0.00    -0.200 F 
ATOM     81  C   UNL A   1      38.397  33.529  37.605  1.00  0.00     0.200 A 
ATOM     82  F   UNL A   1      39.580  35.379  36.737  1.00  0.00    -0.200 F 
ATOM     83  F   UNL A   1      38.031  34.248  38.675  1.00  0.00    -0.200 F 
ENDBRANCH  59  73
BRANCH  60  84
ATOM     84  C   UNL A   1      42.361  26.392  27.766  1.00  0.00     0.064 A 
ATOM     85  C   UNL A   1      41.788  25.123  27.602  1.00  0.00     0.173 A 
ATOM     86  C   UNL A   1      43.335  26.793  26.842  1.00  0.00     0.173 A 
ATOM     87  F   UNL A   1      40.865  24.687  28.473  1.00  0.00    -0.203 F 
ATOM     88  C   UNL A   1      42.179  24.287  26.559  1.00  0.00     0.198 A 
ATOM     89  C   UNL A   1      43.706  25.968  25.783  1.00  0.00     0.198 A 
ATOM     90  F   UNL A   1      43.911  27.999  26.954  1.00  0.00    -0.203 F 
ATOM     91  F   UNL A   1      41.639  23.066  26.443  1.00  0.00    -0.200 F 
ATOM     92  C   UNL A   1      43.131  24.714  25.645  1.00  0.00     0.200 A 
ATOM     93  F   UNL A   1      44.615  26.390  24.894  1.00  0.00    -0.200 F 
ATOM     94  F   UNL A   1      43.498  23.913  24.635  1.00  0.00    -0.200 F 
ENDBRANCH  60  84
BRANCH  72  95
ATOM     95  C   UNL A   1      44.707  27.565  34.224  1.00  0.00     0.064 A 
ATOM     96  C   UNL A   1      45.910  28.284  34.265  1.00  0.00     0.173 A 
ATOM     97  C   UNL A   1      44.609  26.392  34.987  1.00  0.00     0.173 A 
ATOM     98  F   UNL A   1      46.052  29.403  33.542  1.00  0.00    -0.203 F 
ATOM     99  C   UNL A   1      46.978  27.841  35.041  1.00  0.00     0.198 A 
ATOM    100  C   UNL A   1      45.671  25.965  35.778  1.00  0.00     0.198 A 
ATOM    101  F   UNL A   1      43.474  25.677  34.984  1.00  0.00    -0.203 F 
ATOM    102  F   UNL A   1      48.127  28.529  35.049  1.00  0.00    -0.200 F 
ATOM    103  C   UNL A   1      46.854  26.689  35.803  1.00  0.00     0.200 A 
ATOM    104  F   UNL A   1      45.546  24.859  36.525  1.00  0.00    -0.200 F 
ATOM    105  F   UNL A   1      47.877  26.274  36.563  1.00  0.00    -0.200 F 
ENDBRANCH  72  95
ENDBRANCH  46  47
ENDBRANCH  38  41
ENDBRANCH  36  37
ENDBRANCH   1  36
TORSDOF 12
ENDMDL
MODEL 3
REMARK VINA RESULT:     -15.3      4.208      9.963
REMARK SMILES C[C@]12C(=O)N(c3ccc(C(=O)NCCCCNC(=O)c4ccc(-c5c6nc(c(-c7c(F)c(F)c(F)c(F)c7F)c7ccc([nH]7)c(-c7c(F)c(F)c(F)c(F)c7F)c7nc(c(-c8c(F)c(F)c(F)c(F)c8F)c8ccc5[nH]8)C=C7)C=C6)cc4)cc3)C(=O)[C@H]1[C@H]1c3ccccc3[C@@H]2c2ccccc21
REMARK SMILES IDX 15 1 14 2 13 3 12 4 10 5 11 6 9 8 6 9 7 10 84 11 8 12 83 13
REMARK SMILES IDX 5 14 1 15 2 16 3 17 87 18 95 19 4 20 85 21 88 22 94 23 96 24
REMARK SMILES IDX 86 25 89 26 101 27 93 28 97 29 90 30 100 31 92 32 98 33
REMARK SMILES IDX 91 34 99 35 16 36 17 37 18 38 19 40 20 41 21 42 82 43 22 44
REMARK SMILES IDX 81 45 23 46 24 47 25 48 75 49 26 50 80 51 74 52 76 53 27 54
REMARK SMILES IDX 79 55 73 56 72 57 28 59 60 60 40 61 59 62 41 63 44 64 58 65
REMARK SMILES IDX 77 66 42 67 43 68 57 70 78 71 45 72 29 73 30 74 38 75 31 76
REMARK SMILES IDX 32 77 36 78 39 79 33 80 34 81 37 82 35 83 61 84 62 85 70 86
REMARK SMILES IDX 63 87 64 88 68 89 71 90 65 91 66 92 69 93 67 94 46 95 47 96
REMARK SMILES IDX 55 97 48 98 49 99 53 100 56 101 50 102 51 103 54 104 52 105
REMARK H PARENT 12 7 17 39 76 58 44 69
REMARK Flexibility Score: inf
ROOT
ATOM      1  C   UNL A   1      36.065  20.553  25.014  1.00  0.00     0.023 C 
ENDROOT
BRANCH   1   2
ATOM      2  C   UNL A   1      36.148  19.087  24.611  1.00  0.00     0.023 C 
BRANCH   2   3
ATOM      3  C   UNL A   1      34.942  18.236  24.981  1.00  0.00     0.116 C 
BRANCH   3   4
ATOM      4  N   UNL A   1      34.186  17.783  23.826  1.00  0.00    -0.352 N 
ATOM      5  C   UNL A   1      33.114  18.363  23.198  1.00  0.00     0.251 C 
ATOM      6  O   UNL A   1      32.542  17.763  22.292  1.00  0.00    -0.269 OA
ATOM      7  H   UNL A   1      34.491  16.931  23.436  1.00  0.00     0.163 HD
BRANCH   5   8
ATOM      8  C   UNL A   1      32.620  19.689  23.624  1.00  0.00     0.039 A 
ATOM      9  C   UNL A   1      31.669  22.203  24.519  1.00  0.00     0.052 A 
ATOM     10  C   UNL A   1      31.867  21.131  25.408  1.00  0.00     0.027 A 
ATOM     11  C   UNL A   1      31.955  21.973  23.165  1.00  0.00     0.027 A 
ATOM     12  C   UNL A   1      32.336  19.888  24.971  1.00  0.00     0.016 A 
ATOM     13  C   UNL A   1      32.386  20.721  22.716  1.00  0.00     0.016 A 
BRANCH   9  14
ATOM     14  N   UNL A   1      31.010  23.400  24.931  1.00  0.00    -0.250 N 
ATOM     15  C   UNL A   1      29.225  26.416  24.473  1.00  0.00     0.024 C 
ATOM     16  C   UNL A   1      30.552  25.679  24.696  1.00  0.00     0.071 C 
ATOM     17  C   UNL A   1      30.473  24.317  24.057  1.00  0.00     0.241 C 
ATOM     18  C   UNL A   1      30.794  25.373  26.201  1.00  0.00     0.107 C 
ATOM     19  C   UNL A   1      31.800  26.427  24.098  1.00  0.00     0.066 C 
ATOM     20  O   UNL A   1      30.015  24.144  22.938  1.00  0.00    -0.273 OA
ATOM     21  C   UNL A   1      30.942  23.869  26.229  1.00  0.00     0.238 C 
ATOM     22  C   UNL A   1      32.111  26.061  26.693  1.00  0.00     0.063 C 
ATOM     23  C   UNL A   1      33.066  25.628  24.463  1.00  0.00    -0.036 A 
ATOM     24  C   UNL A   1      31.885  27.730  24.886  1.00  0.00    -0.036 A 
ATOM     25  O   UNL A   1      31.000  23.242  27.281  1.00  0.00    -0.274 OA
ATOM     26  C   UNL A   1      33.244  25.455  25.862  1.00  0.00    -0.036 A 
ATOM     27  C   UNL A   1      32.022  27.534  26.288  1.00  0.00    -0.036 A 
ATOM     28  C   UNL A   1      33.945  25.033  23.569  1.00  0.00     0.005 A 
ATOM     29  C   UNL A   1      31.852  29.002  24.336  1.00  0.00     0.005 A 
ATOM     30  C   UNL A   1      34.300  24.706  26.364  1.00  0.00     0.004 A 
ATOM     31  C   UNL A   1      32.126  28.626  27.136  1.00  0.00     0.004 A 
ATOM     32  C   UNL A   1      35.001  24.269  24.078  1.00  0.00     0.000 A 
ATOM     33  C   UNL A   1      31.953  30.094  25.194  1.00  0.00     0.000 A 
ATOM     34  C   UNL A   1      35.179  24.111  25.462  1.00  0.00     0.000 A 
ATOM     35  C   UNL A   1      32.088  29.908  26.579  1.00  0.00     0.000 A 
ENDBRANCH   9  14
ENDBRANCH   5   8
ENDBRANCH   3   4
ENDBRANCH   2   3
ENDBRANCH   1   2
BRANCH   1  36
ATOM     36  C   UNL A   1      37.388  21.214  25.379  1.00  0.00     0.116 C 
BRANCH  36  37
ATOM     37  N   UNL A   1      38.502  20.285  25.518  1.00  0.00    -0.352 N 
ATOM     38  C   UNL A   1      39.734  20.471  26.103  1.00  0.00     0.251 C 
ATOM     39  H   UNL A   1      38.351  19.389  25.137  1.00  0.00     0.163 HD
ATOM     40  O   UNL A   1      40.573  19.576  26.081  1.00  0.00    -0.269 OA
BRANCH  38  41
ATOM     41  C   UNL A   1      40.064  21.779  26.704  1.00  0.00     0.039 A 
ATOM     42  C   UNL A   1      39.588  22.959  26.136  1.00  0.00     0.014 A 
ATOM     43  C   UNL A   1      40.928  21.823  27.801  1.00  0.00     0.014 A 
ATOM     44  C   UNL A   1      40.150  24.171  26.515  1.00  0.00     0.010 A 
ATOM     45  C   UNL A   1      41.413  23.054  28.252  1.00  0.00     0.010 A 
ATOM     46  C   UNL A   1      41.082  24.233  27.567  1.00  0.00    -0.014 A 
BRANCH  46  47
ATOM     47  C   UNL A   1      41.708  25.542  27.893  1.00  0.00     0.031 A 
ATOM     48  C   UNL A   1      43.066  25.908  27.350  1.00  0.00     0.074 A 
ATOM     49  C   UNL A   1      40.996  26.446  28.594  1.00  0.00     0.049 A 
ATOM     50  N   UNL A   1      43.718  27.039  27.459  1.00  0.00    -0.248 NA
ATOM     51  C   UNL A   1      43.790  24.876  26.590  1.00  0.00     0.031 C 
ATOM     52  C   UNL A   1      39.667  26.210  29.160  1.00  0.00     0.029 A 
ATOM     53  N   UNL A   1      41.262  27.755  28.906  1.00  0.00    -0.354 N 
ATOM     54  C   UNL A   1      44.925  26.851  26.798  1.00  0.00     0.074 A 
ATOM     55  C   UNL A   1      44.934  25.489  26.313  1.00  0.00     0.031 C 
ATOM     56  C   UNL A   1      39.199  27.356  29.673  1.00  0.00     0.029 A 
ATOM     57  C   UNL A   1      40.218  28.391  29.533  1.00  0.00     0.049 A 
ATOM     58  H   UNL A   1      42.120  28.196  28.701  1.00  0.00     0.167 HD
ATOM     59  C   UNL A   1      45.925  27.741  26.597  1.00  0.00     0.037 A 
ATOM     60  C   UNL A   1      40.092  29.666  29.945  1.00  0.00     0.037 A 
ATOM     61  C   UNL A   1      45.902  29.108  27.047  1.00  0.00     0.049 A 
ATOM     62  C   UNL A   1      41.232  30.621  29.735  1.00  0.00     0.074 A 
ATOM     63  C   UNL A   1      46.866  30.087  26.880  1.00  0.00     0.029 A 
ATOM     64  N   UNL A   1      44.854  29.692  27.742  1.00  0.00    -0.354 N 
ATOM     65  N   UNL A   1      42.367  30.425  29.111  1.00  0.00    -0.248 NA
ATOM     66  C   UNL A   1      41.081  31.967  30.302  1.00  0.00     0.031 C 
ATOM     67  C   UNL A   1      46.416  31.255  27.501  1.00  0.00     0.029 A 
ATOM     68  C   UNL A   1      45.156  31.014  28.023  1.00  0.00     0.049 A 
ATOM     69  H   UNL A   1      44.020  29.235  27.997  1.00  0.00     0.167 HD
ATOM     70  C   UNL A   1      43.061  31.622  29.199  1.00  0.00     0.074 A 
ATOM     71  C   UNL A   1      42.211  32.548  29.920  1.00  0.00     0.031 C 
ATOM     72  C   UNL A   1      44.296  31.923  28.733  1.00  0.00     0.037 A 
BRANCH  59  73
ATOM     73  C   UNL A   1      47.143  27.283  25.848  1.00  0.00     0.064 A 
ATOM     74  C   UNL A   1      47.296  27.540  24.478  1.00  0.00     0.173 A 
ATOM     75  C   UNL A   1      48.211  26.678  26.528  1.00  0.00     0.173 A 
ATOM     76  F   UNL A   1      46.300  28.109  23.783  1.00  0.00    -0.203 F 
ATOM     77  C   UNL A   1      48.474  27.206  23.817  1.00  0.00     0.198 A 
ATOM     78  C   UNL A   1      49.396  26.365  25.868  1.00  0.00     0.198 A 
ATOM     79  F   UNL A   1      48.115  26.419  27.842  1.00  0.00    -0.203 F 
ATOM     80  F   UNL A   1      48.594  27.447  22.503  1.00  0.00    -0.200 F 
ATOM     81  C   UNL A   1      49.526  26.629  24.512  1.00  0.00     0.200 A 
ATOM     82  F   UNL A   1      50.416  25.821  26.545  1.00  0.00    -0.200 F 
ATOM     83  F   UNL A   1      50.669  26.330  23.878  1.00  0.00    -0.200 F 
ENDBRANCH  59  73
BRANCH  60  84
ATOM     84  C   UNL A   1      38.829  30.111  30.585  1.00  0.00     0.064 A 
ATOM     85  C   UNL A   1      38.704  30.145  31.982  1.00  0.00     0.173 A 
ATOM     86  C   UNL A   1      37.731  30.531  29.821  1.00  0.00     0.173 A 
ATOM     87  F   UNL A   1      39.720  29.735  32.755  1.00  0.00    -0.203 F 
ATOM     88  C   UNL A   1      37.526  30.577  32.587  1.00  0.00     0.198 A 
ATOM     89  C   UNL A   1      36.565  30.988  30.427  1.00  0.00     0.198 A 
ATOM     90  F   UNL A   1      37.802  30.519  28.482  1.00  0.00    -0.203 F 
ATOM     91  F   UNL A   1      37.422  30.570  33.923  1.00  0.00    -0.200 F 
ATOM     92  C   UNL A   1      36.461  31.006  31.810  1.00  0.00     0.200 A 
ATOM     93  F   UNL A   1      35.543  31.417  29.673  1.00  0.00    -0.200 F 
ATOM     94  F   UNL A   1      35.333  31.433  32.394  1.00  0.00    -0.200 F 
ENDBRANCH  60  84
BRANCH  72  95
ATOM     95  C   UNL A   1      44.808  33.310  28.973  1.00  0.00     0.064 A 
ATOM     96  C   UNL A   1      45.603  33.607  30.089  1.00  0.00     0.173 A 
ATOM     97  C   UNL A   1      44.571  34.329  28.039  1.00  0.00     0.173 A 
ATOM     98  F   UNL A   1      45.845  32.667  31.014  1.00  0.00    -0.203 F 
ATOM     99  C   UNL A   1      46.139  34.880  30.264  1.00  0.00     0.198 A 
ATOM    100  C   UNL A   1      45.127  35.594  28.206  1.00  0.00     0.198 A 
ATOM    101  F   UNL A   1      43.822  34.088  26.952  1.00  0.00    -0.203 F 
ATOM    102  F   UNL A   1      46.878  35.150  31.348  1.00  0.00    -0.200 F 
ATOM    103  C   UNL A   1      45.909  35.868  29.318  1.00  0.00     0.200 A 
ATOM    104  F   UNL A   1      44.914  36.544  27.285  1.00  0.00    -0.200 F 
ATOM    105  F   UNL A   1      46.440  37.088  29.479  1.00  0.00    -0.200 F 
ENDBRANCH  72  95
ENDBRANCH  46  47
ENDBRANCH  38  41
ENDBRANCH  36  37
ENDBRANCH   1  36
TORSDOF 12
ENDMDL
