MODEL 1
REMARK VINA RESULT:     -13.2      0.000      0.000
REMARK SMILES CC[C@@H]1CCCN(S(=O)(=O)c2cc(C(=O)NCCCCNC(=O)c3ccc(-c4c5nc(c(-c6c(F)c(F)c(F)c(F)c6F)c6ccc([nH]6)c(-c6c(F)c(F)c(F)c(F)c6F)c6nc(c(-c7c(F)c(F)c(F)c(F)c7F)c7ccc4[nH]7)C=C6)C=C5)cc3)ccc2F)C1
REMARK SMILES IDX 18 1 17 2 16 3 14 4 15 5 13 7 11 8 12 9 89 10 88 11 90 12
REMARK SMILES IDX 87 13 8 14 9 15 10 16 7 17 3 18 4 19 91 20 5 21 6 22 2 23
REMARK SMILES IDX 1 24 19 25 20 26 21 27 22 28 23 30 24 31 25 32 86 33 26 34
REMARK SMILES IDX 85 35 27 36 28 37 29 38 79 39 30 40 84 41 78 42 80 43 31 44
REMARK SMILES IDX 83 45 77 46 76 47 32 49 64 50 44 51 63 52 45 53 48 54 62 55
REMARK SMILES IDX 81 56 46 57 47 58 61 60 82 61 49 62 33 63 34 64 42 65 35 66
REMARK SMILES IDX 36 67 40 68 43 69 37 70 38 71 41 72 39 73 65 74 66 75 74 76
REMARK SMILES IDX 67 77 68 78 72 79 75 80 69 81 70 82 73 83 71 84 50 85 51 86
REMARK SMILES IDX 59 87 52 88 53 89 57 90 60 91 54 92 55 93 58 94 56 95
REMARK H PARENT 16 6 21 29 80 48 48 59
REMARK Flexibility Score: inf
ROOT
ATOM      1  C   UNL A   1      31.770  30.420  26.813  1.00  0.00     0.023 C 
ENDROOT
BRANCH   1   2
ATOM      2  C   UNL A   1      32.037  29.729  25.472  1.00  0.00     0.116 C 
BRANCH   2   3
ATOM      3  N   UNL A   1      31.065  30.122  24.473  1.00  0.00    -0.352 N 
ATOM      4  C   UNL A   1      30.278  29.407  23.605  1.00  0.00     0.251 C 
ATOM      5  O   UNL A   1      29.472  30.049  22.931  1.00  0.00    -0.269 OA
ATOM      6  H   UNL A   1      30.943  31.096  24.402  1.00  0.00     0.163 HD
BRANCH   4   7
ATOM      7  C   UNL A   1      30.335  27.922  23.430  1.00  0.00     0.041 A 
ATOM      8  C   UNL A   1      31.672  26.002  22.716  1.00  0.00     0.119 A 
ATOM      9  C   UNL A   1      31.494  27.391  22.830  1.00  0.00     0.038 A 
ATOM     10  C   UNL A   1      30.702  25.141  23.207  1.00  0.00     0.143 A 
ATOM     11  C   UNL A   1      29.543  25.645  23.779  1.00  0.00     0.041 A 
ATOM     12  F   UNL A   1      30.840  23.811  23.142  1.00  0.00    -0.206 F 
ATOM     13  C   UNL A   1      29.372  27.026  23.910  1.00  0.00     0.017 A 
BRANCH   8  14
ATOM     14  S   UNL A   1      33.217  25.342  22.175  1.00  0.00     0.246 S 
ATOM     15  O   UNL A   1      34.129  26.451  21.958  1.00  0.00    -0.207 OA
ATOM     16  O   UNL A   1      32.940  24.421  21.096  1.00  0.00    -0.207 OA
BRANCH  14  17
ATOM     17  N   UNL A   1      33.838  24.400  23.489  1.00  0.00    -0.197 NA
ATOM     18  C   UNL A   1      35.310  22.442  24.055  1.00  0.00     0.004 C 
ATOM     19  C   UNL A   1      35.900  23.245  25.222  1.00  0.00     0.006 C 
ATOM     20  C   UNL A   1      34.839  23.407  22.960  1.00  0.00     0.106 C 
ATOM     21  C   UNL A   1      34.917  24.290  25.732  1.00  0.00     0.017 C 
ATOM     22  C   UNL A   1      34.424  25.196  24.607  1.00  0.00     0.102 C 
BRANCH  18  23
ATOM     23  C   UNL A   1      34.210  21.475  24.539  1.00  0.00     0.001 C 
ATOM     24  C   UNL A   1      34.735  20.092  24.901  1.00  0.00     0.004 C 
ENDBRANCH  18  23
ENDBRANCH  14  17
ENDBRANCH   8  14
ENDBRANCH   4   7
ENDBRANCH   2   3
ENDBRANCH   1   2
BRANCH   1  25
ATOM     25  C   UNL A   1      31.590  31.937  26.731  1.00  0.00     0.023 C 
BRANCH  25  26
ATOM     26  C   UNL A   1      32.734  32.766  27.308  1.00  0.00     0.116 C 
BRANCH  26  27
ATOM     27  N   UNL A   1      32.356  34.131  27.638  1.00  0.00    -0.352 N 
ATOM     28  C   UNL A   1      32.933  34.985  28.548  1.00  0.00     0.251 C 
ATOM     29  H   UNL A   1      31.583  34.491  27.146  1.00  0.00     0.163 HD
ATOM     30  O   UNL A   1      32.435  36.085  28.770  1.00  0.00    -0.269 OA
BRANCH  28  31
ATOM     31  C   UNL A   1      34.130  34.549  29.294  1.00  0.00     0.039 A 
ATOM     32  C   UNL A   1      33.962  34.021  30.577  1.00  0.00     0.014 A 
ATOM     33  C   UNL A   1      35.401  34.622  28.718  1.00  0.00     0.014 A 
ATOM     34  C   UNL A   1      35.061  33.486  31.250  1.00  0.00     0.010 A 
ATOM     35  C   UNL A   1      36.484  34.036  29.366  1.00  0.00     0.010 A 
ATOM     36  C   UNL A   1      36.321  33.448  30.629  1.00  0.00    -0.014 A 
BRANCH  36  37
ATOM     37  C   UNL A   1      37.467  32.755  31.268  1.00  0.00     0.031 A 
ATOM     38  C   UNL A   1      38.127  31.591  30.587  1.00  0.00     0.074 A 
ATOM     39  C   UNL A   1      37.864  33.136  32.498  1.00  0.00     0.049 A 
ATOM     40  N   UNL A   1      39.087  30.817  31.026  1.00  0.00    -0.248 NA
ATOM     41  C   UNL A   1      37.632  31.235  29.248  1.00  0.00     0.031 C 
ATOM     42  C   UNL A   1      37.267  34.220  33.280  1.00  0.00     0.029 A 
ATOM     43  N   UNL A   1      38.855  32.647  33.315  1.00  0.00    -0.354 N 
ATOM     44  C   UNL A   1      39.302  29.879  30.026  1.00  0.00     0.074 A 
ATOM     45  C   UNL A   1      38.348  30.152  28.973  1.00  0.00     0.031 C 
ATOM     46  C   UNL A   1      37.913  34.327  34.452  1.00  0.00     0.029 A 
ATOM     47  C   UNL A   1      38.945  33.296  34.522  1.00  0.00     0.049 A 
ATOM     48  H   UNL A   1      39.445  31.902  33.057  1.00  0.00     0.167 HD
ATOM     49  C   UNL A   1      40.229  28.895  29.984  1.00  0.00     0.037 A 
ATOM     50  C   UNL A   1      39.760  33.079  35.572  1.00  0.00     0.037 A 
ATOM     51  C   UNL A   1      41.201  28.649  31.016  1.00  0.00     0.049 A 
ATOM     52  C   UNL A   1      40.780  31.977  35.494  1.00  0.00     0.074 A 
ATOM     53  C   UNL A   1      42.227  27.720  31.026  1.00  0.00     0.029 A 
ATOM     54  N   UNL A   1      41.270  29.337  32.217  1.00  0.00    -0.354 N 
ATOM     55  N   UNL A   1      41.017  31.140  34.514  1.00  0.00    -0.248 NA
ATOM     56  C   UNL A   1      41.649  31.789  36.666  1.00  0.00     0.031 C 
ATOM     57  C   UNL A   1      42.893  27.817  32.250  1.00  0.00     0.029 A 
ATOM     58  C   UNL A   1      42.309  28.836  32.985  1.00  0.00     0.049 A 
ATOM     59  H   UNL A   1      40.671  30.071  32.484  1.00  0.00     0.167 HD
ATOM     60  C   UNL A   1      42.068  30.340  34.940  1.00  0.00     0.074 A 
ATOM     61  C   UNL A   1      42.438  30.803  36.261  1.00  0.00     0.031 C 
ATOM     62  C   UNL A   1      42.669  29.312  34.295  1.00  0.00     0.037 A 
BRANCH  49  63
ATOM     63  C   UNL A   1      40.268  28.010  28.774  1.00  0.00     0.064 A 
ATOM     64  C   UNL A   1      39.639  26.758  28.788  1.00  0.00     0.173 A 
ATOM     65  C   UNL A   1      41.024  28.357  27.644  1.00  0.00     0.173 A 
ATOM     66  F   UNL A   1      38.909  26.378  29.847  1.00  0.00    -0.203 F 
ATOM     67  C   UNL A   1      39.782  25.874  27.721  1.00  0.00     0.198 A 
ATOM     68  C   UNL A   1      41.146  27.480  26.571  1.00  0.00     0.198 A 
ATOM     69  F   UNL A   1      41.637  29.548  27.583  1.00  0.00    -0.203 F 
ATOM     70  F   UNL A   1      39.204  24.665  27.771  1.00  0.00    -0.200 F 
ATOM     71  C   UNL A   1      40.537  26.236  26.615  1.00  0.00     0.200 A 
ATOM     72  F   UNL A   1      41.862  27.837  25.495  1.00  0.00    -0.200 F 
ATOM     73  F   UNL A   1      40.678  25.382  25.592  1.00  0.00    -0.200 F 
ENDBRANCH  49  63
BRANCH  50  74
ATOM     74  C   UNL A   1      39.654  33.935  36.782  1.00  0.00     0.064 A 
ATOM     75  C   UNL A   1      38.867  33.556  37.879  1.00  0.00     0.173 A 
ATOM     76  C   UNL A   1      40.337  35.156  36.860  1.00  0.00     0.173 A 
ATOM     77  F   UNL A   1      38.190  32.398  37.852  1.00  0.00    -0.203 F 
ATOM     78  C   UNL A   1      38.759  34.372  39.004  1.00  0.00     0.198 A 
ATOM     79  C   UNL A   1      40.250  35.958  37.996  1.00  0.00     0.198 A 
ATOM     80  F   UNL A   1      41.118  35.553  35.844  1.00  0.00    -0.203 F 
ATOM     81  F   UNL A   1      37.980  33.998  40.027  1.00  0.00    -0.200 F 
ATOM     82  C   UNL A   1      39.457  35.569  39.063  1.00  0.00     0.200 A 
ATOM     83  F   UNL A   1      40.945  37.102  38.060  1.00  0.00    -0.200 F 
ATOM     84  F   UNL A   1      39.367  36.344  40.153  1.00  0.00    -0.200 F 
ENDBRANCH  50  74
BRANCH  62  85
ATOM     85  C   UNL A   1      43.800  28.618  34.993  1.00  0.00     0.064 A 
ATOM     86  C   UNL A   1      45.123  29.044  34.803  1.00  0.00     0.173 A 
ATOM     87  C   UNL A   1      43.581  27.479  35.779  1.00  0.00     0.173 A 
ATOM     88  F   UNL A   1      45.383  30.126  34.052  1.00  0.00    -0.203 F 
ATOM     89  C   UNL A   1      46.188  28.343  35.360  1.00  0.00     0.198 A 
ATOM     90  C   UNL A   1      44.646  26.794  36.356  1.00  0.00     0.198 A 
ATOM     91  F   UNL A   1      42.333  27.041  35.999  1.00  0.00    -0.203 F 
ATOM     92  F   UNL A   1      47.446  28.747  35.135  1.00  0.00    -0.200 F 
ATOM     93  C   UNL A   1      45.948  27.221  36.138  1.00  0.00     0.200 A 
ATOM     94  F   UNL A   1      44.413  25.722  37.126  1.00  0.00    -0.200 F 
ATOM     95  F   UNL A   1      46.974  26.549  36.678  1.00  0.00    -0.200 F 
ENDBRANCH  62  85
ENDBRANCH  36  37
ENDBRANCH  28  31
ENDBRANCH  26  27
ENDBRANCH  25  26
ENDBRANCH   1  25
TORSDOF 14
ENDMDL
MODEL 2
REMARK VINA RESULT:     -13.1      0.111      1.578
REMARK SMILES CC[C@@H]1CCCN(S(=O)(=O)c2cc(C(=O)NCCCCNC(=O)c3ccc(-c4c5nc(c(-c6c(F)c(F)c(F)c(F)c6F)c6ccc([nH]6)c(-c6c(F)c(F)c(F)c(F)c6F)c6nc(c(-c7c(F)c(F)c(F)c(F)c7F)c7ccc4[nH]7)C=C6)C=C5)cc3)ccc2F)C1
REMARK SMILES IDX 18 1 17 2 16 3 14 4 15 5 13 7 11 8 12 9 89 10 88 11 90 12
REMARK SMILES IDX 87 13 8 14 9 15 10 16 7 17 3 18 4 19 91 20 5 21 6 22 2 23
REMARK SMILES IDX 1 24 19 25 20 26 21 27 22 28 23 30 24 31 25 32 86 33 26 34
REMARK SMILES IDX 85 35 27 36 28 37 29 38 79 39 30 40 84 41 78 42 80 43 31 44
REMARK SMILES IDX 83 45 77 46 76 47 32 49 64 50 44 51 63 52 45 53 48 54 62 55
REMARK SMILES IDX 81 56 46 57 47 58 61 60 82 61 49 62 33 63 34 64 42 65 35 66
REMARK SMILES IDX 36 67 40 68 43 69 37 70 38 71 41 72 39 73 65 74 66 75 74 76
REMARK SMILES IDX 67 77 68 78 72 79 75 80 69 81 70 82 73 83 71 84 50 85 51 86
REMARK SMILES IDX 59 87 52 88 53 89 57 90 60 91 54 92 55 93 58 94 56 95
REMARK H PARENT 16 6 21 29 80 48 48 59
REMARK Flexibility Score: inf
ROOT
ATOM      1  C   UNL A   1      31.780  30.483  26.866  1.00  0.00     0.023 C 
ENDROOT
BRANCH   1   2
ATOM      2  C   UNL A   1      31.980  29.698  25.566  1.00  0.00     0.116 C 
BRANCH   2   3
ATOM      3  N   UNL A   1      31.034  30.108  24.550  1.00  0.00    -0.352 N 
ATOM      4  C   UNL A   1      30.268  29.409  23.651  1.00  0.00     0.251 C 
ATOM      5  O   UNL A   1      29.479  30.064  22.969  1.00  0.00    -0.269 OA
ATOM      6  H   UNL A   1      30.915  31.084  24.492  1.00  0.00     0.163 HD
BRANCH   4   7
ATOM      7  C   UNL A   1      30.327  27.927  23.453  1.00  0.00     0.041 A 
ATOM      8  C   UNL A   1      31.670  26.020  22.716  1.00  0.00     0.119 A 
ATOM      9  C   UNL A   1      31.490  27.407  22.850  1.00  0.00     0.038 A 
ATOM     10  C   UNL A   1      30.698  25.151  23.188  1.00  0.00     0.143 A 
ATOM     11  C   UNL A   1      29.536  25.644  23.762  1.00  0.00     0.041 A 
ATOM     12  F   UNL A   1      30.838  23.822  23.103  1.00  0.00    -0.206 F 
ATOM     13  C   UNL A   1      29.363  27.023  23.915  1.00  0.00     0.017 A 
BRANCH   8  14
ATOM     14  S   UNL A   1      33.218  25.371  22.171  1.00  0.00     0.246 S 
ATOM     15  O   UNL A   1      34.126  26.485  21.964  1.00  0.00    -0.207 OA
ATOM     16  O   UNL A   1      32.946  24.457  21.085  1.00  0.00    -0.207 OA
BRANCH  14  17
ATOM     17  N   UNL A   1      33.842  24.421  23.478  1.00  0.00    -0.197 NA
ATOM     18  C   UNL A   1      35.313  22.458  24.030  1.00  0.00     0.004 C 
ATOM     19  C   UNL A   1      35.907  23.255  25.199  1.00  0.00     0.006 C 
ATOM     20  C   UNL A   1      34.840  23.430  22.942  1.00  0.00     0.106 C 
ATOM     21  C   UNL A   1      34.927  24.298  25.718  1.00  0.00     0.017 C 
ATOM     22  C   UNL A   1      34.432  25.211  24.599  1.00  0.00     0.102 C 
BRANCH  18  23
ATOM     23  C   UNL A   1      34.213  21.491  24.512  1.00  0.00     0.001 C 
ATOM     24  C   UNL A   1      34.746  20.127  24.931  1.00  0.00     0.004 C 
ENDBRANCH  18  23
ENDBRANCH  14  17
ENDBRANCH   8  14
ENDBRANCH   4   7
ENDBRANCH   2   3
ENDBRANCH   1   2
BRANCH   1  25
ATOM     25  C   UNL A   1      31.658  31.998  26.692  1.00  0.00     0.023 C 
BRANCH  25  26
ATOM     26  C   UNL A   1      32.791  32.822  27.296  1.00  0.00     0.116 C 
BRANCH  26  27
ATOM     27  N   UNL A   1      32.402  34.179  27.646  1.00  0.00    -0.352 N 
ATOM     28  C   UNL A   1      32.964  35.021  28.576  1.00  0.00     0.251 C 
ATOM     29  H   UNL A   1      31.633  34.544  27.151  1.00  0.00     0.163 HD
ATOM     30  O   UNL A   1      32.459  36.113  28.811  1.00  0.00    -0.269 OA
BRANCH  28  31
ATOM     31  C   UNL A   1      34.155  34.577  29.328  1.00  0.00     0.039 A 
ATOM     32  C   UNL A   1      33.973  34.002  30.588  1.00  0.00     0.014 A 
ATOM     33  C   UNL A   1      35.435  34.690  28.779  1.00  0.00     0.014 A 
ATOM     34  C   UNL A   1      35.069  33.461  31.263  1.00  0.00     0.010 A 
ATOM     35  C   UNL A   1      36.516  34.099  29.425  1.00  0.00     0.010 A 
ATOM     36  C   UNL A   1      36.340  33.465  30.664  1.00  0.00    -0.014 A 
BRANCH  36  37
ATOM     37  C   UNL A   1      37.486  32.767  31.300  1.00  0.00     0.031 A 
ATOM     38  C   UNL A   1      38.144  31.606  30.613  1.00  0.00     0.074 A 
ATOM     39  C   UNL A   1      37.884  33.143  32.531  1.00  0.00     0.049 A 
ATOM     40  N   UNL A   1      39.104  30.828  31.048  1.00  0.00    -0.248 NA
ATOM     41  C   UNL A   1      37.647  31.255  29.273  1.00  0.00     0.031 C 
ATOM     42  C   UNL A   1      37.289  34.224  33.318  1.00  0.00     0.029 A 
ATOM     43  N   UNL A   1      38.875  32.650  33.345  1.00  0.00    -0.354 N 
ATOM     44  C   UNL A   1      39.316  29.895  30.044  1.00  0.00     0.074 A 
ATOM     45  C   UNL A   1      38.362  30.173  28.994  1.00  0.00     0.031 C 
ATOM     46  C   UNL A   1      37.935  34.326  34.490  1.00  0.00     0.029 A 
ATOM     47  C   UNL A   1      38.966  33.293  34.555  1.00  0.00     0.049 A 
ATOM     48  H   UNL A   1      39.464  31.905  33.084  1.00  0.00     0.167 HD
ATOM     49  C   UNL A   1      40.242  28.909  29.998  1.00  0.00     0.037 A 
ATOM     50  C   UNL A   1      39.782  33.071  35.603  1.00  0.00     0.037 A 
ATOM     51  C   UNL A   1      41.215  28.658  31.028  1.00  0.00     0.049 A 
ATOM     52  C   UNL A   1      40.801  31.968  35.520  1.00  0.00     0.074 A 
ATOM     53  C   UNL A   1      42.240  27.728  31.034  1.00  0.00     0.029 A 
ATOM     54  N   UNL A   1      41.286  29.342  32.232  1.00  0.00    -0.354 N 
ATOM     55  N   UNL A   1      41.036  31.135  34.536  1.00  0.00    -0.248 NA
ATOM     56  C   UNL A   1      41.671  31.775  36.690  1.00  0.00     0.031 C 
ATOM     57  C   UNL A   1      42.906  27.819  32.257  1.00  0.00     0.029 A 
ATOM     58  C   UNL A   1      42.324  28.836  32.998  1.00  0.00     0.049 A 
ATOM     59  H   UNL A   1      40.688  30.075  32.503  1.00  0.00     0.167 HD
ATOM     60  C   UNL A   1      42.087  30.332  34.959  1.00  0.00     0.074 A 
ATOM     61  C   UNL A   1      42.458  30.789  36.281  1.00  0.00     0.031 C 
ATOM     62  C   UNL A   1      42.686  29.306  34.309  1.00  0.00     0.037 A 
BRANCH  49  63
ATOM     63  C   UNL A   1      40.279  28.030  28.784  1.00  0.00     0.064 A 
ATOM     64  C   UNL A   1      39.635  26.784  28.788  1.00  0.00     0.173 A 
ATOM     65  C   UNL A   1      41.047  28.372  27.661  1.00  0.00     0.173 A 
ATOM     66  F   UNL A   1      38.894  26.409  29.841  1.00  0.00    -0.203 F 
ATOM     67  C   UNL A   1      39.775  25.904  27.718  1.00  0.00     0.198 A 
ATOM     68  C   UNL A   1      41.166  27.498  26.585  1.00  0.00     0.198 A 
ATOM     69  F   UNL A   1      41.675  29.556  27.609  1.00  0.00    -0.203 F 
ATOM     70  F   UNL A   1      39.182  24.702  27.759  1.00  0.00    -0.200 F 
ATOM     71  C   UNL A   1      40.542  26.261  26.619  1.00  0.00     0.200 A 
ATOM     72  F   UNL A   1      41.894  27.852  25.516  1.00  0.00    -0.200 F 
ATOM     73  F   UNL A   1      40.681  25.411  25.594  1.00  0.00    -0.200 F 
ENDBRANCH  49  63
BRANCH  50  74
ATOM     74  C   UNL A   1      39.678  33.923  36.816  1.00  0.00     0.064 A 
ATOM     75  C   UNL A   1      40.399  35.120  36.933  1.00  0.00     0.173 A 
ATOM     76  C   UNL A   1      38.856  33.549  37.888  1.00  0.00     0.173 A 
ATOM     77  F   UNL A   1      41.204  35.520  35.937  1.00  0.00    -0.203 F 
ATOM     78  C   UNL A   1      40.309  35.906  38.081  1.00  0.00     0.198 A 
ATOM     79  C   UNL A   1      38.746  34.349  39.024  1.00  0.00     0.198 A 
ATOM     80  F   UNL A   1      38.131  32.423  37.815  1.00  0.00    -0.203 F 
ATOM     81  F   UNL A   1      41.029  37.031  38.177  1.00  0.00    -0.200 F 
ATOM     82  C   UNL A   1      39.477  35.522  39.122  1.00  0.00     0.200 A 
ATOM     83  F   UNL A   1      37.921  33.988  40.017  1.00  0.00    -0.200 F 
ATOM     84  F   UNL A   1      39.377  36.288  40.217  1.00  0.00    -0.200 F 
ENDBRANCH  50  74
BRANCH  62  85
ATOM     85  C   UNL A   1      43.816  28.607  35.003  1.00  0.00     0.064 A 
ATOM     86  C   UNL A   1      43.566  27.512  35.844  1.00  0.00     0.173 A 
ATOM     87  C   UNL A   1      45.133  29.075  34.903  1.00  0.00     0.173 A 
ATOM     88  F   UNL A   1      42.319  27.033  35.978  1.00  0.00    -0.203 F 
ATOM     89  C   UNL A   1      44.592  26.923  36.575  1.00  0.00     0.198 A 
ATOM     90  C   UNL A   1      46.162  28.467  35.616  1.00  0.00     0.198 A 
ATOM     91  F   UNL A   1      45.422  30.111  34.102  1.00  0.00    -0.203 F 
ATOM     92  F   UNL A   1      44.325  25.901  37.401  1.00  0.00    -0.200 F 
ATOM     93  C   UNL A   1      45.890  27.399  36.459  1.00  0.00     0.200 A 
ATOM     94  F   UNL A   1      47.419  28.913  35.487  1.00  0.00    -0.200 F 
ATOM     95  F   UNL A   1      46.878  26.828  37.160  1.00  0.00    -0.200 F 
ENDBRANCH  62  85
ENDBRANCH  36  37
ENDBRANCH  28  31
ENDBRANCH  26  27
ENDBRANCH  25  26
ENDBRANCH   1  25
TORSDOF 14
ENDMDL
MODEL 3
REMARK VINA RESULT:     -13.1      3.507      8.382
REMARK SMILES CC[C@@H]1CCCN(S(=O)(=O)c2cc(C(=O)NCCCCNC(=O)c3ccc(-c4c5nc(c(-c6c(F)c(F)c(F)c(F)c6F)c6ccc([nH]6)c(-c6c(F)c(F)c(F)c(F)c6F)c6nc(c(-c7c(F)c(F)c(F)c(F)c7F)c7ccc4[nH]7)C=C6)C=C5)cc3)ccc2F)C1
REMARK SMILES IDX 18 1 17 2 16 3 14 4 15 5 13 7 11 8 12 9 89 10 88 11 90 12
REMARK SMILES IDX 87 13 8 14 9 15 10 16 7 17 3 18 4 19 91 20 5 21 6 22 2 23
REMARK SMILES IDX 1 24 19 25 20 26 21 27 22 28 23 30 24 31 25 32 86 33 26 34
REMARK SMILES IDX 85 35 27 36 28 37 29 38 79 39 30 40 84 41 78 42 80 43 31 44
REMARK SMILES IDX 83 45 77 46 76 47 32 49 64 50 44 51 63 52 45 53 48 54 62 55
REMARK SMILES IDX 81 56 46 57 47 58 61 60 82 61 49 62 33 63 34 64 42 65 35 66
REMARK SMILES IDX 36 67 40 68 43 69 37 70 38 71 41 72 39 73 65 74 66 75 74 76
REMARK SMILES IDX 67 77 68 78 72 79 75 80 69 81 70 82 73 83 71 84 50 85 51 86
REMARK SMILES IDX 59 87 52 88 53 89 57 90 60 91 54 92 55 93 58 94 56 95
REMARK H PARENT 16 6 21 29 80 48 48 59
REMARK Flexibility Score: inf
ROOT
ATOM      1  C   UNL A   1      33.227  29.321  24.733  1.00  0.00     0.023 C 
ENDROOT
BRANCH   1   2
ATOM      2  C   UNL A   1      33.380  29.036  23.236  1.00  0.00     0.116 C 
BRANCH   2   3
ATOM      3  N   UNL A   1      32.113  29.148  22.544  1.00  0.00    -0.352 N 
ATOM      4  C   UNL A   1      31.002  28.344  22.496  1.00  0.00     0.251 C 
ATOM      5  O   UNL A   1      30.032  28.777  21.872  1.00  0.00    -0.269 OA
ATOM      6  H   UNL A   1      32.031  29.965  22.000  1.00  0.00     0.163 HD
BRANCH   4   7
ATOM      7  C   UNL A   1      30.894  27.000  23.144  1.00  0.00     0.041 A 
ATOM      8  C   UNL A   1      31.713  24.696  23.208  1.00  0.00     0.119 A 
ATOM      9  C   UNL A   1      31.679  25.962  22.601  1.00  0.00     0.038 A 
ATOM     10  C   UNL A   1      30.973  24.463  24.358  1.00  0.00     0.143 A 
ATOM     11  C   UNL A   1      30.175  25.464  24.892  1.00  0.00     0.041 A 
ATOM     12  F   UNL A   1      30.993  23.279  24.983  1.00  0.00    -0.206 F 
ATOM     13  C   UNL A   1      30.155  26.731  24.302  1.00  0.00     0.017 A 
BRANCH   8  14
ATOM     14  S   UNL A   1      32.866  23.476  22.662  1.00  0.00     0.246 S 
ATOM     15  O   UNL A   1      33.505  23.970  21.455  1.00  0.00    -0.207 OA
ATOM     16  O   UNL A   1      32.175  22.207  22.639  1.00  0.00    -0.207 OA
BRANCH  14  17
ATOM     17  N   UNL A   1      34.081  23.362  23.891  1.00  0.00    -0.197 NA
ATOM     18  C   UNL A   1      36.369  22.449  24.394  1.00  0.00     0.004 C 
ATOM     19  C   UNL A   1      36.721  23.765  25.099  1.00  0.00     0.006 C 
ATOM     20  C   UNL A   1      35.313  22.716  23.314  1.00  0.00     0.106 C 
ATOM     21  C   UNL A   1      35.477  24.456  25.641  1.00  0.00     0.017 C 
ATOM     22  C   UNL A   1      34.423  24.654  24.554  1.00  0.00     0.102 C 
BRANCH  18  23
ATOM     23  C   UNL A   1      35.953  21.364  25.408  1.00  0.00     0.001 C 
ATOM     24  C   UNL A   1      36.155  19.945  24.894  1.00  0.00     0.004 C 
ENDBRANCH  18  23
ENDBRANCH  14  17
ENDBRANCH   8  14
ENDBRANCH   4   7
ENDBRANCH   2   3
ENDBRANCH   1   2
BRANCH   1  25
ATOM     25  C   UNL A   1      33.696  28.193  25.654  1.00  0.00     0.023 C 
BRANCH  25  26
ATOM     26  C   UNL A   1      33.522  28.450  27.148  1.00  0.00     0.116 C 
BRANCH  26  27
ATOM     27  N   UNL A   1      33.460  29.862  27.494  1.00  0.00    -0.352 N 
ATOM     28  C   UNL A   1      34.439  30.655  28.042  1.00  0.00     0.251 C 
ATOM     29  H   UNL A   1      32.602  30.308  27.311  1.00  0.00     0.163 HD
ATOM     30  O   UNL A   1      34.196  31.817  28.353  1.00  0.00    -0.269 OA
BRANCH  28  31
ATOM     31  C   UNL A   1      35.776  30.083  28.300  1.00  0.00     0.039 A 
ATOM     32  C   UNL A   1      36.742  30.160  27.292  1.00  0.00     0.014 A 
ATOM     33  C   UNL A   1      36.087  29.514  29.537  1.00  0.00     0.014 A 
ATOM     34  C   UNL A   1      38.046  29.742  27.556  1.00  0.00     0.010 A 
ATOM     35  C   UNL A   1      37.401  29.153  29.818  1.00  0.00     0.010 A 
ATOM     36  C   UNL A   1      38.395  29.278  28.836  1.00  0.00    -0.014 A 
BRANCH  36  37
ATOM     37  C   UNL A   1      39.806  28.967  29.178  1.00  0.00     0.031 A 
ATOM     38  C   UNL A   1      40.641  29.959  29.933  1.00  0.00     0.074 A 
ATOM     39  C   UNL A   1      40.350  27.814  28.741  1.00  0.00     0.049 A 
ATOM     40  N   UNL A   1      41.910  29.893  30.252  1.00  0.00    -0.248 NA
ATOM     41  C   UNL A   1      39.975  31.195  30.371  1.00  0.00     0.031 C 
ATOM     42  C   UNL A   1      39.651  26.795  27.955  1.00  0.00     0.029 A 
ATOM     43  N   UNL A   1      41.619  27.308  28.883  1.00  0.00    -0.354 N 
ATOM     44  C   UNL A   1      42.193  31.079  30.914  1.00  0.00     0.074 A 
ATOM     45  C   UNL A   1      40.980  31.866  30.919  1.00  0.00     0.031 C 
ATOM     46  C   UNL A   1      40.492  25.781  27.700  1.00  0.00     0.029 A 
ATOM     47  C   UNL A   1      41.800  26.092  28.271  1.00  0.00     0.049 A 
ATOM     48  H   UNL A   1      42.331  27.775  29.377  1.00  0.00     0.167 HD
ATOM     49  C   UNL A   1      43.358  31.463  31.486  1.00  0.00     0.037 A 
ATOM     50  C   UNL A   1      42.897  25.317  28.173  1.00  0.00     0.037 A 
ATOM     51  C   UNL A   1      44.553  30.662  31.512  1.00  0.00     0.049 A 
ATOM     52  C   UNL A   1      44.177  25.772  28.819  1.00  0.00     0.074 A 
ATOM     53  C   UNL A   1      45.759  30.938  32.133  1.00  0.00     0.029 A 
ATOM     54  N   UNL A   1      44.692  29.428  30.896  1.00  0.00    -0.354 N 
ATOM     55  N   UNL A   1      44.413  26.866  29.501  1.00  0.00    -0.248 NA
ATOM     56  C   UNL A   1      45.342  24.884  28.688  1.00  0.00     0.031 C 
ATOM     57  C   UNL A   1      46.642  29.892  31.858  1.00  0.00     0.029 A 
ATOM     58  C   UNL A   1      45.974  28.942  31.103  1.00  0.00     0.049 A 
ATOM     59  H   UNL A   1      43.987  28.968  30.386  1.00  0.00     0.167 HD
ATOM     60  C   UNL A   1      45.743  26.792  29.892  1.00  0.00     0.074 A 
ATOM     61  C   UNL A   1      46.259  25.537  29.389  1.00  0.00     0.031 C 
ATOM     62  C   UNL A   1      46.470  27.688  30.601  1.00  0.00     0.037 A 
BRANCH  49  63
ATOM     63  C   UNL A   1      43.409  32.801  32.160  1.00  0.00     0.064 A 
ATOM     64  C   UNL A   1      43.054  32.931  33.510  1.00  0.00     0.173 A 
ATOM     65  C   UNL A   1      43.701  33.968  31.439  1.00  0.00     0.173 A 
ATOM     66  F   UNL A   1      42.761  31.845  34.241  1.00  0.00    -0.203 F 
ATOM     67  C   UNL A   1      42.969  34.185  34.109  1.00  0.00     0.198 A 
ATOM     68  C   UNL A   1      43.636  35.218  32.047  1.00  0.00     0.198 A 
ATOM     69  F   UNL A   1      44.053  33.892  30.147  1.00  0.00    -0.203 F 
ATOM     70  F   UNL A   1      42.589  34.290  35.391  1.00  0.00    -0.200 F 
ATOM     71  C   UNL A   1      43.258  35.327  33.376  1.00  0.00     0.200 A 
ATOM     72  F   UNL A   1      43.932  36.319  31.343  1.00  0.00    -0.200 F 
ATOM     73  F   UNL A   1      43.170  36.533  33.952  1.00  0.00    -0.200 F 
ENDBRANCH  49  63
BRANCH  50  74
ATOM     74  C   UNL A   1      42.829  24.024  27.445  1.00  0.00     0.064 A 
ATOM     75  C   UNL A   1      42.479  22.834  28.100  1.00  0.00     0.173 A 
ATOM     76  C   UNL A   1      43.120  23.954  26.076  1.00  0.00     0.173 A 
ATOM     77  F   UNL A   1      42.195  22.847  29.411  1.00  0.00    -0.203 F 
ATOM     78  C   UNL A   1      42.432  21.622  27.414  1.00  0.00     0.198 A 
ATOM     79  C   UNL A   1      43.047  22.746  25.386  1.00  0.00     0.198 A 
ATOM     80  F   UNL A   1      43.441  25.068  25.402  1.00  0.00    -0.203 F 
ATOM     81  F   UNL A   1      42.120  20.496  28.069  1.00  0.00    -0.200 F 
ATOM     82  C   UNL A   1      42.710  21.580  26.056  1.00  0.00     0.200 A 
ATOM     83  F   UNL A   1      43.291  22.714  24.068  1.00  0.00    -0.200 F 
ATOM     84  F   UNL A   1      42.646  20.418  25.393  1.00  0.00    -0.200 F 
ENDBRANCH  50  74
BRANCH  62  85
ATOM     85  C   UNL A   1      47.901  27.348  30.893  1.00  0.00     0.064 A 
ATOM     86  C   UNL A   1      48.924  27.785  30.038  1.00  0.00     0.173 A 
ATOM     87  C   UNL A   1      48.248  26.519  31.968  1.00  0.00     0.173 A 
ATOM     88  F   UNL A   1      48.640  28.574  28.990  1.00  0.00    -0.203 F 
ATOM     89  C   UNL A   1      50.242  27.388  30.240  1.00  0.00     0.198 A 
ATOM     90  C   UNL A   1      49.572  26.145  32.182  1.00  0.00     0.198 A 
ATOM     91  F   UNL A   1      47.306  26.087  32.819  1.00  0.00    -0.203 F 
ATOM     92  F   UNL A   1      51.199  27.787  29.390  1.00  0.00    -0.200 F 
ATOM     93  C   UNL A   1      50.565  26.571  31.313  1.00  0.00     0.200 A 
ATOM     94  F   UNL A   1      49.886  25.373  33.231  1.00  0.00    -0.200 F 
ATOM     95  F   UNL A   1      51.835  26.193  31.508  1.00  0.00    -0.200 F 
ENDBRANCH  62  85
ENDBRANCH  36  37
ENDBRANCH  28  31
ENDBRANCH  26  27
ENDBRANCH  25  26
ENDBRANCH   1  25
TORSDOF 14
ENDMDL
