MODEL 1
REMARK VINA RESULT:     -13.2      0.000      0.000
REMARK SMILES CN(C)c1nccnc1N1CCC(Oc2ccc3ccccc3c2)(C(=O)NCCCCNC(=O)c2ccc(-c3c4nc(c(-c5c(F)c(F)c(F)c(F)c5F)c5ccc([nH]5)c(-c5c(F)c(F)c(F)c(F)c5F)c5nc(c(-c6c(F)c(F)c(F)c(F)c6F)c6ccc3[nH]6)C=C5)C=C4)cc2)CC1
REMARK SMILES IDX 29 1 28 2 27 3 25 4 26 5 13 7 10 8 11 9 99 10 12 11 98 12
REMARK SMILES IDX 9 13 4 14 5 15 6 16 8 17 7 18 2 19 1 20 3 21 14 22 15 23
REMARK SMILES IDX 16 24 24 25 17 26 23 27 18 28 22 29 19 30 21 31 20 32 30 33
REMARK SMILES IDX 31 34 32 35 33 36 34 38 35 39 36 40 97 41 37 42 96 43 38 44
REMARK SMILES IDX 39 45 40 46 90 47 41 48 95 49 89 50 91 51 42 52 94 53 88 54
REMARK SMILES IDX 87 55 43 57 75 58 55 59 74 60 56 61 59 62 73 63 92 64 57 65
REMARK SMILES IDX 58 66 72 68 93 69 60 70 44 71 45 72 53 73 46 74 47 75 51 76
REMARK SMILES IDX 54 77 48 78 49 79 52 80 50 81 76 82 77 83 85 84 78 85 79 86
REMARK SMILES IDX 83 87 86 88 80 89 81 90 84 91 82 92 61 93 62 94 70 95 63 96
REMARK SMILES IDX 64 97 68 98 71 99 65 100 66 101 69 102 67 103
REMARK H PARENT 27 6 32 37 91 56 59 67
REMARK Flexibility Score: inf
ROOT
ATOM      1  C   UNL A   1      34.219  30.834  27.448  1.00  0.00     0.023 C 
ENDROOT
BRANCH   1   2
ATOM      2  C   UNL A   1      33.671  29.509  26.922  1.00  0.00     0.116 C 
BRANCH   2   3
ATOM      3  N   UNL A   1      34.026  29.307  25.532  1.00  0.00    -0.353 N 
ATOM      4  C   UNL A   1      33.485  28.475  24.594  1.00  0.00     0.264 C 
ATOM      5  O   UNL A   1      33.949  28.587  23.454  1.00  0.00    -0.270 OA
ATOM      6  H   UNL A   1      34.779  29.856  25.214  1.00  0.00     0.163 HD
BRANCH   4   7
ATOM      7  C   UNL A   1      32.359  27.457  24.951  1.00  0.00     0.190 C 
ATOM      8  N   UNL A   1      33.724  24.964  24.582  1.00  0.00    -0.353 N 
ATOM      9  C   UNL A   1      33.995  25.727  25.776  1.00  0.00     0.123 C 
ATOM     10  C   UNL A   1      33.226  25.623  23.381  1.00  0.00     0.123 C 
ATOM     11  C   UNL A   1      32.775  26.554  26.125  1.00  0.00     0.080 C 
ATOM     12  C   UNL A   1      32.067  26.572  23.718  1.00  0.00     0.080 C 
BRANCH   8  13
ATOM     13  C   UNL A   1      33.572  23.590  24.683  1.00  0.00     0.171 A 
ATOM     14  C   UNL A   1      34.676  22.693  24.499  1.00  0.00     0.171 A 
ATOM     15  N   UNL A   1      34.472  21.349  24.473  1.00  0.00    -0.234 NA
ATOM     16  C   UNL A   1      33.208  20.924  24.682  1.00  0.00     0.134 A 
ATOM     17  N   UNL A   1      32.316  23.130  24.924  1.00  0.00    -0.234 NA
ATOM     18  C   UNL A   1      32.159  21.792  24.911  1.00  0.00     0.134 A 
BRANCH  14  19
ATOM     19  N   UNL A   1      36.003  23.152  24.406  1.00  0.00    -0.360 N 
ATOM     20  C   UNL A   1      36.659  22.953  23.128  1.00  0.00     0.145 C 
ATOM     21  C   UNL A   1      36.805  22.988  25.612  1.00  0.00     0.145 C 
ENDBRANCH  14  19
ENDBRANCH   8  13
BRANCH   7  22
ATOM     22  O   UNL A   1      31.255  28.365  25.212  1.00  0.00    -0.477 OA
BRANCH  22  23
ATOM     23  C   UNL A   1      30.606  28.970  24.179  1.00  0.00     0.121 A 
ATOM     24  C   UNL A   1      30.114  28.271  23.082  1.00  0.00     0.047 A 
ATOM     25  C   UNL A   1      30.277  30.316  24.340  1.00  0.00     0.055 A 
ATOM     26  C   UNL A   1      29.405  28.935  22.082  1.00  0.00     0.012 A 
ATOM     27  C   UNL A   1      29.520  30.991  23.366  1.00  0.00    -0.015 A 
ATOM     28  C   UNL A   1      29.105  30.295  22.208  1.00  0.00    -0.018 A 
ATOM     29  C   UNL A   1      29.154  32.339  23.518  1.00  0.00     0.009 A 
ATOM     30  C   UNL A   1      28.374  30.969  21.219  1.00  0.00     0.009 A 
ATOM     31  C   UNL A   1      28.409  32.990  22.533  1.00  0.00     0.001 A 
ATOM     32  C   UNL A   1      28.029  32.309  21.381  1.00  0.00     0.001 A 
ENDBRANCH  22  23
ENDBRANCH   7  22
ENDBRANCH   4   7
ENDBRANCH   2   3
ENDBRANCH   1   2
BRANCH   1  33
ATOM     33  C   UNL A   1      33.150  31.827  27.909  1.00  0.00     0.023 C 
BRANCH  33  34
ATOM     34  C   UNL A   1      32.873  32.977  26.947  1.00  0.00     0.116 C 
BRANCH  34  35
ATOM     35  N   UNL A   1      32.515  34.211  27.626  1.00  0.00    -0.352 N 
ATOM     36  C   UNL A   1      33.059  34.785  28.744  1.00  0.00     0.251 C 
ATOM     37  H   UNL A   1      31.768  34.710  27.221  1.00  0.00     0.163 HD
ATOM     38  O   UNL A   1      32.522  35.775  29.243  1.00  0.00    -0.269 OA
BRANCH  36  39
ATOM     39  C   UNL A   1      34.264  34.210  29.376  1.00  0.00     0.039 A 
ATOM     40  C   UNL A   1      34.101  33.412  30.512  1.00  0.00     0.014 A 
ATOM     41  C   UNL A   1      35.546  34.459  28.878  1.00  0.00     0.014 A 
ATOM     42  C   UNL A   1      35.213  32.821  31.111  1.00  0.00     0.010 A 
ATOM     43  C   UNL A   1      36.647  33.808  29.430  1.00  0.00     0.010 A 
ATOM     44  C   UNL A   1      36.493  32.986  30.555  1.00  0.00    -0.014 A 
BRANCH  44  45
ATOM     45  C   UNL A   1      37.663  32.286  31.144  1.00  0.00     0.031 A 
ATOM     46  C   UNL A   1      38.149  32.630  32.524  1.00  0.00     0.074 A 
ATOM     47  C   UNL A   1      38.305  31.353  30.415  1.00  0.00     0.049 A 
ATOM     48  N   UNL A   1      39.132  32.100  33.209  1.00  0.00    -0.248 NA
ATOM     49  C   UNL A   1      37.460  33.728  33.218  1.00  0.00     0.031 C 
ATOM     50  C   UNL A   1      37.970  30.979  29.040  1.00  0.00     0.029 A 
ATOM     51  N   UNL A   1      39.369  30.545  30.729  1.00  0.00    -0.354 N 
ATOM     52  C   UNL A   1      39.179  32.800  34.408  1.00  0.00     0.074 A 
ATOM     53  C   UNL A   1      38.168  33.832  34.334  1.00  0.00     0.031 C 
ATOM     54  C   UNL A   1      38.785  29.989  28.643  1.00  0.00     0.029 A 
ATOM     55  C   UNL A   1      39.718  29.679  29.721  1.00  0.00     0.049 A 
ATOM     56  H   UNL A   1      39.838  30.583  31.595  1.00  0.00     0.167 HD
ATOM     57  C   UNL A   1      39.974  32.583  35.483  1.00  0.00     0.037 A 
ATOM     58  C   UNL A   1      40.677  28.737  29.677  1.00  0.00     0.037 A 
ATOM     59  C   UNL A   1      40.969  31.544  35.559  1.00  0.00     0.049 A 
ATOM     60  C   UNL A   1      41.537  28.508  30.888  1.00  0.00     0.074 A 
ATOM     61  C   UNL A   1      41.785  31.204  36.626  1.00  0.00     0.029 A 
ATOM     62  N   UNL A   1      41.288  30.678  34.523  1.00  0.00    -0.354 N 
ATOM     63  N   UNL A   1      41.514  29.119  32.049  1.00  0.00    -0.248 NA
ATOM     64  C   UNL A   1      42.548  27.448  30.789  1.00  0.00     0.031 C 
ATOM     65  C   UNL A   1      42.630  30.167  36.218  1.00  0.00     0.029 A 
ATOM     66  C   UNL A   1      42.304  29.821  34.916  1.00  0.00     0.049 A 
ATOM     67  H   UNL A   1      40.856  30.673  33.638  1.00  0.00     0.167 HD
ATOM     68  C   UNL A   1      42.488  28.504  32.823  1.00  0.00     0.074 A 
ATOM     69  C   UNL A   1      43.064  27.452  32.010  1.00  0.00     0.031 C 
ATOM     70  C   UNL A   1      42.872  28.783  34.093  1.00  0.00     0.037 A 
BRANCH  57  71
ATOM     71  C   UNL A   1      39.797  33.486  36.671  1.00  0.00     0.064 A 
ATOM     72  C   UNL A   1      40.502  34.694  36.786  1.00  0.00     0.173 A 
ATOM     73  C   UNL A   1      38.885  33.161  37.686  1.00  0.00     0.173 A 
ATOM     74  F   UNL A   1      41.395  35.048  35.849  1.00  0.00    -0.203 F 
ATOM     75  C   UNL A   1      40.322  35.528  37.887  1.00  0.00     0.198 A 
ATOM     76  C   UNL A   1      38.685  34.013  38.770  1.00  0.00     0.198 A 
ATOM     77  F   UNL A   1      38.180  32.022  37.623  1.00  0.00    -0.203 F 
ATOM     78  F   UNL A   1      41.044  36.652  38.000  1.00  0.00    -0.200 F 
ATOM     79  C   UNL A   1      39.409  35.190  38.874  1.00  0.00     0.200 A 
ATOM     80  F   UNL A   1      37.791  33.692  39.715  1.00  0.00    -0.200 F 
ATOM     81  F   UNL A   1      39.231  35.998  39.929  1.00  0.00    -0.200 F 
ENDBRANCH  57  71
BRANCH  58  82
ATOM     82  C   UNL A   1      40.849  27.911  28.452  1.00  0.00     0.064 A 
ATOM     83  C   UNL A   1      41.715  28.317  27.426  1.00  0.00     0.173 A 
ATOM     84  C   UNL A   1      40.151  26.708  28.279  1.00  0.00     0.173 A 
ATOM     85  F   UNL A   1      42.390  29.470  27.536  1.00  0.00    -0.203 F 
ATOM     86  C   UNL A   1      41.856  27.562  26.264  1.00  0.00     0.198 A 
ATOM     87  C   UNL A   1      40.317  25.938  27.130  1.00  0.00     0.198 A 
ATOM     88  F   UNL A   1      39.316  26.272  29.235  1.00  0.00    -0.203 F 
ATOM     89  F   UNL A   1      42.652  27.997  25.278  1.00  0.00    -0.200 F 
ATOM     90  C   UNL A   1      41.162  26.370  26.119  1.00  0.00     0.200 A 
ATOM     91  F   UNL A   1      39.657  24.779  27.002  1.00  0.00    -0.200 F 
ATOM     92  F   UNL A   1      41.302  25.643  25.002  1.00  0.00    -0.200 F 
ENDBRANCH  58  82
BRANCH  70  93
ATOM     93  C   UNL A   1      43.953  27.922  34.684  1.00  0.00     0.064 A 
ATOM     94  C   UNL A   1      43.662  26.704  35.316  1.00  0.00     0.173 A 
ATOM     95  C   UNL A   1      45.297  28.319  34.610  1.00  0.00     0.173 A 
ATOM     96  F   UNL A   1      42.392  26.287  35.425  1.00  0.00    -0.203 F 
ATOM     97  C   UNL A   1      44.672  25.936  35.889  1.00  0.00     0.198 A 
ATOM     98  C   UNL A   1      46.308  27.531  35.154  1.00  0.00     0.198 A 
ATOM     99  F   UNL A   1      45.631  29.470  34.009  1.00  0.00    -0.203 F 
ATOM    100  F   UNL A   1      44.363  24.809  36.545  1.00  0.00    -0.200 F 
ATOM    101  C   UNL A   1      45.993  26.347  35.803  1.00  0.00     0.200 A 
ATOM    102  F   UNL A   1      47.586  27.923  35.057  1.00  0.00    -0.200 F 
ATOM    103  F   UNL A   1      46.964  25.607  36.358  1.00  0.00    -0.200 F 
ENDBRANCH  70  93
ENDBRANCH  44  45
ENDBRANCH  36  39
ENDBRANCH  34  35
ENDBRANCH  33  34
ENDBRANCH   1  33
TORSDOF 15
ENDMDL
MODEL 2
REMARK VINA RESULT:     -13.0      5.245     10.253
REMARK SMILES CN(C)c1nccnc1N1CCC(Oc2ccc3ccccc3c2)(C(=O)NCCCCNC(=O)c2ccc(-c3c4nc(c(-c5c(F)c(F)c(F)c(F)c5F)c5ccc([nH]5)c(-c5c(F)c(F)c(F)c(F)c5F)c5nc(c(-c6c(F)c(F)c(F)c(F)c6F)c6ccc3[nH]6)C=C5)C=C4)cc2)CC1
REMARK SMILES IDX 29 1 28 2 27 3 25 4 26 5 13 7 10 8 11 9 99 10 12 11 98 12
REMARK SMILES IDX 9 13 4 14 5 15 6 16 8 17 7 18 2 19 1 20 3 21 14 22 15 23
REMARK SMILES IDX 16 24 24 25 17 26 23 27 18 28 22 29 19 30 21 31 20 32 30 33
REMARK SMILES IDX 31 34 32 35 33 36 34 38 35 39 36 40 97 41 37 42 96 43 38 44
REMARK SMILES IDX 39 45 40 46 90 47 41 48 95 49 89 50 91 51 42 52 94 53 88 54
REMARK SMILES IDX 87 55 43 57 75 58 55 59 74 60 56 61 59 62 73 63 92 64 57 65
REMARK SMILES IDX 58 66 72 68 93 69 60 70 44 71 45 72 53 73 46 74 47 75 51 76
REMARK SMILES IDX 54 77 48 78 49 79 52 80 50 81 76 82 77 83 85 84 78 85 79 86
REMARK SMILES IDX 83 87 86 88 80 89 81 90 84 91 82 92 61 93 62 94 70 95 63 96
REMARK SMILES IDX 64 97 68 98 71 99 65 100 66 101 69 102 67 103
REMARK H PARENT 27 6 32 37 91 56 59 67
REMARK Flexibility Score: inf
ROOT
ATOM      1  C   UNL A   1      38.728  22.483  25.988  1.00  0.00     0.023 C 
ENDROOT
BRANCH   1   2
ATOM      2  C   UNL A   1      37.323  22.404  25.395  1.00  0.00     0.116 C 
BRANCH   2   3
ATOM      3  N   UNL A   1      36.311  22.606  26.411  1.00  0.00    -0.353 N 
ATOM      4  C   UNL A   1      34.971  22.845  26.288  1.00  0.00     0.264 C 
ATOM      5  O   UNL A   1      34.339  22.888  27.350  1.00  0.00    -0.270 OA
ATOM      6  H   UNL A   1      36.641  22.567  27.338  1.00  0.00     0.163 HD
BRANCH   4   7
ATOM      7  C   UNL A   1      34.297  23.047  24.896  1.00  0.00     0.190 C 
ATOM      8  N   UNL A   1      32.977  25.562  25.276  1.00  0.00    -0.353 N 
ATOM      9  C   UNL A   1      34.403  25.559  25.057  1.00  0.00     0.123 C 
ATOM     10  C   UNL A   1      32.310  24.383  25.816  1.00  0.00     0.123 C 
ATOM     11  C   UNL A   1      34.776  24.347  24.228  1.00  0.00     0.080 C 
ATOM     12  C   UNL A   1      32.764  23.114  25.081  1.00  0.00     0.080 C 
BRANCH   8  13
ATOM     13  C   UNL A   1      32.201  26.516  24.637  1.00  0.00     0.171 A 
ATOM     14  C   UNL A   1      31.908  27.782  25.244  1.00  0.00     0.171 A 
ATOM     15  N   UNL A   1      31.038  28.643  24.652  1.00  0.00    -0.234 NA
ATOM     16  C   UNL A   1      30.525  28.264  23.462  1.00  0.00     0.134 A 
ATOM     17  N   UNL A   1      31.695  26.177  23.422  1.00  0.00    -0.234 NA
ATOM     18  C   UNL A   1      30.853  27.066  22.858  1.00  0.00     0.134 A 
BRANCH  14  19
ATOM     19  N   UNL A   1      32.548  28.209  26.422  1.00  0.00    -0.360 N 
ATOM     20  C   UNL A   1      31.738  28.204  27.626  1.00  0.00     0.145 C 
ATOM     21  C   UNL A   1      33.502  29.298  26.254  1.00  0.00     0.145 C 
ENDBRANCH  14  19
ENDBRANCH   8  13
BRANCH   7  22
ATOM     22  O   UNL A   1      34.687  21.814  24.232  1.00  0.00    -0.477 OA
BRANCH  22  23
ATOM     23  C   UNL A   1      34.091  20.637  24.568  1.00  0.00     0.121 A 
ATOM     24  C   UNL A   1      32.712  20.490  24.671  1.00  0.00     0.047 A 
ATOM     25  C   UNL A   1      34.908  19.508  24.626  1.00  0.00     0.055 A 
ATOM     26  C   UNL A   1      32.154  19.246  24.959  1.00  0.00     0.012 A 
ATOM     27  C   UNL A   1      34.359  18.236  24.866  1.00  0.00    -0.015 A 
ATOM     28  C   UNL A   1      32.965  18.111  25.064  1.00  0.00    -0.018 A 
ATOM     29  C   UNL A   1      35.159  17.082  24.904  1.00  0.00     0.009 A 
ATOM     30  C   UNL A   1      32.414  16.850  25.333  1.00  0.00     0.009 A 
ATOM     31  C   UNL A   1      34.591  15.830  25.153  1.00  0.00     0.001 A 
ATOM     32  C   UNL A   1      33.223  15.716  25.377  1.00  0.00     0.001 A 
ENDBRANCH  22  23
ENDBRANCH   7  22
ENDBRANCH   4   7
ENDBRANCH   2   3
ENDBRANCH   1   2
BRANCH   1  33
ATOM     33  C   UNL A   1      39.278  21.150  26.501  1.00  0.00     0.023 C 
BRANCH  33  34
ATOM     34  C   UNL A   1      39.325  20.027  25.470  1.00  0.00     0.116 C 
BRANCH  34  35
ATOM     35  N   UNL A   1      40.345  19.033  25.760  1.00  0.00    -0.352 N 
ATOM     36  C   UNL A   1      41.658  19.202  26.112  1.00  0.00     0.251 C 
ATOM     37  H   UNL A   1      40.047  18.097  25.692  1.00  0.00     0.163 HD
ATOM     38  O   UNL A   1      42.400  18.222  26.186  1.00  0.00    -0.269 OA
BRANCH  36  39
ATOM     39  C   UNL A   1      42.200  20.552  26.373  1.00  0.00     0.039 A 
ATOM     40  C   UNL A   1      42.563  21.344  25.280  1.00  0.00     0.014 A 
ATOM     41  C   UNL A   1      42.371  21.037  27.672  1.00  0.00     0.014 A 
ATOM     42  C   UNL A   1      43.042  22.637  25.488  1.00  0.00     0.010 A 
ATOM     43  C   UNL A   1      42.776  22.355  27.877  1.00  0.00     0.010 A 
ATOM     44  C   UNL A   1      43.121  23.166  26.787  1.00  0.00    -0.014 A 
BRANCH  44  45
ATOM     45  C   UNL A   1      43.549  24.572  27.000  1.00  0.00     0.031 A 
ATOM     46  C   UNL A   1      42.581  25.601  27.513  1.00  0.00     0.074 A 
ATOM     47  C   UNL A   1      44.814  24.926  26.701  1.00  0.00     0.049 A 
ATOM     48  N   UNL A   1      42.788  26.865  27.789  1.00  0.00    -0.248 NA
ATOM     49  C   UNL A   1      41.193  25.163  27.722  1.00  0.00     0.031 C 
ATOM     50  C   UNL A   1      45.827  24.034  26.133  1.00  0.00     0.029 A 
ATOM     51  N   UNL A   1      45.466  26.126  26.836  1.00  0.00    -0.354 N 
ATOM     52  C   UNL A   1      41.561  27.370  28.199  1.00  0.00     0.074 A 
ATOM     53  C   UNL A   1      40.600  26.294  28.078  1.00  0.00     0.031 C 
ATOM     54  C   UNL A   1      46.982  24.707  26.006  1.00  0.00     0.029 A 
ATOM     55  C   UNL A   1      46.784  26.081  26.454  1.00  0.00     0.049 A 
ATOM     56  H   UNL A   1      45.029  26.941  27.176  1.00  0.00     0.167 HD
ATOM     57  C   UNL A   1      41.268  28.608  28.661  1.00  0.00     0.037 A 
ATOM     58  C   UNL A   1      47.728  27.041  26.470  1.00  0.00     0.037 A 
ATOM     59  C   UNL A   1      42.230  29.673  28.795  1.00  0.00     0.049 A 
ATOM     60  C   UNL A   1      47.379  28.403  27.000  1.00  0.00     0.074 A 
ATOM     61  C   UNL A   1      42.045  30.946  29.308  1.00  0.00     0.029 A 
ATOM     62  N   UNL A   1      43.559  29.589  28.408  1.00  0.00    -0.354 N 
ATOM     63  N   UNL A   1      46.235  28.844  27.466  1.00  0.00    -0.248 NA
ATOM     64  C   UNL A   1      48.458  29.400  27.019  1.00  0.00     0.031 C 
ATOM     65  C   UNL A   1      43.249  31.647  29.185  1.00  0.00     0.029 A 
ATOM     66  C   UNL A   1      44.200  30.794  28.648  1.00  0.00     0.049 A 
ATOM     67  H   UNL A   1      43.985  28.791  28.020  1.00  0.00     0.167 HD
ATOM     68  C   UNL A   1      46.462  30.157  27.855  1.00  0.00     0.074 A 
ATOM     69  C   UNL A   1      47.860  30.432  27.595  1.00  0.00     0.031 C 
ATOM     70  C   UNL A   1      45.591  31.055  28.378  1.00  0.00     0.037 A 
BRANCH  57  71
ATOM     71  C   UNL A   1      39.845  28.882  29.062  1.00  0.00     0.064 A 
ATOM     72  C   UNL A   1      38.899  29.353  28.138  1.00  0.00     0.173 A 
ATOM     73  C   UNL A   1      39.412  28.632  30.373  1.00  0.00     0.173 A 
ATOM     74  F   UNL A   1      39.263  29.619  26.874  1.00  0.00    -0.203 F 
ATOM     75  C   UNL A   1      37.582  29.594  28.519  1.00  0.00     0.198 A 
ATOM     76  C   UNL A   1      38.085  28.844  30.742  1.00  0.00     0.198 A 
ATOM     77  F   UNL A   1      40.272  28.175  31.294  1.00  0.00    -0.203 F 
ATOM     78  F   UNL A   1      36.709  30.092  27.631  1.00  0.00    -0.200 F 
ATOM     79  C   UNL A   1      37.174  29.332  29.818  1.00  0.00     0.200 A 
ATOM     80  F   UNL A   1      37.690  28.577  31.994  1.00  0.00    -0.200 F 
ATOM     81  F   UNL A   1      35.903  29.556  30.181  1.00  0.00    -0.200 F 
ENDBRANCH  57  71
BRANCH  58  82
ATOM     82  C   UNL A   1      49.106  26.732  26.005  1.00  0.00     0.064 A 
ATOM     83  C   UNL A   1      49.503  27.018  24.690  1.00  0.00     0.173 A 
ATOM     84  C   UNL A   1      50.050  26.143  26.857  1.00  0.00     0.173 A 
ATOM     85  F   UNL A   1      48.630  27.564  23.831  1.00  0.00    -0.203 F 
ATOM     86  C   UNL A   1      50.784  26.703  24.241  1.00  0.00     0.198 A 
ATOM     87  C   UNL A   1      51.340  25.857  26.416  1.00  0.00     0.198 A 
ATOM     88  F   UNL A   1      49.723  25.857  28.127  1.00  0.00    -0.203 F 
ATOM     89  F   UNL A   1      51.120  26.942  22.967  1.00  0.00    -0.200 F 
ATOM     90  C   UNL A   1      51.703  26.130  25.106  1.00  0.00     0.200 A 
ATOM     91  F   UNL A   1      52.230  25.318  27.259  1.00  0.00    -0.200 F 
ATOM     92  F   UNL A   1      52.936  25.831  24.673  1.00  0.00    -0.200 F 
ENDBRANCH  58  82
BRANCH  70  93
ATOM     93  C   UNL A   1      46.137  32.412  28.723  1.00  0.00     0.064 A 
ATOM     94  C   UNL A   1      46.690  32.686  29.983  1.00  0.00     0.173 A 
ATOM     95  C   UNL A   1      46.113  33.449  27.778  1.00  0.00     0.173 A 
ATOM     96  F   UNL A   1      46.725  31.733  30.927  1.00  0.00    -0.203 F 
ATOM     97  C   UNL A   1      47.159  33.959  30.298  1.00  0.00     0.198 A 
ATOM     98  C   UNL A   1      46.614  34.712  28.084  1.00  0.00     0.198 A 
ATOM     99  F   UNL A   1      45.603  33.239  26.555  1.00  0.00    -0.203 F 
ATOM    100  F   UNL A   1      47.622  34.215  31.530  1.00  0.00    -0.200 F 
ATOM    101  C   UNL A   1      47.125  34.968  29.348  1.00  0.00     0.200 A 
ATOM    102  F   UNL A   1      46.594  35.682  27.161  1.00  0.00    -0.200 F 
ATOM    103  F   UNL A   1      47.575  36.194  29.653  1.00  0.00    -0.200 F 
ENDBRANCH  70  93
ENDBRANCH  44  45
ENDBRANCH  36  39
ENDBRANCH  34  35
ENDBRANCH  33  34
ENDBRANCH   1  33
TORSDOF 15
ENDMDL
MODEL 3
REMARK VINA RESULT:     -12.9      5.068     11.255
REMARK SMILES CN(C)c1nccnc1N1CCC(Oc2ccc3ccccc3c2)(C(=O)NCCCCNC(=O)c2ccc(-c3c4nc(c(-c5c(F)c(F)c(F)c(F)c5F)c5ccc([nH]5)c(-c5c(F)c(F)c(F)c(F)c5F)c5nc(c(-c6c(F)c(F)c(F)c(F)c6F)c6ccc3[nH]6)C=C5)C=C4)cc2)CC1
REMARK SMILES IDX 29 1 28 2 27 3 25 4 26 5 13 7 10 8 11 9 99 10 12 11 98 12
REMARK SMILES IDX 9 13 4 14 5 15 6 16 8 17 7 18 2 19 1 20 3 21 14 22 15 23
REMARK SMILES IDX 16 24 24 25 17 26 23 27 18 28 22 29 19 30 21 31 20 32 30 33
REMARK SMILES IDX 31 34 32 35 33 36 34 38 35 39 36 40 97 41 37 42 96 43 38 44
REMARK SMILES IDX 39 45 40 46 90 47 41 48 95 49 89 50 91 51 42 52 94 53 88 54
REMARK SMILES IDX 87 55 43 57 75 58 55 59 74 60 56 61 59 62 73 63 92 64 57 65
REMARK SMILES IDX 58 66 72 68 93 69 60 70 44 71 45 72 53 73 46 74 47 75 51 76
REMARK SMILES IDX 54 77 48 78 49 79 52 80 50 81 76 82 77 83 85 84 78 85 79 86
REMARK SMILES IDX 83 87 86 88 80 89 81 90 84 91 82 92 61 93 62 94 70 95 63 96
REMARK SMILES IDX 64 97 68 98 71 99 65 100 66 101 69 102 67 103
REMARK H PARENT 27 6 32 37 91 56 59 67
REMARK Flexibility Score: inf
ROOT
ATOM      1  C   UNL A   1      38.683  22.575  25.994  1.00  0.00     0.023 C 
ENDROOT
BRANCH   1   2
ATOM      2  C   UNL A   1      37.292  22.460  25.375  1.00  0.00     0.116 C 
BRANCH   2   3
ATOM      3  N   UNL A   1      36.257  22.587  26.380  1.00  0.00    -0.353 N 
ATOM      4  C   UNL A   1      34.912  22.782  26.243  1.00  0.00     0.264 C 
ATOM      5  O   UNL A   1      34.262  22.763  27.294  1.00  0.00    -0.270 OA
ATOM      6  H   UNL A   1      36.573  22.524  27.310  1.00  0.00     0.163 HD
BRANCH   4   7
ATOM      7  C   UNL A   1      34.253  23.012  24.848  1.00  0.00     0.190 C 
ATOM      8  N   UNL A   1      32.948  25.531  25.256  1.00  0.00    -0.353 N 
ATOM      9  C   UNL A   1      34.376  25.520  25.051  1.00  0.00     0.123 C 
ATOM     10  C   UNL A   1      32.267  24.348  25.769  1.00  0.00     0.123 C 
ATOM     11  C   UNL A   1      34.749  24.320  24.206  1.00  0.00     0.080 C 
ATOM     12  C   UNL A   1      32.719  23.087  25.018  1.00  0.00     0.080 C 
BRANCH   8  13
ATOM     13  C   UNL A   1      32.185  26.501  24.625  1.00  0.00     0.171 A 
ATOM     14  C   UNL A   1      31.891  27.757  25.253  1.00  0.00     0.171 A 
ATOM     15  N   UNL A   1      31.033  28.633  24.666  1.00  0.00    -0.234 NA
ATOM     16  C   UNL A   1      30.535  28.280  23.462  1.00  0.00     0.134 A 
ATOM     17  N   UNL A   1      31.694  26.188  23.397  1.00  0.00    -0.234 NA
ATOM     18  C   UNL A   1      30.864  27.092  22.840  1.00  0.00     0.134 A 
BRANCH  14  19
ATOM     19  N   UNL A   1      32.517  28.158  26.448  1.00  0.00    -0.360 N 
ATOM     20  C   UNL A   1      31.673  28.203  27.626  1.00  0.00     0.145 C 
ATOM     21  C   UNL A   1      33.533  29.192  26.302  1.00  0.00     0.145 C 
ENDBRANCH  14  19
ENDBRANCH   8  13
BRANCH   7  22
ATOM     22  O   UNL A   1      34.641  21.788  24.167  1.00  0.00    -0.477 OA
BRANCH  22  23
ATOM     23  C   UNL A   1      34.064  20.602  24.508  1.00  0.00     0.121 A 
ATOM     24  C   UNL A   1      32.687  20.419  24.562  1.00  0.00     0.047 A 
ATOM     25  C   UNL A   1      34.910  19.499  24.626  1.00  0.00     0.055 A 
ATOM     26  C   UNL A   1      32.153  19.166  24.859  1.00  0.00     0.012 A 
ATOM     27  C   UNL A   1      34.387  18.217  24.877  1.00  0.00    -0.015 A 
ATOM     28  C   UNL A   1      32.990  18.057  25.024  1.00  0.00    -0.018 A 
ATOM     29  C   UNL A   1      35.216  17.088  24.974  1.00  0.00     0.009 A 
ATOM     30  C   UNL A   1      32.463  16.788  25.302  1.00  0.00     0.009 A 
ATOM     31  C   UNL A   1      34.674  15.827  25.231  1.00  0.00     0.001 A 
ATOM     32  C   UNL A   1      33.301  15.679  25.406  1.00  0.00     0.001 A 
ENDBRANCH  22  23
ENDBRANCH   7  22
ENDBRANCH   4   7
ENDBRANCH   2   3
ENDBRANCH   1   2
BRANCH   1  33
ATOM     33  C   UNL A   1      39.264  21.255  26.506  1.00  0.00     0.023 C 
BRANCH  33  34
ATOM     34  C   UNL A   1      39.249  20.107  25.504  1.00  0.00     0.116 C 
BRANCH  34  35
ATOM     35  N   UNL A   1      40.292  19.124  25.751  1.00  0.00    -0.352 N 
ATOM     36  C   UNL A   1      41.597  19.307  26.124  1.00  0.00     0.251 C 
ATOM     37  H   UNL A   1      40.018  18.186  25.631  1.00  0.00     0.163 HD
ATOM     38  O   UNL A   1      42.362  18.343  26.153  1.00  0.00    -0.269 OA
BRANCH  36  39
ATOM     39  C   UNL A   1      42.103  20.654  26.460  1.00  0.00     0.039 A 
ATOM     40  C   UNL A   1      42.420  21.524  25.414  1.00  0.00     0.014 A 
ATOM     41  C   UNL A   1      42.284  21.062  27.785  1.00  0.00     0.014 A 
ATOM     42  C   UNL A   1      42.864  22.816  25.695  1.00  0.00     0.010 A 
ATOM     43  C   UNL A   1      42.652  22.376  28.065  1.00  0.00     0.010 A 
ATOM     44  C   UNL A   1      42.951  23.265  27.024  1.00  0.00    -0.014 A 
BRANCH  44  45
ATOM     45  C   UNL A   1      43.340  24.668  27.318  1.00  0.00     0.031 A 
ATOM     46  C   UNL A   1      44.732  25.155  27.028  1.00  0.00     0.074 A 
ATOM     47  C   UNL A   1      42.436  25.497  27.873  1.00  0.00     0.049 A 
ATOM     48  N   UNL A   1      45.238  26.354  27.189  1.00  0.00    -0.248 NA
ATOM     49  C   UNL A   1      45.692  24.166  26.516  1.00  0.00     0.031 C 
ATOM     50  C   UNL A   1      41.075  25.123  28.261  1.00  0.00     0.029 A 
ATOM     51  N   UNL A   1      42.523  26.826  28.204  1.00  0.00    -0.354 N 
ATOM     52  C   UNL A   1      46.568  26.259  26.801  1.00  0.00     0.074 A 
ATOM     53  C   UNL A   1      46.810  24.875  26.456  1.00  0.00     0.031 C 
ATOM     54  C   UNL A   1      40.442  26.206  28.740  1.00  0.00     0.029 A 
ATOM     55  C   UNL A   1      41.359  27.341  28.721  1.00  0.00     0.049 A 
ATOM     56  H   UNL A   1      43.342  27.360  28.081  1.00  0.00     0.167 HD
ATOM     57  C   UNL A   1      47.495  27.242  26.714  1.00  0.00     0.037 A 
ATOM     58  C   UNL A   1      41.064  28.590  29.127  1.00  0.00     0.037 A 
ATOM     59  C   UNL A   1      47.247  28.623  27.044  1.00  0.00     0.049 A 
ATOM     60  C   UNL A   1      42.107  29.665  29.007  1.00  0.00     0.074 A 
ATOM     61  C   UNL A   1      48.103  29.706  26.933  1.00  0.00     0.029 A 
ATOM     62  N   UNL A   1      46.053  29.110  27.555  1.00  0.00    -0.354 N 
ATOM     63  N   UNL A   1      43.337  29.581  28.557  1.00  0.00    -0.248 NA
ATOM     64  C   UNL A   1      41.718  31.013  29.440  1.00  0.00     0.031 C 
ATOM     65  C   UNL A   1      47.443  30.838  27.424  1.00  0.00     0.029 A 
ATOM     66  C   UNL A   1      46.157  30.473  27.788  1.00  0.00     0.049 A 
ATOM     67  H   UNL A   1      45.249  28.568  27.727  1.00  0.00     0.167 HD
ATOM     68  C   UNL A   1      43.857  30.866  28.630  1.00  0.00     0.074 A 
ATOM     69  C   UNL A   1      42.801  31.715  29.142  1.00  0.00     0.031 C 
ATOM     70  C   UNL A   1      45.099  31.304  28.303  1.00  0.00     0.037 A 
BRANCH  57  71
ATOM     71  C   UNL A   1      48.869  26.862  26.237  1.00  0.00     0.064 A 
ATOM     72  C   UNL A   1      49.247  27.009  24.894  1.00  0.00     0.173 A 
ATOM     73  C   UNL A   1      49.830  26.382  27.139  1.00  0.00     0.173 A 
ATOM     74  F   UNL A   1      48.363  27.454  23.988  1.00  0.00    -0.203 F 
ATOM     75  C   UNL A   1      50.526  26.662  24.466  1.00  0.00     0.198 A 
ATOM     76  C   UNL A   1      51.118  26.066  26.713  1.00  0.00     0.198 A 
ATOM     77  F   UNL A   1      49.524  26.227  28.436  1.00  0.00    -0.203 F 
ATOM     78  F   UNL A   1      50.849  26.765  23.168  1.00  0.00    -0.200 F 
ATOM     79  C   UNL A   1      51.462  26.199  25.377  1.00  0.00     0.200 A 
ATOM     80  F   UNL A   1      52.026  25.631  27.598  1.00  0.00    -0.200 F 
ATOM     81  F   UNL A   1      52.696  25.873  24.966  1.00  0.00    -0.200 F 
ENDBRANCH  57  71
BRANCH  58  82
ATOM     82  C   UNL A   1      39.706  28.898  29.647  1.00  0.00     0.064 A 
ATOM     83  C   UNL A   1      39.390  28.694  30.999  1.00  0.00     0.173 A 
ATOM     84  C   UNL A   1      38.698  29.395  28.810  1.00  0.00     0.173 A 
ATOM     85  F   UNL A   1      40.315  28.203  31.836  1.00  0.00    -0.203 F 
ATOM     86  C   UNL A   1      38.110  28.954  31.485  1.00  0.00     0.198 A 
ATOM     87  C   UNL A   1      37.428  29.684  29.304  1.00  0.00     0.198 A 
ATOM     88  F   UNL A   1      38.951  29.614  27.511  1.00  0.00    -0.203 F 
ATOM     89  F   UNL A   1      37.822  28.704  32.769  1.00  0.00    -0.200 F 
ATOM     90  C   UNL A   1      37.133  29.454  30.639  1.00  0.00     0.200 A 
ATOM     91  F   UNL A   1      36.491  30.182  28.486  1.00  0.00    -0.200 F 
ATOM     92  F   UNL A   1      35.903  29.707  31.109  1.00  0.00    -0.200 F 
ENDBRANCH  58  82
BRANCH  70  93
ATOM     93  C   UNL A   1      45.370  32.772  28.472  1.00  0.00     0.064 A 
ATOM     94  C   UNL A   1      45.908  33.291  29.659  1.00  0.00     0.173 A 
ATOM     95  C   UNL A   1      45.092  33.670  27.430  1.00  0.00     0.173 A 
ATOM     96  F   UNL A   1      46.178  32.477  30.691  1.00  0.00    -0.203 F 
ATOM     97  C   UNL A   1      46.119  34.659  29.812  1.00  0.00     0.198 A 
ATOM     98  C   UNL A   1      45.338  35.033  27.573  1.00  0.00     0.198 A 
ATOM     99  F   UNL A   1      44.585  33.226  26.271  1.00  0.00    -0.203 F 
ATOM    100  F   UNL A   1      46.573  35.139  30.979  1.00  0.00    -0.200 F 
ATOM    101  C   UNL A   1      45.839  35.527  28.768  1.00  0.00     0.200 A 
ATOM    102  F   UNL A   1      45.080  35.870  26.559  1.00  0.00    -0.200 F 
ATOM    103  F   UNL A   1      46.041  36.844  28.917  1.00  0.00    -0.200 F 
ENDBRANCH  70  93
ENDBRANCH  44  45
ENDBRANCH  36  39
ENDBRANCH  34  35
ENDBRANCH  33  34
ENDBRANCH   1  33
TORSDOF 15
ENDMDL
