MODEL 1
REMARK VINA RESULT:     -13.9      0.000      0.000
REMARK SMILES O=C(NCCCCNC(=O)[C@H]1CC2(CCN(C(=O)c3cccc(O)c3)CC2)CN1C(=O)C1CC1)c1ccc(-c2c3nc(c(-c4c(F)c(F)c(F)c(F)c4F)c4ccc([nH]4)c(-c4c(F)c(F)c(F)c(F)c4F)c4nc(c(-c5c(F)c(F)c(F)c(F)c5F)c5ccc2[nH]5)C=C4)C=C3)cc1
REMARK SMILES IDX 5 1 4 2 3 3 1 4 2 5 35 7 36 8 97 9 37 10 96 11 38 12 39 13
REMARK SMILES IDX 40 14 90 15 41 16 95 17 89 18 91 19 42 20 94 21 88 22 87 23
REMARK SMILES IDX 43 25 75 26 55 27 74 28 56 29 59 30 73 31 92 32 57 33 58 34
REMARK SMILES IDX 72 36 93 37 60 38 44 39 45 40 53 41 46 42 47 43 51 44 54 45
REMARK SMILES IDX 48 46 49 47 52 48 50 49 76 50 77 51 85 52 78 53 79 54 83 55
REMARK SMILES IDX 86 56 80 57 81 58 84 59 82 60 61 61 62 62 70 63 63 64 64 65
REMARK SMILES IDX 68 66 71 67 65 68 66 69 69 70 67 71 6 72 7 73 8 74 9 75
REMARK SMILES IDX 10 77 11 78 12 79 29 80 13 81 28 82 14 83 27 84 15 85 26 86
REMARK SMILES IDX 16 87 17 88 18 89 30 90 31 91 32 92 33 93 34 94 19 95 20 96
REMARK SMILES IDX 25 97 21 98 23 99 22 100 24 101
REMARK H PARENT 3 6 91 24 59 35 8 76 24 102
REMARK Flexibility Score: inf
ROOT
ATOM      1  C   UNL A   1      35.189  21.491  25.760  1.00  0.00     0.023 C 
ENDROOT
BRANCH   1   2
ATOM      2  C   UNL A   1      36.603  22.055  25.777  1.00  0.00     0.116 C 
BRANCH   2   3
ATOM      3  N   UNL A   1      37.645  21.045  25.690  1.00  0.00    -0.352 N 
ATOM      4  O   UNL A   1      39.738  20.215  25.823  1.00  0.00    -0.269 OA
ATOM      5  C   UNL A   1      38.980  21.146  26.024  1.00  0.00     0.251 C 
ATOM      6  H   UNL A   1      37.357  20.168  25.346  1.00  0.00     0.163 HD
BRANCH   5   7
ATOM      7  C   UNL A   1      39.491  22.420  26.580  1.00  0.00     0.039 A 
ATOM      8  C   UNL A   1      39.026  23.648  26.110  1.00  0.00     0.014 A 
ATOM      9  C   UNL A   1      40.487  22.375  27.561  1.00  0.00     0.014 A 
ATOM     10  C   UNL A   1      39.674  24.819  26.483  1.00  0.00     0.010 A 
ATOM     11  C   UNL A   1      41.080  23.563  28.002  1.00  0.00     0.010 A 
ATOM     12  C   UNL A   1      40.715  24.790  27.427  1.00  0.00    -0.014 A 
BRANCH  12  13
ATOM     13  C   UNL A   1      41.391  26.059  27.797  1.00  0.00     0.031 A 
ATOM     14  C   UNL A   1      42.773  26.377  27.297  1.00  0.00     0.074 A 
ATOM     15  C   UNL A   1      40.723  26.957  28.546  1.00  0.00     0.049 A 
ATOM     16  N   UNL A   1      43.482  27.466  27.467  1.00  0.00    -0.248 NA
ATOM     17  C   UNL A   1      43.457  25.339  26.511  1.00  0.00     0.031 C 
ATOM     18  C   UNL A   1      39.383  26.757  29.100  1.00  0.00     0.029 A 
ATOM     19  N   UNL A   1      41.061  28.225  28.943  1.00  0.00    -0.354 N 
ATOM     20  C   UNL A   1      44.698  27.235  26.837  1.00  0.00     0.074 A 
ATOM     21  C   UNL A   1      44.642  25.892  26.296  1.00  0.00     0.031 C 
ATOM     22  C   UNL A   1      38.989  27.882  29.713  1.00  0.00     0.029 A 
ATOM     23  C   UNL A   1      40.066  28.863  29.640  1.00  0.00     0.049 A 
ATOM     24  H   UNL A   1      41.934  28.637  28.747  1.00  0.00     0.167 HD
ATOM     25  C   UNL A   1      45.760  28.068  26.714  1.00  0.00     0.037 A 
ATOM     26  C   UNL A   1      40.024  30.102  30.163  1.00  0.00     0.037 A 
ATOM     27  C   UNL A   1      45.800  29.415  27.222  1.00  0.00     0.049 A 
ATOM     28  C   UNL A   1      41.211  31.007  30.001  1.00  0.00     0.074 A 
ATOM     29  C   UNL A   1      46.811  30.353  27.101  1.00  0.00     0.029 A 
ATOM     30  N   UNL A   1      44.782  30.017  27.946  1.00  0.00    -0.354 N 
ATOM     31  N   UNL A   1      42.338  30.788  29.370  1.00  0.00    -0.248 NA
ATOM     32  C   UNL A   1      41.120  32.332  30.629  1.00  0.00     0.031 C 
ATOM     33  C   UNL A   1      46.422  31.510  27.786  1.00  0.00     0.029 A 
ATOM     34  C   UNL A   1      45.150  31.307  28.297  1.00  0.00     0.049 A 
ATOM     35  H   UNL A   1      43.926  29.591  28.178  1.00  0.00     0.167 HD
ATOM     36  C   UNL A   1      43.083  31.950  29.507  1.00  0.00     0.074 A 
ATOM     37  C   UNL A   1      42.272  32.878  30.267  1.00  0.00     0.031 C 
ATOM     38  C   UNL A   1      44.329  32.220  29.049  1.00  0.00     0.037 A 
BRANCH  25  39
ATOM     39  C   UNL A   1      46.981  27.544  26.015  1.00  0.00     0.064 A 
ATOM     40  C   UNL A   1      47.129  27.629  24.623  1.00  0.00     0.173 A 
ATOM     41  C   UNL A   1      48.039  26.993  26.757  1.00  0.00     0.173 A 
ATOM     42  F   UNL A   1      46.143  28.136  23.869  1.00  0.00    -0.203 F 
ATOM     43  C   UNL A   1      48.284  27.163  23.998  1.00  0.00     0.198 A 
ATOM     44  C   UNL A   1      49.200  26.552  26.129  1.00  0.00     0.198 A 
ATOM     45  F   UNL A   1      47.949  26.894  28.091  1.00  0.00    -0.203 F 
ATOM     46  F   UNL A   1      48.388  27.220  22.662  1.00  0.00    -0.200 F 
ATOM     47  C   UNL A   1      49.320  26.632  24.750  1.00  0.00     0.200 A 
ATOM     48  F   UNL A   1      50.205  26.047  26.860  1.00  0.00    -0.200 F 
ATOM     49  F   UNL A   1      50.432  26.192  24.145  1.00  0.00    -0.200 F 
ENDBRANCH  25  39
BRANCH  26  50
ATOM     50  C   UNL A   1      38.801  30.560  30.868  1.00  0.00     0.064 A 
ATOM     51  C   UNL A   1      38.695  30.460  32.261  1.00  0.00     0.173 A 
ATOM     52  C   UNL A   1      37.724  31.122  30.168  1.00  0.00     0.173 A 
ATOM     53  F   UNL A   1      39.693  29.911  32.970  1.00  0.00    -0.203 F 
ATOM     54  C   UNL A   1      37.553  30.895  32.928  1.00  0.00     0.198 A 
ATOM     55  C   UNL A   1      36.593  31.583  30.837  1.00  0.00     0.198 A 
ATOM     56  F   UNL A   1      37.781  31.244  28.833  1.00  0.00    -0.203 F 
ATOM     57  F   UNL A   1      37.462  30.757  34.258  1.00  0.00    -0.200 F 
ATOM     58  C   UNL A   1      36.506  31.462  32.217  1.00  0.00     0.200 A 
ATOM     59  F   UNL A   1      35.592  32.144  30.149  1.00  0.00    -0.200 F 
ATOM     60  F   UNL A   1      35.412  31.891  32.859  1.00  0.00    -0.200 F 
ENDBRANCH  26  50
BRANCH  38  61
ATOM     61  C   UNL A   1      44.876  33.586  29.336  1.00  0.00     0.064 A 
ATOM     62  C   UNL A   1      45.642  33.844  30.483  1.00  0.00     0.173 A 
ATOM     63  C   UNL A   1      44.647  34.645  28.445  1.00  0.00     0.173 A 
ATOM     64  F   UNL A   1      45.873  32.867  31.373  1.00  0.00    -0.203 F 
ATOM     65  C   UNL A   1      46.134  35.120  30.741  1.00  0.00     0.198 A 
ATOM     66  C   UNL A   1      45.161  35.914  28.694  1.00  0.00     0.198 A 
ATOM     67  F   UNL A   1      43.924  34.448  27.332  1.00  0.00    -0.203 F 
ATOM     68  F   UNL A   1      46.820  35.356  31.868  1.00  0.00    -0.200 F 
ATOM     69  C   UNL A   1      45.897  36.153  29.845  1.00  0.00     0.200 A 
ATOM     70  F   UNL A   1      44.940  36.908  27.824  1.00  0.00    -0.200 F 
ATOM     71  F   UNL A   1      46.370  37.381  30.097  1.00  0.00    -0.200 F 
ENDBRANCH  38  61
ENDBRANCH  12  13
ENDBRANCH   5   7
ENDBRANCH   2   3
ENDBRANCH   1   2
BRANCH   1  72
ATOM     72  C   UNL A   1      34.332  21.833  26.978  1.00  0.00     0.023 C 
BRANCH  72  73
ATOM     73  C   UNL A   1      33.270  22.902  26.735  1.00  0.00     0.116 C 
BRANCH  73  74
ATOM     74  N   UNL A   1      33.826  24.242  26.619  1.00  0.00    -0.354 N 
ATOM     75  C   UNL A   1      33.495  25.238  25.731  1.00  0.00     0.242 C 
ATOM     76  H   UNL A   1      34.536  24.465  27.264  1.00  0.00     0.163 HD
ATOM     77  O   UNL A   1      34.033  26.338  25.846  1.00  0.00    -0.273 OA
BRANCH  75  78
ATOM     78  C   UNL A   1      32.390  24.934  24.708  1.00  0.00     0.175 C 
ATOM     79  C   UNL A   1      31.621  26.252  24.548  1.00  0.00     0.044 C 
ATOM     80  N   UNL A   1      32.696  24.574  23.332  1.00  0.00    -0.330 N 
ATOM     81  C   UNL A   1      30.900  26.172  23.192  1.00  0.00    -0.006 C 
ATOM     82  C   UNL A   1      31.685  25.096  22.425  1.00  0.00     0.127 C 
ATOM     83  C   UNL A   1      30.974  27.526  22.457  1.00  0.00     0.030 C 
ATOM     84  C   UNL A   1      29.414  25.783  23.366  1.00  0.00     0.030 C 
ATOM     85  C   UNL A   1      30.176  28.599  23.187  1.00  0.00     0.120 C 
ATOM     86  C   UNL A   1      28.567  26.899  23.992  1.00  0.00     0.120 C 
ATOM     87  N   UNL A   1      28.782  28.183  23.331  1.00  0.00    -0.339 N 
ATOM     88  C   UNL A   1      27.682  29.013  23.112  1.00  0.00     0.253 C 
ATOM     89  O   UNL A   1      26.548  28.755  23.509  1.00  0.00    -0.269 OA
BRANCH  80  90
ATOM     90  C   UNL A   1      33.487  23.533  22.877  1.00  0.00     0.226 C 
ATOM     91  O   UNL A   1      34.576  23.730  22.344  1.00  0.00    -0.275 OA
BRANCH  90  92
ATOM     92  C   UNL A   1      33.098  22.127  23.155  1.00  0.00     0.079 C 
ATOM     93  C   UNL A   1      31.769  21.627  23.654  1.00  0.00     0.014 C 
ATOM     94  C   UNL A   1      32.104  21.476  22.207  1.00  0.00     0.014 C 
ENDBRANCH  90  92
ENDBRANCH  80  90
BRANCH  88  95
ATOM     95  C   UNL A   1      27.877  30.270  22.358  1.00  0.00     0.043 A 
ATOM     96  C   UNL A   1      27.864  30.267  20.956  1.00  0.00     0.014 A 
ATOM     97  C   UNL A   1      28.039  31.464  23.062  1.00  0.00     0.060 A 
ATOM     98  C   UNL A   1      28.068  31.459  20.260  1.00  0.00     0.005 A 
ATOM     99  C   UNL A   1      28.233  32.644  22.354  1.00  0.00     0.116 A 
ATOM    100  C   UNL A   1      28.258  32.652  20.961  1.00  0.00     0.046 A 
BRANCH  99 101
ATOM    101  O   UNL A   1      28.401  33.793  23.070  1.00  0.00    -0.508 OA
ATOM    102  H   UNL A   1      28.786  33.762  23.923  1.00  0.00     0.293 HD
ENDBRANCH  99 101
ENDBRANCH  88  95
ENDBRANCH  75  78
ENDBRANCH  73  74
ENDBRANCH  72  73
ENDBRANCH   1  72
TORSDOF 15
ENDMDL
MODEL 2
REMARK VINA RESULT:     -13.7      1.855      3.133
REMARK SMILES O=C(NCCCCNC(=O)[C@H]1CC2(CCN(C(=O)c3cccc(O)c3)CC2)CN1C(=O)C1CC1)c1ccc(-c2c3nc(c(-c4c(F)c(F)c(F)c(F)c4F)c4ccc([nH]4)c(-c4c(F)c(F)c(F)c(F)c4F)c4nc(c(-c5c(F)c(F)c(F)c(F)c5F)c5ccc2[nH]5)C=C4)C=C3)cc1
REMARK SMILES IDX 5 1 4 2 3 3 1 4 2 5 35 7 36 8 97 9 37 10 96 11 38 12 39 13
REMARK SMILES IDX 40 14 90 15 41 16 95 17 89 18 91 19 42 20 94 21 88 22 87 23
REMARK SMILES IDX 43 25 75 26 55 27 74 28 56 29 59 30 73 31 92 32 57 33 58 34
REMARK SMILES IDX 72 36 93 37 60 38 44 39 45 40 53 41 46 42 47 43 51 44 54 45
REMARK SMILES IDX 48 46 49 47 52 48 50 49 76 50 77 51 85 52 78 53 79 54 83 55
REMARK SMILES IDX 86 56 80 57 81 58 84 59 82 60 61 61 62 62 70 63 63 64 64 65
REMARK SMILES IDX 68 66 71 67 65 68 66 69 69 70 67 71 6 72 7 73 8 74 9 75
REMARK SMILES IDX 10 77 11 78 12 79 29 80 13 81 28 82 14 83 27 84 15 85 26 86
REMARK SMILES IDX 16 87 17 88 18 89 30 90 31 91 32 92 33 93 34 94 19 95 20 96
REMARK SMILES IDX 25 97 21 98 23 99 22 100 24 101
REMARK H PARENT 3 6 91 24 59 35 8 76 24 102
REMARK Flexibility Score: inf
ROOT
ATOM      1  C   UNL A   1      37.937  19.945  25.003  1.00  0.00     0.023 C 
ENDROOT
BRANCH   1   2
ATOM      2  C   UNL A   1      39.224  20.273  25.748  1.00  0.00     0.116 C 
BRANCH   2   3
ATOM      3  N   UNL A   1      40.180  19.178  25.788  1.00  0.00    -0.352 N 
ATOM      4  O   UNL A   1      42.206  18.207  25.994  1.00  0.00    -0.269 OA
ATOM      5  C   UNL A   1      41.530  19.217  26.072  1.00  0.00     0.251 C 
ATOM      6  H   UNL A   1      39.812  18.287  25.587  1.00  0.00     0.163 HD
BRANCH   5   7
ATOM      7  C   UNL A   1      42.159  20.513  26.419  1.00  0.00     0.039 A 
ATOM      8  C   UNL A   1      42.274  20.922  27.747  1.00  0.00     0.014 A 
ATOM      9  C   UNL A   1      42.598  21.346  25.385  1.00  0.00     0.014 A 
ATOM     10  C   UNL A   1      42.659  22.227  28.034  1.00  0.00     0.010 A 
ATOM     11  C   UNL A   1      43.070  22.628  25.683  1.00  0.00     0.010 A 
ATOM     12  C   UNL A   1      43.055  23.098  27.005  1.00  0.00    -0.014 A 
BRANCH  12  13
ATOM     13  C   UNL A   1      43.453  24.487  27.347  1.00  0.00     0.031 A 
ATOM     14  C   UNL A   1      44.832  24.999  27.035  1.00  0.00     0.074 A 
ATOM     15  C   UNL A   1      42.537  25.309  27.893  1.00  0.00     0.049 A 
ATOM     16  N   UNL A   1      45.324  26.202  27.203  1.00  0.00    -0.248 NA
ATOM     17  C   UNL A   1      45.791  24.039  26.468  1.00  0.00     0.031 C 
ATOM     18  C   UNL A   1      41.172  24.924  28.254  1.00  0.00     0.029 A 
ATOM     19  N   UNL A   1      42.602  26.642  28.211  1.00  0.00    -0.354 N 
ATOM     20  C   UNL A   1      46.649  26.137  26.792  1.00  0.00     0.074 A 
ATOM     21  C   UNL A   1      46.894  24.769  26.383  1.00  0.00     0.031 C 
ATOM     22  C   UNL A   1      40.510  26.007  28.686  1.00  0.00     0.029 A 
ATOM     23  C   UNL A   1      41.418  27.149  28.682  1.00  0.00     0.049 A 
ATOM     24  H   UNL A   1      43.420  27.181  28.112  1.00  0.00     0.167 HD
ATOM     25  C   UNL A   1      47.572  27.127  26.752  1.00  0.00     0.037 A 
ATOM     26  C   UNL A   1      41.096  28.397  29.069  1.00  0.00     0.037 A 
ATOM     27  C   UNL A   1      47.317  28.494  27.125  1.00  0.00     0.049 A 
ATOM     28  C   UNL A   1      42.136  29.477  29.002  1.00  0.00     0.074 A 
ATOM     29  C   UNL A   1      48.174  29.580  27.069  1.00  0.00     0.029 A 
ATOM     30  N   UNL A   1      46.111  28.965  27.623  1.00  0.00    -0.354 N 
ATOM     31  N   UNL A   1      43.373  29.408  28.575  1.00  0.00    -0.248 NA
ATOM     32  C   UNL A   1      41.736  30.808  29.476  1.00  0.00     0.031 C 
ATOM     33  C   UNL A   1      47.500  30.700  27.570  1.00  0.00     0.029 A 
ATOM     34  C   UNL A   1      46.208  30.320  27.898  1.00  0.00     0.049 A 
ATOM     35  H   UNL A   1      45.305  28.417  27.762  1.00  0.00     0.167 HD
ATOM     36  C   UNL A   1      43.893  30.687  28.710  1.00  0.00     0.074 A 
ATOM     37  C   UNL A   1      42.832  31.516  29.242  1.00  0.00     0.031 C 
ATOM     38  C   UNL A   1      45.141  31.132  28.423  1.00  0.00     0.037 A 
BRANCH  25  39
ATOM     39  C   UNL A   1      48.960  26.770  26.302  1.00  0.00     0.064 A 
ATOM     40  C   UNL A   1      49.893  26.191  27.175  1.00  0.00     0.173 A 
ATOM     41  C   UNL A   1      49.342  26.964  24.965  1.00  0.00     0.173 A 
ATOM     42  F   UNL A   1      49.581  25.995  28.464  1.00  0.00    -0.203 F 
ATOM     43  C   UNL A   1      51.165  25.840  26.729  1.00  0.00     0.198 A 
ATOM     44  C   UNL A   1      50.606  26.588  24.519  1.00  0.00     0.198 A 
ATOM     45  F   UNL A   1      48.484  27.508  24.090  1.00  0.00    -0.203 F 
ATOM     46  F   UNL A   1      52.055  25.323  27.590  1.00  0.00    -0.200 F 
ATOM     47  C   UNL A   1      51.519  26.031  25.403  1.00  0.00     0.200 A 
ATOM     48  F   UNL A   1      50.942  26.766  23.234  1.00  0.00    -0.200 F 
ATOM     49  F   UNL A   1      52.741  25.685  24.976  1.00  0.00    -0.200 F 
ENDBRANCH  25  39
BRANCH  26  50
ATOM     50  C   UNL A   1      39.716  28.690  29.530  1.00  0.00     0.064 A 
ATOM     51  C   UNL A   1      38.737  29.132  28.630  1.00  0.00     0.173 A 
ATOM     52  C   UNL A   1      39.343  28.516  30.871  1.00  0.00     0.173 A 
ATOM     53  F   UNL A   1      39.052  29.330  27.342  1.00  0.00    -0.203 F 
ATOM     54  C   UNL A   1      37.439  29.400  29.057  1.00  0.00     0.198 A 
ATOM     55  C   UNL A   1      38.039  28.758  31.292  1.00  0.00     0.198 A 
ATOM     56  F   UNL A   1      40.245  28.089  31.768  1.00  0.00    -0.203 F 
ATOM     57  F   UNL A   1      36.529  29.856  28.184  1.00  0.00    -0.200 F 
ATOM     58  C   UNL A   1      37.089  29.207  30.385  1.00  0.00     0.200 A 
ATOM     59  F   UNL A   1      37.701  28.555  32.571  1.00  0.00    -0.200 F 
ATOM     60  F   UNL A   1      35.837  29.455  30.793  1.00  0.00    -0.200 F 
ENDBRANCH  26  50
BRANCH  38  61
ATOM     61  C   UNL A   1      45.412  32.588  28.655  1.00  0.00     0.064 A 
ATOM     62  C   UNL A   1      45.985  33.046  29.851  1.00  0.00     0.173 A 
ATOM     63  C   UNL A   1      45.111  33.534  27.663  1.00  0.00     0.173 A 
ATOM     64  F   UNL A   1      46.274  32.182  30.834  1.00  0.00    -0.203 F 
ATOM     65  C   UNL A   1      46.221  34.403  30.055  1.00  0.00     0.198 A 
ATOM     66  C   UNL A   1      45.371  34.886  27.862  1.00  0.00     0.198 A 
ATOM     67  F   UNL A   1      44.566  33.144  26.501  1.00  0.00    -0.203 F 
ATOM     68  F   UNL A   1      46.722  34.825  31.225  1.00  0.00    -0.200 F 
ATOM     69  C   UNL A   1      45.918  35.321  29.060  1.00  0.00     0.200 A 
ATOM     70  F   UNL A   1      45.087  35.771  26.896  1.00  0.00    -0.200 F 
ATOM     71  F   UNL A   1      46.144  36.626  29.260  1.00  0.00    -0.200 F 
ENDBRANCH  38  61
ENDBRANCH  12  13
ENDBRANCH   5   7
ENDBRANCH   2   3
ENDBRANCH   1   2
BRANCH   1  72
ATOM     72  C   UNL A   1      36.696  20.701  25.474  1.00  0.00     0.023 C 
BRANCH  72  73
ATOM     73  C   UNL A   1      36.666  22.181  25.101  1.00  0.00     0.116 C 
BRANCH  73  74
ATOM     74  N   UNL A   1      36.138  22.422  23.766  1.00  0.00    -0.354 N 
ATOM     75  C   UNL A   1      34.985  23.075  23.400  1.00  0.00     0.242 C 
ATOM     76  H   UNL A   1      36.682  22.070  23.025  1.00  0.00     0.163 HD
ATOM     77  O   UNL A   1      34.752  23.242  22.204  1.00  0.00    -0.273 OA
BRANCH  75  78
ATOM     78  C   UNL A   1      34.108  23.643  24.526  1.00  0.00     0.175 C 
ATOM     79  C   UNL A   1      33.447  24.891  23.926  1.00  0.00     0.044 C 
ATOM     80  N   UNL A   1      32.971  22.906  25.059  1.00  0.00    -0.330 N 
ATOM     81  C   UNL A   1      32.191  25.167  24.768  1.00  0.00    -0.006 C 
ATOM     82  C   UNL A   1      31.901  23.815  25.442  1.00  0.00     0.127 C 
ATOM     83  C   UNL A   1      31.013  25.588  23.867  1.00  0.00     0.030 C 
ATOM     84  C   UNL A   1      32.444  26.283  25.809  1.00  0.00     0.030 C 
ATOM     85  C   UNL A   1      31.270  26.940  23.214  1.00  0.00     0.120 C 
ATOM     86  C   UNL A   1      32.587  27.674  25.177  1.00  0.00     0.120 C 
ATOM     87  N   UNL A   1      31.508  27.959  24.236  1.00  0.00    -0.339 N 
ATOM     88  C   UNL A   1      30.961  29.242  24.216  1.00  0.00     0.253 C 
ATOM     89  O   UNL A   1      31.385  30.171  24.899  1.00  0.00    -0.269 OA
BRANCH  80  90
ATOM     90  C   UNL A   1      32.959  21.637  25.609  1.00  0.00     0.226 C 
ATOM     91  O   UNL A   1      33.352  21.420  26.752  1.00  0.00    -0.275 OA
BRANCH  90  92
ATOM     92  C   UNL A   1      32.328  20.512  24.872  1.00  0.00     0.079 C 
ATOM     93  C   UNL A   1      32.406  20.230  23.396  1.00  0.00     0.014 C 
ATOM     94  C   UNL A   1      33.246  19.427  24.333  1.00  0.00     0.014 C 
ENDBRANCH  90  92
ENDBRANCH  80  90
BRANCH  88  95
ATOM     95  C   UNL A   1      29.805  29.510  23.333  1.00  0.00     0.043 A 
ATOM     96  C   UNL A   1      29.944  30.341  22.213  1.00  0.00     0.014 A 
ATOM     97  C   UNL A   1      28.583  28.895  23.612  1.00  0.00     0.060 A 
ATOM     98  C   UNL A   1      28.838  30.598  21.401  1.00  0.00     0.005 A 
ATOM     99  C   UNL A   1      27.494  29.155  22.790  1.00  0.00     0.116 A 
ATOM    100  C   UNL A   1      27.606  30.007  21.693  1.00  0.00     0.046 A 
BRANCH  99 101
ATOM    101  O   UNL A   1      26.310  28.550  23.095  1.00  0.00    -0.508 OA
ATOM    102  H   UNL A   1      26.306  27.721  23.530  1.00  0.00     0.293 HD
ENDBRANCH  99 101
ENDBRANCH  88  95
ENDBRANCH  75  78
ENDBRANCH  73  74
ENDBRANCH  72  73
ENDBRANCH   1  72
TORSDOF 15
ENDMDL
MODEL 3
REMARK VINA RESULT:     -13.7      4.532     10.639
REMARK SMILES O=C(NCCCCNC(=O)[C@H]1CC2(CCN(C(=O)c3cccc(O)c3)CC2)CN1C(=O)C1CC1)c1ccc(-c2c3nc(c(-c4c(F)c(F)c(F)c(F)c4F)c4ccc([nH]4)c(-c4c(F)c(F)c(F)c(F)c4F)c4nc(c(-c5c(F)c(F)c(F)c(F)c5F)c5ccc2[nH]5)C=C4)C=C3)cc1
REMARK SMILES IDX 5 1 4 2 3 3 1 4 2 5 35 7 36 8 97 9 37 10 96 11 38 12 39 13
REMARK SMILES IDX 40 14 90 15 41 16 95 17 89 18 91 19 42 20 94 21 88 22 87 23
REMARK SMILES IDX 43 25 75 26 55 27 74 28 56 29 59 30 73 31 92 32 57 33 58 34
REMARK SMILES IDX 72 36 93 37 60 38 44 39 45 40 53 41 46 42 47 43 51 44 54 45
REMARK SMILES IDX 48 46 49 47 52 48 50 49 76 50 77 51 85 52 78 53 79 54 83 55
REMARK SMILES IDX 86 56 80 57 81 58 84 59 82 60 61 61 62 62 70 63 63 64 64 65
REMARK SMILES IDX 68 66 71 67 65 68 66 69 69 70 67 71 6 72 7 73 8 74 9 75
REMARK SMILES IDX 10 77 11 78 12 79 29 80 13 81 28 82 14 83 27 84 15 85 26 86
REMARK SMILES IDX 16 87 17 88 18 89 30 90 31 91 32 92 33 93 34 94 19 95 20 96
REMARK SMILES IDX 25 97 21 98 23 99 22 100 24 101
REMARK H PARENT 3 6 91 24 59 35 8 76 24 102
REMARK Flexibility Score: inf
ROOT
ATOM      1  C   UNL A   1      31.552  31.847  26.881  1.00  0.00     0.023 C 
ENDROOT
BRANCH   1   2
ATOM      2  C   UNL A   1      32.733  32.710  27.306  1.00  0.00     0.116 C 
BRANCH   2   3
ATOM      3  N   UNL A   1      32.371  34.070  27.670  1.00  0.00    -0.352 N 
ATOM      4  O   UNL A   1      32.496  36.008  28.819  1.00  0.00    -0.269 OA
ATOM      5  C   UNL A   1      32.973  34.912  28.582  1.00  0.00     0.251 C 
ATOM      6  H   UNL A   1      31.589  34.441  27.199  1.00  0.00     0.163 HD
BRANCH   5   7
ATOM      7  C   UNL A   1      34.175  34.447  29.312  1.00  0.00     0.039 A 
ATOM      8  C   UNL A   1      35.454  34.647  28.791  1.00  0.00     0.014 A 
ATOM      9  C   UNL A   1      34.007  33.759  30.517  1.00  0.00     0.014 A 
ATOM     10  C   UNL A   1      36.542  34.011  29.376  1.00  0.00     0.010 A 
ATOM     11  C   UNL A   1      35.117  33.193  31.153  1.00  0.00     0.010 A 
ATOM     12  C   UNL A   1      36.386  33.270  30.560  1.00  0.00    -0.014 A 
BRANCH  12  13
ATOM     13  C   UNL A   1      37.569  32.597  31.152  1.00  0.00     0.031 A 
ATOM     14  C   UNL A   1      38.037  32.928  32.543  1.00  0.00     0.074 A 
ATOM     15  C   UNL A   1      38.192  31.635  30.445  1.00  0.00     0.049 A 
ATOM     16  N   UNL A   1      39.008  32.389  33.238  1.00  0.00    -0.248 NA
ATOM     17  C   UNL A   1      37.331  34.011  33.247  1.00  0.00     0.031 C 
ATOM     18  C   UNL A   1      37.840  31.234  29.082  1.00  0.00     0.029 A 
ATOM     19  N   UNL A   1      39.226  30.799  30.781  1.00  0.00    -0.354 N 
ATOM     20  C   UNL A   1      39.048  33.081  34.442  1.00  0.00     0.074 A 
ATOM     21  C   UNL A   1      38.016  34.095  34.378  1.00  0.00     0.031 C 
ATOM     22  C   UNL A   1      38.602  30.192  28.720  1.00  0.00     0.029 A 
ATOM     23  C   UNL A   1      39.529  29.885  29.803  1.00  0.00     0.049 A 
ATOM     24  H   UNL A   1      39.705  30.851  31.640  1.00  0.00     0.167 HD
ATOM     25  C   UNL A   1      39.865  32.883  35.505  1.00  0.00     0.037 A 
ATOM     26  C   UNL A   1      40.452  28.907  29.780  1.00  0.00     0.037 A 
ATOM     27  C   UNL A   1      40.866  31.851  35.581  1.00  0.00     0.049 A 
ATOM     28  C   UNL A   1      41.336  28.703  30.977  1.00  0.00     0.074 A 
ATOM     29  C   UNL A   1      41.707  31.539  36.636  1.00  0.00     0.029 A 
ATOM     30  N   UNL A   1      41.163  30.961  34.559  1.00  0.00    -0.354 N 
ATOM     31  N   UNL A   1      41.335  29.339  32.122  1.00  0.00    -0.248 NA
ATOM     32  C   UNL A   1      42.350  27.646  30.875  1.00  0.00     0.031 C 
ATOM     33  C   UNL A   1      42.538  30.485  36.239  1.00  0.00     0.029 A 
ATOM     34  C   UNL A   1      42.186  30.113  34.952  1.00  0.00     0.049 A 
ATOM     35  H   UNL A   1      40.712  30.935  33.684  1.00  0.00     0.167 HD
ATOM     36  C   UNL A   1      42.333  28.750  32.884  1.00  0.00     0.074 A 
ATOM     37  C   UNL A   1      42.906  27.693  32.077  1.00  0.00     0.031 C 
ATOM     38  C   UNL A   1      42.742  29.063  34.139  1.00  0.00     0.037 A 
BRANCH  25  39
ATOM     39  C   UNL A   1      39.725  33.813  36.675  1.00  0.00     0.064 A 
ATOM     40  C   UNL A   1      40.360  35.063  36.706  1.00  0.00     0.173 A 
ATOM     41  C   UNL A   1      38.901  33.467  37.759  1.00  0.00     0.173 A 
ATOM     42  F   UNL A   1      41.167  35.435  35.701  1.00  0.00    -0.203 F 
ATOM     43  C   UNL A   1      40.193  35.923  37.789  1.00  0.00     0.198 A 
ATOM     44  C   UNL A   1      38.717  34.341  38.827  1.00  0.00     0.198 A 
ATOM     45  F   UNL A   1      38.266  32.286  37.775  1.00  0.00    -0.203 F 
ATOM     46  F   UNL A   1      40.841  37.097  37.815  1.00  0.00    -0.200 F 
ATOM     47  C   UNL A   1      39.368  35.566  38.844  1.00  0.00     0.200 A 
ATOM     48  F   UNL A   1      37.911  33.998  39.841  1.00  0.00    -0.200 F 
ATOM     49  F   UNL A   1      39.203  36.399  39.880  1.00  0.00    -0.200 F 
ENDBRANCH  25  39
BRANCH  26  50
ATOM     50  C   UNL A   1      40.566  28.032  28.586  1.00  0.00     0.064 A 
ATOM     51  C   UNL A   1      39.892  26.805  28.528  1.00  0.00     0.173 A 
ATOM     52  C   UNL A   1      41.332  28.412  27.475  1.00  0.00     0.173 A 
ATOM     53  F   UNL A   1      39.162  26.392  29.575  1.00  0.00    -0.203 F 
ATOM     54  C   UNL A   1      39.989  25.985  27.407  1.00  0.00     0.198 A 
ATOM     55  C   UNL A   1      41.407  27.605  26.344  1.00  0.00     0.198 A 
ATOM     56  F   UNL A   1      41.991  29.580  27.482  1.00  0.00    -0.203 F 
ATOM     57  F   UNL A   1      39.363  24.800  27.390  1.00  0.00    -0.200 F 
ATOM     58  C   UNL A   1      40.741  26.388  26.313  1.00  0.00     0.200 A 
ATOM     59  F   UNL A   1      42.121  28.005  25.283  1.00  0.00    -0.200 F 
ATOM     60  F   UNL A   1      40.825  25.604  25.231  1.00  0.00    -0.200 F 
ENDBRANCH  26  50
BRANCH  38  61
ATOM     61  C   UNL A   1      43.843  28.228  34.721  1.00  0.00     0.064 A 
ATOM     62  C   UNL A   1      43.573  27.038  35.413  1.00  0.00     0.173 A 
ATOM     63  C   UNL A   1      45.183  28.614  34.570  1.00  0.00     0.173 A 
ATOM     64  F   UNL A   1      42.307  26.637  35.598  1.00  0.00    -0.203 F 
ATOM     65  C   UNL A   1      44.606  26.279  35.957  1.00  0.00     0.198 A 
ATOM     66  C   UNL A   1      46.214  27.840  35.094  1.00  0.00     0.198 A 
ATOM     67  F   UNL A   1      45.492  29.742  33.913  1.00  0.00    -0.203 F 
ATOM     68  F   UNL A   1      44.324  25.172  36.658  1.00  0.00    -0.200 F 
ATOM     69  C   UNL A   1      45.925  26.678  35.794  1.00  0.00     0.200 A 
ATOM     70  F   UNL A   1      47.488  28.222  34.928  1.00  0.00    -0.200 F 
ATOM     71  F   UNL A   1      46.917  25.947  36.320  1.00  0.00    -0.200 F 
ENDBRANCH  38  61
ENDBRANCH  12  13
ENDBRANCH   5   7
ENDBRANCH   2   3
ENDBRANCH   1   2
BRANCH   1  72
ATOM     72  C   UNL A   1      31.902  30.642  26.010  1.00  0.00     0.023 C 
BRANCH  72  73
ATOM     73  C   UNL A   1      32.443  29.434  26.771  1.00  0.00     0.116 C 
BRANCH  73  74
ATOM     74  N   UNL A   1      31.445  28.395  26.975  1.00  0.00    -0.354 N 
ATOM     75  C   UNL A   1      31.395  27.131  26.436  1.00  0.00     0.242 C 
ATOM     76  H   UNL A   1      30.706  28.628  27.582  1.00  0.00     0.163 HD
ATOM     77  O   UNL A   1      30.500  26.367  26.796  1.00  0.00    -0.273 OA
BRANCH  75  78
ATOM     78  C   UNL A   1      32.530  26.724  25.484  1.00  0.00     0.175 C 
ATOM     79  C   UNL A   1      32.631  25.198  25.614  1.00  0.00     0.044 C 
ATOM     80  N   UNL A   1      32.431  26.915  24.045  1.00  0.00    -0.330 N 
ATOM     81  C   UNL A   1      33.326  24.698  24.337  1.00  0.00    -0.006 C 
ATOM     82  C   UNL A   1      33.112  25.843  23.334  1.00  0.00     0.127 C 
ATOM     83  C   UNL A   1      32.663  23.401  23.831  1.00  0.00     0.030 C 
ATOM     84  C   UNL A   1      34.828  24.424  24.583  1.00  0.00     0.030 C 
ATOM     85  C   UNL A   1      32.891  22.246  24.798  1.00  0.00     0.120 C 
ATOM     86  C   UNL A   1      35.081  23.191  25.460  1.00  0.00     0.120 C 
ATOM     87  N   UNL A   1      34.322  22.030  25.001  1.00  0.00    -0.339 N 
ATOM     88  C   UNL A   1      34.938  20.779  25.025  1.00  0.00     0.253 C 
ATOM     89  O   UNL A   1      36.064  20.585  25.478  1.00  0.00    -0.269 OA
BRANCH  80  90
ATOM     90  C   UNL A   1      32.193  28.090  23.354  1.00  0.00     0.226 C 
ATOM     91  O   UNL A   1      33.075  28.924  23.167  1.00  0.00    -0.275 OA
BRANCH  90  92
ATOM     92  C   UNL A   1      30.883  28.310  22.688  1.00  0.00     0.079 C 
ATOM     93  C   UNL A   1      29.541  27.777  23.113  1.00  0.00     0.014 C 
ATOM     94  C   UNL A   1      29.879  29.203  23.399  1.00  0.00     0.014 C 
ENDBRANCH  90  92
ENDBRANCH  80  90
BRANCH  88  95
ATOM     95  C   UNL A   1      34.210  19.616  24.473  1.00  0.00     0.043 A 
ATOM     96  C   UNL A   1      32.992  19.794  23.802  1.00  0.00     0.014 A 
ATOM     97  C   UNL A   1      34.771  18.344  24.597  1.00  0.00     0.060 A 
ATOM     98  C   UNL A   1      32.309  18.683  23.303  1.00  0.00     0.005 A 
ATOM     99  C   UNL A   1      34.083  17.250  24.088  1.00  0.00     0.116 A 
ATOM    100  C   UNL A   1      32.854  17.406  23.450  1.00  0.00     0.046 A 
BRANCH  99 101
ATOM    101  O   UNL A   1      34.650  16.018  24.236  1.00  0.00    -0.508 OA
ATOM    102  H   UNL A   1      34.209  15.355  24.728  1.00  0.00     0.293 HD
ENDBRANCH  99 101
ENDBRANCH  88  95
ENDBRANCH  75  78
ENDBRANCH  73  74
ENDBRANCH  72  73
ENDBRANCH   1  72
TORSDOF 15
ENDMDL
