MODEL 1
REMARK VINA RESULT:     -11.6      0.000      0.000
REMARK SMILES CC(=O)N[C@H](C(=O)NC1(CC(=O)NCCCCNC(=O)c2ccc(-c3c4nc(c(-c5c(F)c(F)c(F)c(F)c5F)c5ccc([nH]5)c(-c5c(F)c(F)c(F)c(F)c5F)c5nc(c(-c6c(F)c(F)c(F)c(F)c6F)c6ccc3[nH]6)C=C5)C=C4)cc2)CCC1)C(C)C
REMARK SMILES IDX 14 1 13 2 11 3 12 4 10 6 9 7 84 8 86 9 85 10 8 11 6 12 7 13
REMARK SMILES IDX 5 15 4 16 1 17 2 18 3 19 87 21 88 22 89 23 15 24 16 25 17 26
REMARK SMILES IDX 18 27 19 28 20 30 21 31 22 32 83 33 23 34 82 35 24 36 25 37
REMARK SMILES IDX 26 38 76 39 27 40 81 41 75 42 77 43 28 44 80 45 74 46 73 47
REMARK SMILES IDX 29 49 61 50 41 51 60 52 42 53 45 54 59 55 78 56 43 57 44 58
REMARK SMILES IDX 58 60 79 61 46 62 30 63 31 64 39 65 32 66 33 67 37 68 40 69
REMARK SMILES IDX 34 70 35 71 38 72 36 73 62 74 63 75 71 76 64 77 65 78 69 79
REMARK SMILES IDX 72 80 66 81 67 82 70 83 68 84 47 85 48 86 56 87 49 88 50 89
REMARK SMILES IDX 54 90 57 91 51 92 52 93 55 94 53 95
REMARK H PARENT 13 5 8 14 4 20 18 29 77 48 45 59
REMARK Flexibility Score: inf
ROOT
ATOM      1  C   UNL A   1      32.824  30.197  26.091  1.00  0.00     0.116 C 
ENDROOT
BRANCH   1   2
ATOM      2  N   UNL A   1      33.204  29.730  24.771  1.00  0.00    -0.356 N 
ATOM      3  C   UNL A   1      33.593  28.498  24.349  1.00  0.00     0.222 C 
ATOM      4  O   UNL A   1      33.948  28.380  23.174  1.00  0.00    -0.275 OA
ATOM      5  H   UNL A   1      33.175  30.417  24.068  1.00  0.00     0.163 HD
BRANCH   3   6
ATOM      6  C   UNL A   1      33.613  27.324  25.289  1.00  0.00     0.128 C 
BRANCH   6   7
ATOM      7  C   UNL A   1      32.569  26.226  25.043  1.00  0.00     0.049 C 
ATOM      8  C   UNL A   1      31.120  26.883  24.911  1.00  0.00     0.029 C 
ATOM      9  C   UNL A   1      31.927  25.502  26.275  1.00  0.00     0.029 C 
ATOM     10  C   UNL A   1      30.931  26.663  26.413  1.00  0.00     0.005 C 
BRANCH   7  11
ATOM     11  N   UNL A   1      32.813  25.480  23.775  1.00  0.00    -0.348 N 
ATOM     12  C   UNL A   1      33.581  24.431  23.334  1.00  0.00     0.243 C 
ATOM     13  O   UNL A   1      33.481  24.201  22.124  1.00  0.00    -0.273 OA
ATOM     14  H   UNL A   1      32.267  25.846  23.043  1.00  0.00     0.164 HD
BRANCH  12  15
ATOM     15  C   UNL A   1      34.416  23.521  24.266  1.00  0.00     0.173 C 
BRANCH  15  16
ATOM     16  N   UNL A   1      34.128  22.072  24.178  1.00  0.00    -0.344 N 
ATOM     17  C   UNL A   1      33.660  21.269  26.518  1.00  0.00     0.114 C 
ATOM     18  C   UNL A   1      34.009  21.064  25.071  1.00  0.00     0.217 C 
ATOM     19  O   UNL A   1      34.170  19.919  24.634  1.00  0.00    -0.275 OA
ATOM     20  H   UNL A   1      33.992  21.771  23.251  1.00  0.00     0.164 HD
ENDBRANCH  15  16
BRANCH  15  21
ATOM     21  C   UNL A   1      35.987  23.703  24.272  1.00  0.00     0.015 C 
ATOM     22  C   UNL A   1      36.750  23.375  25.557  1.00  0.00     0.010 C 
ATOM     23  C   UNL A   1      36.652  22.890  23.139  1.00  0.00     0.010 C 
ENDBRANCH  15  21
ENDBRANCH  12  15
ENDBRANCH   7  11
ENDBRANCH   6   7
ENDBRANCH   3   6
ENDBRANCH   1   2
BRANCH   1  24
ATOM     24  C   UNL A   1      31.425  30.818  26.118  1.00  0.00     0.023 C 
BRANCH  24  25
ATOM     25  C   UNL A   1      31.360  32.289  26.485  1.00  0.00     0.023 C 
BRANCH  25  26
ATOM     26  C   UNL A   1      32.555  32.816  27.238  1.00  0.00     0.116 C 
BRANCH  26  27
ATOM     27  N   UNL A   1      32.383  34.202  27.624  1.00  0.00    -0.352 N 
ATOM     28  C   UNL A   1      33.005  34.883  28.639  1.00  0.00     0.251 C 
ATOM     29  H   UNL A   1      31.737  34.720  27.090  1.00  0.00     0.163 HD
ATOM     30  O   UNL A   1      32.609  35.990  28.977  1.00  0.00    -0.269 OA
BRANCH  28  31
ATOM     31  C   UNL A   1      34.148  34.253  29.331  1.00  0.00     0.039 A 
ATOM     32  C   UNL A   1      33.899  33.384  30.393  1.00  0.00     0.014 A 
ATOM     33  C   UNL A   1      35.460  34.519  28.927  1.00  0.00     0.014 A 
ATOM     34  C   UNL A   1      34.967  32.763  31.036  1.00  0.00     0.010 A 
ATOM     35  C   UNL A   1      36.514  33.822  29.496  1.00  0.00     0.010 A 
ATOM     36  C   UNL A   1      36.280  32.965  30.580  1.00  0.00    -0.014 A 
BRANCH  36  37
ATOM     37  C   UNL A   1      37.435  32.337  31.263  1.00  0.00     0.031 A 
ATOM     38  C   UNL A   1      38.163  31.204  30.595  1.00  0.00     0.074 A 
ATOM     39  C   UNL A   1      37.788  32.755  32.493  1.00  0.00     0.049 A 
ATOM     40  N   UNL A   1      39.159  30.482  31.040  1.00  0.00    -0.248 NA
ATOM     41  C   UNL A   1      37.683  30.802  29.262  1.00  0.00     0.031 C 
ATOM     42  C   UNL A   1      37.118  33.811  33.251  1.00  0.00     0.029 A 
ATOM     43  N   UNL A   1      38.795  32.335  33.322  1.00  0.00    -0.354 N 
ATOM     44  C   UNL A   1      39.411  29.540  30.051  1.00  0.00     0.074 A 
ATOM     45  C   UNL A   1      38.423  29.732  29.016  1.00  0.00     0.031 C 
ATOM     46  C   UNL A   1      37.751  33.979  34.423  1.00  0.00     0.029 A 
ATOM     47  C   UNL A   1      38.845  33.017  34.513  1.00  0.00     0.049 A 
ATOM     48  H   UNL A   1      39.423  31.615  33.086  1.00  0.00     0.167 HD
ATOM     49  C   UNL A   1      40.400  28.617  30.000  1.00  0.00     0.037 A 
ATOM     50  C   UNL A   1      39.680  32.874  35.559  1.00  0.00     0.037 A 
ATOM     51  C   UNL A   1      41.396  28.457  31.026  1.00  0.00     0.049 A 
ATOM     52  C   UNL A   1      40.770  31.839  35.478  1.00  0.00     0.074 A 
ATOM     53  C   UNL A   1      42.479  27.596  31.052  1.00  0.00     0.029 A 
ATOM     54  N   UNL A   1      41.425  29.176  32.212  1.00  0.00    -0.354 N 
ATOM     55  N   UNL A   1      41.046  31.001  34.507  1.00  0.00    -0.248 NA
ATOM     56  C   UNL A   1      41.670  31.735  36.633  1.00  0.00     0.031 C 
ATOM     57  C   UNL A   1      43.131  27.758  32.277  1.00  0.00     0.029 A 
ATOM     58  C   UNL A   1      42.494  28.761  32.989  1.00  0.00     0.049 A 
ATOM     59  H   UNL A   1      40.782  29.878  32.464  1.00  0.00     0.167 HD
ATOM     60  C   UNL A   1      42.167  30.293  34.919  1.00  0.00     0.074 A 
ATOM     61  C   UNL A   1      42.528  30.813  36.223  1.00  0.00     0.031 C 
ATOM     62  C   UNL A   1      42.837  29.301  34.281  1.00  0.00     0.037 A 
BRANCH  49  63
ATOM     63  C   UNL A   1      40.453  27.718  28.797  1.00  0.00     0.064 A 
ATOM     64  C   UNL A   1      41.195  28.054  27.654  1.00  0.00     0.173 A 
ATOM     65  C   UNL A   1      39.772  26.491  28.796  1.00  0.00     0.173 A 
ATOM     66  F   UNL A   1      41.853  29.222  27.596  1.00  0.00    -0.203 F 
ATOM     67  C   UNL A   1      41.225  27.215  26.544  1.00  0.00     0.198 A 
ATOM     68  C   UNL A   1      39.834  25.637  27.696  1.00  0.00     0.198 A 
ATOM     69  F   UNL A   1      39.049  26.115  29.862  1.00  0.00    -0.203 F 
ATOM     70  F   UNL A   1      41.892  27.587  25.442  1.00  0.00    -0.200 F 
ATOM     71  C   UNL A   1      40.551  26.004  26.568  1.00  0.00     0.200 A 
ATOM     72  F   UNL A   1      39.192  24.461  27.728  1.00  0.00    -0.200 F 
ATOM     73  F   UNL A   1      40.587  25.193  25.502  1.00  0.00    -0.200 F 
ENDBRANCH  49  63
BRANCH  50  74
ATOM     74  C   UNL A   1      39.536  33.749  36.752  1.00  0.00     0.064 A 
ATOM     75  C   UNL A   1      40.169  34.998  36.811  1.00  0.00     0.173 A 
ATOM     76  C   UNL A   1      38.763  33.358  37.854  1.00  0.00     0.173 A 
ATOM     77  F   UNL A   1      40.932  35.411  35.788  1.00  0.00    -0.203 F 
ATOM     78  C   UNL A   1      40.054  35.812  37.935  1.00  0.00     0.198 A 
ATOM     79  C   UNL A   1      38.623  34.187  38.967  1.00  0.00     0.198 A 
ATOM     80  F   UNL A   1      38.128  32.177  37.847  1.00  0.00    -0.203 F 
ATOM     81  F   UNL A   1      40.710  36.980  37.984  1.00  0.00    -0.200 F 
ATOM     82  C   UNL A   1      39.276  35.409  39.010  1.00  0.00     0.200 A 
ATOM     83  F   UNL A   1      37.856  33.800  39.996  1.00  0.00    -0.200 F 
ATOM     84  F   UNL A   1      39.162  36.194  40.091  1.00  0.00    -0.200 F 
ENDBRANCH  50  74
BRANCH  62  85
ATOM     85  C   UNL A   1      44.048  28.741  34.967  1.00  0.00     0.064 A 
ATOM     86  C   UNL A   1      45.319  29.307  34.798  1.00  0.00     0.173 A 
ATOM     87  C   UNL A   1      43.924  27.651  35.842  1.00  0.00     0.173 A 
ATOM     88  F   UNL A   1      45.492  30.343  33.963  1.00  0.00    -0.203 F 
ATOM     89  C   UNL A   1      46.428  28.782  35.455  1.00  0.00     0.198 A 
ATOM     90  C   UNL A   1      45.029  27.151  36.524  1.00  0.00     0.198 A 
ATOM     91  F   UNL A   1      42.728  27.079  36.046  1.00  0.00    -0.203 F 
ATOM     92  F   UNL A   1      47.643  29.305  35.238  1.00  0.00    -0.200 F 
ATOM     93  C   UNL A   1      46.281  27.712  36.325  1.00  0.00     0.200 A 
ATOM     94  F   UNL A   1      44.881  26.128  37.377  1.00  0.00    -0.200 F 
ATOM     95  F   UNL A   1      47.348  27.214  36.965  1.00  0.00    -0.200 F 
ENDBRANCH  62  85
ENDBRANCH  36  37
ENDBRANCH  28  31
ENDBRANCH  26  27
ENDBRANCH  25  26
ENDBRANCH  24  25
ENDBRANCH   1  24
TORSDOF 16
ENDMDL
MODEL 2
REMARK VINA RESULT:     -11.5      5.235     10.855
REMARK SMILES CC(=O)N[C@H](C(=O)NC1(CC(=O)NCCCCNC(=O)c2ccc(-c3c4nc(c(-c5c(F)c(F)c(F)c(F)c5F)c5ccc([nH]5)c(-c5c(F)c(F)c(F)c(F)c5F)c5nc(c(-c6c(F)c(F)c(F)c(F)c6F)c6ccc3[nH]6)C=C5)C=C4)cc2)CCC1)C(C)C
REMARK SMILES IDX 14 1 13 2 11 3 12 4 10 6 9 7 84 8 86 9 85 10 8 11 6 12 7 13
REMARK SMILES IDX 5 15 4 16 1 17 2 18 3 19 87 21 88 22 89 23 15 24 16 25 17 26
REMARK SMILES IDX 18 27 19 28 20 30 21 31 22 32 83 33 23 34 82 35 24 36 25 37
REMARK SMILES IDX 26 38 76 39 27 40 81 41 75 42 77 43 28 44 80 45 74 46 73 47
REMARK SMILES IDX 29 49 61 50 41 51 60 52 42 53 45 54 59 55 78 56 43 57 44 58
REMARK SMILES IDX 58 60 79 61 46 62 30 63 31 64 39 65 32 66 33 67 37 68 40 69
REMARK SMILES IDX 34 70 35 71 38 72 36 73 62 74 63 75 71 76 64 77 65 78 69 79
REMARK SMILES IDX 72 80 66 81 67 82 70 83 68 84 47 85 48 86 56 87 49 88 50 89
REMARK SMILES IDX 54 90 57 91 51 92 52 93 55 94 53 95
REMARK H PARENT 13 5 8 14 4 20 18 29 77 48 45 59
REMARK Flexibility Score: inf
ROOT
ATOM      1  C   UNL A   1      36.542  21.811  25.755  1.00  0.00     0.116 C 
ENDROOT
BRANCH   1   2
ATOM      2  N   UNL A   1      35.555  21.893  26.814  1.00  0.00    -0.356 N 
ATOM      3  C   UNL A   1      34.303  22.422  26.815  1.00  0.00     0.222 C 
ATOM      4  O   UNL A   1      33.689  22.441  27.884  1.00  0.00    -0.275 OA
ATOM      5  H   UNL A   1      35.838  21.503  27.671  1.00  0.00     0.163 HD
BRANCH   3   6
ATOM      6  C   UNL A   1      33.697  22.987  25.560  1.00  0.00     0.128 C 
BRANCH   6   7
ATOM      7  C   UNL A   1      32.346  22.403  25.122  1.00  0.00     0.049 C 
ATOM      8  C   UNL A   1      32.442  20.810  25.067  1.00  0.00     0.029 C 
ATOM      9  C   UNL A   1      32.045  22.255  23.592  1.00  0.00     0.029 C 
ATOM     10  C   UNL A   1      32.818  20.928  23.590  1.00  0.00     0.005 C 
BRANCH   7  11
ATOM     11  N   UNL A   1      31.248  22.729  26.078  1.00  0.00    -0.348 N 
ATOM     12  C   UNL A   1      30.562  23.835  26.513  1.00  0.00     0.243 C 
ATOM     13  O   UNL A   1      29.735  23.603  27.402  1.00  0.00    -0.273 OA
ATOM     14  H   UNL A   1      30.921  21.915  26.526  1.00  0.00     0.164 HD
BRANCH  12  15
ATOM     15  C   UNL A   1      30.704  25.241  25.884  1.00  0.00     0.173 C 
BRANCH  15  16
ATOM     16  N   UNL A   1      31.996  25.924  26.120  1.00  0.00    -0.344 N 
ATOM     17  C   UNL A   1      31.509  27.967  27.507  1.00  0.00     0.114 C 
ATOM     18  C   UNL A   1      32.367  27.132  26.600  1.00  0.00     0.217 C 
ATOM     19  O   UNL A   1      33.493  27.529  26.281  1.00  0.00    -0.275 OA
ATOM     20  H   UNL A   1      32.768  25.367  25.868  1.00  0.00     0.164 HD
ENDBRANCH  15  16
BRANCH  15  21
ATOM     21  C   UNL A   1      30.338  25.414  24.355  1.00  0.00     0.015 C 
ATOM     22  C   UNL A   1      29.189  26.353  23.987  1.00  0.00     0.010 C 
ATOM     23  C   UNL A   1      31.564  25.863  23.530  1.00  0.00     0.010 C 
ENDBRANCH  15  21
ENDBRANCH  12  15
ENDBRANCH   7  11
ENDBRANCH   6   7
ENDBRANCH   3   6
ENDBRANCH   1   2
BRANCH   1  24
ATOM     24  C   UNL A   1      36.481  20.485  24.992  1.00  0.00     0.023 C 
BRANCH  24  25
ATOM     25  C   UNL A   1      37.800  19.751  24.834  1.00  0.00     0.023 C 
BRANCH  25  26
ATOM     26  C   UNL A   1      38.911  20.224  25.737  1.00  0.00     0.116 C 
BRANCH  26  27
ATOM     27  N   UNL A   1      39.942  19.219  25.897  1.00  0.00    -0.352 N 
ATOM     28  C   UNL A   1      41.284  19.408  26.106  1.00  0.00     0.251 C 
ATOM     29  H   UNL A   1      39.641  18.282  25.850  1.00  0.00     0.163 HD
ATOM     30  O   UNL A   1      42.064  18.469  26.017  1.00  0.00    -0.269 OA
BRANCH  28  31
ATOM     31  C   UNL A   1      41.778  20.764  26.421  1.00  0.00     0.039 A 
ATOM     32  C   UNL A   1      42.046  21.094  27.749  1.00  0.00     0.014 A 
ATOM     33  C   UNL A   1      41.976  21.703  25.404  1.00  0.00     0.014 A 
ATOM     34  C   UNL A   1      42.537  22.361  28.055  1.00  0.00     0.010 A 
ATOM     35  C   UNL A   1      42.562  22.925  25.696  1.00  0.00     0.010 A 
ATOM     36  C   UNL A   1      42.815  23.279  27.028  1.00  0.00    -0.014 A 
BRANCH  36  37
ATOM     37  C   UNL A   1      43.312  24.641  27.329  1.00  0.00     0.031 A 
ATOM     38  C   UNL A   1      42.374  25.658  27.917  1.00  0.00     0.074 A 
ATOM     39  C   UNL A   1      44.583  24.967  27.027  1.00  0.00     0.049 A 
ATOM     40  N   UNL A   1      42.590  26.916  28.204  1.00  0.00    -0.248 NA
ATOM     41  C   UNL A   1      40.996  25.211  28.186  1.00  0.00     0.031 C 
ATOM     42  C   UNL A   1      45.561  24.072  26.407  1.00  0.00     0.029 A 
ATOM     43  N   UNL A   1      45.266  26.143  27.196  1.00  0.00    -0.354 N 
ATOM     44  C   UNL A   1      41.377  27.407  28.670  1.00  0.00     0.074 A 
ATOM     45  C   UNL A   1      40.412  26.338  28.563  1.00  0.00     0.031 C 
ATOM     46  C   UNL A   1      46.727  24.722  26.276  1.00  0.00     0.029 A 
ATOM     47  C   UNL A   1      46.569  26.088  26.766  1.00  0.00     0.049 A 
ATOM     48  H   UNL A   1      44.862  26.950  27.589  1.00  0.00     0.167 HD
ATOM     49  C   UNL A   1      41.104  28.635  29.172  1.00  0.00     0.037 A 
ATOM     50  C   UNL A   1      47.522  27.038  26.765  1.00  0.00     0.037 A 
ATOM     51  C   UNL A   1      42.082  29.681  29.300  1.00  0.00     0.049 A 
ATOM     52  C   UNL A   1      47.191  28.395  27.327  1.00  0.00     0.074 A 
ATOM     53  C   UNL A   1      41.932  30.942  29.849  1.00  0.00     0.029 A 
ATOM     54  N   UNL A   1      43.397  29.584  28.868  1.00  0.00    -0.354 N 
ATOM     55  N   UNL A   1      46.062  28.829  27.833  1.00  0.00    -0.248 NA
ATOM     56  C   UNL A   1      48.269  29.391  27.325  1.00  0.00     0.031 C 
ATOM     57  C   UNL A   1      43.142  31.626  29.700  1.00  0.00     0.029 A 
ATOM     58  C   UNL A   1      44.064  30.773  29.116  1.00  0.00     0.049 A 
ATOM     59  H   UNL A   1      43.798  28.788  28.449  1.00  0.00     0.167 HD
ATOM     60  C   UNL A   1      46.300  30.135  28.237  1.00  0.00     0.074 A 
ATOM     61  C   UNL A   1      47.688  30.416  27.931  1.00  0.00     0.031 C 
ATOM     62  C   UNL A   1      45.450  31.024  28.808  1.00  0.00     0.037 A 
BRANCH  49  63
ATOM     63  C   UNL A   1      39.695  28.906  29.621  1.00  0.00     0.064 A 
ATOM     64  C   UNL A   1      38.733  29.444  28.751  1.00  0.00     0.173 A 
ATOM     65  C   UNL A   1      39.294  28.601  30.930  1.00  0.00     0.173 A 
ATOM     66  F   UNL A   1      39.066  29.767  27.492  1.00  0.00    -0.203 F 
ATOM     67  C   UNL A   1      37.435  29.699  29.185  1.00  0.00     0.198 A 
ATOM     68  C   UNL A   1      37.984  28.825  31.351  1.00  0.00     0.198 A 
ATOM     69  F   UNL A   1      40.170  28.083  31.804  1.00  0.00    -0.203 F 
ATOM     70  F   UNL A   1      36.552  30.269  28.354  1.00  0.00    -0.200 F 
ATOM     71  C   UNL A   1      37.059  29.383  30.481  1.00  0.00     0.200 A 
ATOM     72  F   UNL A   1      37.621  28.506  32.600  1.00  0.00    -0.200 F 
ATOM     73  F   UNL A   1      35.808  29.622  30.896  1.00  0.00    -0.200 F 
ENDBRANCH  49  63
BRANCH  50  74
ATOM     74  C   UNL A   1      48.880  26.730  26.245  1.00  0.00     0.064 A 
ATOM     75  C   UNL A   1      49.229  27.023  24.919  1.00  0.00     0.173 A 
ATOM     76  C   UNL A   1      49.857  26.141  27.060  1.00  0.00     0.173 A 
ATOM     77  F   UNL A   1      48.324  27.573  24.095  1.00  0.00    -0.203 F 
ATOM     78  C   UNL A   1      50.493  26.717  24.422  1.00  0.00     0.198 A 
ATOM     79  C   UNL A   1      51.132  25.863  26.570  1.00  0.00     0.198 A 
ATOM     80  F   UNL A   1      49.580  25.848  28.339  1.00  0.00    -0.203 F 
ATOM     81  F   UNL A   1      50.783  26.964  23.136  1.00  0.00    -0.200 F 
ATOM     82  C   UNL A   1      51.446  26.143  25.249  1.00  0.00     0.200 A 
ATOM     83  F   UNL A   1      52.056  25.325  27.379  1.00  0.00    -0.200 F 
ATOM     84  F   UNL A   1      52.665  25.853  24.772  1.00  0.00    -0.200 F 
ENDBRANCH  50  74
BRANCH  62  85
ATOM     85  C   UNL A   1      46.007  32.369  29.171  1.00  0.00     0.064 A 
ATOM     86  C   UNL A   1      45.944  33.458  28.290  1.00  0.00     0.173 A 
ATOM     87  C   UNL A   1      46.571  32.581  30.439  1.00  0.00     0.173 A 
ATOM     88  F   UNL A   1      45.426  33.302  27.062  1.00  0.00    -0.203 F 
ATOM     89  C   UNL A   1      46.453  34.701  28.651  1.00  0.00     0.198 A 
ATOM     90  C   UNL A   1      47.048  33.835  30.810  1.00  0.00     0.198 A 
ATOM     91  F   UNL A   1      46.647  31.576  31.323  1.00  0.00    -0.203 F 
ATOM     92  F   UNL A   1      46.431  35.714  27.773  1.00  0.00    -0.200 F 
ATOM     93  C   UNL A   1      46.995  34.892  29.913  1.00  0.00     0.200 A 
ATOM     94  F   UNL A   1      47.555  34.021  32.036  1.00  0.00    -0.200 F 
ATOM     95  F   UNL A   1      47.476  36.092  30.264  1.00  0.00    -0.200 F 
ENDBRANCH  62  85
ENDBRANCH  36  37
ENDBRANCH  28  31
ENDBRANCH  26  27
ENDBRANCH  25  26
ENDBRANCH  24  25
ENDBRANCH   1  24
TORSDOF 16
ENDMDL
MODEL 3
REMARK VINA RESULT:     -11.5      0.639      7.353
REMARK SMILES CC(=O)N[C@H](C(=O)NC1(CC(=O)NCCCCNC(=O)c2ccc(-c3c4nc(c(-c5c(F)c(F)c(F)c(F)c5F)c5ccc([nH]5)c(-c5c(F)c(F)c(F)c(F)c5F)c5nc(c(-c6c(F)c(F)c(F)c(F)c6F)c6ccc3[nH]6)C=C5)C=C4)cc2)CCC1)C(C)C
REMARK SMILES IDX 14 1 13 2 11 3 12 4 10 6 9 7 84 8 86 9 85 10 8 11 6 12 7 13
REMARK SMILES IDX 5 15 4 16 1 17 2 18 3 19 87 21 88 22 89 23 15 24 16 25 17 26
REMARK SMILES IDX 18 27 19 28 20 30 21 31 22 32 83 33 23 34 82 35 24 36 25 37
REMARK SMILES IDX 26 38 76 39 27 40 81 41 75 42 77 43 28 44 80 45 74 46 73 47
REMARK SMILES IDX 29 49 61 50 41 51 60 52 42 53 45 54 59 55 78 56 43 57 44 58
REMARK SMILES IDX 58 60 79 61 46 62 30 63 31 64 39 65 32 66 33 67 37 68 40 69
REMARK SMILES IDX 34 70 35 71 38 72 36 73 62 74 63 75 71 76 64 77 65 78 69 79
REMARK SMILES IDX 72 80 66 81 67 82 70 83 68 84 47 85 48 86 56 87 49 88 50 89
REMARK SMILES IDX 54 90 57 91 51 92 52 93 55 94 53 95
REMARK H PARENT 13 5 8 14 4 20 18 29 77 48 45 59
REMARK Flexibility Score: inf
ROOT
ATOM      1  C   UNL A   1      32.800  30.107  26.113  1.00  0.00     0.116 C 
ENDROOT
BRANCH   1   2
ATOM      2  N   UNL A   1      33.311  29.680  24.824  1.00  0.00    -0.356 N 
ATOM      3  C   UNL A   1      33.750  28.463  24.407  1.00  0.00     0.222 C 
ATOM      4  O   UNL A   1      34.219  28.381  23.270  1.00  0.00    -0.275 OA
ATOM      5  H   UNL A   1      33.346  30.387  24.141  1.00  0.00     0.163 HD
BRANCH   3   6
ATOM      6  C   UNL A   1      33.687  27.263  25.311  1.00  0.00     0.128 C 
BRANCH   6   7
ATOM      7  C   UNL A   1      32.668  26.174  24.943  1.00  0.00     0.049 C 
ATOM      8  C   UNL A   1      31.229  26.833  24.735  1.00  0.00     0.029 C 
ATOM      9  C   UNL A   1      31.944  25.395  26.092  1.00  0.00     0.029 C 
ATOM     10  C   UNL A   1      30.934  26.546  26.208  1.00  0.00     0.005 C 
BRANCH   7  11
ATOM     11  N   UNL A   1      33.008  25.486  23.664  1.00  0.00    -0.348 N 
ATOM     12  C   UNL A   1      33.775  24.428  23.241  1.00  0.00     0.243 C 
ATOM     13  O   UNL A   1      33.786  24.267  22.015  1.00  0.00    -0.273 OA
ATOM     14  H   UNL A   1      32.551  25.913  22.904  1.00  0.00     0.164 HD
BRANCH  12  15
ATOM     15  C   UNL A   1      34.479  23.436  24.196  1.00  0.00     0.173 C 
BRANCH  15  16
ATOM     16  N   UNL A   1      34.154  22.007  23.992  1.00  0.00    -0.344 N 
ATOM     17  C   UNL A   1      32.089  21.518  25.346  1.00  0.00     0.114 C 
ATOM     18  C   UNL A   1      33.319  21.121  24.581  1.00  0.00     0.217 C 
ATOM     19  O   UNL A   1      33.593  19.925  24.435  1.00  0.00    -0.275 OA
ATOM     20  H   UNL A   1      34.668  21.605  23.255  1.00  0.00     0.164 HD
ENDBRANCH  15  16
BRANCH  15  21
ATOM     21  C   UNL A   1      36.046  23.556  24.372  1.00  0.00     0.015 C 
ATOM     22  C   UNL A   1      36.599  23.837  25.770  1.00  0.00     0.010 C 
ATOM     23  C   UNL A   1      36.769  22.294  23.851  1.00  0.00     0.010 C 
ENDBRANCH  15  21
ENDBRANCH  12  15
ENDBRANCH   7  11
ENDBRANCH   6   7
ENDBRANCH   3   6
ENDBRANCH   1   2
BRANCH   1  24
ATOM     24  C   UNL A   1      31.429  30.781  26.011  1.00  0.00     0.023 C 
BRANCH  24  25
ATOM     25  C   UNL A   1      31.353  32.207  26.524  1.00  0.00     0.023 C 
BRANCH  25  26
ATOM     26  C   UNL A   1      32.620  32.734  27.149  1.00  0.00     0.116 C 
BRANCH  26  27
ATOM     27  N   UNL A   1      32.465  34.094  27.622  1.00  0.00    -0.352 N 
ATOM     28  C   UNL A   1      33.125  34.715  28.652  1.00  0.00     0.251 C 
ATOM     29  H   UNL A   1      31.801  34.643  27.143  1.00  0.00     0.163 HD
ATOM     30  O   UNL A   1      32.744  35.800  29.069  1.00  0.00    -0.269 OA
BRANCH  28  31
ATOM     31  C   UNL A   1      34.291  34.045  29.263  1.00  0.00     0.039 A 
ATOM     32  C   UNL A   1      34.076  33.067  30.234  1.00  0.00     0.014 A 
ATOM     33  C   UNL A   1      35.591  34.381  28.873  1.00  0.00     0.014 A 
ATOM     34  C   UNL A   1      35.167  32.409  30.798  1.00  0.00     0.010 A 
ATOM     35  C   UNL A   1      36.668  33.655  29.357  1.00  0.00     0.010 A 
ATOM     36  C   UNL A   1      36.469  32.687  30.350  1.00  0.00    -0.014 A 
BRANCH  36  37
ATOM     37  C   UNL A   1      37.647  32.021  30.953  1.00  0.00     0.031 A 
ATOM     38  C   UNL A   1      38.108  32.430  32.323  1.00  0.00     0.074 A 
ATOM     39  C   UNL A   1      38.320  31.093  30.247  1.00  0.00     0.049 A 
ATOM     40  N   UNL A   1      39.142  32.015  33.008  1.00  0.00    -0.248 NA
ATOM     41  C   UNL A   1      37.321  33.473  33.004  1.00  0.00     0.031 C 
ATOM     42  C   UNL A   1      37.988  30.660  28.888  1.00  0.00     0.029 A 
ATOM     43  N   UNL A   1      39.426  30.354  30.572  1.00  0.00    -0.354 N 
ATOM     44  C   UNL A   1      39.135  32.754  34.185  1.00  0.00     0.074 A 
ATOM     45  C   UNL A   1      38.039  33.690  34.094  1.00  0.00     0.031 C 
ATOM     46  C   UNL A   1      38.854  29.708  28.509  1.00  0.00     0.029 A 
ATOM     47  C   UNL A   1      39.822  29.492  29.579  1.00  0.00     0.049 A 
ATOM     48  H   UNL A   1      39.892  30.431  31.436  1.00  0.00     0.167 HD
ATOM     49  C   UNL A   1      39.952  32.637  35.257  1.00  0.00     0.037 A 
ATOM     50  C   UNL A   1      40.856  28.631  29.541  1.00  0.00     0.037 A 
ATOM     51  C   UNL A   1      41.022  31.678  35.345  1.00  0.00     0.049 A 
ATOM     52  C   UNL A   1      41.752  28.522  30.746  1.00  0.00     0.074 A 
ATOM     53  C   UNL A   1      41.874  31.431  36.406  1.00  0.00     0.029 A 
ATOM     54  N   UNL A   1      41.384  30.810  34.325  1.00  0.00    -0.354 N 
ATOM     55  N   UNL A   1      41.693  29.172  31.883  1.00  0.00    -0.248 NA
ATOM     56  C   UNL A   1      42.851  27.552  30.666  1.00  0.00     0.031 C 
ATOM     57  C   UNL A   1      42.787  30.450  36.008  1.00  0.00     0.029 A 
ATOM     58  C   UNL A   1      42.466  30.041  34.723  1.00  0.00     0.049 A 
ATOM     59  H   UNL A   1      40.939  30.749  33.450  1.00  0.00     0.167 HD
ATOM     60  C   UNL A   1      42.725  28.672  32.665  1.00  0.00     0.074 A 
ATOM     61  C   UNL A   1      43.384  27.651  31.875  1.00  0.00     0.031 C 
ATOM     62  C   UNL A   1      43.099  29.025  33.920  1.00  0.00     0.037 A 
BRANCH  49  63
ATOM     63  C   UNL A   1      39.718  33.564  36.416  1.00  0.00     0.064 A 
ATOM     64  C   UNL A   1      40.314  34.833  36.481  1.00  0.00     0.173 A 
ATOM     65  C   UNL A   1      38.866  33.189  37.466  1.00  0.00     0.173 A 
ATOM     66  F   UNL A   1      41.149  35.237  35.511  1.00  0.00    -0.203 F 
ATOM     67  C   UNL A   1      40.095  35.676  37.567  1.00  0.00     0.198 A 
ATOM     68  C   UNL A   1      38.621  34.049  38.535  1.00  0.00     0.198 A 
ATOM     69  F   UNL A   1      38.267  31.988  37.457  1.00  0.00    -0.203 F 
ATOM     70  F   UNL A   1      40.723  36.858  37.633  1.00  0.00    -0.200 F 
ATOM     71  C   UNL A   1      39.243  35.287  38.589  1.00  0.00     0.200 A 
ATOM     72  F   UNL A   1      37.787  33.676  39.515  1.00  0.00    -0.200 F 
ATOM     73  F   UNL A   1      39.027  36.102  39.631  1.00  0.00    -0.200 F 
ENDBRANCH  49  63
BRANCH  50  74
ATOM     74  C   UNL A   1      41.078  27.787  28.338  1.00  0.00     0.064 A 
ATOM     75  C   UNL A   1      41.930  28.209  27.308  1.00  0.00     0.173 A 
ATOM     76  C   UNL A   1      40.448  26.543  28.193  1.00  0.00     0.173 A 
ATOM     77  F   UNL A   1      42.544  29.399  27.392  1.00  0.00    -0.203 F 
ATOM     78  C   UNL A   1      42.125  27.431  26.169  1.00  0.00     0.198 A 
ATOM     79  C   UNL A   1      40.668  25.751  27.067  1.00  0.00     0.198 A 
ATOM     80  F   UNL A   1      39.630  26.086  29.152  1.00  0.00    -0.203 F 
ATOM     81  F   UNL A   1      42.907  27.882  25.177  1.00  0.00    -0.200 F 
ATOM     82  C   UNL A   1      41.499  26.200  26.051  1.00  0.00     0.200 A 
ATOM     83  F   UNL A   1      40.074  24.553  26.966  1.00  0.00    -0.200 F 
ATOM     84  F   UNL A   1      41.689  25.449  24.957  1.00  0.00    -0.200 F 
ENDBRANCH  50  74
BRANCH  62  85
ATOM     85  C   UNL A   1      44.247  28.275  34.529  1.00  0.00     0.064 A 
ATOM     86  C   UNL A   1      44.057  27.073  35.225  1.00  0.00     0.173 A 
ATOM     87  C   UNL A   1      45.560  28.745  34.373  1.00  0.00     0.173 A 
ATOM     88  F   UNL A   1      42.820  26.589  35.412  1.00  0.00    -0.203 F 
ATOM     89  C   UNL A   1      45.137  26.385  35.770  1.00  0.00     0.198 A 
ATOM     90  C   UNL A   1      46.640  28.036  34.889  1.00  0.00     0.198 A 
ATOM     91  F   UNL A   1      45.796  29.885  33.707  1.00  0.00    -0.203 F 
ATOM     92  F   UNL A   1      44.928  25.265  36.477  1.00  0.00    -0.200 F 
ATOM     93  C   UNL A   1      46.428  26.861  35.594  1.00  0.00     0.200 A 
ATOM     94  F   UNL A   1      47.887  28.489  34.702  1.00  0.00    -0.200 F 
ATOM     95  F   UNL A   1      47.468  26.192  36.110  1.00  0.00    -0.200 F 
ENDBRANCH  62  85
ENDBRANCH  36  37
ENDBRANCH  28  31
ENDBRANCH  26  27
ENDBRANCH  25  26
ENDBRANCH  24  25
ENDBRANCH   1  24
TORSDOF 16
ENDMDL
