MODEL 1
REMARK VINA RESULT:     -13.2      0.000      0.000
REMARK SMILES Cc1cc(Cl)cc2c1O[C@H](C(F)(F)F)C(C(=O)NCCCCNC(=O)c1ccc(-c3c4nc(c(-c5c(F)c(F)c(F)c(F)c5F)c5ccc([nH]5)c(-c5c(F)c(F)c(F)c(F)c5F)c5nc(c(-c6c(F)c(F)c(F)c(F)c6F)c6ccc3[nH]6)C=C5)C=C4)cc1)=C2
REMARK SMILES IDX 21 1 20 2 19 3 18 4 16 5 17 6 15 8 1 9 2 10 3 11 8 12 4 13
REMARK SMILES IDX 7 14 9 15 5 16 6 17 89 18 10 19 11 20 12 21 13 22 14 23
REMARK SMILES IDX 22 24 23 25 24 26 25 28 26 29 27 30 88 31 28 32 87 33 29 34
REMARK SMILES IDX 30 35 31 36 81 37 32 38 86 39 80 40 82 41 33 42 85 43 79 44
REMARK SMILES IDX 78 45 34 47 66 48 46 49 65 50 47 51 50 52 64 53 83 54 48 55
REMARK SMILES IDX 49 56 63 58 84 59 51 60 35 61 36 62 44 63 37 64 38 65 42 66
REMARK SMILES IDX 45 67 39 68 40 69 43 70 41 71 67 72 68 73 76 74 69 75 70 76
REMARK SMILES IDX 74 77 77 78 71 79 72 80 75 81 73 82 52 83 53 84 61 85 54 86
REMARK SMILES IDX 55 87 59 88 62 89 56 90 57 91 60 92 58 93
REMARK H PARENT 18 7 23 27 82 46 50 57
REMARK Flexibility Score: inf
ROOT
ATOM      1  C   UNL A   1      31.564  31.973  26.853  1.00  0.00     0.023 C 
ENDROOT
BRANCH   1   2
ATOM      2  C   UNL A   1      31.844  30.471  26.781  1.00  0.00     0.023 C 
BRANCH   2   3
ATOM      3  C   UNL A   1      33.252  30.122  26.307  1.00  0.00     0.116 C 
BRANCH   3   4
ATOM      4  N   UNL A   1      33.278  29.780  24.897  1.00  0.00    -0.352 N 
ATOM      5  C   UNL A   1      33.055  28.676  24.145  1.00  0.00     0.251 C 
ATOM      6  O   UNL A   1      33.200  28.835  22.929  1.00  0.00    -0.270 OA
ATOM      7  H   UNL A   1      33.521  30.554  24.340  1.00  0.00     0.163 HD
BRANCH   5   8
ATOM      8  C   UNL A   1      32.663  27.336  24.673  1.00  0.00     0.067 C 
ATOM      9  C   UNL A   1      30.348  23.234  26.815  1.00  0.00     0.048 C 
ATOM     10  C   UNL A   1      31.746  23.608  26.407  1.00  0.00    -0.007 A 
ATOM     11  C   UNL A   1      32.772  22.666  26.563  1.00  0.00     0.027 A 
ATOM     12  C   UNL A   1      32.063  24.865  25.873  1.00  0.00     0.131 A 
ATOM     13  C   UNL A   1      34.081  22.982  26.199  1.00  0.00     0.042 A 
ATOM     14  C   UNL A   1      33.379  25.186  25.516  1.00  0.00     0.019 A 
ATOM     15  O   UNL A   1      31.053  25.780  25.763  1.00  0.00    -0.475 OA
ATOM     16  Cl  UNL A   1      35.327  21.814  26.405  1.00  0.00    -0.084 Cl
ATOM     17  C   UNL A   1      34.391  24.238  25.681  1.00  0.00     0.032 A 
ATOM     18  C   UNL A   1      33.680  26.523  25.015  1.00  0.00     0.025 C 
ATOM     19  C   UNL A   1      31.248  26.850  24.799  1.00  0.00     0.314 C 
BRANCH  19  20
ATOM     20  C   UNL A   1      30.636  26.440  23.447  1.00  0.00     0.429 C 
ATOM     21  F   UNL A   1      29.648  25.528  23.631  1.00  0.00    -0.167 F 
ATOM     22  F   UNL A   1      30.072  27.486  22.797  1.00  0.00    -0.167 F 
ATOM     23  F   UNL A   1      31.541  25.896  22.605  1.00  0.00    -0.167 F 
ENDBRANCH  19  20
ENDBRANCH   5   8
ENDBRANCH   3   4
ENDBRANCH   2   3
ENDBRANCH   1   2
BRANCH   1  24
ATOM     24  C   UNL A   1      32.750  32.842  27.268  1.00  0.00     0.116 C 
BRANCH  24  25
ATOM     25  N   UNL A   1      32.384  34.199  27.646  1.00  0.00    -0.352 N 
ATOM     26  C   UNL A   1      32.970  34.998  28.597  1.00  0.00     0.251 C 
ATOM     27  H   UNL A   1      31.624  34.593  27.160  1.00  0.00     0.163 HD
ATOM     28  O   UNL A   1      32.512  36.104  28.863  1.00  0.00    -0.269 OA
BRANCH  26  29
ATOM     29  C   UNL A   1      34.138  34.480  29.331  1.00  0.00     0.039 A 
ATOM     30  C   UNL A   1      33.927  33.777  30.518  1.00  0.00     0.014 A 
ATOM     31  C   UNL A   1      35.423  34.621  28.798  1.00  0.00     0.014 A 
ATOM     32  C   UNL A   1      35.004  33.146  31.138  1.00  0.00     0.010 A 
ATOM     33  C   UNL A   1      36.484  33.941  29.384  1.00  0.00     0.010 A 
ATOM     34  C   UNL A   1      36.280  33.191  30.554  1.00  0.00    -0.014 A 
BRANCH  34  35
ATOM     35  C   UNL A   1      37.419  32.459  31.154  1.00  0.00     0.031 A 
ATOM     36  C   UNL A   1      37.907  32.829  32.523  1.00  0.00     0.074 A 
ATOM     37  C   UNL A   1      38.043  31.501  30.443  1.00  0.00     0.049 A 
ATOM     38  N   UNL A   1      38.919  32.347  33.198  1.00  0.00    -0.248 NA
ATOM     39  C   UNL A   1      37.173  33.900  33.218  1.00  0.00     0.031 C 
ATOM     40  C   UNL A   1      37.683  31.085  29.087  1.00  0.00     0.029 A 
ATOM     41  N   UNL A   1      39.114  30.704  30.762  1.00  0.00    -0.354 N 
ATOM     42  C   UNL A   1      38.947  33.060  34.389  1.00  0.00     0.074 A 
ATOM     43  C   UNL A   1      37.888  34.042  34.325  1.00  0.00     0.031 C 
ATOM     44  C   UNL A   1      38.497  30.087  28.703  1.00  0.00     0.029 A 
ATOM     45  C   UNL A   1      39.454  29.816  29.772  1.00  0.00     0.049 A 
ATOM     46  H   UNL A   1      39.592  30.763  31.621  1.00  0.00     0.167 HD
ATOM     47  C   UNL A   1      39.767  32.888  35.452  1.00  0.00     0.037 A 
ATOM     48  C   UNL A   1      40.426  28.886  29.736  1.00  0.00     0.037 A 
ATOM     49  C   UNL A   1      40.801  31.891  35.522  1.00  0.00     0.049 A 
ATOM     50  C   UNL A   1      41.329  28.722  30.927  1.00  0.00     0.074 A 
ATOM     51  C   UNL A   1      41.654  31.608  36.573  1.00  0.00     0.029 A 
ATOM     52  N   UNL A   1      41.117  31.011  34.498  1.00  0.00    -0.354 N 
ATOM     53  N   UNL A   1      41.319  29.369  32.066  1.00  0.00    -0.248 NA
ATOM     54  C   UNL A   1      42.380  27.698  30.827  1.00  0.00     0.031 C 
ATOM     55  C   UNL A   1      42.507  30.573  36.175  1.00  0.00     0.029 A 
ATOM     56  C   UNL A   1      42.162  30.191  34.889  1.00  0.00     0.049 A 
ATOM     57  H   UNL A   1      40.665  30.975  33.625  1.00  0.00     0.167 HD
ATOM     58  C   UNL A   1      42.343  28.822  32.826  1.00  0.00     0.074 A 
ATOM     59  C   UNL A   1      42.949  27.780  32.022  1.00  0.00     0.031 C 
ATOM     60  C   UNL A   1      42.747  29.156  34.075  1.00  0.00     0.037 A 
BRANCH  47  61
ATOM     61  C   UNL A   1      39.562  33.787  36.632  1.00  0.00     0.064 A 
ATOM     62  C   UNL A   1      38.774  33.389  37.722  1.00  0.00     0.173 A 
ATOM     63  C   UNL A   1      40.186  35.042  36.692  1.00  0.00     0.173 A 
ATOM     64  F   UNL A   1      38.146  32.204  37.704  1.00  0.00    -0.203 F 
ATOM     65  C   UNL A   1      38.600  34.225  38.822  1.00  0.00     0.198 A 
ATOM     66  C   UNL A   1      40.030  35.864  37.805  1.00  0.00     0.198 A 
ATOM     67  F   UNL A   1      40.950  35.467  35.675  1.00  0.00    -0.203 F 
ATOM     68  F   UNL A   1      37.810  33.841  39.834  1.00  0.00    -0.200 F 
ATOM     69  C   UNL A   1      39.233  35.457  38.866  1.00  0.00     0.200 A 
ATOM     70  F   UNL A   1      40.648  37.052  37.851  1.00  0.00    -0.200 F 
ATOM     71  F   UNL A   1      39.071  36.257  39.928  1.00  0.00    -0.200 F 
ENDBRANCH  47  61
BRANCH  48  72
ATOM     72  C   UNL A   1      40.562  28.007  28.547  1.00  0.00     0.064 A 
ATOM     73  C   UNL A   1      39.911  26.767  28.499  1.00  0.00     0.173 A 
ATOM     74  C   UNL A   1      41.322  28.391  27.433  1.00  0.00     0.173 A 
ATOM     75  F   UNL A   1      39.189  26.350  29.549  1.00  0.00    -0.203 F 
ATOM     76  C   UNL A   1      40.022  25.939  27.384  1.00  0.00     0.198 A 
ATOM     77  C   UNL A   1      41.415  27.572  26.310  1.00  0.00     0.198 A 
ATOM     78  F   UNL A   1      41.960  29.572  27.431  1.00  0.00    -0.203 F 
ATOM     79  F   UNL A   1      39.412  24.746  27.375  1.00  0.00    -0.200 F 
ATOM     80  C   UNL A   1      40.768  26.345  26.288  1.00  0.00     0.200 A 
ATOM     81  F   UNL A   1      42.128  27.972  25.248  1.00  0.00    -0.200 F 
ATOM     82  F   UNL A   1      40.867  25.553  25.212  1.00  0.00    -0.200 F 
ENDBRANCH  48  72
BRANCH  60  83
ATOM     83  C   UNL A   1      43.887  28.382  34.663  1.00  0.00     0.064 A 
ATOM     84  C   UNL A   1      45.206  28.843  34.566  1.00  0.00     0.173 A 
ATOM     85  C   UNL A   1      43.647  27.210  35.397  1.00  0.00     0.173 A 
ATOM     86  F   UNL A   1      45.484  29.951  33.863  1.00  0.00    -0.203 F 
ATOM     87  C   UNL A   1      46.250  28.154  35.176  1.00  0.00     0.198 A 
ATOM     88  C   UNL A   1      44.690  26.536  36.025  1.00  0.00     0.198 A 
ATOM     89  F   UNL A   1      42.400  26.734  35.522  1.00  0.00    -0.203 F 
ATOM     90  F   UNL A   1      47.508  28.597  35.052  1.00  0.00    -0.200 F 
ATOM     91  C   UNL A   1      45.990  27.007  35.914  1.00  0.00     0.200 A 
ATOM     92  F   UNL A   1      44.436  25.435  36.747  1.00  0.00    -0.200 F 
ATOM     93  F   UNL A   1      46.993  26.354  36.515  1.00  0.00    -0.200 F 
ENDBRANCH  60  83
ENDBRANCH  34  35
ENDBRANCH  26  29
ENDBRANCH  24  25
ENDBRANCH   1  24
TORSDOF 12
ENDMDL
MODEL 2
REMARK VINA RESULT:     -13.2      0.236      1.656
REMARK SMILES Cc1cc(Cl)cc2c1O[C@H](C(F)(F)F)C(C(=O)NCCCCNC(=O)c1ccc(-c3c4nc(c(-c5c(F)c(F)c(F)c(F)c5F)c5ccc([nH]5)c(-c5c(F)c(F)c(F)c(F)c5F)c5nc(c(-c6c(F)c(F)c(F)c(F)c6F)c6ccc3[nH]6)C=C5)C=C4)cc1)=C2
REMARK SMILES IDX 21 1 20 2 19 3 18 4 16 5 17 6 15 8 1 9 2 10 3 11 8 12 4 13
REMARK SMILES IDX 7 14 9 15 5 16 6 17 89 18 10 19 11 20 12 21 13 22 14 23
REMARK SMILES IDX 22 24 23 25 24 26 25 28 26 29 27 30 88 31 28 32 87 33 29 34
REMARK SMILES IDX 30 35 31 36 81 37 32 38 86 39 80 40 82 41 33 42 85 43 79 44
REMARK SMILES IDX 78 45 34 47 66 48 46 49 65 50 47 51 50 52 64 53 83 54 48 55
REMARK SMILES IDX 49 56 63 58 84 59 51 60 35 61 36 62 44 63 37 64 38 65 42 66
REMARK SMILES IDX 45 67 39 68 40 69 43 70 41 71 67 72 68 73 76 74 69 75 70 76
REMARK SMILES IDX 74 77 77 78 71 79 72 80 75 81 73 82 52 83 53 84 61 85 54 86
REMARK SMILES IDX 55 87 59 88 62 89 56 90 57 91 60 92 58 93
REMARK H PARENT 18 7 23 27 82 46 50 57
REMARK Flexibility Score: inf
ROOT
ATOM      1  C   UNL A   1      31.533  31.974  26.866  1.00  0.00     0.023 C 
ENDROOT
BRANCH   1   2
ATOM      2  C   UNL A   1      31.806  30.474  26.739  1.00  0.00     0.023 C 
BRANCH   2   3
ATOM      3  C   UNL A   1      33.284  30.119  26.607  1.00  0.00     0.116 C 
BRANCH   3   4
ATOM      4  N   UNL A   1      33.630  29.738  25.251  1.00  0.00    -0.352 N 
ATOM      5  C   UNL A   1      33.570  28.617  24.494  1.00  0.00     0.251 C 
ATOM      6  O   UNL A   1      33.995  28.741  23.342  1.00  0.00    -0.270 OA
ATOM      7  H   UNL A   1      34.008  30.495  24.747  1.00  0.00     0.163 HD
BRANCH   5   8
ATOM      8  C   UNL A   1      33.046  27.295  24.950  1.00  0.00     0.067 C 
ATOM      9  C   UNL A   1      30.321  23.327  26.849  1.00  0.00     0.048 C 
ATOM     10  C   UNL A   1      31.755  23.590  26.485  1.00  0.00    -0.007 A 
ATOM     11  C   UNL A   1      32.688  22.552  26.614  1.00  0.00     0.027 A 
ATOM     12  C   UNL A   1      32.197  24.837  26.018  1.00  0.00     0.131 A 
ATOM     13  C   UNL A   1      34.028  22.763  26.290  1.00  0.00     0.042 A 
ATOM     14  C   UNL A   1      33.545  25.051  25.701  1.00  0.00     0.019 A 
ATOM     15  O   UNL A   1      31.277  25.844  25.934  1.00  0.00    -0.475 OA
ATOM     16  Cl  UNL A   1      35.158  21.477  26.462  1.00  0.00    -0.084 Cl
ATOM     17  C   UNL A   1      34.462  24.008  25.839  1.00  0.00     0.032 A 
ATOM     18  C   UNL A   1      33.977  26.377  25.271  1.00  0.00     0.025 C 
ATOM     19  C   UNL A   1      31.590  26.936  25.027  1.00  0.00     0.314 C 
BRANCH  19  20
ATOM     20  C   UNL A   1      30.975  26.647  23.645  1.00  0.00     0.429 C 
ATOM     21  F   UNL A   1      30.374  27.759  23.153  1.00  0.00    -0.167 F 
ATOM     22  F   UNL A   1      31.906  26.282  22.731  1.00  0.00    -0.167 F 
ATOM     23  F   UNL A   1      30.050  25.664  23.677  1.00  0.00    -0.167 F 
ENDBRANCH  19  20
ENDBRANCH   5   8
ENDBRANCH   3   4
ENDBRANCH   2   3
ENDBRANCH   1   2
BRANCH   1  24
ATOM     24  C   UNL A   1      32.725  32.821  27.305  1.00  0.00     0.116 C 
BRANCH  24  25
ATOM     25  N   UNL A   1      32.376  34.186  27.674  1.00  0.00    -0.352 N 
ATOM     26  C   UNL A   1      32.979  34.989  28.611  1.00  0.00     0.251 C 
ATOM     27  H   UNL A   1      31.614  34.582  27.193  1.00  0.00     0.163 HD
ATOM     28  O   UNL A   1      32.534  36.101  28.871  1.00  0.00    -0.269 OA
BRANCH  26  29
ATOM     29  C   UNL A   1      34.151  34.467  29.336  1.00  0.00     0.039 A 
ATOM     30  C   UNL A   1      33.947  33.774  30.530  1.00  0.00     0.014 A 
ATOM     31  C   UNL A   1      35.431  34.594  28.790  1.00  0.00     0.014 A 
ATOM     32  C   UNL A   1      35.025  33.139  31.145  1.00  0.00     0.010 A 
ATOM     33  C   UNL A   1      36.493  33.910  29.371  1.00  0.00     0.010 A 
ATOM     34  C   UNL A   1      36.296  33.171  30.547  1.00  0.00    -0.014 A 
BRANCH  34  35
ATOM     35  C   UNL A   1      37.435  32.434  31.141  1.00  0.00     0.031 A 
ATOM     36  C   UNL A   1      37.930  32.801  32.509  1.00  0.00     0.074 A 
ATOM     37  C   UNL A   1      38.053  31.476  30.426  1.00  0.00     0.049 A 
ATOM     38  N   UNL A   1      38.943  32.315  33.178  1.00  0.00    -0.248 NA
ATOM     39  C   UNL A   1      37.202  33.872  33.208  1.00  0.00     0.031 C 
ATOM     40  C   UNL A   1      37.686  31.063  29.071  1.00  0.00     0.029 A 
ATOM     41  N   UNL A   1      39.123  30.675  30.739  1.00  0.00    -0.354 N 
ATOM     42  C   UNL A   1      38.979  33.025  34.370  1.00  0.00     0.074 A 
ATOM     43  C   UNL A   1      37.922  34.011  34.312  1.00  0.00     0.031 C 
ATOM     44  C   UNL A   1      38.495  30.064  28.681  1.00  0.00     0.029 A 
ATOM     45  C   UNL A   1      39.456  29.788  29.746  1.00  0.00     0.049 A 
ATOM     46  H   UNL A   1      39.605  30.732  31.595  1.00  0.00     0.167 HD
ATOM     47  C   UNL A   1      39.803  32.849  35.429  1.00  0.00     0.037 A 
ATOM     48  C   UNL A   1      40.426  28.855  29.703  1.00  0.00     0.037 A 
ATOM     49  C   UNL A   1      40.834  31.849  35.494  1.00  0.00     0.049 A 
ATOM     50  C   UNL A   1      41.334  28.687  30.890  1.00  0.00     0.074 A 
ATOM     51  C   UNL A   1      41.691  31.562  36.540  1.00  0.00     0.029 A 
ATOM     52  N   UNL A   1      41.143  30.970  34.467  1.00  0.00    -0.354 N 
ATOM     53  N   UNL A   1      41.330  29.332  32.031  1.00  0.00    -0.248 NA
ATOM     54  C   UNL A   1      42.381  27.660  30.784  1.00  0.00     0.031 C 
ATOM     55  C   UNL A   1      42.540  30.526  36.136  1.00  0.00     0.029 A 
ATOM     56  C   UNL A   1      42.188  30.146  34.851  1.00  0.00     0.049 A 
ATOM     57  H   UNL A   1      40.688  30.937  33.595  1.00  0.00     0.167 HD
ATOM     58  C   UNL A   1      42.356  28.781  32.785  1.00  0.00     0.074 A 
ATOM     59  C   UNL A   1      42.955  27.739  31.977  1.00  0.00     0.031 C 
ATOM     60  C   UNL A   1      42.766  29.112  34.033  1.00  0.00     0.037 A 
BRANCH  47  61
ATOM     61  C   UNL A   1      39.606  33.747  36.612  1.00  0.00     0.064 A 
ATOM     62  C   UNL A   1      40.201  35.017  36.669  1.00  0.00     0.173 A 
ATOM     63  C   UNL A   1      38.790  33.353  37.682  1.00  0.00     0.173 A 
ATOM     64  F   UNL A   1      41.001  35.432  35.676  1.00  0.00    -0.203 F 
ATOM     65  C   UNL A   1      40.001  35.852  37.764  1.00  0.00     0.198 A 
ATOM     66  C   UNL A   1      38.573  34.201  38.765  1.00  0.00     0.198 A 
ATOM     67  F   UNL A   1      38.199  32.149  37.675  1.00  0.00    -0.203 F 
ATOM     68  F   UNL A   1      40.611  37.044  37.816  1.00  0.00    -0.200 F 
ATOM     69  C   UNL A   1      39.183  35.447  38.808  1.00  0.00     0.200 A 
ATOM     70  F   UNL A   1      37.775  33.813  39.769  1.00  0.00    -0.200 F 
ATOM     71  F   UNL A   1      38.986  36.254  39.858  1.00  0.00    -0.200 F 
ENDBRANCH  47  61
BRANCH  48  72
ATOM     72  C   UNL A   1      40.554  27.978  28.512  1.00  0.00     0.064 A 
ATOM     73  C   UNL A   1      39.903  26.738  28.467  1.00  0.00     0.173 A 
ATOM     74  C   UNL A   1      41.307  28.364  27.394  1.00  0.00     0.173 A 
ATOM     75  F   UNL A   1      39.187  26.320  29.521  1.00  0.00    -0.203 F 
ATOM     76  C   UNL A   1      40.007  25.912  27.351  1.00  0.00     0.198 A 
ATOM     77  C   UNL A   1      41.393  27.547  26.270  1.00  0.00     0.198 A 
ATOM     78  F   UNL A   1      41.945  29.545  27.389  1.00  0.00    -0.203 F 
ATOM     79  F   UNL A   1      39.397  24.719  27.344  1.00  0.00    -0.200 F 
ATOM     80  C   UNL A   1      40.745  26.319  26.250  1.00  0.00     0.200 A 
ATOM     81  F   UNL A   1      42.099  27.948  25.204  1.00  0.00    -0.200 F 
ATOM     82  F   UNL A   1      40.838  25.529  25.172  1.00  0.00    -0.200 F 
ENDBRANCH  48  72
BRANCH  60  83
ATOM     83  C   UNL A   1      43.906  28.333  34.614  1.00  0.00     0.064 A 
ATOM     84  C   UNL A   1      43.694  27.120  35.283  1.00  0.00     0.173 A 
ATOM     85  C   UNL A   1      45.229  28.765  34.430  1.00  0.00     0.173 A 
ATOM     86  F   UNL A   1      42.446  26.675  35.493  1.00  0.00    -0.203 F 
ATOM     87  C   UNL A   1      44.765  26.368  35.756  1.00  0.00     0.198 A 
ATOM     88  C   UNL A   1      46.299  27.999  34.884  1.00  0.00     0.198 A 
ATOM     89  F   UNL A   1      45.482  29.916  33.791  1.00  0.00    -0.203 F 
ATOM     90  F   UNL A   1      44.541  25.223  36.414  1.00  0.00    -0.200 F 
ATOM     91  C   UNL A   1      46.067  26.803  35.547  1.00  0.00     0.200 A 
ATOM     92  F   UNL A   1      47.556  28.415  34.672  1.00  0.00    -0.200 F 
ATOM     93  F   UNL A   1      47.098  26.070  35.988  1.00  0.00    -0.200 F 
ENDBRANCH  60  83
ENDBRANCH  34  35
ENDBRANCH  26  29
ENDBRANCH  24  25
ENDBRANCH   1  24
TORSDOF 12
ENDMDL
MODEL 3
REMARK VINA RESULT:     -13.2      0.371      7.490
REMARK SMILES Cc1cc(Cl)cc2c1O[C@H](C(F)(F)F)C(C(=O)NCCCCNC(=O)c1ccc(-c3c4nc(c(-c5c(F)c(F)c(F)c(F)c5F)c5ccc([nH]5)c(-c5c(F)c(F)c(F)c(F)c5F)c5nc(c(-c6c(F)c(F)c(F)c(F)c6F)c6ccc3[nH]6)C=C5)C=C4)cc1)=C2
REMARK SMILES IDX 21 1 20 2 19 3 18 4 16 5 17 6 15 8 1 9 2 10 3 11 8 12 4 13
REMARK SMILES IDX 7 14 9 15 5 16 6 17 89 18 10 19 11 20 12 21 13 22 14 23
REMARK SMILES IDX 22 24 23 25 24 26 25 28 26 29 27 30 88 31 28 32 87 33 29 34
REMARK SMILES IDX 30 35 31 36 81 37 32 38 86 39 80 40 82 41 33 42 85 43 79 44
REMARK SMILES IDX 78 45 34 47 66 48 46 49 65 50 47 51 50 52 64 53 83 54 48 55
REMARK SMILES IDX 49 56 63 58 84 59 51 60 35 61 36 62 44 63 37 64 38 65 42 66
REMARK SMILES IDX 45 67 39 68 40 69 43 70 41 71 67 72 68 73 76 74 69 75 70 76
REMARK SMILES IDX 74 77 77 78 71 79 72 80 75 81 73 82 52 83 53 84 61 85 54 86
REMARK SMILES IDX 55 87 59 88 62 89 56 90 57 91 60 92 58 93
REMARK H PARENT 18 7 23 27 82 46 50 57
REMARK Flexibility Score: inf
ROOT
ATOM      1  C   UNL A   1      31.722  31.884  26.862  1.00  0.00     0.023 C 
ENDROOT
BRANCH   1   2
ATOM      2  C   UNL A   1      32.029  30.385  26.830  1.00  0.00     0.023 C 
BRANCH   2   3
ATOM      3  C   UNL A   1      33.388  30.041  26.230  1.00  0.00     0.116 C 
BRANCH   3   4
ATOM      4  N   UNL A   1      33.289  29.703  24.822  1.00  0.00    -0.352 N 
ATOM      5  C   UNL A   1      32.958  28.614  24.089  1.00  0.00     0.251 C 
ATOM      6  O   UNL A   1      33.014  28.771  22.866  1.00  0.00    -0.270 OA
ATOM      7  H   UNL A   1      33.522  30.468  24.248  1.00  0.00     0.163 HD
BRANCH   5   8
ATOM      8  C   UNL A   1      32.549  27.290  24.646  1.00  0.00     0.067 C 
ATOM      9  C   UNL A   1      30.184  23.263  26.874  1.00  0.00     0.048 C 
ATOM     10  C   UNL A   1      31.586  23.611  26.460  1.00  0.00    -0.007 A 
ATOM     11  C   UNL A   1      32.601  22.661  26.638  1.00  0.00     0.027 A 
ATOM     12  C   UNL A   1      31.919  24.853  25.899  1.00  0.00     0.131 A 
ATOM     13  C   UNL A   1      33.914  22.954  26.269  1.00  0.00     0.042 A 
ATOM     14  C   UNL A   1      33.239  25.150  25.537  1.00  0.00     0.019 A 
ATOM     15  O   UNL A   1      30.920  25.777  25.768  1.00  0.00    -0.475 OA
ATOM     16  Cl  UNL A   1      35.146  21.775  26.501  1.00  0.00    -0.084 Cl
ATOM     17  C   UNL A   1      34.239  24.194  25.723  1.00  0.00     0.032 A 
ATOM     18  C   UNL A   1      33.556  26.473  25.007  1.00  0.00     0.025 C 
ATOM     19  C   UNL A   1      31.128  26.824  24.782  1.00  0.00     0.314 C 
BRANCH  19  20
ATOM     20  C   UNL A   1      30.513  26.392  23.437  1.00  0.00     0.429 C 
ATOM     21  F   UNL A   1      29.538  25.470  23.638  1.00  0.00    -0.167 F 
ATOM     22  F   UNL A   1      29.931  27.424  22.780  1.00  0.00    -0.167 F 
ATOM     23  F   UNL A   1      31.420  25.851  22.595  1.00  0.00    -0.167 F 
ENDBRANCH  19  20
ENDBRANCH   5   8
ENDBRANCH   3   4
ENDBRANCH   2   3
ENDBRANCH   1   2
BRANCH   1  24
ATOM     24  C   UNL A   1      32.872  32.778  27.320  1.00  0.00     0.116 C 
BRANCH  24  25
ATOM     25  N   UNL A   1      32.472  34.145  27.622  1.00  0.00    -0.352 N 
ATOM     26  C   UNL A   1      33.013  34.997  28.554  1.00  0.00     0.251 C 
ATOM     27  H   UNL A   1      31.724  34.503  27.093  1.00  0.00     0.163 HD
ATOM     28  O   UNL A   1      32.530  36.106  28.752  1.00  0.00    -0.269 OA
BRANCH  26  29
ATOM     29  C   UNL A   1      34.163  34.533  29.349  1.00  0.00     0.039 A 
ATOM     30  C   UNL A   1      33.928  33.974  30.607  1.00  0.00     0.014 A 
ATOM     31  C   UNL A   1      35.454  34.577  28.814  1.00  0.00     0.014 A 
ATOM     32  C   UNL A   1      34.984  33.388  31.302  1.00  0.00     0.010 A 
ATOM     33  C   UNL A   1      36.492  33.939  29.481  1.00  0.00     0.010 A 
ATOM     34  C   UNL A   1      36.264  33.332  30.725  1.00  0.00    -0.014 A 
BRANCH  34  35
ATOM     35  C   UNL A   1      37.378  32.641  31.412  1.00  0.00     0.031 A 
ATOM     36  C   UNL A   1      38.072  31.492  30.741  1.00  0.00     0.074 A 
ATOM     37  C   UNL A   1      37.727  33.015  32.658  1.00  0.00     0.049 A 
ATOM     38  N   UNL A   1      39.029  30.726  31.196  1.00  0.00    -0.248 NA
ATOM     39  C   UNL A   1      37.612  31.145  29.387  1.00  0.00     0.031 C 
ATOM     40  C   UNL A   1      37.097  34.090  33.425  1.00  0.00     0.029 A 
ATOM     41  N   UNL A   1      38.696  32.530  33.500  1.00  0.00    -0.354 N 
ATOM     42  C   UNL A   1      39.279  29.803  30.190  1.00  0.00     0.074 A 
ATOM     43  C   UNL A   1      38.339  30.069  29.123  1.00  0.00     0.031 C 
ATOM     44  C   UNL A   1      37.717  34.205  34.611  1.00  0.00     0.029 A 
ATOM     45  C   UNL A   1      38.766  33.193  34.699  1.00  0.00     0.049 A 
ATOM     46  H   UNL A   1      39.287  31.778  33.264  1.00  0.00     0.167 HD
ATOM     47  C   UNL A   1      40.228  28.839  30.150  1.00  0.00     0.037 A 
ATOM     48  C   UNL A   1      39.587  33.006  35.749  1.00  0.00     0.037 A 
ATOM     49  C   UNL A   1      41.178  28.596  31.202  1.00  0.00     0.049 A 
ATOM     50  C   UNL A   1      40.627  31.921  35.683  1.00  0.00     0.074 A 
ATOM     51  C   UNL A   1      42.208  27.673  31.236  1.00  0.00     0.029 A 
ATOM     52  N   UNL A   1      41.216  29.288  32.403  1.00  0.00    -0.354 N 
ATOM     53  N   UNL A   1      40.886  31.085  34.709  1.00  0.00    -0.248 NA
ATOM     54  C   UNL A   1      41.489  31.755  36.862  1.00  0.00     0.031 C 
ATOM     55  C   UNL A   1      42.852  27.786  32.473  1.00  0.00     0.029 A 
ATOM     56  C   UNL A   1      42.245  28.802  33.193  1.00  0.00     0.049 A 
ATOM     57  H   UNL A   1      40.603  30.014  32.657  1.00  0.00     0.167 HD
ATOM     58  C   UNL A   1      41.948  30.306  35.145  1.00  0.00     0.074 A 
ATOM     59  C   UNL A   1      42.296  30.779  36.470  1.00  0.00     0.031 C 
ATOM     60  C   UNL A   1      42.577  29.290  34.506  1.00  0.00     0.037 A 
BRANCH  47  61
ATOM     61  C   UNL A   1      40.295  27.989  28.919  1.00  0.00     0.064 A 
ATOM     62  C   UNL A   1      41.047  28.384  27.801  1.00  0.00     0.173 A 
ATOM     63  C   UNL A   1      39.634  26.753  28.865  1.00  0.00     0.173 A 
ATOM     64  F   UNL A   1      41.684  29.564  27.800  1.00  0.00    -0.203 F 
ATOM     65  C   UNL A   1      41.116  27.582  26.666  1.00  0.00     0.198 A 
ATOM     66  C   UNL A   1      39.726  25.942  27.737  1.00  0.00     0.198 A 
ATOM     67  F   UNL A   1      38.904  26.331  29.907  1.00  0.00    -0.203 F 
ATOM     68  F   UNL A   1      41.806  27.998  25.595  1.00  0.00    -0.200 F 
ATOM     69  C   UNL A   1      40.463  26.360  26.637  1.00  0.00     0.200 A 
ATOM     70  F   UNL A   1      39.102  24.758  27.712  1.00  0.00    -0.200 F 
ATOM     71  F   UNL A   1      40.536  25.586  25.546  1.00  0.00    -0.200 F 
ENDBRANCH  47  61
BRANCH  48  72
ATOM     72  C   UNL A   1      39.488  33.898  36.932  1.00  0.00     0.064 A 
ATOM     73  C   UNL A   1      40.144  35.136  36.947  1.00  0.00     0.173 A 
ATOM     74  C   UNL A   1      38.726  33.546  38.055  1.00  0.00     0.173 A 
ATOM     75  F   UNL A   1      40.900  35.506  35.903  1.00  0.00    -0.203 F 
ATOM     76  C   UNL A   1      40.049  35.987  38.046  1.00  0.00     0.198 A 
ATOM     77  C   UNL A   1      38.614  34.406  39.145  1.00  0.00     0.198 A 
ATOM     78  F   UNL A   1      38.076  32.373  38.085  1.00  0.00    -0.203 F 
ATOM     79  F   UNL A   1      40.709  37.153  38.047  1.00  0.00    -0.200 F 
ATOM     80  C   UNL A   1      39.279  35.625  39.141  1.00  0.00     0.200 A 
ATOM     81  F   UNL A   1      37.861  34.059  40.197  1.00  0.00    -0.200 F 
ATOM     82  F   UNL A   1      39.180  36.447  40.195  1.00  0.00    -0.200 F 
ENDBRANCH  48  72
BRANCH  60  83
ATOM     83  C   UNL A   1      43.715  28.626  35.219  1.00  0.00     0.064 A 
ATOM     84  C   UNL A   1      43.505  27.522  36.056  1.00  0.00     0.173 A 
ATOM     85  C   UNL A   1      45.035  29.048  34.999  1.00  0.00     0.173 A 
ATOM     86  F   UNL A   1      42.259  27.092  36.306  1.00  0.00    -0.203 F 
ATOM     87  C   UNL A   1      44.576  26.867  36.657  1.00  0.00     0.198 A 
ATOM     88  C   UNL A   1      46.106  28.377  35.583  1.00  0.00     0.198 A 
ATOM     89  F   UNL A   1      45.286  30.096  34.201  1.00  0.00    -0.203 F 
ATOM     90  F   UNL A   1      44.353  25.829  37.474  1.00  0.00    -0.200 F 
ATOM     91  C   UNL A   1      45.876  27.289  36.412  1.00  0.00     0.200 A 
ATOM     92  F   UNL A   1      47.361  28.778  35.337  1.00  0.00    -0.200 F 
ATOM     93  F   UNL A   1      46.907  26.647  36.978  1.00  0.00    -0.200 F 
ENDBRANCH  60  83
ENDBRANCH  34  35
ENDBRANCH  26  29
ENDBRANCH  24  25
ENDBRANCH   1  24
TORSDOF 12
ENDMDL
