MODEL 1
REMARK VINA RESULT:     -12.0      0.000      0.000
REMARK SMILES C[NH+](C)Cc1noc(C[C@@](C)(C(=O)NCCCCNC(=O)c2ccc(-c3c4nc(c(-c5c(F)c(F)c(F)c(F)c5F)c5ccc([nH]5)c(-c5c(F)c(F)c(F)c(F)c5F)c5nc(c(-c6c(F)c(F)c(F)c(F)c6F)c6ccc3[nH]6)C=C5)C=C4)cc2)c2ccccc2)n1
REMARK SMILES IDX 15 1 14 2 12 3 13 4 10 6 11 7 9 8 8 9 5 10 6 11 91 12 7 13
REMARK SMILES IDX 4 14 2 15 1 16 3 17 85 19 86 20 90 21 87 22 89 23 88 24
REMARK SMILES IDX 16 25 17 26 18 27 19 28 20 29 21 31 22 32 23 33 84 34 24 35
REMARK SMILES IDX 83 36 25 37 26 38 27 39 77 40 28 41 82 42 76 43 78 44 29 45
REMARK SMILES IDX 81 46 75 47 74 48 30 50 62 51 42 52 61 53 43 54 46 55 60 56
REMARK SMILES IDX 79 57 44 58 45 59 59 61 80 62 47 63 31 64 32 65 40 66 33 67
REMARK SMILES IDX 34 68 38 69 41 70 35 71 36 72 39 73 37 74 63 75 64 76 72 77
REMARK SMILES IDX 65 78 66 79 70 80 73 81 67 82 68 83 71 84 69 85 48 86 49 87
REMARK SMILES IDX 57 88 50 89 51 90 55 91 58 92 52 93 53 94 56 95 54 96
REMARK H PARENT 14 5 2 18 19 30 78 49 46 60
REMARK Flexibility Score: inf
ROOT
ATOM      1  C   UNL A   1      36.809  23.205  25.083  1.00  0.00     0.116 C 
ENDROOT
BRANCH   1   2
ATOM      2  N   UNL A   1      36.026  22.832  26.251  1.00  0.00    -0.355 N 
ATOM      3  C   UNL A   1      34.687  22.686  26.484  1.00  0.00     0.230 C 
ATOM      4  O   UNL A   1      34.405  22.311  27.627  1.00  0.00    -0.274 OA
ATOM      5  H   UNL A   1      36.579  22.647  27.043  1.00  0.00     0.163 HD
BRANCH   3   6
ATOM      6  C   UNL A   1      33.597  22.959  25.400  1.00  0.00     0.080 C 
ATOM      7  C   UNL A   1      32.221  22.711  26.070  1.00  0.00     0.027 C 
BRANCH   6   8
ATOM      8  C   UNL A   1      33.868  22.003  24.207  1.00  0.00     0.122 C 
BRANCH   8   9
ATOM      9  C   UNL A   1      33.383  20.618  24.387  1.00  0.00     0.228 A 
ATOM     10  C   UNL A   1      32.857  18.694  25.005  1.00  0.00     0.226 A 
ATOM     11  N   UNL A   1      31.924  18.986  24.086  1.00  0.00    -0.056 NA
ATOM     12  N   UNL A   1      33.771  19.694  25.233  1.00  0.00    -0.190 NA
ATOM     13  O   UNL A   1      32.278  20.266  23.666  1.00  0.00    -0.339 OA
BRANCH  10  14
ATOM     14  C   UNL A   1      32.881  17.405  25.767  1.00  0.00     0.344 C 
BRANCH  14  15
ATOM     15  N   UNL A   1      33.364  16.231  25.008  1.00  0.00    -0.333 N 
ATOM     16  C   UNL A   1      34.817  16.090  25.059  1.00  0.00     0.332 C 
ATOM     17  C   UNL A   1      32.695  14.996  25.412  1.00  0.00     0.332 C 
ATOM     18  H   UNL A   1      33.115  16.407  24.035  1.00  0.00     0.348 HD
ENDBRANCH  14  15
ENDBRANCH  10  14
ENDBRANCH   8   9
ENDBRANCH   6   8
BRANCH   6  19
ATOM     19  C   UNL A   1      33.688  24.428  24.871  1.00  0.00    -0.032 A 
ATOM     20  C   UNL A   1      33.673  25.550  25.722  1.00  0.00     0.005 A 
ATOM     21  C   UNL A   1      33.728  24.681  23.483  1.00  0.00     0.005 A 
ATOM     22  C   UNL A   1      33.658  26.853  25.215  1.00  0.00     0.000 A 
ATOM     23  C   UNL A   1      33.708  25.985  22.977  1.00  0.00     0.000 A 
ATOM     24  C   UNL A   1      33.664  27.071  23.843  1.00  0.00     0.000 A 
ENDBRANCH   6  19
ENDBRANCH   3   6
ENDBRANCH   1   2
BRANCH   1  25
ATOM     25  C   UNL A   1      37.265  21.990  24.276  1.00  0.00     0.023 C 
BRANCH  25  26
ATOM     26  C   UNL A   1      37.654  20.774  25.110  1.00  0.00     0.023 C 
BRANCH  26  27
ATOM     27  C   UNL A   1      38.974  20.897  25.861  1.00  0.00     0.116 C 
BRANCH  27  28
ATOM     28  N   UNL A   1      39.802  19.701  25.789  1.00  0.00    -0.352 N 
ATOM     29  C   UNL A   1      41.152  19.589  26.027  1.00  0.00     0.251 C 
ATOM     30  H   UNL A   1      39.337  18.870  25.539  1.00  0.00     0.163 HD
ATOM     31  O   UNL A   1      41.740  18.529  25.846  1.00  0.00    -0.269 OA
BRANCH  29  32
ATOM     32  C   UNL A   1      41.892  20.787  26.465  1.00  0.00     0.039 A 
ATOM     33  C   UNL A   1      42.340  21.695  25.504  1.00  0.00     0.014 A 
ATOM     34  C   UNL A   1      42.056  21.048  27.827  1.00  0.00     0.014 A 
ATOM     35  C   UNL A   1      42.881  22.916  25.913  1.00  0.00     0.010 A 
ATOM     36  C   UNL A   1      42.533  22.288  28.231  1.00  0.00     0.010 A 
ATOM     37  C   UNL A   1      42.938  23.237  27.279  1.00  0.00    -0.014 A 
BRANCH  37  38
ATOM     38  C   UNL A   1      43.420  24.556  27.753  1.00  0.00     0.031 A 
ATOM     39  C   UNL A   1      42.423  25.624  28.099  1.00  0.00     0.074 A 
ATOM     40  C   UNL A   1      44.740  24.825  27.773  1.00  0.00     0.049 A 
ATOM     41  N   UNL A   1      42.617  26.894  28.345  1.00  0.00    -0.248 NA
ATOM     42  C   UNL A   1      41.011  25.210  28.142  1.00  0.00     0.031 C 
ATOM     43  C   UNL A   1      45.805  23.880  27.435  1.00  0.00     0.029 A 
ATOM     44  N   UNL A   1      45.410  25.988  28.067  1.00  0.00    -0.354 N 
ATOM     45  C   UNL A   1      41.356  27.433  28.549  1.00  0.00     0.074 A 
ATOM     46  C   UNL A   1      40.399  26.366  28.355  1.00  0.00     0.031 C 
ATOM     47  C   UNL A   1      46.993  24.497  27.543  1.00  0.00     0.029 A 
ATOM     48  C   UNL A   1      46.772  25.892  27.915  1.00  0.00     0.049 A 
ATOM     49  H   UNL A   1      44.956  26.811  28.360  1.00  0.00     0.167 HD
ATOM     50  C   UNL A   1      41.027  28.701  28.887  1.00  0.00     0.037 A 
ATOM     51  C   UNL A   1      47.729  26.832  28.039  1.00  0.00     0.037 A 
ATOM     52  C   UNL A   1      41.982  29.754  29.106  1.00  0.00     0.049 A 
ATOM     53  C   UNL A   1      47.335  28.238  28.405  1.00  0.00     0.074 A 
ATOM     54  C   UNL A   1      41.752  31.068  29.472  1.00  0.00     0.029 A 
ATOM     55  N   UNL A   1      43.356  29.604  28.986  1.00  0.00    -0.354 N 
ATOM     56  N   UNL A   1      46.140  28.731  28.620  1.00  0.00    -0.248 NA
ATOM     57  C   UNL A   1      48.422  29.218  28.543  1.00  0.00     0.031 C 
ATOM     58  C   UNL A   1      42.987  31.721  29.552  1.00  0.00     0.029 A 
ATOM     59  C   UNL A   1      43.986  30.803  29.271  1.00  0.00     0.049 A 
ATOM     60  H   UNL A   1      43.815  28.770  28.736  1.00  0.00     0.167 HD
ATOM     61  C   UNL A   1      46.333  30.065  28.953  1.00  0.00     0.074 A 
ATOM     62  C   UNL A   1      47.761  30.304  28.917  1.00  0.00     0.031 C 
ATOM     63  C   UNL A   1      45.411  31.008  29.261  1.00  0.00     0.037 A 
BRANCH  50  64
ATOM     64  C   UNL A   1      39.570  29.016  29.054  1.00  0.00     0.064 A 
ATOM     65  C   UNL A   1      38.777  29.403  27.963  1.00  0.00     0.173 A 
ATOM     66  C   UNL A   1      38.952  28.897  30.307  1.00  0.00     0.173 A 
ATOM     67  F   UNL A   1      39.327  29.545  26.748  1.00  0.00    -0.203 F 
ATOM     68  C   UNL A   1      37.424  29.683  28.126  1.00  0.00     0.198 A 
ATOM     69  C   UNL A   1      37.593  29.152  30.462  1.00  0.00     0.198 A 
ATOM     70  F   UNL A   1      39.665  28.527  31.382  1.00  0.00    -0.203 F 
ATOM     71  F   UNL A   1      36.697  30.096  27.079  1.00  0.00    -0.200 F 
ATOM     72  C   UNL A   1      36.831  29.551  29.373  1.00  0.00     0.200 A 
ATOM     73  F   UNL A   1      37.018  29.014  31.664  1.00  0.00    -0.200 F 
ATOM     74  F   UNL A   1      35.526  29.816  29.526  1.00  0.00    -0.200 F 
ENDBRANCH  50  64
BRANCH  51  75
ATOM     75  C   UNL A   1      49.157  26.479  27.822  1.00  0.00     0.064 A 
ATOM     76  C   UNL A   1      50.021  26.287  28.910  1.00  0.00     0.173 A 
ATOM     77  C   UNL A   1      49.692  26.350  26.532  1.00  0.00     0.173 A 
ATOM     78  F   UNL A   1      49.560  26.421  30.161  1.00  0.00    -0.203 F 
ATOM     79  C   UNL A   1      51.371  26.005  28.715  1.00  0.00     0.198 A 
ATOM     80  C   UNL A   1      51.037  26.042  26.340  1.00  0.00     0.198 A 
ATOM     81  F   UNL A   1      48.906  26.519  25.459  1.00  0.00    -0.203 F 
ATOM     82  F   UNL A   1      52.185  25.878  29.772  1.00  0.00    -0.200 F 
ATOM     83  C   UNL A   1      51.878  25.879  27.430  1.00  0.00     0.200 A 
ATOM     84  F   UNL A   1      51.521  25.909  25.097  1.00  0.00    -0.200 F 
ATOM     85  F   UNL A   1      53.178  25.611  27.244  1.00  0.00    -0.200 F 
ENDBRANCH  51  75
BRANCH  63  86
ATOM     86  C   UNL A   1      45.914  32.368  29.640  1.00  0.00     0.064 A 
ATOM     87  C   UNL A   1      46.064  33.388  28.691  1.00  0.00     0.173 A 
ATOM     88  C   UNL A   1      46.185  32.670  30.984  1.00  0.00     0.173 A 
ATOM     89  F   UNL A   1      45.830  33.141  27.393  1.00  0.00    -0.203 F 
ATOM     90  C   UNL A   1      46.482  34.660  29.071  1.00  0.00     0.198 A 
ATOM     91  C   UNL A   1      46.580  33.948  31.363  1.00  0.00     0.198 A 
ATOM     92  F   UNL A   1      46.050  31.727  31.929  1.00  0.00    -0.203 F 
ATOM     93  F   UNL A   1      46.650  35.612  28.144  1.00  0.00    -0.200 F 
ATOM     94  C   UNL A   1      46.731  34.941  30.407  1.00  0.00     0.200 A 
ATOM     95  F   UNL A   1      46.809  34.222  32.655  1.00  0.00    -0.200 F 
ATOM     96  F   UNL A   1      47.120  36.170  30.772  1.00  0.00    -0.200 F 
ENDBRANCH  63  86
ENDBRANCH  37  38
ENDBRANCH  29  32
ENDBRANCH  27  28
ENDBRANCH  26  27
ENDBRANCH  25  26
ENDBRANCH   1  25
TORSDOF 16
ENDMDL
MODEL 2
REMARK VINA RESULT:     -11.9      4.140      9.513
REMARK SMILES C[NH+](C)Cc1noc(C[C@@](C)(C(=O)NCCCCNC(=O)c2ccc(-c3c4nc(c(-c5c(F)c(F)c(F)c(F)c5F)c5ccc([nH]5)c(-c5c(F)c(F)c(F)c(F)c5F)c5nc(c(-c6c(F)c(F)c(F)c(F)c6F)c6ccc3[nH]6)C=C5)C=C4)cc2)c2ccccc2)n1
REMARK SMILES IDX 15 1 14 2 12 3 13 4 10 6 11 7 9 8 8 9 5 10 6 11 91 12 7 13
REMARK SMILES IDX 4 14 2 15 1 16 3 17 85 19 86 20 90 21 87 22 89 23 88 24
REMARK SMILES IDX 16 25 17 26 18 27 19 28 20 29 21 31 22 32 23 33 84 34 24 35
REMARK SMILES IDX 83 36 25 37 26 38 27 39 77 40 28 41 82 42 76 43 78 44 29 45
REMARK SMILES IDX 81 46 75 47 74 48 30 50 62 51 42 52 61 53 43 54 46 55 60 56
REMARK SMILES IDX 79 57 44 58 45 59 59 61 80 62 47 63 31 64 32 65 40 66 33 67
REMARK SMILES IDX 34 68 38 69 41 70 35 71 36 72 39 73 37 74 63 75 64 76 72 77
REMARK SMILES IDX 65 78 66 79 70 80 73 81 67 82 68 83 71 84 69 85 48 86 49 87
REMARK SMILES IDX 57 88 50 89 51 90 55 91 58 92 52 93 53 94 56 95 54 96
REMARK H PARENT 14 5 2 18 19 30 78 49 46 60
REMARK Flexibility Score: inf
ROOT
ATOM      1  C   UNL A   1      33.664  23.906  24.710  1.00  0.00     0.116 C 
ENDROOT
BRANCH   1   2
ATOM      2  N   UNL A   1      33.884  24.556  23.427  1.00  0.00    -0.355 N 
ATOM      3  C   UNL A   1      33.268  25.585  22.770  1.00  0.00     0.230 C 
ATOM      4  O   UNL A   1      33.782  25.879  21.685  1.00  0.00    -0.274 OA
ATOM      5  H   UNL A   1      34.637  24.171  22.924  1.00  0.00     0.163 HD
BRANCH   3   6
ATOM      6  C   UNL A   1      32.023  26.337  23.339  1.00  0.00     0.080 C 
ATOM      7  C   UNL A   1      30.905  25.280  23.529  1.00  0.00     0.027 C 
BRANCH   6   8
ATOM      8  C   UNL A   1      31.639  27.447  22.323  1.00  0.00     0.122 C 
BRANCH   8   9
ATOM      9  C   UNL A   1      30.527  28.327  22.743  1.00  0.00     0.228 A 
ATOM     10  C   UNL A   1      29.190  29.863  23.203  1.00  0.00     0.226 A 
ATOM     11  N   UNL A   1      28.387  28.805  23.013  1.00  0.00    -0.056 NA
ATOM     12  N   UNL A   1      30.528  29.607  23.024  1.00  0.00    -0.190 NA
ATOM     13  O   UNL A   1      29.278  27.777  22.715  1.00  0.00    -0.339 OA
BRANCH  10  14
ATOM     14  C   UNL A   1      28.678  31.231  23.531  1.00  0.00     0.344 C 
BRANCH  14  15
ATOM     15  N   UNL A   1      29.092  32.301  22.597  1.00  0.00    -0.333 N 
ATOM     16  C   UNL A   1      28.245  32.366  21.409  1.00  0.00     0.332 C 
ATOM     17  C   UNL A   1      29.188  33.603  23.253  1.00  0.00     0.332 C 
ATOM     18  H   UNL A   1      30.029  32.049  22.283  1.00  0.00     0.348 HD
ENDBRANCH  14  15
ENDBRANCH  10  14
ENDBRANCH   8   9
ENDBRANCH   6   8
BRANCH   6  19
ATOM     19  C   UNL A   1      32.359  27.026  24.702  1.00  0.00    -0.032 A 
ATOM     20  C   UNL A   1      31.528  26.925  25.835  1.00  0.00     0.005 A 
ATOM     21  C   UNL A   1      33.504  27.841  24.822  1.00  0.00     0.005 A 
ATOM     22  C   UNL A   1      31.804  27.632  27.010  1.00  0.00     0.000 A 
ATOM     23  C   UNL A   1      33.778  28.550  25.996  1.00  0.00     0.000 A 
ATOM     24  C   UNL A   1      32.922  28.453  27.087  1.00  0.00     0.000 A 
ENDBRANCH   6  19
ENDBRANCH   3   6
ENDBRANCH   1   2
BRANCH   1  25
ATOM     25  C   UNL A   1      34.720  24.291  25.746  1.00  0.00     0.023 C 
BRANCH  25  26
ATOM     26  C   UNL A   1      35.861  23.290  25.902  1.00  0.00     0.023 C 
BRANCH  26  27
ATOM     27  C   UNL A   1      37.190  23.719  25.293  1.00  0.00     0.116 C 
BRANCH  27  28
ATOM     28  N   UNL A   1      38.295  22.827  25.614  1.00  0.00    -0.352 N 
ATOM     29  C   UNL A   1      39.433  23.111  26.333  1.00  0.00     0.251 C 
ATOM     30  H   UNL A   1      38.219  21.906  25.274  1.00  0.00     0.163 HD
ATOM     31  O   UNL A   1      40.327  22.282  26.456  1.00  0.00    -0.269 OA
BRANCH  29  32
ATOM     32  C   UNL A   1      39.577  24.457  26.921  1.00  0.00     0.039 A 
ATOM     33  C   UNL A   1      39.121  24.680  28.222  1.00  0.00     0.014 A 
ATOM     34  C   UNL A   1      40.244  25.460  26.214  1.00  0.00     0.014 A 
ATOM     35  C   UNL A   1      39.411  25.892  28.851  1.00  0.00     0.010 A 
ATOM     36  C   UNL A   1      40.588  26.638  26.864  1.00  0.00     0.010 A 
ATOM     37  C   UNL A   1      40.186  26.859  28.191  1.00  0.00    -0.014 A 
BRANCH  37  38
ATOM     38  C   UNL A   1      40.594  28.122  28.854  1.00  0.00     0.031 A 
ATOM     39  C   UNL A   1      41.990  28.253  29.391  1.00  0.00     0.074 A 
ATOM     40  C   UNL A   1      39.690  29.097  29.063  1.00  0.00     0.049 A 
ATOM     41  N   UNL A   1      42.498  29.176  30.166  1.00  0.00    -0.248 NA
ATOM     42  C   UNL A   1      42.932  27.181  29.030  1.00  0.00     0.031 C 
ATOM     43  C   UNL A   1      38.297  29.076  28.612  1.00  0.00     0.029 A 
ATOM     44  N   UNL A   1      39.802  30.290  29.735  1.00  0.00    -0.354 N 
ATOM     45  C   UNL A   1      43.808  28.785  30.404  1.00  0.00     0.074 A 
ATOM     46  C   UNL A   1      44.006  27.521  29.729  1.00  0.00     0.031 C 
ATOM     47  C   UNL A   1      37.686  30.201  29.016  1.00  0.00     0.029 A 
ATOM     48  C   UNL A   1      38.629  31.003  29.791  1.00  0.00     0.049 A 
ATOM     49  H   UNL A   1      40.644  30.604  30.137  1.00  0.00     0.167 HD
ATOM     50  C   UNL A   1      44.765  29.434  31.106  1.00  0.00     0.037 A 
ATOM     51  C   UNL A   1      38.344  32.160  30.419  1.00  0.00     0.037 A 
ATOM     52  C   UNL A   1      44.574  30.704  31.752  1.00  0.00     0.049 A 
ATOM     53  C   UNL A   1      39.424  32.856  31.203  1.00  0.00     0.074 A 
ATOM     54  C   UNL A   1      45.487  31.455  32.471  1.00  0.00     0.029 A 
ATOM     55  N   UNL A   1      43.383  31.416  31.748  1.00  0.00    -0.354 N 
ATOM     56  N   UNL A   1      40.668  32.490  31.400  1.00  0.00    -0.248 NA
ATOM     57  C   UNL A   1      39.063  34.124  31.852  1.00  0.00     0.031 C 
ATOM     58  C   UNL A   1      44.842  32.612  32.922  1.00  0.00     0.029 A 
ATOM     59  C   UNL A   1      43.538  32.597  32.452  1.00  0.00     0.049 A 
ATOM     60  H   UNL A   1      42.551  31.124  31.309  1.00  0.00     0.167 HD
ATOM     61  C   UNL A   1      41.244  33.496  32.164  1.00  0.00     0.074 A 
ATOM     62  C   UNL A   1      40.217  34.491  32.390  1.00  0.00     0.031 C 
ATOM     63  C   UNL A   1      42.510  33.588  32.636  1.00  0.00     0.037 A 
BRANCH  50  64
ATOM     64  C   UNL A   1      46.114  28.784  31.199  1.00  0.00     0.064 A 
ATOM     65  C   UNL A   1      47.116  29.045  30.252  1.00  0.00     0.173 A 
ATOM     66  C   UNL A   1      46.420  27.920  32.260  1.00  0.00     0.173 A 
ATOM     67  F   UNL A   1      46.865  29.852  29.210  1.00  0.00    -0.203 F 
ATOM     68  C   UNL A   1      48.367  28.445  30.351  1.00  0.00     0.198 A 
ATOM     69  C   UNL A   1      47.681  27.343  32.371  1.00  0.00     0.198 A 
ATOM     70  F   UNL A   1      45.498  27.641  33.194  1.00  0.00    -0.203 F 
ATOM     71  F   UNL A   1      49.293  28.672  29.410  1.00  0.00    -0.200 F 
ATOM     72  C   UNL A   1      48.652  27.600  31.414  1.00  0.00     0.200 A 
ATOM     73  F   UNL A   1      47.959  26.535  33.403  1.00  0.00    -0.200 F 
ATOM     74  F   UNL A   1      49.860  27.028  31.511  1.00  0.00    -0.200 F 
ENDBRANCH  50  64
BRANCH  51  75
ATOM     75  C   UNL A   1      36.980  32.743  30.330  1.00  0.00     0.064 A 
ATOM     76  C   UNL A   1      36.601  33.516  29.223  1.00  0.00     0.173 A 
ATOM     77  C   UNL A   1      36.038  32.562  31.353  1.00  0.00     0.173 A 
ATOM     78  F   UNL A   1      37.475  33.735  28.230  1.00  0.00    -0.203 F 
ATOM     79  C   UNL A   1      35.342  34.108  29.155  1.00  0.00     0.198 A 
ATOM     80  C   UNL A   1      34.769  33.132  31.271  1.00  0.00     0.198 A 
ATOM     81  F   UNL A   1      36.349  31.827  32.430  1.00  0.00    -0.203 F 
ATOM     82  F   UNL A   1      35.024  34.884  28.111  1.00  0.00    -0.200 F 
ATOM     83  C   UNL A   1      34.425  33.912  30.178  1.00  0.00     0.200 A 
ATOM     84  F   UNL A   1      33.882  32.932  32.255  1.00  0.00    -0.200 F 
ATOM     85  F   UNL A   1      33.215  34.484  30.113  1.00  0.00    -0.200 F 
ENDBRANCH  51  75
BRANCH  63  86
ATOM     86  C   UNL A   1      42.877  34.828  33.394  1.00  0.00     0.064 A 
ATOM     87  C   UNL A   1      43.301  35.991  32.738  1.00  0.00     0.173 A 
ATOM     88  C   UNL A   1      42.737  34.869  34.789  1.00  0.00     0.173 A 
ATOM     89  F   UNL A   1      43.463  35.995  31.407  1.00  0.00    -0.203 F 
ATOM     90  C   UNL A   1      43.586  37.150  33.455  1.00  0.00     0.198 A 
ATOM     91  C   UNL A   1      43.000  36.035  35.500  1.00  0.00     0.198 A 
ATOM     92  F   UNL A   1      42.328  33.781  35.460  1.00  0.00    -0.203 F 
ATOM     93  F   UNL A   1      44.020  38.243  32.813  1.00  0.00    -0.200 F 
ATOM     94  C   UNL A   1      43.427  37.174  34.833  1.00  0.00     0.200 A 
ATOM     95  F   UNL A   1      42.835  36.060  36.830  1.00  0.00    -0.200 F 
ATOM     96  F   UNL A   1      43.689  38.294  35.519  1.00  0.00    -0.200 F 
ENDBRANCH  63  86
ENDBRANCH  37  38
ENDBRANCH  29  32
ENDBRANCH  27  28
ENDBRANCH  26  27
ENDBRANCH  25  26
ENDBRANCH   1  25
TORSDOF 16
ENDMDL
MODEL 3
REMARK VINA RESULT:     -11.8      0.708      1.757
REMARK SMILES C[NH+](C)Cc1noc(C[C@@](C)(C(=O)NCCCCNC(=O)c2ccc(-c3c4nc(c(-c5c(F)c(F)c(F)c(F)c5F)c5ccc([nH]5)c(-c5c(F)c(F)c(F)c(F)c5F)c5nc(c(-c6c(F)c(F)c(F)c(F)c6F)c6ccc3[nH]6)C=C5)C=C4)cc2)c2ccccc2)n1
REMARK SMILES IDX 15 1 14 2 12 3 13 4 10 6 11 7 9 8 8 9 5 10 6 11 91 12 7 13
REMARK SMILES IDX 4 14 2 15 1 16 3 17 85 19 86 20 90 21 87 22 89 23 88 24
REMARK SMILES IDX 16 25 17 26 18 27 19 28 20 29 21 31 22 32 23 33 84 34 24 35
REMARK SMILES IDX 83 36 25 37 26 38 27 39 77 40 28 41 82 42 76 43 78 44 29 45
REMARK SMILES IDX 81 46 75 47 74 48 30 50 62 51 42 52 61 53 43 54 46 55 60 56
REMARK SMILES IDX 79 57 44 58 45 59 59 61 80 62 47 63 31 64 32 65 40 66 33 67
REMARK SMILES IDX 34 68 38 69 41 70 35 71 36 72 39 73 37 74 63 75 64 76 72 77
REMARK SMILES IDX 65 78 66 79 70 80 73 81 67 82 68 83 71 84 69 85 48 86 49 87
REMARK SMILES IDX 57 88 50 89 51 90 55 91 58 92 52 93 53 94 56 95 54 96
REMARK H PARENT 14 5 2 18 19 30 78 49 46 60
REMARK Flexibility Score: inf
ROOT
ATOM      1  C   UNL A   1      36.835  23.020  25.231  1.00  0.00     0.116 C 
ENDROOT
BRANCH   1   2
ATOM      2  N   UNL A   1      36.042  22.544  26.354  1.00  0.00    -0.355 N 
ATOM      3  C   UNL A   1      34.702  22.361  26.555  1.00  0.00     0.230 C 
ATOM      4  O   UNL A   1      34.410  21.891  27.661  1.00  0.00    -0.274 OA
ATOM      5  H   UNL A   1      36.587  22.303  27.137  1.00  0.00     0.163 HD
BRANCH   3   6
ATOM      6  C   UNL A   1      33.622  22.706  25.481  1.00  0.00     0.080 C 
ATOM      7  C   UNL A   1      32.239  22.447  26.131  1.00  0.00     0.027 C 
BRANCH   6   8
ATOM      8  C   UNL A   1      33.885  21.807  24.243  1.00  0.00     0.122 C 
BRANCH   8   9
ATOM      9  C   UNL A   1      33.446  20.402  24.380  1.00  0.00     0.228 A 
ATOM     10  C   UNL A   1      33.048  18.420  24.903  1.00  0.00     0.226 A 
ATOM     11  N   UNL A   1      31.962  18.775  24.199  1.00  0.00    -0.056 NA
ATOM     12  N   UNL A   1      33.985  19.414  25.052  1.00  0.00    -0.190 NA
ATOM     13  O   UNL A   1      32.230  20.094  23.842  1.00  0.00    -0.339 OA
BRANCH  10  14
ATOM     14  C   UNL A   1      33.215  17.069  25.527  1.00  0.00     0.344 C 
BRANCH  14  15
ATOM     15  N   UNL A   1      34.025  16.109  24.747  1.00  0.00    -0.333 N 
ATOM     16  C   UNL A   1      34.105  16.462  23.332  1.00  0.00     0.332 C 
ATOM     17  C   UNL A   1      35.353  15.909  25.320  1.00  0.00     0.332 C 
ATOM     18  H   UNL A   1      33.532  15.218  24.804  1.00  0.00     0.348 HD
ENDBRANCH  14  15
ENDBRANCH  10  14
ENDBRANCH   8   9
ENDBRANCH   6   8
BRANCH   6  19
ATOM     19  C   UNL A   1      33.739  24.198  25.028  1.00  0.00    -0.032 A 
ATOM     20  C   UNL A   1      33.751  25.275  25.936  1.00  0.00     0.005 A 
ATOM     21  C   UNL A   1      33.777  24.522  23.655  1.00  0.00     0.005 A 
ATOM     22  C   UNL A   1      33.759  26.602  25.496  1.00  0.00     0.000 A 
ATOM     23  C   UNL A   1      33.780  25.850  23.216  1.00  0.00     0.000 A 
ATOM     24  C   UNL A   1      33.761  26.890  24.137  1.00  0.00     0.000 A 
ENDBRANCH   6  19
ENDBRANCH   3   6
ENDBRANCH   1   2
BRANCH   1  25
ATOM     25  C   UNL A   1      37.359  21.878  24.363  1.00  0.00     0.023 C 
BRANCH  25  26
ATOM     26  C   UNL A   1      37.821  20.645  25.134  1.00  0.00     0.023 C 
BRANCH  26  27
ATOM     27  C   UNL A   1      39.141  20.802  25.879  1.00  0.00     0.116 C 
BRANCH  27  28
ATOM     28  N   UNL A   1      39.973  19.607  25.851  1.00  0.00    -0.352 N 
ATOM     29  C   UNL A   1      41.329  19.514  26.064  1.00  0.00     0.251 C 
ATOM     30  H   UNL A   1      39.508  18.762  25.656  1.00  0.00     0.163 HD
ATOM     31  O   UNL A   1      41.919  18.448  25.926  1.00  0.00    -0.269 OA
BRANCH  29  32
ATOM     32  C   UNL A   1      42.072  20.737  26.421  1.00  0.00     0.039 A 
ATOM     33  C   UNL A   1      42.435  21.628  25.410  1.00  0.00     0.014 A 
ATOM     34  C   UNL A   1      42.322  21.036  27.763  1.00  0.00     0.014 A 
ATOM     35  C   UNL A   1      42.978  22.869  25.751  1.00  0.00     0.010 A 
ATOM     36  C   UNL A   1      42.800  22.295  28.103  1.00  0.00     0.010 A 
ATOM     37  C   UNL A   1      43.120  23.227  27.101  1.00  0.00    -0.014 A 
BRANCH  37  38
ATOM     38  C   UNL A   1      43.606  24.567  27.510  1.00  0.00     0.031 A 
ATOM     39  C   UNL A   1      42.623  25.584  28.012  1.00  0.00     0.074 A 
ATOM     40  C   UNL A   1      44.899  24.899  27.331  1.00  0.00     0.049 A 
ATOM     41  N   UNL A   1      42.792  26.861  28.238  1.00  0.00    -0.248 NA
ATOM     42  C   UNL A   1      41.255  25.102  28.265  1.00  0.00     0.031 C 
ATOM     43  C   UNL A   1      45.944  24.006  26.827  1.00  0.00     0.029 A 
ATOM     44  N   UNL A   1      45.550  26.091  27.531  1.00  0.00    -0.354 N 
ATOM     45  C   UNL A   1      41.552  27.339  28.636  1.00  0.00     0.074 A 
ATOM     46  C   UNL A   1      40.628  26.227  28.580  1.00  0.00     0.031 C 
ATOM     47  C   UNL A   1      47.104  24.680  26.760  1.00  0.00     0.029 A 
ATOM     48  C   UNL A   1      46.876  26.062  27.174  1.00  0.00     0.049 A 
ATOM     49  H   UNL A   1      45.107  26.892  27.897  1.00  0.00     0.167 HD
ATOM     50  C   UNL A   1      41.219  28.589  29.032  1.00  0.00     0.037 A 
ATOM     51  C   UNL A   1      47.795  27.046  27.159  1.00  0.00     0.037 A 
ATOM     52  C   UNL A   1      42.145  29.686  29.113  1.00  0.00     0.049 A 
ATOM     53  C   UNL A   1      47.395  28.431  27.594  1.00  0.00     0.074 A 
ATOM     54  C   UNL A   1      41.911  30.986  29.522  1.00  0.00     0.029 A 
ATOM     55  N   UNL A   1      43.490  29.603  28.785  1.00  0.00    -0.354 N 
ATOM     56  N   UNL A   1      46.224  28.866  27.993  1.00  0.00    -0.248 NA
ATOM     57  C   UNL A   1      48.442  29.462  27.575  1.00  0.00     0.031 C 
ATOM     58  C   UNL A   1      43.111  31.698  29.420  1.00  0.00     0.029 A 
ATOM     59  C   UNL A   1      44.099  30.830  28.982  1.00  0.00     0.049 A 
ATOM     60  H   UNL A   1      43.945  28.792  28.460  1.00  0.00     0.167 HD
ATOM     61  C   UNL A   1      46.403  30.207  28.305  1.00  0.00     0.074 A 
ATOM     62  C   UNL A   1      47.795  30.514  28.055  1.00  0.00     0.031 C 
ATOM     63  C   UNL A   1      45.494  31.104  28.758  1.00  0.00     0.037 A 
BRANCH  50  64
ATOM     64  C   UNL A   1      39.791  28.832  29.421  1.00  0.00     0.064 A 
ATOM     65  C   UNL A   1      38.846  29.283  28.486  1.00  0.00     0.173 A 
ATOM     66  C   UNL A   1      39.353  28.582  30.730  1.00  0.00     0.173 A 
ATOM     67  F   UNL A   1      39.220  29.551  27.226  1.00  0.00    -0.203 F 
ATOM     68  C   UNL A   1      37.522  29.497  28.854  1.00  0.00     0.198 A 
ATOM     69  C   UNL A   1      38.022  28.771  31.087  1.00  0.00     0.198 A 
ATOM     70  F   UNL A   1      40.216  28.148  31.661  1.00  0.00    -0.203 F 
ATOM     71  F   UNL A   1      36.648  29.971  27.956  1.00  0.00    -0.200 F 
ATOM     72  C   UNL A   1      37.109  29.234  30.152  1.00  0.00     0.200 A 
ATOM     73  F   UNL A   1      37.622  28.508  32.339  1.00  0.00    -0.200 F 
ATOM     74  F   UNL A   1      35.831  29.435  30.502  1.00  0.00    -0.200 F 
ENDBRANCH  50  64
BRANCH  51  75
ATOM     75  C   UNL A   1      49.188  26.763  26.725  1.00  0.00     0.064 A 
ATOM     76  C   UNL A   1      49.554  26.872  25.375  1.00  0.00     0.173 A 
ATOM     77  C   UNL A   1      50.172  26.358  27.638  1.00  0.00     0.173 A 
ATOM     78  F   UNL A   1      48.641  27.236  24.463  1.00  0.00    -0.203 F 
ATOM     79  C   UNL A   1      50.844  26.560  24.952  1.00  0.00     0.198 A 
ATOM     80  C   UNL A   1      51.469  26.071  27.216  1.00  0.00     0.198 A 
ATOM     81  F   UNL A   1      49.875  26.243  28.939  1.00  0.00    -0.203 F 
ATOM     82  F   UNL A   1      51.152  26.623  23.650  1.00  0.00    -0.200 F 
ATOM     83  C   UNL A   1      51.802  26.163  25.873  1.00  0.00     0.200 A 
ATOM     84  F   UNL A   1      52.396  25.701  28.110  1.00  0.00    -0.200 F 
ATOM     85  F   UNL A   1      53.042  25.861  25.464  1.00  0.00    -0.200 F 
ENDBRANCH  51  75
BRANCH  63  86
ATOM     86  C   UNL A   1      45.984  32.486  29.069  1.00  0.00     0.064 A 
ATOM     87  C   UNL A   1      46.506  32.815  30.326  1.00  0.00     0.173 A 
ATOM     88  C   UNL A   1      45.990  33.473  28.071  1.00  0.00     0.173 A 
ATOM     89  F   UNL A   1      46.507  31.908  31.315  1.00  0.00    -0.203 F 
ATOM     90  C   UNL A   1      47.005  34.089  30.580  1.00  0.00     0.198 A 
ATOM     91  C   UNL A   1      46.510  34.738  28.321  1.00  0.00     0.198 A 
ATOM     92  F   UNL A   1      45.505  33.202  26.850  1.00  0.00    -0.203 F 
ATOM     93  F   UNL A   1      47.471  34.394  31.799  1.00  0.00    -0.200 F 
ATOM     94  C   UNL A   1      47.015  35.046  29.575  1.00  0.00     0.200 A 
ATOM     95  F   UNL A   1      46.530  35.658  27.346  1.00  0.00    -0.200 F 
ATOM     96  F   UNL A   1      47.508  36.268  29.818  1.00  0.00    -0.200 F 
ENDBRANCH  63  86
ENDBRANCH  37  38
ENDBRANCH  29  32
ENDBRANCH  27  28
ENDBRANCH  26  27
ENDBRANCH  25  26
ENDBRANCH   1  25
TORSDOF 16
ENDMDL
