MODEL 1
REMARK VINA RESULT:     -11.4      0.000      0.000
REMARK SMILES CC[C@](C)(NC(=O)NC[C@@H](C)[NH+](C)C)C(=O)NCCCCNC(=O)c1ccc(-c2c3nc(c(-c4c(F)c(F)c(F)c(F)c4F)c4ccc([nH]4)c(-c4c(F)c(F)c(F)c(F)c4F)c4nc(c(-c5c(F)c(F)c(F)c(F)c5F)c5ccc2[nH]5)C=C4)C=C3)cc1
REMARK SMILES IDX 18 1 17 2 15 3 16 4 3 6 4 7 2 8 1 9 5 10 6 11 7 13 8 14 9 16
REMARK SMILES IDX 10 17 11 18 12 19 13 20 14 21 19 23 20 24 21 25 22 26 23 27
REMARK SMILES IDX 24 29 25 30 26 31 87 32 27 33 86 34 28 35 29 36 30 37 80 38
REMARK SMILES IDX 31 39 85 40 79 41 81 42 32 43 84 44 78 45 77 46 33 48 65 49
REMARK SMILES IDX 45 50 64 51 46 52 49 53 63 54 82 55 47 56 48 57 62 59 83 60
REMARK SMILES IDX 50 61 34 62 35 63 43 64 36 65 37 66 41 67 44 68 38 69 39 70
REMARK SMILES IDX 42 71 40 72 66 73 67 74 75 75 68 76 69 77 73 78 76 79 70 80
REMARK SMILES IDX 71 81 74 82 72 83 51 84 52 85 60 86 53 87 54 88 58 89 61 90
REMARK SMILES IDX 55 91 56 92 59 93 57 94
REMARK H PARENT 17 5 5 12 8 15 12 22 22 28 81 47 49 58
REMARK Flexibility Score: inf
ROOT
ATOM      1  C   UNL A   1      32.625  30.095  26.383  1.00  0.00     0.116 C 
ENDROOT
BRANCH   1   2
ATOM      2  N   UNL A   1      33.491  29.740  25.268  1.00  0.00    -0.354 N 
ATOM      3  C   UNL A   1      33.451  28.721  24.347  1.00  0.00     0.245 C 
ATOM      4  O   UNL A   1      33.909  28.976  23.227  1.00  0.00    -0.272 OA
ATOM      5  H   UNL A   1      34.256  30.349  25.151  1.00  0.00     0.163 HD
BRANCH   3   6
ATOM      6  C   UNL A   1      32.739  27.368  24.615  1.00  0.00     0.117 C 
ATOM      7  C   UNL A   1      31.380  27.496  25.334  1.00  0.00     0.045 C 
BRANCH   6   8
ATOM      8  C   UNL A   1      33.696  26.547  25.549  1.00  0.00     0.035 C 
ATOM      9  C   UNL A   1      33.441  25.039  25.589  1.00  0.00     0.007 C 
ENDBRANCH   6   8
BRANCH   6  10
ATOM     10  N   UNL A   1      32.532  26.649  23.346  1.00  0.00    -0.324 N 
ATOM     11  C   UNL A   1      31.707  26.786  22.303  1.00  0.00     0.315 C 
ATOM     12  H   UNL A   1      33.147  25.887  23.241  1.00  0.00     0.166 HD
ATOM     13  O   UNL A   1      31.678  25.849  21.497  1.00  0.00    -0.249 OA
ATOM     14  N   UNL A   1      30.945  27.844  22.019  1.00  0.00    -0.332 N 
ATOM     15  H   UNL A   1      30.459  27.713  21.173  1.00  0.00     0.165 HD
BRANCH  14  16
ATOM     16  C   UNL A   1      30.627  29.146  22.611  1.00  0.00     0.182 C 
BRANCH  16  17
ATOM     17  C   UNL A   1      29.250  29.733  22.177  1.00  0.00     0.200 C 
ATOM     18  C   UNL A   1      28.086  28.995  22.851  1.00  0.00     0.077 C 
BRANCH  17  19
ATOM     19  N   UNL A   1      29.201  31.200  22.320  1.00  0.00    -0.336 N 
ATOM     20  C   UNL A   1      28.437  31.879  21.280  1.00  0.00     0.332 C 
ATOM     21  C   UNL A   1      28.838  31.687  23.645  1.00  0.00     0.332 C 
ATOM     22  H   UNL A   1      30.179  31.459  22.191  1.00  0.00     0.347 HD
ENDBRANCH  17  19
ENDBRANCH  16  17
ENDBRANCH  14  16
ENDBRANCH   6  10
ENDBRANCH   3   6
ENDBRANCH   1   2
BRANCH   1  23
ATOM     23  C   UNL A   1      31.374  30.946  26.141  1.00  0.00     0.023 C 
BRANCH  23  24
ATOM     24  C   UNL A   1      31.322  32.389  26.645  1.00  0.00     0.023 C 
BRANCH  24  25
ATOM     25  C   UNL A   1      32.620  32.961  27.200  1.00  0.00     0.116 C 
BRANCH  25  26
ATOM     26  N   UNL A   1      32.457  34.325  27.669  1.00  0.00    -0.352 N 
ATOM     27  C   UNL A   1      33.049  34.966  28.725  1.00  0.00     0.251 C 
ATOM     28  H   UNL A   1      31.824  34.873  27.150  1.00  0.00     0.163 HD
ATOM     29  O   UNL A   1      32.632  36.075  29.070  1.00  0.00    -0.269 OA
BRANCH  27  30
ATOM     30  C   UNL A   1      34.175  34.355  29.470  1.00  0.00     0.039 A 
ATOM     31  C   UNL A   1      35.474  34.533  28.979  1.00  0.00     0.014 A 
ATOM     32  C   UNL A   1      33.965  33.552  30.594  1.00  0.00     0.014 A 
ATOM     33  C   UNL A   1      36.559  33.937  29.628  1.00  0.00     0.010 A 
ATOM     34  C   UNL A   1      35.053  32.996  31.272  1.00  0.00     0.010 A 
ATOM     35  C   UNL A   1      36.360  33.173  30.789  1.00  0.00    -0.014 A 
BRANCH  35  36
ATOM     36  C   UNL A   1      37.507  32.539  31.492  1.00  0.00     0.031 A 
ATOM     37  C   UNL A   1      38.246  31.392  30.860  1.00  0.00     0.074 A 
ATOM     38  C   UNL A   1      37.862  32.969  32.719  1.00  0.00     0.049 A 
ATOM     39  N   UNL A   1      39.238  30.681  31.336  1.00  0.00    -0.248 NA
ATOM     40  C   UNL A   1      37.799  30.976  29.522  1.00  0.00     0.031 C 
ATOM     41  C   UNL A   1      37.211  34.053  33.453  1.00  0.00     0.029 A 
ATOM     42  N   UNL A   1      38.853  32.541  33.565  1.00  0.00    -0.354 N 
ATOM     43  C   UNL A   1      39.521  29.727  30.368  1.00  0.00     0.074 A 
ATOM     44  C   UNL A   1      38.572  29.923  29.293  1.00  0.00     0.031 C 
ATOM     45  C   UNL A   1      37.829  34.215  34.635  1.00  0.00     0.029 A 
ATOM     46  C   UNL A   1      38.899  33.228  34.753  1.00  0.00     0.049 A 
ATOM     47  H   UNL A   1      39.475  31.809  33.343  1.00  0.00     0.167 HD
ATOM     48  C   UNL A   1      40.496  28.785  30.366  1.00  0.00     0.037 A 
ATOM     49  C   UNL A   1      39.707  33.077  35.820  1.00  0.00     0.037 A 
ATOM     50  C   UNL A   1      41.462  28.610  31.419  1.00  0.00     0.049 A 
ATOM     51  C   UNL A   1      40.777  32.019  35.794  1.00  0.00     0.074 A 
ATOM     52  C   UNL A   1      42.525  27.726  31.475  1.00  0.00     0.029 A 
ATOM     53  N   UNL A   1      41.479  29.331  32.603  1.00  0.00    -0.354 N 
ATOM     54  N   UNL A   1      41.075  31.165  34.846  1.00  0.00    -0.248 NA
ATOM     55  C   UNL A   1      41.629  31.909  36.987  1.00  0.00     0.031 C 
ATOM     56  C   UNL A   1      43.163  27.885  32.711  1.00  0.00     0.029 A 
ATOM     57  C   UNL A   1      42.522  28.897  33.406  1.00  0.00     0.049 A 
ATOM     58  H   UNL A   1      40.844  30.046  32.838  1.00  0.00     0.167 HD
ATOM     59  C   UNL A   1      42.160  30.438  35.313  1.00  0.00     0.074 A 
ATOM     60  C   UNL A   1      42.479  30.958  36.626  1.00  0.00     0.031 C 
ATOM     61  C   UNL A   1      42.834  29.430  34.707  1.00  0.00     0.037 A 
BRANCH  48  62
ATOM     62  C   UNL A   1      40.570  27.864  29.183  1.00  0.00     0.064 A 
ATOM     63  C   UNL A   1      39.738  26.740  29.072  1.00  0.00     0.173 A 
ATOM     64  C   UNL A   1      41.450  28.136  28.124  1.00  0.00     0.173 A 
ATOM     65  F   UNL A   1      38.886  26.432  30.061  1.00  0.00    -0.203 F 
ATOM     66  C   UNL A   1      39.803  25.908  27.958  1.00  0.00     0.198 A 
ATOM     67  C   UNL A   1      41.493  27.317  26.999  1.00  0.00     0.198 A 
ATOM     68  F   UNL A   1      42.262  29.203  28.176  1.00  0.00    -0.203 F 
ATOM     69  F   UNL A   1      39.029  24.815  27.894  1.00  0.00    -0.200 F 
ATOM     70  C   UNL A   1      40.675  26.201  26.920  1.00  0.00     0.200 A 
ATOM     71  F   UNL A   1      42.326  27.608  25.991  1.00  0.00    -0.200 F 
ATOM     72  F   UNL A   1      40.730  25.402  25.845  1.00  0.00    -0.200 F 
ENDBRANCH  48  62
BRANCH  49  73
ATOM     73  C   UNL A   1      39.553  33.969  36.998  1.00  0.00     0.064 A 
ATOM     74  C   UNL A   1      40.183  35.220  37.038  1.00  0.00     0.173 A 
ATOM     75  C   UNL A   1      38.785  33.586  38.107  1.00  0.00     0.173 A 
ATOM     76  F   UNL A   1      40.948  35.618  36.011  1.00  0.00    -0.203 F 
ATOM     77  C   UNL A   1      40.063  36.050  38.151  1.00  0.00     0.198 A 
ATOM     78  C   UNL A   1      38.645  34.429  39.208  1.00  0.00     0.198 A 
ATOM     79  F   UNL A   1      38.162  32.400  38.115  1.00  0.00    -0.203 F 
ATOM     80  F   UNL A   1      40.711  37.222  38.181  1.00  0.00    -0.200 F 
ATOM     81  C   UNL A   1      39.290  35.656  39.233  1.00  0.00     0.200 A 
ATOM     82  F   UNL A   1      37.888  34.050  40.246  1.00  0.00    -0.200 F 
ATOM     83  F   UNL A   1      39.174  36.456  40.302  1.00  0.00    -0.200 F 
ENDBRANCH  49  73
BRANCH  61  84
ATOM     84  C   UNL A   1      44.003  28.843  35.442  1.00  0.00     0.064 A 
ATOM     85  C   UNL A   1      45.305  29.331  35.262  1.00  0.00     0.173 A 
ATOM     86  C   UNL A   1      43.811  27.805  36.367  1.00  0.00     0.173 A 
ATOM     87  F   UNL A   1      45.542  30.312  34.377  1.00  0.00    -0.203 F 
ATOM     88  C   UNL A   1      46.376  28.786  35.965  1.00  0.00     0.198 A 
ATOM     89  C   UNL A   1      44.881  27.281  37.088  1.00  0.00     0.198 A 
ATOM     90  F   UNL A   1      42.584  27.306  36.580  1.00  0.00    -0.203 F 
ATOM     91  F   UNL A   1      47.618  29.239  35.745  1.00  0.00    -0.200 F 
ATOM     92  C   UNL A   1      46.163  27.767  36.881  1.00  0.00     0.200 A 
ATOM     93  F   UNL A   1      44.672  26.304  37.980  1.00  0.00    -0.200 F 
ATOM     94  F   UNL A   1      47.195  27.249  37.561  1.00  0.00    -0.200 F 
ENDBRANCH  61  84
ENDBRANCH  35  36
ENDBRANCH  27  30
ENDBRANCH  25  26
ENDBRANCH  24  25
ENDBRANCH  23  24
ENDBRANCH   1  23
TORSDOF 16
ENDMDL
MODEL 2
REMARK VINA RESULT:     -11.2      0.801      7.419
REMARK SMILES CC[C@](C)(NC(=O)NC[C@@H](C)[NH+](C)C)C(=O)NCCCCNC(=O)c1ccc(-c2c3nc(c(-c4c(F)c(F)c(F)c(F)c4F)c4ccc([nH]4)c(-c4c(F)c(F)c(F)c(F)c4F)c4nc(c(-c5c(F)c(F)c(F)c(F)c5F)c5ccc2[nH]5)C=C4)C=C3)cc1
REMARK SMILES IDX 18 1 17 2 15 3 16 4 3 6 4 7 2 8 1 9 5 10 6 11 7 13 8 14 9 16
REMARK SMILES IDX 10 17 11 18 12 19 13 20 14 21 19 23 20 24 21 25 22 26 23 27
REMARK SMILES IDX 24 29 25 30 26 31 87 32 27 33 86 34 28 35 29 36 30 37 80 38
REMARK SMILES IDX 31 39 85 40 79 41 81 42 32 43 84 44 78 45 77 46 33 48 65 49
REMARK SMILES IDX 45 50 64 51 46 52 49 53 63 54 82 55 47 56 48 57 62 59 83 60
REMARK SMILES IDX 50 61 34 62 35 63 43 64 36 65 37 66 41 67 44 68 38 69 39 70
REMARK SMILES IDX 42 71 40 72 66 73 67 74 75 75 68 76 69 77 73 78 76 79 70 80
REMARK SMILES IDX 71 81 74 82 72 83 51 84 52 85 60 86 53 87 54 88 58 89 61 90
REMARK SMILES IDX 55 91 56 92 59 93 57 94
REMARK H PARENT 17 5 5 12 8 15 12 22 22 28 81 47 49 58
REMARK Flexibility Score: inf
ROOT
ATOM      1  C   UNL A   1      32.274  29.962  26.160  1.00  0.00     0.116 C 
ENDROOT
BRANCH   1   2
ATOM      2  N   UNL A   1      33.287  29.619  25.172  1.00  0.00    -0.354 N 
ATOM      3  C   UNL A   1      33.395  28.589  24.269  1.00  0.00     0.245 C 
ATOM      4  O   UNL A   1      33.986  28.845  23.213  1.00  0.00    -0.272 OA
ATOM      5  H   UNL A   1      34.043  30.250  25.144  1.00  0.00     0.163 HD
BRANCH   3   6
ATOM      6  C   UNL A   1      32.693  27.219  24.464  1.00  0.00     0.117 C 
ATOM      7  C   UNL A   1      31.306  27.304  25.135  1.00  0.00     0.045 C 
BRANCH   6   8
ATOM      8  C   UNL A   1      33.626  26.379  25.405  1.00  0.00     0.035 C 
ATOM      9  C   UNL A   1      32.990  25.128  26.015  1.00  0.00     0.007 C 
ENDBRANCH   6   8
BRANCH   6  10
ATOM     10  N   UNL A   1      32.544  26.541  23.165  1.00  0.00    -0.324 N 
ATOM     11  C   UNL A   1      31.770  26.715  22.088  1.00  0.00     0.315 C 
ATOM     12  H   UNL A   1      33.160  25.780  23.064  1.00  0.00     0.166 HD
ATOM     13  O   UNL A   1      31.776  25.804  21.253  1.00  0.00    -0.249 OA
ATOM     14  N   UNL A   1      31.026  27.786  21.802  1.00  0.00    -0.332 N 
ATOM     15  H   UNL A   1      30.580  27.684  20.931  1.00  0.00     0.165 HD
BRANCH  14  16
ATOM     16  C   UNL A   1      30.685  29.070  22.419  1.00  0.00     0.182 C 
BRANCH  16  17
ATOM     17  C   UNL A   1      29.210  29.521  22.198  1.00  0.00     0.200 C 
ATOM     18  C   UNL A   1      28.247  28.770  23.127  1.00  0.00     0.077 C 
BRANCH  17  19
ATOM     19  N   UNL A   1      29.065  30.989  22.234  1.00  0.00    -0.336 N 
ATOM     20  C   UNL A   1      28.404  31.555  21.065  1.00  0.00     0.332 C 
ATOM     21  C   UNL A   1      28.514  31.532  23.469  1.00  0.00     0.332 C 
ATOM     22  H   UNL A   1      30.037  31.298  22.208  1.00  0.00     0.347 HD
ENDBRANCH  17  19
ENDBRANCH  16  17
ENDBRANCH  14  16
ENDBRANCH   6  10
ENDBRANCH   3   6
ENDBRANCH   1   2
BRANCH   1  23
ATOM     23  C   UNL A   1      31.193  30.994  25.825  1.00  0.00     0.023 C 
BRANCH  23  24
ATOM     24  C   UNL A   1      31.191  32.353  26.525  1.00  0.00     0.023 C 
BRANCH  24  25
ATOM     25  C   UNL A   1      32.529  32.842  27.063  1.00  0.00     0.116 C 
BRANCH  25  26
ATOM     26  N   UNL A   1      32.436  34.179  27.622  1.00  0.00    -0.352 N 
ATOM     27  C   UNL A   1      33.097  34.730  28.687  1.00  0.00     0.251 C 
ATOM     28  H   UNL A   1      31.801  34.779  27.167  1.00  0.00     0.163 HD
ATOM     29  O   UNL A   1      32.735  35.829  29.119  1.00  0.00    -0.269 OA
BRANCH  27  30
ATOM     30  C   UNL A   1      34.231  34.037  29.341  1.00  0.00     0.039 A 
ATOM     31  C   UNL A   1      35.531  34.344  28.923  1.00  0.00     0.014 A 
ATOM     32  C   UNL A   1      34.030  33.039  30.299  1.00  0.00     0.014 A 
ATOM     33  C   UNL A   1      36.626  33.680  29.484  1.00  0.00     0.010 A 
ATOM     34  C   UNL A   1      35.127  32.410  30.895  1.00  0.00     0.010 A 
ATOM     35  C   UNL A   1      36.435  32.716  30.485  1.00  0.00    -0.014 A 
BRANCH  35  36
ATOM     36  C   UNL A   1      37.592  32.007  31.094  1.00  0.00     0.031 A 
ATOM     37  C   UNL A   1      38.058  32.362  32.478  1.00  0.00     0.074 A 
ATOM     38  C   UNL A   1      38.250  31.068  30.386  1.00  0.00     0.049 A 
ATOM     39  N   UNL A   1      39.075  31.891  33.158  1.00  0.00    -0.248 NA
ATOM     40  C   UNL A   1      37.294  33.400  33.187  1.00  0.00     0.031 C 
ATOM     41  C   UNL A   1      37.916  30.650  29.025  1.00  0.00     0.029 A 
ATOM     42  N   UNL A   1      39.341  30.302  30.713  1.00  0.00    -0.354 N 
ATOM     43  C   UNL A   1      39.081  32.583  34.362  1.00  0.00     0.074 A 
ATOM     44  C   UNL A   1      37.992  33.535  34.306  1.00  0.00     0.031 C 
ATOM     45  C   UNL A   1      38.774  29.692  28.638  1.00  0.00     0.029 A 
ATOM     46  C   UNL A   1      39.736  29.450  29.711  1.00  0.00     0.049 A 
ATOM     47  H   UNL A   1      39.797  30.356  31.584  1.00  0.00     0.167 HD
ATOM     48  C   UNL A   1      39.907  32.426  35.425  1.00  0.00     0.037 A 
ATOM     49  C   UNL A   1      40.761  28.578  29.659  1.00  0.00     0.037 A 
ATOM     50  C   UNL A   1      40.970  31.458  35.495  1.00  0.00     0.049 A 
ATOM     51  C   UNL A   1      41.667  28.428  30.851  1.00  0.00     0.074 A 
ATOM     52  C   UNL A   1      41.817  31.182  36.555  1.00  0.00     0.029 A 
ATOM     53  N   UNL A   1      41.334  30.609  34.461  1.00  0.00    -0.354 N 
ATOM     54  N   UNL A   1      41.623  29.044  32.006  1.00  0.00    -0.248 NA
ATOM     55  C   UNL A   1      42.764  27.456  30.732  1.00  0.00     0.031 C 
ATOM     56  C   UNL A   1      42.720  30.193  36.149  1.00  0.00     0.029 A 
ATOM     57  C   UNL A   1      42.408  29.823  34.850  1.00  0.00     0.049 A 
ATOM     58  H   UNL A   1      40.895  30.570  33.581  1.00  0.00     0.167 HD
ATOM     59  C   UNL A   1      42.663  28.517  32.760  1.00  0.00     0.074 A 
ATOM     60  C   UNL A   1      43.315  27.521  31.936  1.00  0.00     0.031 C 
ATOM     61  C   UNL A   1      43.042  28.829  34.023  1.00  0.00     0.037 A 
BRANCH  48  62
ATOM     62  C   UNL A   1      39.696  33.326  36.607  1.00  0.00     0.064 A 
ATOM     63  C   UNL A   1      40.351  34.561  36.719  1.00  0.00     0.173 A 
ATOM     64  C   UNL A   1      38.790  32.970  37.618  1.00  0.00     0.173 A 
ATOM     65  F   UNL A   1      41.233  34.944  35.783  1.00  0.00    -0.203 F 
ATOM     66  C   UNL A   1      40.127  35.395  37.811  1.00  0.00     0.198 A 
ATOM     67  C   UNL A   1      38.548  33.818  38.696  1.00  0.00     0.198 A 
ATOM     68  F   UNL A   1      38.131  31.803  37.557  1.00  0.00    -0.203 F 
ATOM     69  F   UNL A   1      40.797  36.551  37.918  1.00  0.00    -0.200 F 
ATOM     70  C   UNL A   1      39.222  35.026  38.795  1.00  0.00     0.200 A 
ATOM     71  F   UNL A   1      37.663  33.467  39.639  1.00  0.00    -0.200 F 
ATOM     72  F   UNL A   1      39.002  35.834  39.842  1.00  0.00    -0.200 F 
ENDBRANCH  48  62
BRANCH  49  73
ATOM     73  C   UNL A   1      40.972  27.756  28.440  1.00  0.00     0.064 A 
ATOM     74  C   UNL A   1      41.841  28.183  27.427  1.00  0.00     0.173 A 
ATOM     75  C   UNL A   1      40.306  26.536  28.259  1.00  0.00     0.173 A 
ATOM     76  F   UNL A   1      42.482  29.356  27.545  1.00  0.00    -0.203 F 
ATOM     77  C   UNL A   1      42.024  27.429  26.270  1.00  0.00     0.198 A 
ATOM     78  C   UNL A   1      40.510  25.770  27.112  1.00  0.00     0.198 A 
ATOM     79  F   UNL A   1      39.466  26.083  29.200  1.00  0.00    -0.203 F 
ATOM     80  F   UNL A   1      42.827  27.883  25.298  1.00  0.00    -0.200 F 
ATOM     81  C   UNL A   1      41.363  26.220  26.116  1.00  0.00     0.200 A 
ATOM     82  F   UNL A   1      39.878  24.596  26.973  1.00  0.00    -0.200 F 
ATOM     83  F   UNL A   1      41.541  25.494  25.004  1.00  0.00    -0.200 F 
ENDBRANCH  49  73
BRANCH  61  84
ATOM     84  C   UNL A   1      44.195  28.065  34.605  1.00  0.00     0.064 A 
ATOM     85  C   UNL A   1      45.510  28.541  34.520  1.00  0.00     0.173 A 
ATOM     86  C   UNL A   1      43.974  26.860  35.290  1.00  0.00     0.173 A 
ATOM     87  F   UNL A   1      45.774  29.681  33.861  1.00  0.00    -0.203 F 
ATOM     88  C   UNL A   1      46.567  27.828  35.079  1.00  0.00     0.198 A 
ATOM     89  C   UNL A   1      45.029  26.163  35.871  1.00  0.00     0.198 A 
ATOM     90  F   UNL A   1      42.732  26.364  35.404  1.00  0.00    -0.203 F 
ATOM     91  F   UNL A   1      47.821  28.279  34.948  1.00  0.00    -0.200 F 
ATOM     92  C   UNL A   1      46.325  26.643  35.760  1.00  0.00     0.200 A 
ATOM     93  F   UNL A   1      44.793  25.025  36.538  1.00  0.00    -0.200 F 
ATOM     94  F   UNL A   1      47.343  25.962  36.304  1.00  0.00    -0.200 F 
ENDBRANCH  61  84
ENDBRANCH  35  36
ENDBRANCH  27  30
ENDBRANCH  25  26
ENDBRANCH  24  25
ENDBRANCH  23  24
ENDBRANCH   1  23
TORSDOF 16
ENDMDL
MODEL 3
REMARK VINA RESULT:     -11.2      0.701      1.821
REMARK SMILES CC[C@](C)(NC(=O)NC[C@@H](C)[NH+](C)C)C(=O)NCCCCNC(=O)c1ccc(-c2c3nc(c(-c4c(F)c(F)c(F)c(F)c4F)c4ccc([nH]4)c(-c4c(F)c(F)c(F)c(F)c4F)c4nc(c(-c5c(F)c(F)c(F)c(F)c5F)c5ccc2[nH]5)C=C4)C=C3)cc1
REMARK SMILES IDX 18 1 17 2 15 3 16 4 3 6 4 7 2 8 1 9 5 10 6 11 7 13 8 14 9 16
REMARK SMILES IDX 10 17 11 18 12 19 13 20 14 21 19 23 20 24 21 25 22 26 23 27
REMARK SMILES IDX 24 29 25 30 26 31 87 32 27 33 86 34 28 35 29 36 30 37 80 38
REMARK SMILES IDX 31 39 85 40 79 41 81 42 32 43 84 44 78 45 77 46 33 48 65 49
REMARK SMILES IDX 45 50 64 51 46 52 49 53 63 54 82 55 47 56 48 57 62 59 83 60
REMARK SMILES IDX 50 61 34 62 35 63 43 64 36 65 37 66 41 67 44 68 38 69 39 70
REMARK SMILES IDX 42 71 40 72 66 73 67 74 75 75 68 76 69 77 73 78 76 79 70 80
REMARK SMILES IDX 71 81 74 82 72 83 51 84 52 85 60 86 53 87 54 88 58 89 61 90
REMARK SMILES IDX 55 91 56 92 59 93 57 94
REMARK H PARENT 17 5 5 12 8 15 12 22 22 28 81 47 49 58
REMARK Flexibility Score: inf
ROOT
ATOM      1  C   UNL A   1      32.271  30.006  26.384  1.00  0.00     0.116 C 
ENDROOT
BRANCH   1   2
ATOM      2  N   UNL A   1      33.290  29.609  25.422  1.00  0.00    -0.354 N 
ATOM      3  C   UNL A   1      33.346  28.603  24.488  1.00  0.00     0.245 C 
ATOM      4  O   UNL A   1      33.999  28.841  23.464  1.00  0.00    -0.272 OA
ATOM      5  H   UNL A   1      34.097  30.172  25.445  1.00  0.00     0.163 HD
BRANCH   3   6
ATOM      6  C   UNL A   1      32.523  27.293  24.608  1.00  0.00     0.117 C 
ATOM      7  C   UNL A   1      31.112  27.480  25.206  1.00  0.00     0.045 C 
BRANCH   6   8
ATOM      8  C   UNL A   1      33.329  26.356  25.574  1.00  0.00     0.035 C 
ATOM      9  C   UNL A   1      34.374  25.463  24.902  1.00  0.00     0.007 C 
ENDBRANCH   6   8
BRANCH   6  10
ATOM     10  N   UNL A   1      32.390  26.660  23.284  1.00  0.00    -0.324 N 
ATOM     11  C   UNL A   1      31.625  26.867  22.207  1.00  0.00     0.315 C 
ATOM     12  H   UNL A   1      33.011  25.906  23.164  1.00  0.00     0.166 HD
ATOM     13  O   UNL A   1      31.644  25.986  21.340  1.00  0.00    -0.249 OA
ATOM     14  N   UNL A   1      30.878  27.943  21.950  1.00  0.00    -0.332 N 
ATOM     15  H   UNL A   1      30.441  27.870  21.072  1.00  0.00     0.165 HD
BRANCH  14  16
ATOM     16  C   UNL A   1      30.525  29.204  22.609  1.00  0.00     0.182 C 
BRANCH  16  17
ATOM     17  C   UNL A   1      29.180  29.826  22.129  1.00  0.00     0.200 C 
ATOM     18  C   UNL A   1      27.978  29.177  22.827  1.00  0.00     0.077 C 
BRANCH  17  19
ATOM     19  N   UNL A   1      29.194  31.300  22.195  1.00  0.00    -0.336 N 
ATOM     20  C   UNL A   1      28.485  31.956  21.102  1.00  0.00     0.332 C 
ATOM     21  C   UNL A   1      28.823  31.872  23.483  1.00  0.00     0.332 C 
ATOM     22  H   UNL A   1      30.185  31.508  22.076  1.00  0.00     0.347 HD
ENDBRANCH  17  19
ENDBRANCH  16  17
ENDBRANCH  14  16
ENDBRANCH   6  10
ENDBRANCH   3   6
ENDBRANCH   1   2
BRANCH   1  23
ATOM     23  C   UNL A   1      31.196  31.022  25.987  1.00  0.00     0.023 C 
BRANCH  23  24
ATOM     24  C   UNL A   1      31.292  32.467  26.477  1.00  0.00     0.023 C 
BRANCH  24  25
ATOM     25  C   UNL A   1      32.589  32.864  27.169  1.00  0.00     0.116 C 
BRANCH  25  26
ATOM     26  N   UNL A   1      32.542  34.224  27.675  1.00  0.00    -0.352 N 
ATOM     27  C   UNL A   1      33.272  34.814  28.672  1.00  0.00     0.251 C 
ATOM     28  H   UNL A   1      31.885  34.812  27.234  1.00  0.00     0.163 HD
ATOM     29  O   UNL A   1      32.947  35.934  29.077  1.00  0.00    -0.269 OA
BRANCH  27  30
ATOM     30  C   UNL A   1      34.438  34.136  29.285  1.00  0.00     0.039 A 
ATOM     31  C   UNL A   1      34.204  33.129  30.229  1.00  0.00     0.014 A 
ATOM     32  C   UNL A   1      35.749  34.528  29.002  1.00  0.00     0.014 A 
ATOM     33  C   UNL A   1      35.277  32.496  30.862  1.00  0.00     0.010 A 
ATOM     34  C   UNL A   1      36.823  33.861  29.599  1.00  0.00     0.010 A 
ATOM     35  C   UNL A   1      36.598  32.847  30.543  1.00  0.00    -0.014 A 
BRANCH  35  36
ATOM     36  C   UNL A   1      37.748  32.176  31.206  1.00  0.00     0.031 A 
ATOM     37  C   UNL A   1      38.515  31.099  30.490  1.00  0.00     0.074 A 
ATOM     38  C   UNL A   1      38.081  32.509  32.468  1.00  0.00     0.049 A 
ATOM     39  N   UNL A   1      39.514  30.367  30.919  1.00  0.00    -0.248 NA
ATOM     40  C   UNL A   1      38.091  30.787  29.117  1.00  0.00     0.031 C 
ATOM     41  C   UNL A   1      37.402  33.517  33.282  1.00  0.00     0.029 A 
ATOM     42  N   UNL A   1      39.070  32.028  33.290  1.00  0.00    -0.354 N 
ATOM     43  C   UNL A   1      39.825  29.502  29.879  1.00  0.00     0.074 A 
ATOM     44  C   UNL A   1      38.885  29.771  28.811  1.00  0.00     0.031 C 
ATOM     45  C   UNL A   1      38.003  33.590  34.481  1.00  0.00     0.029 A 
ATOM     46  C   UNL A   1      39.090  32.615  34.531  1.00  0.00     0.049 A 
ATOM     47  H   UNL A   1      39.707  31.328  33.015  1.00  0.00     0.167 HD
ATOM     48  C   UNL A   1      40.817  28.580  29.811  1.00  0.00     0.037 A 
ATOM     49  C   UNL A   1      39.888  32.389  35.592  1.00  0.00     0.037 A 
ATOM     50  C   UNL A   1      41.773  28.334  30.859  1.00  0.00     0.049 A 
ATOM     51  C   UNL A   1      40.977  31.356  35.492  1.00  0.00     0.074 A 
ATOM     52  C   UNL A   1      42.852  27.467  30.855  1.00  0.00     0.029 A 
ATOM     53  N   UNL A   1      41.764  28.955  32.098  1.00  0.00    -0.354 N 
ATOM     54  N   UNL A   1      41.301  30.589  34.480  1.00  0.00    -0.248 NA
ATOM     55  C   UNL A   1      41.817  31.161  36.683  1.00  0.00     0.031 C 
ATOM     56  C   UNL A   1      43.473  27.533  32.108  1.00  0.00     0.029 A 
ATOM     57  C   UNL A   1      42.806  28.474  32.877  1.00  0.00     0.049 A 
ATOM     58  H   UNL A   1      41.114  29.637  32.384  1.00  0.00     0.167 HD
ATOM     59  C   UNL A   1      42.394  29.843  34.900  1.00  0.00     0.074 A 
ATOM     60  C   UNL A   1      42.688  30.258  36.256  1.00  0.00     0.031 C 
ATOM     61  C   UNL A   1      43.093  28.901  34.221  1.00  0.00     0.037 A 
BRANCH  48  62
ATOM     62  C   UNL A   1      40.921  27.762  28.557  1.00  0.00     0.064 A 
ATOM     63  C   UNL A   1      40.202  26.569  28.395  1.00  0.00     0.173 A 
ATOM     64  C   UNL A   1      41.713  28.203  27.485  1.00  0.00     0.173 A 
ATOM     65  F   UNL A   1      39.438  26.101  29.393  1.00  0.00    -0.203 F 
ATOM     66  C   UNL A   1      40.292  25.833  27.216  1.00  0.00     0.198 A 
ATOM     67  C   UNL A   1      41.780  27.478  26.298  1.00  0.00     0.198 A 
ATOM     68  F   UNL A   1      42.415  29.341  27.585  1.00  0.00    -0.203 F 
ATOM     69  F   UNL A   1      39.629  24.673  27.100  1.00  0.00    -0.200 F 
ATOM     70  C   UNL A   1      41.075  26.291  26.167  1.00  0.00     0.200 A 
ATOM     71  F   UNL A   1      42.525  27.928  25.280  1.00  0.00    -0.200 F 
ATOM     72  F   UNL A   1      41.154  25.585  25.030  1.00  0.00    -0.200 F 
ENDBRANCH  48  62
BRANCH  49  73
ATOM     73  C   UNL A   1      39.704  33.177  36.838  1.00  0.00     0.064 A 
ATOM     74  C   UNL A   1      38.753  32.797  37.794  1.00  0.00     0.173 A 
ATOM     75  C   UNL A   1      40.466  34.326  37.093  1.00  0.00     0.173 A 
ATOM     76  F   UNL A   1      37.985  31.718  37.581  1.00  0.00    -0.203 F 
ATOM     77  C   UNL A   1      38.558  33.546  38.952  1.00  0.00     0.198 A 
ATOM     78  C   UNL A   1      40.288  35.060  38.264  1.00  0.00     0.198 A 
ATOM     79  F   UNL A   1      41.390  34.730  36.210  1.00  0.00    -0.203 F 
ATOM     80  F   UNL A   1      37.611  33.185  39.829  1.00  0.00    -0.200 F 
ATOM     81  C   UNL A   1      39.330  34.674  39.189  1.00  0.00     0.200 A 
ATOM     82  F   UNL A   1      41.043  36.142  38.495  1.00  0.00    -0.200 F 
ATOM     83  F   UNL A   1      39.143  35.393  40.304  1.00  0.00    -0.200 F 
ENDBRANCH  49  73
BRANCH  61  84
ATOM     84  C   UNL A   1      44.263  28.275  34.920  1.00  0.00     0.064 A 
ATOM     85  C   UNL A   1      44.133  27.087  35.653  1.00  0.00     0.173 A 
ATOM     86  C   UNL A   1      45.539  28.853  34.824  1.00  0.00     0.173 A 
ATOM     87  F   UNL A   1      42.931  26.505  35.788  1.00  0.00    -0.203 F 
ATOM     88  C   UNL A   1      45.234  26.511  36.282  1.00  0.00     0.198 A 
ATOM     89  C   UNL A   1      46.642  28.259  35.432  1.00  0.00     0.198 A 
ATOM     90  F   UNL A   1      45.717  29.987  34.130  1.00  0.00    -0.203 F 
ATOM     91  F   UNL A   1      45.078  25.398  37.013  1.00  0.00    -0.200 F 
ATOM     92  C   UNL A   1      46.487  27.093  36.166  1.00  0.00     0.200 A 
ATOM     93  F   UNL A   1      47.854  28.817  35.309  1.00  0.00    -0.200 F 
ATOM     94  F   UNL A   1      47.546  26.533  36.767  1.00  0.00    -0.200 F 
ENDBRANCH  61  84
ENDBRANCH  35  36
ENDBRANCH  27  30
ENDBRANCH  25  26
ENDBRANCH  24  25
ENDBRANCH  23  24
ENDBRANCH   1  23
TORSDOF 16
ENDMDL
