MODEL 1
REMARK VINA RESULT:     -13.2      0.000      0.000
REMARK SMILES O=C(NCCCCNC(=O)[C@H]1CSCN1C(=O)c1cnc2ccccn2c1=O)c1ccc(-c2c3nc(c(-c4c(F)c(F)c(F)c(F)c4F)c4ccc([nH]4)c(-c4c(F)c(F)c(F)c(F)c4F)c4nc(c(-c5c(F)c(F)c(F)c(F)c5F)c5ccc2[nH]5)C=C4)C=C3)cc1
REMARK SMILES IDX 5 1 4 2 3 3 1 4 2 5 29 7 30 8 91 9 31 10 90 11 32 12 33 13
REMARK SMILES IDX 34 14 84 15 35 16 89 17 83 18 85 19 36 20 88 21 82 22 81 23
REMARK SMILES IDX 37 25 69 26 49 27 68 28 50 29 53 30 67 31 86 32 51 33 52 34
REMARK SMILES IDX 66 36 87 37 54 38 38 39 39 40 47 41 40 42 41 43 45 44 48 45
REMARK SMILES IDX 42 46 43 47 46 48 44 49 70 50 71 51 79 52 72 53 73 54 77 55
REMARK SMILES IDX 80 56 74 57 75 58 78 59 76 60 55 61 56 62 64 63 57 64 58 65
REMARK SMILES IDX 62 66 65 67 59 68 60 69 63 70 61 71 6 72 7 73 8 74 9 75
REMARK SMILES IDX 10 77 11 78 12 79 15 80 13 81 14 82 16 83 17 84 18 85 19 86
REMARK SMILES IDX 27 87 20 88 26 89 28 90 21 91 25 92 22 93 24 94 23 95
REMARK H PARENT 3 6 85 24 53 35 8 76
REMARK Flexibility Score: inf
ROOT
ATOM      1  C   UNL A   1      31.454  32.639  26.652  1.00  0.00     0.023 C 
ENDROOT
BRANCH   1   2
ATOM      2  C   UNL A   1      32.671  33.171  27.396  1.00  0.00     0.116 C 
BRANCH   2   3
ATOM      3  N   UNL A   1      32.510  34.548  27.838  1.00  0.00    -0.352 N 
ATOM      4  O   UNL A   1      32.842  36.336  29.179  1.00  0.00    -0.269 OA
ATOM      5  C   UNL A   1      33.181  35.208  28.838  1.00  0.00     0.251 C 
ATOM      6  H   UNL A   1      31.832  35.075  27.357  1.00  0.00     0.163 HD
BRANCH   5   7
ATOM      7  C   UNL A   1      34.305  34.534  29.519  1.00  0.00     0.039 A 
ATOM      8  C   UNL A   1      34.087  33.820  30.700  1.00  0.00     0.014 A 
ATOM      9  C   UNL A   1      35.586  34.619  28.968  1.00  0.00     0.014 A 
ATOM     10  C   UNL A   1      35.168  33.287  31.390  1.00  0.00     0.010 A 
ATOM     11  C   UNL A   1      36.661  34.015  29.623  1.00  0.00     0.010 A 
ATOM     12  C   UNL A   1      36.461  33.356  30.846  1.00  0.00    -0.014 A 
BRANCH  12  13
ATOM     13  C   UNL A   1      37.564  32.631  31.519  1.00  0.00     0.031 A 
ATOM     14  C   UNL A   1      38.255  31.471  30.867  1.00  0.00     0.074 A 
ATOM     15  C   UNL A   1      37.939  33.054  32.743  1.00  0.00     0.049 A 
ATOM     16  N   UNL A   1      39.235  30.736  31.328  1.00  0.00    -0.248 NA
ATOM     17  C   UNL A   1      37.787  31.076  29.530  1.00  0.00     0.031 C 
ATOM     18  C   UNL A   1      37.317  34.160  33.477  1.00  0.00     0.029 A 
ATOM     19  N   UNL A   1      38.931  32.617  33.581  1.00  0.00    -0.354 N 
ATOM     20  C   UNL A   1      39.490  29.783  30.352  1.00  0.00     0.074 A 
ATOM     21  C   UNL A   1      38.552  30.021  29.275  1.00  0.00     0.031 C 
ATOM     22  C   UNL A   1      37.961  34.336  34.638  1.00  0.00     0.029 A 
ATOM     23  C   UNL A   1      38.998  33.319  34.760  1.00  0.00     0.049 A 
ATOM     24  H   UNL A   1      39.537  31.872  33.361  1.00  0.00     0.167 HD
ATOM     25  C   UNL A   1      40.427  28.805  30.359  1.00  0.00     0.037 A 
ATOM     26  C   UNL A   1      39.789  33.146  35.834  1.00  0.00     0.037 A 
ATOM     27  C   UNL A   1      41.372  28.594  31.427  1.00  0.00     0.049 A 
ATOM     28  C   UNL A   1      40.805  32.041  35.813  1.00  0.00     0.074 A 
ATOM     29  C   UNL A   1      42.404  27.675  31.495  1.00  0.00     0.029 A 
ATOM     30  N   UNL A   1      41.395  29.309  32.615  1.00  0.00    -0.354 N 
ATOM     31  N   UNL A   1      41.073  31.183  34.859  1.00  0.00    -0.248 NA
ATOM     32  C   UNL A   1      41.623  31.874  37.021  1.00  0.00     0.031 C 
ATOM     33  C   UNL A   1      43.020  27.797  32.745  1.00  0.00     0.029 A 
ATOM     34  C   UNL A   1      42.402  28.826  33.438  1.00  0.00     0.049 A 
ATOM     35  H   UNL A   1      40.787  30.049  32.843  1.00  0.00     0.167 HD
ATOM     36  C   UNL A   1      42.094  30.381  35.346  1.00  0.00     0.074 A 
ATOM     37  C   UNL A   1      42.418  30.875  36.668  1.00  0.00     0.031 C 
ATOM     38  C   UNL A   1      42.702  29.325  34.754  1.00  0.00     0.037 A 
BRANCH  25  39
ATOM     39  C   UNL A   1      40.485  27.869  29.189  1.00  0.00     0.064 A 
ATOM     40  C   UNL A   1      39.656  26.740  29.106  1.00  0.00     0.173 A 
ATOM     41  C   UNL A   1      41.307  28.163  28.090  1.00  0.00     0.173 A 
ATOM     42  F   UNL A   1      38.857  26.413  30.132  1.00  0.00    -0.203 F 
ATOM     43  C   UNL A   1      39.653  25.938  27.967  1.00  0.00     0.198 A 
ATOM     44  C   UNL A   1      41.284  27.371  26.944  1.00  0.00     0.198 A 
ATOM     45  F   UNL A   1      42.112  29.236  28.116  1.00  0.00    -0.203 F 
ATOM     46  F   UNL A   1      38.865  24.855  27.915  1.00  0.00    -0.200 F 
ATOM     47  C   UNL A   1      40.458  26.260  26.884  1.00  0.00     0.200 A 
ATOM     48  F   UNL A   1      42.053  27.692  25.894  1.00  0.00    -0.200 F 
ATOM     49  F   UNL A   1      40.436  25.498  25.781  1.00  0.00    -0.200 F 
ENDBRANCH  25  39
BRANCH  26  50
ATOM     50  C   UNL A   1      39.628  34.022  37.022  1.00  0.00     0.064 A 
ATOM     51  C   UNL A   1      40.283  35.256  37.106  1.00  0.00     0.173 A 
ATOM     52  C   UNL A   1      38.816  33.636  38.100  1.00  0.00     0.173 A 
ATOM     53  F   UNL A   1      41.084  35.660  36.109  1.00  0.00    -0.203 F 
ATOM     54  C   UNL A   1      40.151  36.064  38.234  1.00  0.00     0.198 A 
ATOM     55  C   UNL A   1      38.659  34.459  39.212  1.00  0.00     0.198 A 
ATOM     56  F   UNL A   1      38.163  32.466  38.065  1.00  0.00    -0.203 F 
ATOM     57  F   UNL A   1      40.827  37.218  38.312  1.00  0.00    -0.200 F 
ATOM     58  C   UNL A   1      39.334  35.668  39.282  1.00  0.00     0.200 A 
ATOM     59  F   UNL A   1      37.855  34.079  40.215  1.00  0.00    -0.200 F 
ATOM     60  F   UNL A   1      39.205  36.446  40.366  1.00  0.00    -0.200 F 
ENDBRANCH  26  50
BRANCH  38  61
ATOM     61  C   UNL A   1      43.782  28.642  35.538  1.00  0.00     0.064 A 
ATOM     62  C   UNL A   1      45.131  28.995  35.382  1.00  0.00     0.173 A 
ATOM     63  C   UNL A   1      43.465  27.640  36.467  1.00  0.00     0.173 A 
ATOM     64  F   UNL A   1      45.484  29.934  34.491  1.00  0.00    -0.203 F 
ATOM     65  C   UNL A   1      46.127  28.348  36.108  1.00  0.00     0.198 A 
ATOM     66  C   UNL A   1      44.461  27.015  37.212  1.00  0.00     0.198 A 
ATOM     67  F   UNL A   1      42.189  27.270  36.654  1.00  0.00    -0.203 F 
ATOM     68  F   UNL A   1      47.413  28.664  35.906  1.00  0.00    -0.200 F 
ATOM     69  C   UNL A   1      45.791  27.364  37.027  1.00  0.00     0.200 A 
ATOM     70  F   UNL A   1      44.134  26.073  38.106  1.00  0.00    -0.200 F 
ATOM     71  F   UNL A   1      46.750  26.744  37.727  1.00  0.00    -0.200 F 
ENDBRANCH  38  61
ENDBRANCH  12  13
ENDBRANCH   5   7
ENDBRANCH   2   3
ENDBRANCH   1   2
BRANCH   1  72
ATOM     72  C   UNL A   1      31.393  31.115  26.533  1.00  0.00     0.023 C 
BRANCH  72  73
ATOM     73  C   UNL A   1      32.720  30.406  26.802  1.00  0.00     0.116 C 
BRANCH  73  74
ATOM     74  N   UNL A   1      33.370  29.966  25.581  1.00  0.00    -0.354 N 
ATOM     75  C   UNL A   1      32.875  29.212  24.551  1.00  0.00     0.243 C 
ATOM     76  H   UNL A   1      34.307  30.254  25.477  1.00  0.00     0.163 HD
ATOM     77  O   UNL A   1      33.648  28.884  23.647  1.00  0.00    -0.273 OA
BRANCH  75  78
ATOM     78  C   UNL A   1      31.377  28.860  24.523  1.00  0.00     0.185 C 
ATOM     79  C   UNL A   1      30.905  29.137  23.095  1.00  0.00     0.106 C 
ATOM     80  N   UNL A   1      31.044  27.472  24.862  1.00  0.00    -0.316 N 
ATOM     81  S   UNL A   1      29.398  28.165  22.906  1.00  0.00    -0.138 SA
ATOM     82  C   UNL A   1      29.863  26.977  24.180  1.00  0.00     0.190 C 
BRANCH  80  83
ATOM     83  C   UNL A   1      31.526  26.951  26.051  1.00  0.00     0.262 C 
ATOM     84  O   UNL A   1      31.147  27.366  27.146  1.00  0.00    -0.269 OA
BRANCH  83  85
ATOM     85  C   UNL A   1      32.416  25.770  26.012  1.00  0.00     0.124 A 
ATOM     86  C   UNL A   1      33.558  25.898  25.325  1.00  0.00     0.133 A 
ATOM     87  C   UNL A   1      32.139  24.467  26.643  1.00  0.00     0.270 A 
ATOM     88  N   UNL A   1      34.535  24.945  25.232  1.00  0.00    -0.237 NA
ATOM     89  N   UNL A   1      33.189  23.554  26.610  1.00  0.00    -0.267 N 
ATOM     90  O   UNL A   1      31.047  24.248  27.166  1.00  0.00    -0.268 OA
ATOM     91  C   UNL A   1      34.338  23.837  25.877  1.00  0.00     0.139 A 
ATOM     92  C   UNL A   1      33.063  22.353  27.301  1.00  0.00     0.096 A 
ATOM     93  C   UNL A   1      35.402  22.796  25.853  1.00  0.00     0.048 A 
ATOM     94  C   UNL A   1      34.037  21.434  27.300  1.00  0.00     0.019 A 
ATOM     95  C   UNL A   1      35.241  21.664  26.548  1.00  0.00     0.005 A 
ENDBRANCH  83  85
ENDBRANCH  80  83
ENDBRANCH  75  78
ENDBRANCH  73  74
ENDBRANCH  72  73
ENDBRANCH   1  72
TORSDOF 13
ENDMDL
MODEL 2
REMARK VINA RESULT:     -13.2      0.132      1.580
REMARK SMILES O=C(NCCCCNC(=O)[C@H]1CSCN1C(=O)c1cnc2ccccn2c1=O)c1ccc(-c2c3nc(c(-c4c(F)c(F)c(F)c(F)c4F)c4ccc([nH]4)c(-c4c(F)c(F)c(F)c(F)c4F)c4nc(c(-c5c(F)c(F)c(F)c(F)c5F)c5ccc2[nH]5)C=C4)C=C3)cc1
REMARK SMILES IDX 5 1 4 2 3 3 1 4 2 5 29 7 30 8 91 9 31 10 90 11 32 12 33 13
REMARK SMILES IDX 34 14 84 15 35 16 89 17 83 18 85 19 36 20 88 21 82 22 81 23
REMARK SMILES IDX 37 25 69 26 49 27 68 28 50 29 53 30 67 31 86 32 51 33 52 34
REMARK SMILES IDX 66 36 87 37 54 38 38 39 39 40 47 41 40 42 41 43 45 44 48 45
REMARK SMILES IDX 42 46 43 47 46 48 44 49 70 50 71 51 79 52 72 53 73 54 77 55
REMARK SMILES IDX 80 56 74 57 75 58 78 59 76 60 55 61 56 62 64 63 57 64 58 65
REMARK SMILES IDX 62 66 65 67 59 68 60 69 63 70 61 71 6 72 7 73 8 74 9 75
REMARK SMILES IDX 10 77 11 78 12 79 15 80 13 81 14 82 16 83 17 84 18 85 19 86
REMARK SMILES IDX 27 87 20 88 26 89 28 90 21 91 25 92 22 93 24 94 23 95
REMARK H PARENT 3 6 85 24 53 35 8 76
REMARK Flexibility Score: inf
ROOT
ATOM      1  C   UNL A   1      31.538  32.856  26.579  1.00  0.00     0.023 C 
ENDROOT
BRANCH   1   2
ATOM      2  C   UNL A   1      32.687  33.308  27.468  1.00  0.00     0.116 C 
BRANCH   2   3
ATOM      3  N   UNL A   1      32.545  34.684  27.923  1.00  0.00    -0.352 N 
ATOM      4  O   UNL A   1      32.912  36.458  29.273  1.00  0.00    -0.269 OA
ATOM      5  C   UNL A   1      33.236  35.329  28.919  1.00  0.00     0.251 C 
ATOM      6  H   UNL A   1      31.866  35.221  27.456  1.00  0.00     0.163 HD
BRANCH   5   7
ATOM      7  C   UNL A   1      34.362  34.639  29.579  1.00  0.00     0.039 A 
ATOM      8  C   UNL A   1      34.163  33.955  30.781  1.00  0.00     0.014 A 
ATOM      9  C   UNL A   1      35.628  34.679  28.987  1.00  0.00     0.014 A 
ATOM     10  C   UNL A   1      35.251  33.407  31.449  1.00  0.00     0.010 A 
ATOM     11  C   UNL A   1      36.706  34.059  29.622  1.00  0.00     0.010 A 
ATOM     12  C   UNL A   1      36.527  33.431  30.864  1.00  0.00    -0.014 A 
BRANCH  12  13
ATOM     13  C   UNL A   1      37.631  32.691  31.519  1.00  0.00     0.031 A 
ATOM     14  C   UNL A   1      38.306  31.532  30.847  1.00  0.00     0.074 A 
ATOM     15  C   UNL A   1      38.022  33.097  32.742  1.00  0.00     0.049 A 
ATOM     16  N   UNL A   1      39.285  30.784  31.291  1.00  0.00    -0.248 NA
ATOM     17  C   UNL A   1      37.821  31.154  29.511  1.00  0.00     0.031 C 
ATOM     18  C   UNL A   1      37.417  34.201  33.494  1.00  0.00     0.029 A 
ATOM     19  N   UNL A   1      39.020  32.644  33.566  1.00  0.00    -0.354 N 
ATOM     20  C   UNL A   1      39.521  29.839  30.302  1.00  0.00     0.074 A 
ATOM     21  C   UNL A   1      38.574  30.096  29.238  1.00  0.00     0.031 C 
ATOM     22  C   UNL A   1      38.075  34.360  34.650  1.00  0.00     0.029 A 
ATOM     23  C   UNL A   1      39.104  33.333  34.750  1.00  0.00     0.049 A 
ATOM     24  H   UNL A   1      39.617  31.897  33.331  1.00  0.00     0.167 HD
ATOM     25  C   UNL A   1      40.451  28.854  30.290  1.00  0.00     0.037 A 
ATOM     26  C   UNL A   1      39.905  33.143  35.814  1.00  0.00     0.037 A 
ATOM     27  C   UNL A   1      41.406  28.624  31.346  1.00  0.00     0.049 A 
ATOM     28  C   UNL A   1      40.912  32.030  35.772  1.00  0.00     0.074 A 
ATOM     29  C   UNL A   1      42.431  27.696  31.393  1.00  0.00     0.029 A 
ATOM     30  N   UNL A   1      41.447  29.326  32.541  1.00  0.00    -0.354 N 
ATOM     31  N   UNL A   1      41.162  31.181  34.807  1.00  0.00    -0.248 NA
ATOM     32  C   UNL A   1      41.741  31.845  36.969  1.00  0.00     0.031 C 
ATOM     33  C   UNL A   1      43.060  27.801  32.638  1.00  0.00     0.029 A 
ATOM     34  C   UNL A   1      42.458  28.828  33.347  1.00  0.00     0.049 A 
ATOM     35  H   UNL A   1      40.846  30.070  32.782  1.00  0.00     0.167 HD
ATOM     36  C   UNL A   1      42.182  30.365  35.274  1.00  0.00     0.074 A 
ATOM     37  C   UNL A   1      42.524  30.843  36.599  1.00  0.00     0.031 C 
ATOM     38  C   UNL A   1      42.775  29.310  34.666  1.00  0.00     0.037 A 
BRANCH  25  39
ATOM     39  C   UNL A   1      40.489  27.929  29.110  1.00  0.00     0.064 A 
ATOM     40  C   UNL A   1      39.682  26.784  29.044  1.00  0.00     0.173 A 
ATOM     41  C   UNL A   1      41.267  28.250  27.986  1.00  0.00     0.173 A 
ATOM     42  F   UNL A   1      38.925  26.430  30.093  1.00  0.00    -0.203 F 
ATOM     43  C   UNL A   1      39.658  25.992  27.898  1.00  0.00     0.198 A 
ATOM     44  C   UNL A   1      41.223  27.468  26.835  1.00  0.00     0.198 A 
ATOM     45  F   UNL A   1      42.050  29.340  27.995  1.00  0.00    -0.203 F 
ATOM     46  F   UNL A   1      38.891  24.892  27.862  1.00  0.00    -0.200 F 
ATOM     47  C   UNL A   1      40.418  26.339  26.792  1.00  0.00     0.200 A 
ATOM     48  F   UNL A   1      41.949  27.814  25.763  1.00  0.00    -0.200 F 
ATOM     49  F   UNL A   1      40.375  25.587  25.683  1.00  0.00    -0.200 F 
ENDBRANCH  25  39
BRANCH  26  50
ATOM     50  C   UNL A   1      39.764  34.008  37.013  1.00  0.00     0.064 A 
ATOM     51  C   UNL A   1      38.957  33.627  38.091  1.00  0.00     0.173 A 
ATOM     52  C   UNL A   1      40.434  35.238  37.100  1.00  0.00     0.173 A 
ATOM     53  F   UNL A   1      38.281  32.469  38.047  1.00  0.00    -0.203 F 
ATOM     54  C   UNL A   1      38.806  34.452  39.204  1.00  0.00     0.198 A 
ATOM     55  C   UNL A   1      40.310  36.047  38.226  1.00  0.00     0.198 A 
ATOM     56  F   UNL A   1      41.224  35.646  36.097  1.00  0.00    -0.203 F 
ATOM     57  F   UNL A   1      37.989  34.088  40.201  1.00  0.00    -0.200 F 
ATOM     58  C   UNL A   1      39.488  35.658  39.273  1.00  0.00     0.200 A 
ATOM     59  F   UNL A   1      40.984  37.204  38.295  1.00  0.00    -0.200 F 
ATOM     60  F   UNL A   1      39.345  36.451  40.344  1.00  0.00    -0.200 F 
ENDBRANCH  26  50
BRANCH  38  61
ATOM     61  C   UNL A   1      43.858  28.610  35.432  1.00  0.00     0.064 A 
ATOM     62  C   UNL A   1      43.566  27.553  36.306  1.00  0.00     0.173 A 
ATOM     63  C   UNL A   1      45.200  28.986  35.276  1.00  0.00     0.173 A 
ATOM     64  F   UNL A   1      42.294  27.171  36.502  1.00  0.00    -0.203 F 
ATOM     65  C   UNL A   1      44.577  26.916  37.019  1.00  0.00     0.198 A 
ATOM     66  C   UNL A   1      46.212  28.328  35.969  1.00  0.00     0.198 A 
ATOM     67  F   UNL A   1      45.530  29.989  34.449  1.00  0.00    -0.203 F 
ATOM     68  F   UNL A   1      44.271  25.943  37.888  1.00  0.00    -0.200 F 
ATOM     69  C   UNL A   1      45.899  27.299  36.845  1.00  0.00     0.200 A 
ATOM     70  F   UNL A   1      47.488  28.692  35.792  1.00  0.00    -0.200 F 
ATOM     71  F   UNL A   1      46.872  26.683  37.530  1.00  0.00    -0.200 F 
ENDBRANCH  38  61
ENDBRANCH  12  13
ENDBRANCH   5   7
ENDBRANCH   2   3
ENDBRANCH   1   2
BRANCH   1  72
ATOM     72  C   UNL A   1      31.349  31.338  26.502  1.00  0.00     0.023 C 
BRANCH  72  73
ATOM     73  C   UNL A   1      32.612  30.528  26.792  1.00  0.00     0.116 C 
BRANCH  73  74
ATOM     74  N   UNL A   1      33.265  30.068  25.580  1.00  0.00    -0.354 N 
ATOM     75  C   UNL A   1      32.786  29.262  24.582  1.00  0.00     0.243 C 
ATOM     76  H   UNL A   1      34.191  30.382  25.457  1.00  0.00     0.163 HD
ATOM     77  O   UNL A   1      33.561  28.929  23.682  1.00  0.00    -0.273 OA
BRANCH  75  78
ATOM     78  C   UNL A   1      31.300  28.860  24.582  1.00  0.00     0.185 C 
ATOM     79  C   UNL A   1      30.790  29.129  23.166  1.00  0.00     0.106 C 
ATOM     80  N   UNL A   1      31.021  27.460  24.918  1.00  0.00    -0.316 N 
ATOM     81  S   UNL A   1      29.313  28.109  23.000  1.00  0.00    -0.138 SA
ATOM     82  C   UNL A   1      29.843  26.930  24.257  1.00  0.00     0.190 C 
BRANCH  80  83
ATOM     83  C   UNL A   1      31.544  26.949  26.094  1.00  0.00     0.262 C 
ATOM     84  O   UNL A   1      31.209  27.379  27.198  1.00  0.00    -0.269 OA
BRANCH  83  85
ATOM     85  C   UNL A   1      32.424  25.761  26.035  1.00  0.00     0.124 A 
ATOM     86  C   UNL A   1      33.572  25.895  25.359  1.00  0.00     0.133 A 
ATOM     87  C   UNL A   1      32.130  24.448  26.635  1.00  0.00     0.270 A 
ATOM     88  N   UNL A   1      34.541  24.936  25.252  1.00  0.00    -0.237 NA
ATOM     89  N   UNL A   1      33.173  23.526  26.589  1.00  0.00    -0.267 N 
ATOM     90  O   UNL A   1      31.034  24.226  27.145  1.00  0.00    -0.268 OA
ATOM     91  C   UNL A   1      34.330  23.815  25.871  1.00  0.00     0.139 A 
ATOM     92  C   UNL A   1      33.032  22.311  27.252  1.00  0.00     0.096 A 
ATOM     93  C   UNL A   1      35.385  22.766  25.831  1.00  0.00     0.048 A 
ATOM     94  C   UNL A   1      33.998  21.384  27.238  1.00  0.00     0.019 A 
ATOM     95  C   UNL A   1      35.210  21.620  26.500  1.00  0.00     0.005 A 
ENDBRANCH  83  85
ENDBRANCH  80  83
ENDBRANCH  75  78
ENDBRANCH  73  74
ENDBRANCH  72  73
ENDBRANCH   1  72
TORSDOF 13
ENDMDL
MODEL 3
REMARK VINA RESULT:     -13.0      5.832     11.416
REMARK SMILES O=C(NCCCCNC(=O)[C@H]1CSCN1C(=O)c1cnc2ccccn2c1=O)c1ccc(-c2c3nc(c(-c4c(F)c(F)c(F)c(F)c4F)c4ccc([nH]4)c(-c4c(F)c(F)c(F)c(F)c4F)c4nc(c(-c5c(F)c(F)c(F)c(F)c5F)c5ccc2[nH]5)C=C4)C=C3)cc1
REMARK SMILES IDX 5 1 4 2 3 3 1 4 2 5 29 7 30 8 91 9 31 10 90 11 32 12 33 13
REMARK SMILES IDX 34 14 84 15 35 16 89 17 83 18 85 19 36 20 88 21 82 22 81 23
REMARK SMILES IDX 37 25 69 26 49 27 68 28 50 29 53 30 67 31 86 32 51 33 52 34
REMARK SMILES IDX 66 36 87 37 54 38 38 39 39 40 47 41 40 42 41 43 45 44 48 45
REMARK SMILES IDX 42 46 43 47 46 48 44 49 70 50 71 51 79 52 72 53 73 54 77 55
REMARK SMILES IDX 80 56 74 57 75 58 78 59 76 60 55 61 56 62 64 63 57 64 58 65
REMARK SMILES IDX 62 66 65 67 59 68 60 69 63 70 61 71 6 72 7 73 8 74 9 75
REMARK SMILES IDX 10 77 11 78 12 79 15 80 13 81 14 82 16 83 17 84 18 85 19 86
REMARK SMILES IDX 27 87 20 88 26 89 28 90 21 91 25 92 22 93 24 94 23 95
REMARK H PARENT 3 6 85 24 53 35 8 76
REMARK Flexibility Score: inf
ROOT
ATOM      1  C   UNL A   1      38.539  19.066  25.389  1.00  0.00     0.023 C 
ENDROOT
BRANCH   1   2
ATOM      2  C   UNL A   1      39.747  19.697  26.066  1.00  0.00     0.116 C 
BRANCH   2   3
ATOM      3  N   UNL A   1      40.915  18.828  26.067  1.00  0.00    -0.352 N 
ATOM      4  O   UNL A   1      43.119  18.336  26.008  1.00  0.00    -0.269 OA
ATOM      5  C   UNL A   1      42.240  19.179  26.148  1.00  0.00     0.251 C 
ATOM      6  H   UNL A   1      40.731  17.863  26.001  1.00  0.00     0.163 HD
BRANCH   5   7
ATOM      7  C   UNL A   1      42.598  20.592  26.383  1.00  0.00     0.039 A 
ATOM      8  C   UNL A   1      42.653  21.099  27.684  1.00  0.00     0.014 A 
ATOM      9  C   UNL A   1      42.881  21.415  25.290  1.00  0.00     0.014 A 
ATOM     10  C   UNL A   1      42.881  22.454  27.886  1.00  0.00     0.010 A 
ATOM     11  C   UNL A   1      43.187  22.762  25.500  1.00  0.00     0.010 A 
ATOM     12  C   UNL A   1      43.175  23.292  26.799  1.00  0.00    -0.014 A 
BRANCH  12  13
ATOM     13  C   UNL A   1      43.580  24.694  27.061  1.00  0.00     0.031 A 
ATOM     14  C   UNL A   1      42.609  25.704  27.596  1.00  0.00     0.074 A 
ATOM     15  C   UNL A   1      44.859  25.036  26.812  1.00  0.00     0.049 A 
ATOM     16  N   UNL A   1      42.812  26.967  27.875  1.00  0.00    -0.248 NA
ATOM     17  C   UNL A   1      41.233  25.248  27.842  1.00  0.00     0.031 C 
ATOM     18  C   UNL A   1      45.880  24.134  26.270  1.00  0.00     0.029 A 
ATOM     19  N   UNL A   1      45.525  26.221  26.988  1.00  0.00    -0.354 N 
ATOM     20  C   UNL A   1      41.591  27.461  28.313  1.00  0.00     0.074 A 
ATOM     21  C   UNL A   1      40.645  26.367  28.249  1.00  0.00     0.031 C 
ATOM     22  C   UNL A   1      47.047  24.787  26.189  1.00  0.00     0.029 A 
ATOM     23  C   UNL A   1      46.844  26.167  26.611  1.00  0.00     0.049 A 
ATOM     24  H   UNL A   1      45.099  27.033  27.348  1.00  0.00     0.167 HD
ATOM     25  C   UNL A   1      41.296  28.715  28.733  1.00  0.00     0.037 A 
ATOM     26  C   UNL A   1      47.783  27.130  26.582  1.00  0.00     0.037 A 
ATOM     27  C   UNL A   1      42.253  29.790  28.816  1.00  0.00     0.049 A 
ATOM     28  C   UNL A   1      47.416  28.512  27.040  1.00  0.00     0.074 A 
ATOM     29  C   UNL A   1      42.066  31.074  29.295  1.00  0.00     0.029 A 
ATOM     30  N   UNL A   1      43.575  29.705  28.404  1.00  0.00    -0.354 N 
ATOM     31  N   UNL A   1      46.272  28.950  27.505  1.00  0.00    -0.248 NA
ATOM     32  C   UNL A   1      48.466  29.534  26.961  1.00  0.00     0.031 C 
ATOM     33  C   UNL A   1      43.260  31.784  29.125  1.00  0.00     0.029 A 
ATOM     34  C   UNL A   1      44.205  30.927  28.585  1.00  0.00     0.049 A 
ATOM     35  H   UNL A   1      44.003  28.898  28.037  1.00  0.00     0.167 HD
ATOM     36  C   UNL A   1      46.465  30.295  27.782  1.00  0.00     0.074 A 
ATOM     37  C   UNL A   1      47.847  30.593  27.462  1.00  0.00     0.031 C 
ATOM     38  C   UNL A   1      45.577  31.204  28.251  1.00  0.00     0.037 A 
BRANCH  25  39
ATOM     39  C   UNL A   1      39.881  29.016  29.129  1.00  0.00     0.064 A 
ATOM     40  C   UNL A   1      38.920  29.411  28.188  1.00  0.00     0.173 A 
ATOM     41  C   UNL A   1      39.459  28.805  30.451  1.00  0.00     0.173 A 
ATOM     42  F   UNL A   1      39.275  29.632  26.913  1.00  0.00    -0.203 F 
ATOM     43  C   UNL A   1      37.589  29.590  28.557  1.00  0.00     0.198 A 
ATOM     44  C   UNL A   1      38.122  28.964  30.812  1.00  0.00     0.198 A 
ATOM     45  F   UNL A   1      40.337  28.418  31.389  1.00  0.00    -0.203 F 
ATOM     46  F   UNL A   1      36.689  29.984  27.644  1.00  0.00    -0.200 F 
ATOM     47  C   UNL A   1      37.189  29.356  29.864  1.00  0.00     0.200 A 
ATOM     48  F   UNL A   1      37.737  28.724  32.073  1.00  0.00    -0.200 F 
ATOM     49  F   UNL A   1      35.903  29.508  30.211  1.00  0.00    -0.200 F 
ENDBRANCH  25  39
BRANCH  26  50
ATOM     50  C   UNL A   1      49.145  26.823  26.078  1.00  0.00     0.064 A 
ATOM     51  C   UNL A   1      50.145  26.346  26.934  1.00  0.00     0.173 A 
ATOM     52  C   UNL A   1      49.474  27.005  24.726  1.00  0.00     0.173 A 
ATOM     53  F   UNL A   1      49.884  26.173  28.238  1.00  0.00    -0.203 F 
ATOM     54  C   UNL A   1      51.430  26.083  26.463  1.00  0.00     0.198 A 
ATOM     55  C   UNL A   1      50.748  26.712  24.249  1.00  0.00     0.198 A 
ATOM     56  F   UNL A   1      48.550  27.454  23.864  1.00  0.00    -0.203 F 
ATOM     57  F   UNL A   1      52.382  25.675  27.312  1.00  0.00    -0.200 F 
ATOM     58  C   UNL A   1      51.728  26.260  25.120  1.00  0.00     0.200 A 
ATOM     59  F   UNL A   1      51.027  26.868  22.947  1.00  0.00    -0.200 F 
ATOM     60  F   UNL A   1      52.963  26.006  24.666  1.00  0.00    -0.200 F 
ENDBRANCH  26  50
BRANCH  38  61
ATOM     61  C   UNL A   1      46.082  32.602  28.448  1.00  0.00     0.064 A 
ATOM     62  C   UNL A   1      45.972  33.567  27.434  1.00  0.00     0.173 A 
ATOM     63  C   UNL A   1      46.663  32.987  29.665  1.00  0.00     0.173 A 
ATOM     64  F   UNL A   1      45.442  33.240  26.246  1.00  0.00    -0.203 F 
ATOM     65  C   UNL A   1      46.452  34.859  27.624  1.00  0.00     0.198 A 
ATOM     66  C   UNL A   1      47.115  34.289  29.861  1.00  0.00     0.198 A 
ATOM     67  F   UNL A   1      46.787  32.102  30.665  1.00  0.00    -0.203 F 
ATOM     68  F   UNL A   1      46.384  35.750  26.625  1.00  0.00    -0.200 F 
ATOM     69  C   UNL A   1      47.017  35.221  28.838  1.00  0.00     0.200 A 
ATOM     70  F   UNL A   1      47.651  34.639  31.037  1.00  0.00    -0.200 F 
ATOM     71  F   UNL A   1      47.477  36.466  29.020  1.00  0.00    -0.200 F 
ENDBRANCH  38  61
ENDBRANCH  12  13
ENDBRANCH   5   7
ENDBRANCH   2   3
ENDBRANCH   1   2
BRANCH   1  72
ATOM     72  C   UNL A   1      37.671  20.043  24.592  1.00  0.00     0.023 C 
BRANCH  72  73
ATOM     73  C   UNL A   1      37.716  21.485  25.096  1.00  0.00     0.116 C 
BRANCH  73  74
ATOM     74  N   UNL A   1      36.725  21.742  26.126  1.00  0.00    -0.354 N 
ATOM     75  C   UNL A   1      35.360  21.663  26.064  1.00  0.00     0.243 C 
ATOM     76  H   UNL A   1      37.090  22.013  27.000  1.00  0.00     0.163 HD
ATOM     77  O   UNL A   1      34.712  22.018  27.051  1.00  0.00    -0.273 OA
BRANCH  75  78
ATOM     78  C   UNL A   1      34.692  21.079  24.806  1.00  0.00     0.185 C 
ATOM     79  C   UNL A   1      33.646  20.083  25.307  1.00  0.00     0.106 C 
ATOM     80  N   UNL A   1      34.028  22.051  23.931  1.00  0.00    -0.316 N 
ATOM     81  S   UNL A   1      32.488  19.895  23.938  1.00  0.00    -0.138 SA
ATOM     82  C   UNL A   1      32.877  21.509  23.232  1.00  0.00     0.190 C 
BRANCH  80  83
ATOM     83  C   UNL A   1      34.752  23.146  23.492  1.00  0.00     0.262 C 
ATOM     84  O   UNL A   1      35.731  23.028  22.754  1.00  0.00    -0.269 OA
BRANCH  83  85
ATOM     85  C   UNL A   1      34.261  24.507  23.802  1.00  0.00     0.124 A 
ATOM     86  C   UNL A   1      34.362  24.909  25.075  1.00  0.00     0.133 A 
ATOM     87  C   UNL A   1      33.653  25.438  22.836  1.00  0.00     0.270 A 
ATOM     88  N   UNL A   1      34.028  26.150  25.540  1.00  0.00    -0.237 NA
ATOM     89  N   UNL A   1      33.411  26.722  23.318  1.00  0.00    -0.267 N 
ATOM     90  O   UNL A   1      33.408  25.074  21.688  1.00  0.00    -0.268 OA
ATOM     91  C   UNL A   1      33.593  27.007  24.669  1.00  0.00     0.139 A 
ATOM     92  C   UNL A   1      32.968  27.703  22.438  1.00  0.00     0.096 A 
ATOM     93  C   UNL A   1      33.274  28.389  25.120  1.00  0.00     0.048 A 
ATOM     94  C   UNL A   1      32.713  28.953  22.845  1.00  0.00     0.019 A 
ATOM     95  C   UNL A   1      32.868  29.302  24.231  1.00  0.00     0.005 A 
ENDBRANCH  83  85
ENDBRANCH  80  83
ENDBRANCH  75  78
ENDBRANCH  73  74
ENDBRANCH  72  73
ENDBRANCH   1  72
TORSDOF 13
ENDMDL
