MODEL 1
REMARK VINA RESULT:     -11.7      0.000      0.000
REMARK SMILES O=C(Cc1ccn(-c2ccccc2F)c1)NCCCCNC(=O)c1ccc(-c2c3nc(c(-c4c(F)c(F)c(F)c(F)c4F)c4ccc([nH]4)c(-c4c(F)c(F)c(F)c(F)c4F)c4nc(c(-c5c(F)c(F)c(F)c(F)c5F)c5ccc2[nH]5)C=C4)C=C3)cc1
REMARK SMILES IDX 18 1 17 2 16 3 1 4 2 5 3 7 4 8 5 9 15 10 6 11 7 12 8 13 9 14
REMARK SMILES IDX 13 15 10 16 12 17 14 18 11 19 19 20 20 21 21 22 22 23 23 25
REMARK SMILES IDX 24 26 25 27 86 28 26 29 85 30 27 31 28 32 29 33 79 34 30 35
REMARK SMILES IDX 84 36 78 37 80 38 31 39 83 40 77 41 76 42 32 44 64 45 44 46
REMARK SMILES IDX 63 47 45 48 48 49 62 50 81 51 46 52 47 53 61 55 82 56 49 57
REMARK SMILES IDX 33 58 34 59 42 60 35 61 36 62 40 63 43 64 37 65 38 66 41 67
REMARK SMILES IDX 39 68 65 69 66 70 74 71 67 72 68 73 72 74 75 75 69 76 70 77
REMARK SMILES IDX 73 78 71 79 50 80 51 81 59 82 52 83 53 84 57 85 60 86 54 87
REMARK SMILES IDX 55 88 58 89 56 90
REMARK H PARENT 16 6 21 24 80 43 48 54
REMARK Flexibility Score: inf
ROOT
ATOM      1  C   UNL A   1      33.308  29.271  25.087  1.00  0.00     0.023 C 
ENDROOT
BRANCH   1   2
ATOM      2  C   UNL A   1      32.655  28.871  23.764  1.00  0.00     0.116 C 
BRANCH   2   3
ATOM      3  N   UNL A   1      32.548  27.434  23.617  1.00  0.00    -0.356 N 
ATOM      4  O   UNL A   1      33.886  27.277  21.755  1.00  0.00    -0.275 OA
ATOM      5  C   UNL A   1      33.218  26.733  22.630  1.00  0.00     0.224 C 
ATOM      6  H   UNL A   1      31.975  26.936  24.243  1.00  0.00     0.163 HD
BRANCH   5   7
ATOM      7  C   UNL A   1      33.013  25.228  22.680  1.00  0.00     0.137 C 
BRANCH   7   8
ATOM      8  C   UNL A   1      33.749  24.524  23.786  1.00  0.00    -0.021 A 
ATOM      9  C   UNL A   1      33.430  24.436  25.168  1.00  0.00     0.024 A 
ATOM     10  C   UNL A   1      34.915  23.792  23.622  1.00  0.00     0.095 A 
ATOM     11  C   UNL A   1      34.332  23.581  25.759  1.00  0.00     0.091 A 
ATOM     12  N   UNL A   1      35.271  23.211  24.822  1.00  0.00    -0.321 N 
BRANCH  12  13
ATOM     13  C   UNL A   1      36.380  22.365  25.053  1.00  0.00     0.081 A 
ATOM     14  C   UNL A   1      36.300  21.006  24.716  1.00  0.00     0.030 A 
ATOM     15  C   UNL A   1      37.548  22.868  25.626  1.00  0.00     0.147 A 
ATOM     16  C   UNL A   1      37.397  20.171  24.941  1.00  0.00     0.002 A 
ATOM     17  C   UNL A   1      38.624  22.024  25.890  1.00  0.00     0.041 A 
ATOM     18  F   UNL A   1      37.641  24.149  26.011  1.00  0.00    -0.205 F 
ATOM     19  C   UNL A   1      38.553  20.676  25.540  1.00  0.00     0.003 A 
ENDBRANCH  12  13
ENDBRANCH   7   8
ENDBRANCH   5   7
ENDBRANCH   2   3
ENDBRANCH   1   2
BRANCH   1  20
ATOM     20  C   UNL A   1      33.750  28.104  25.982  1.00  0.00     0.023 C 
BRANCH  20  21
ATOM     21  C   UNL A   1      35.031  28.367  26.767  1.00  0.00     0.116 C 
BRANCH  21  22
ATOM     22  N   UNL A   1      35.200  29.777  27.079  1.00  0.00    -0.352 N 
ATOM     23  C   UNL A   1      36.182  30.377  27.833  1.00  0.00     0.251 C 
ATOM     24  H   UNL A   1      34.522  30.382  26.701  1.00  0.00     0.163 HD
ATOM     25  O   UNL A   1      36.006  31.491  28.304  1.00  0.00    -0.269 OA
BRANCH  23  26
ATOM     26  C   UNL A   1      37.456  29.673  28.079  1.00  0.00     0.039 A 
ATOM     27  C   UNL A   1      38.460  29.723  27.103  1.00  0.00     0.014 A 
ATOM     28  C   UNL A   1      37.625  28.904  29.235  1.00  0.00     0.014 A 
ATOM     29  C   UNL A   1      39.654  29.047  27.315  1.00  0.00     0.010 A 
ATOM     30  C   UNL A   1      38.832  28.281  29.480  1.00  0.00     0.010 A 
ATOM     31  C   UNL A   1      39.839  28.346  28.514  1.00  0.00    -0.014 A 
BRANCH  31  32
ATOM     32  C   UNL A   1      41.136  27.708  28.795  1.00  0.00     0.031 A 
ATOM     33  C   UNL A   1      41.207  26.289  28.189  1.00  0.00     0.074 A 
ATOM     34  C   UNL A   1      42.014  28.477  29.511  1.00  0.00     0.049 A 
ATOM     35  N   UNL A   1      41.822  25.227  28.608  1.00  0.00    -0.248 NA
ATOM     36  C   UNL A   1      40.412  25.988  26.964  1.00  0.00     0.031 C 
ATOM     37  C   UNL A   1      41.741  29.860  29.974  1.00  0.00     0.029 A 
ATOM     38  N   UNL A   1      43.292  28.290  29.994  1.00  0.00    -0.354 N 
ATOM     39  C   UNL A   1      41.633  24.201  27.651  1.00  0.00     0.074 A 
ATOM     40  C   UNL A   1      40.661  24.697  26.723  1.00  0.00     0.031 C 
ATOM     41  C   UNL A   1      42.758  30.336  30.722  1.00  0.00     0.029 A 
ATOM     42  C   UNL A   1      43.790  29.329  30.830  1.00  0.00     0.049 A 
ATOM     43  H   UNL A   1      43.823  27.491  29.777  1.00  0.00     0.167 HD
ATOM     44  C   UNL A   1      42.398  23.066  27.609  1.00  0.00     0.037 A 
ATOM     45  C   UNL A   1      44.915  29.332  31.614  1.00  0.00     0.037 A 
ATOM     46  C   UNL A   1      43.390  23.122  28.630  1.00  0.00     0.049 A 
ATOM     47  C   UNL A   1      45.576  28.050  31.318  1.00  0.00     0.074 A 
ATOM     48  C   UNL A   1      43.320  22.997  29.991  1.00  0.00     0.029 A 
ATOM     49  N   UNL A   1      44.569  23.745  28.296  1.00  0.00    -0.354 N 
ATOM     50  N   UNL A   1      46.167  27.750  30.198  1.00  0.00    -0.248 NA
ATOM     51  C   UNL A   1      45.417  26.960  32.288  1.00  0.00     0.031 C 
ATOM     52  C   UNL A   1      44.180  24.021  30.442  1.00  0.00     0.029 A 
ATOM     53  C   UNL A   1      44.928  24.520  29.369  1.00  0.00     0.049 A 
ATOM     54  H   UNL A   1      45.061  23.652  27.449  1.00  0.00     0.167 HD
ATOM     55  C   UNL A   1      46.154  26.375  30.223  1.00  0.00     0.074 A 
ATOM     56  C   UNL A   1      45.982  25.975  31.602  1.00  0.00     0.031 C 
ATOM     57  C   UNL A   1      45.753  25.680  29.129  1.00  0.00     0.037 A 
BRANCH  44  58
ATOM     58  C   UNL A   1      42.565  21.967  26.595  1.00  0.00     0.064 A 
ATOM     59  C   UNL A   1      43.505  22.011  25.560  1.00  0.00     0.173 A 
ATOM     60  C   UNL A   1      42.031  20.686  26.900  1.00  0.00     0.173 A 
ATOM     61  F   UNL A   1      44.095  23.163  25.213  1.00  0.00    -0.203 F 
ATOM     62  C   UNL A   1      43.945  20.841  24.928  1.00  0.00     0.198 A 
ATOM     63  C   UNL A   1      42.506  19.520  26.301  1.00  0.00     0.198 A 
ATOM     64  F   UNL A   1      41.095  20.544  27.853  1.00  0.00    -0.203 F 
ATOM     65  F   UNL A   1      44.892  20.918  23.982  1.00  0.00    -0.200 F 
ATOM     66  C   UNL A   1      43.478  19.598  25.325  1.00  0.00     0.200 A 
ATOM     67  F   UNL A   1      42.071  18.324  26.724  1.00  0.00    -0.200 F 
ATOM     68  F   UNL A   1      43.992  18.479  24.796  1.00  0.00    -0.200 F 
ENDBRANCH  44  58
BRANCH  45  69
ATOM     69  C   UNL A   1      45.464  30.151  32.768  1.00  0.00     0.064 A 
ATOM     70  C   UNL A   1      44.753  30.193  34.003  1.00  0.00     0.173 A 
ATOM     71  C   UNL A   1      46.581  30.996  32.734  1.00  0.00     0.173 A 
ATOM     72  F   UNL A   1      43.790  29.306  34.289  1.00  0.00    -0.203 F 
ATOM     73  C   UNL A   1      44.984  31.144  34.998  1.00  0.00     0.198 A 
ATOM     74  C   UNL A   1      46.854  31.918  33.764  1.00  0.00     0.198 A 
ATOM     75  F   UNL A   1      47.454  30.946  31.724  1.00  0.00    -0.203 F 
ATOM     76  F   UNL A   1      44.170  31.204  36.061  1.00  0.00    -0.200 F 
ATOM     77  C   UNL A   1      46.024  32.029  34.866  1.00  0.00     0.200 A 
ATOM     78  F   UNL A   1      47.925  32.719  33.673  1.00  0.00    -0.200 F 
ATOM     79  F   UNL A   1      46.237  32.964  35.801  1.00  0.00    -0.200 F 
ENDBRANCH  45  69
BRANCH  57  80
ATOM     80  C   UNL A   1      45.923  26.399  27.807  1.00  0.00     0.064 A 
ATOM     81  C   UNL A   1      44.861  26.863  27.013  1.00  0.00     0.173 A 
ATOM     82  C   UNL A   1      47.210  26.692  27.336  1.00  0.00     0.173 A 
ATOM     83  F   UNL A   1      43.602  26.653  27.379  1.00  0.00    -0.203 F 
ATOM     84  C   UNL A   1      45.058  27.556  25.816  1.00  0.00     0.198 A 
ATOM     85  C   UNL A   1      47.414  27.391  26.141  1.00  0.00     0.198 A 
ATOM     86  F   UNL A   1      48.282  26.278  28.027  1.00  0.00    -0.203 F 
ATOM     87  F   UNL A   1      44.004  27.951  25.084  1.00  0.00    -0.200 F 
ATOM     88  C   UNL A   1      46.340  27.818  25.379  1.00  0.00     0.200 A 
ATOM     89  F   UNL A   1      48.663  27.631  25.717  1.00  0.00    -0.200 F 
ATOM     90  F   UNL A   1      46.538  28.459  24.218  1.00  0.00    -0.200 F 
ENDBRANCH  57  80
ENDBRANCH  31  32
ENDBRANCH  23  26
ENDBRANCH  21  22
ENDBRANCH  20  21
ENDBRANCH   1  20
TORSDOF 13
ENDMDL
MODEL 2
REMARK VINA RESULT:     -11.6      4.758     10.564
REMARK SMILES O=C(Cc1ccn(-c2ccccc2F)c1)NCCCCNC(=O)c1ccc(-c2c3nc(c(-c4c(F)c(F)c(F)c(F)c4F)c4ccc([nH]4)c(-c4c(F)c(F)c(F)c(F)c4F)c4nc(c(-c5c(F)c(F)c(F)c(F)c5F)c5ccc2[nH]5)C=C4)C=C3)cc1
REMARK SMILES IDX 18 1 17 2 16 3 1 4 2 5 3 7 4 8 5 9 15 10 6 11 7 12 8 13 9 14
REMARK SMILES IDX 13 15 10 16 12 17 14 18 11 19 19 20 20 21 21 22 22 23 23 25
REMARK SMILES IDX 24 26 25 27 86 28 26 29 85 30 27 31 28 32 29 33 79 34 30 35
REMARK SMILES IDX 84 36 78 37 80 38 31 39 83 40 77 41 76 42 32 44 64 45 44 46
REMARK SMILES IDX 63 47 45 48 48 49 62 50 81 51 46 52 47 53 61 55 82 56 49 57
REMARK SMILES IDX 33 58 34 59 42 60 35 61 36 62 40 63 43 64 37 65 38 66 41 67
REMARK SMILES IDX 39 68 65 69 66 70 74 71 67 72 68 73 72 74 75 75 69 76 70 77
REMARK SMILES IDX 73 78 71 79 50 80 51 81 59 82 52 83 53 84 57 85 60 86 54 87
REMARK SMILES IDX 55 88 58 89 56 90
REMARK H PARENT 16 6 21 24 80 43 48 54
REMARK Flexibility Score: inf
ROOT
ATOM      1  C   UNL A   1      43.232  25.704  28.676  1.00  0.00     0.023 C 
ENDROOT
BRANCH   1   2
ATOM      2  C   UNL A   1      44.542  26.449  28.418  1.00  0.00     0.116 C 
BRANCH   2   3
ATOM      3  N   UNL A   1      45.327  25.831  27.369  1.00  0.00    -0.356 N 
ATOM      4  O   UNL A   1      47.039  25.121  28.729  1.00  0.00    -0.275 OA
ATOM      5  C   UNL A   1      46.515  25.168  27.619  1.00  0.00     0.224 C 
ATOM      6  H   UNL A   1      45.003  25.885  26.441  1.00  0.00     0.163 HD
BRANCH   5   7
ATOM      7  C   UNL A   1      47.157  24.545  26.390  1.00  0.00     0.137 C 
BRANCH   7   8
ATOM      8  C   UNL A   1      46.290  23.566  25.648  1.00  0.00    -0.021 A 
ATOM      9  C   UNL A   1      46.095  23.416  24.248  1.00  0.00     0.024 A 
ATOM     10  C   UNL A   1      45.510  22.587  26.243  1.00  0.00     0.095 A 
ATOM     11  C   UNL A   1      45.308  22.305  24.046  1.00  0.00     0.091 A 
ATOM     12  N   UNL A   1      44.914  21.812  25.271  1.00  0.00    -0.321 N 
BRANCH  12  13
ATOM     13  C   UNL A   1      44.072  20.696  25.480  1.00  0.00     0.081 A 
ATOM     14  C   UNL A   1      42.769  20.888  25.960  1.00  0.00     0.030 A 
ATOM     15  C   UNL A   1      44.532  19.404  25.225  1.00  0.00     0.147 A 
ATOM     16  C   UNL A   1      41.936  19.785  26.164  1.00  0.00     0.002 A 
ATOM     17  C   UNL A   1      43.715  18.303  25.471  1.00  0.00     0.041 A 
ATOM     18  F   UNL A   1      45.789  19.178  24.817  1.00  0.00    -0.205 F 
ATOM     19  C   UNL A   1      42.412  18.493  25.933  1.00  0.00     0.003 A 
ENDBRANCH  12  13
ENDBRANCH   7   8
ENDBRANCH   5   7
ENDBRANCH   2   3
ENDBRANCH   1   2
BRANCH   1  20
ATOM     20  C   UNL A   1      42.880  24.615  27.651  1.00  0.00     0.023 C 
BRANCH  20  21
ATOM     21  C   UNL A   1      41.744  23.693  28.080  1.00  0.00     0.116 C 
BRANCH  21  22
ATOM     22  N   UNL A   1      40.637  23.715  27.137  1.00  0.00    -0.352 N 
ATOM     23  C   UNL A   1      39.570  24.582  27.087  1.00  0.00     0.251 C 
ATOM     24  H   UNL A   1      40.653  23.017  26.444  1.00  0.00     0.163 HD
ATOM     25  O   UNL A   1      38.552  24.274  26.485  1.00  0.00    -0.269 OA
BRANCH  23  26
ATOM     26  C   UNL A   1      39.652  25.891  27.764  1.00  0.00     0.039 A 
ATOM     27  C   UNL A   1      39.238  25.993  29.099  1.00  0.00     0.014 A 
ATOM     28  C   UNL A   1      40.063  27.026  27.058  1.00  0.00     0.014 A 
ATOM     29  C   UNL A   1      39.292  27.225  29.739  1.00  0.00     0.010 A 
ATOM     30  C   UNL A   1      40.178  28.240  27.706  1.00  0.00     0.010 A 
ATOM     31  C   UNL A   1      39.781  28.337  29.042  1.00  0.00    -0.014 A 
BRANCH  31  32
ATOM     32  C   UNL A   1      39.937  29.625  29.737  1.00  0.00     0.031 A 
ATOM     33  C   UNL A   1      38.660  30.485  29.617  1.00  0.00     0.074 A 
ATOM     34  C   UNL A   1      41.148  29.806  30.351  1.00  0.00     0.049 A 
ATOM     35  N   UNL A   1      38.519  31.773  29.554  1.00  0.00    -0.248 NA
ATOM     36  C   UNL A   1      37.342  29.804  29.475  1.00  0.00     0.031 C 
ATOM     37  C   UNL A   1      42.244  28.807  30.367  1.00  0.00     0.029 A 
ATOM     38  N   UNL A   1      41.717  30.827  31.083  1.00  0.00    -0.354 N 
ATOM     39  C   UNL A   1      37.134  32.064  29.528  1.00  0.00     0.074 A 
ATOM     40  C   UNL A   1      36.467  30.808  29.363  1.00  0.00     0.031 C 
ATOM     41  C   UNL A   1      43.343  29.294  30.979  1.00  0.00     0.029 A 
ATOM     42  C   UNL A   1      43.088  30.647  31.423  1.00  0.00     0.049 A 
ATOM     43  H   UNL A   1      41.211  31.626  31.352  1.00  0.00     0.167 HD
ATOM     44  C   UNL A   1      36.625  33.309  29.787  1.00  0.00     0.037 A 
ATOM     45  C   UNL A   1      43.967  31.559  31.948  1.00  0.00     0.037 A 
ATOM     46  C   UNL A   1      37.688  34.201  30.106  1.00  0.00     0.049 A 
ATOM     47  C   UNL A   1      43.150  32.758  32.198  1.00  0.00     0.074 A 
ATOM     48  C   UNL A   1      38.663  34.784  29.343  1.00  0.00     0.029 A 
ATOM     49  N   UNL A   1      38.064  34.248  31.428  1.00  0.00    -0.354 N 
ATOM     50  N   UNL A   1      42.240  32.869  33.122  1.00  0.00    -0.248 NA
ATOM     51  C   UNL A   1      43.241  33.860  31.233  1.00  0.00     0.031 C 
ATOM     52  C   UNL A   1      39.810  34.663  30.158  1.00  0.00     0.029 A 
ATOM     53  C   UNL A   1      39.435  34.281  31.452  1.00  0.00     0.049 A 
ATOM     54  H   UNL A   1      37.463  34.256  32.207  1.00  0.00     0.167 HD
ATOM     55  C   UNL A   1      41.462  33.896  32.641  1.00  0.00     0.074 A 
ATOM     56  C   UNL A   1      42.268  34.635  31.695  1.00  0.00     0.031 C 
ATOM     57  C   UNL A   1      40.111  33.772  32.620  1.00  0.00     0.037 A 
BRANCH  44  58
ATOM     58  C   UNL A   1      35.236  33.826  30.051  1.00  0.00     0.064 A 
ATOM     59  C   UNL A   1      34.673  33.900  31.329  1.00  0.00     0.173 A 
ATOM     60  C   UNL A   1      34.610  34.609  29.045  1.00  0.00     0.173 A 
ATOM     61  F   UNL A   1      35.205  33.227  32.357  1.00  0.00    -0.203 F 
ATOM     62  C   UNL A   1      33.607  34.766  31.603  1.00  0.00     0.198 A 
ATOM     63  C   UNL A   1      33.580  35.504  29.333  1.00  0.00     0.198 A 
ATOM     64  F   UNL A   1      35.054  34.579  27.777  1.00  0.00    -0.203 F 
ATOM     65  F   UNL A   1      33.133  34.854  32.855  1.00  0.00    -0.200 F 
ATOM     66  C   UNL A   1      33.090  35.594  30.619  1.00  0.00     0.200 A 
ATOM     67  F   UNL A   1      33.118  36.325  28.378  1.00  0.00    -0.200 F 
ATOM     68  F   UNL A   1      32.150  36.501  30.920  1.00  0.00    -0.200 F 
ENDBRANCH  44  58
BRANCH  45  69
ATOM     69  C   UNL A   1      45.471  31.694  32.099  1.00  0.00     0.064 A 
ATOM     70  C   UNL A   1      46.281  31.892  30.943  1.00  0.00     0.173 A 
ATOM     71  C   UNL A   1      46.207  31.536  33.280  1.00  0.00     0.173 A 
ATOM     72  F   UNL A   1      45.750  32.265  29.770  1.00  0.00    -0.203 F 
ATOM     73  C   UNL A   1      47.664  31.709  30.926  1.00  0.00     0.198 A 
ATOM     74  C   UNL A   1      47.611  31.411  33.276  1.00  0.00     0.198 A 
ATOM     75  F   UNL A   1      45.605  31.519  34.473  1.00  0.00    -0.203 F 
ATOM     76  F   UNL A   1      48.328  31.770  29.763  1.00  0.00    -0.200 F 
ATOM     77  C   UNL A   1      48.331  31.442  32.095  1.00  0.00     0.200 A 
ATOM     78  F   UNL A   1      48.267  31.240  34.434  1.00  0.00    -0.200 F 
ATOM     79  F   UNL A   1      49.654  31.236  32.085  1.00  0.00    -0.200 F 
ENDBRANCH  45  69
BRANCH  57  80
ATOM     80  C   UNL A   1      39.533  32.816  33.643  1.00  0.00     0.064 A 
ATOM     81  C   UNL A   1      38.975  31.564  33.335  1.00  0.00     0.173 A 
ATOM     82  C   UNL A   1      39.590  33.139  35.005  1.00  0.00     0.173 A 
ATOM     83  F   UNL A   1      38.890  31.155  32.074  1.00  0.00    -0.203 F 
ATOM     84  C   UNL A   1      38.485  30.694  34.310  1.00  0.00     0.198 A 
ATOM     85  C   UNL A   1      39.107  32.268  35.989  1.00  0.00     0.198 A 
ATOM     86  F   UNL A   1      40.099  34.319  35.389  1.00  0.00    -0.203 F 
ATOM     87  F   UNL A   1      37.937  29.521  33.953  1.00  0.00    -0.200 F 
ATOM     88  C   UNL A   1      38.550  31.049  35.641  1.00  0.00     0.200 A 
ATOM     89  F   UNL A   1      39.163  32.626  37.279  1.00  0.00    -0.200 F 
ATOM     90  F   UNL A   1      38.058  30.230  36.582  1.00  0.00    -0.200 F 
ENDBRANCH  57  80
ENDBRANCH  31  32
ENDBRANCH  23  26
ENDBRANCH  21  22
ENDBRANCH  20  21
ENDBRANCH   1  20
TORSDOF 13
ENDMDL
MODEL 3
REMARK VINA RESULT:     -11.5      1.041      1.773
REMARK SMILES O=C(Cc1ccn(-c2ccccc2F)c1)NCCCCNC(=O)c1ccc(-c2c3nc(c(-c4c(F)c(F)c(F)c(F)c4F)c4ccc([nH]4)c(-c4c(F)c(F)c(F)c(F)c4F)c4nc(c(-c5c(F)c(F)c(F)c(F)c5F)c5ccc2[nH]5)C=C4)C=C3)cc1
REMARK SMILES IDX 18 1 17 2 16 3 1 4 2 5 3 7 4 8 5 9 15 10 6 11 7 12 8 13 9 14
REMARK SMILES IDX 13 15 10 16 12 17 14 18 11 19 19 20 20 21 21 22 22 23 23 25
REMARK SMILES IDX 24 26 25 27 86 28 26 29 85 30 27 31 28 32 29 33 79 34 30 35
REMARK SMILES IDX 84 36 78 37 80 38 31 39 83 40 77 41 76 42 32 44 64 45 44 46
REMARK SMILES IDX 63 47 45 48 48 49 62 50 81 51 46 52 47 53 61 55 82 56 49 57
REMARK SMILES IDX 33 58 34 59 42 60 35 61 36 62 40 63 43 64 37 65 38 66 41 67
REMARK SMILES IDX 39 68 65 69 66 70 74 71 67 72 68 73 72 74 75 75 69 76 70 77
REMARK SMILES IDX 73 78 71 79 50 80 51 81 59 82 52 83 53 84 57 85 60 86 54 87
REMARK SMILES IDX 55 88 58 89 56 90
REMARK H PARENT 16 6 21 24 80 43 48 54
REMARK Flexibility Score: inf
ROOT
ATOM      1  C   UNL A   1      33.217  29.361  25.218  1.00  0.00     0.023 C 
ENDROOT
BRANCH   1   2
ATOM      2  C   UNL A   1      31.695  29.500  25.215  1.00  0.00     0.116 C 
BRANCH   2   3
ATOM      3  N   UNL A   1      31.031  28.251  24.899  1.00  0.00    -0.356 N 
ATOM      4  O   UNL A   1      31.100  28.507  22.616  1.00  0.00    -0.275 OA
ATOM      5  C   UNL A   1      30.820  27.828  23.599  1.00  0.00     0.224 C 
ATOM      6  H   UNL A   1      30.717  27.683  25.638  1.00  0.00     0.163 HD
BRANCH   5   7
ATOM      7  C   UNL A   1      30.153  26.467  23.484  1.00  0.00     0.137 C 
BRANCH   7   8
ATOM      8  C   UNL A   1      31.074  25.292  23.657  1.00  0.00    -0.021 A 
ATOM      9  C   UNL A   1      30.799  23.903  23.527  1.00  0.00     0.024 A 
ATOM     10  C   UNL A   1      32.421  25.379  23.973  1.00  0.00     0.095 A 
ATOM     11  C   UNL A   1      31.987  23.220  23.657  1.00  0.00     0.091 A 
ATOM     12  N   UNL A   1      32.983  24.119  23.969  1.00  0.00    -0.321 N 
BRANCH  12  13
ATOM     13  C   UNL A   1      34.338  23.799  24.211  1.00  0.00     0.081 A 
ATOM     14  C   UNL A   1      35.123  23.268  23.177  1.00  0.00     0.030 A 
ATOM     15  C   UNL A   1      34.897  23.994  25.474  1.00  0.00     0.147 A 
ATOM     16  C   UNL A   1      36.464  22.955  23.416  1.00  0.00     0.002 A 
ATOM     17  C   UNL A   1      36.222  23.639  25.721  1.00  0.00     0.041 A 
ATOM     18  F   UNL A   1      34.164  24.447  26.500  1.00  0.00    -0.205 F 
ATOM     19  C   UNL A   1      37.009  23.127  24.689  1.00  0.00     0.003 A 
ENDBRANCH  12  13
ENDBRANCH   7   8
ENDBRANCH   5   7
ENDBRANCH   2   3
ENDBRANCH   1   2
BRANCH   1  20
ATOM     20  C   UNL A   1      33.765  28.130  25.956  1.00  0.00     0.023 C 
BRANCH  20  21
ATOM     21  C   UNL A   1      35.070  28.378  26.705  1.00  0.00     0.116 C 
BRANCH  21  22
ATOM     22  N   UNL A   1      35.222  29.772  27.091  1.00  0.00    -0.352 N 
ATOM     23  C   UNL A   1      36.194  30.343  27.879  1.00  0.00     0.251 C 
ATOM     24  H   UNL A   1      34.538  30.389  26.743  1.00  0.00     0.163 HD
ATOM     25  O   UNL A   1      36.003  31.429  28.407  1.00  0.00    -0.269 OA
BRANCH  23  26
ATOM     26  C   UNL A   1      37.476  29.642  28.093  1.00  0.00     0.039 A 
ATOM     27  C   UNL A   1      38.459  29.704  27.097  1.00  0.00     0.014 A 
ATOM     28  C   UNL A   1      37.671  28.864  29.239  1.00  0.00     0.014 A 
ATOM     29  C   UNL A   1      39.660  29.030  27.280  1.00  0.00     0.010 A 
ATOM     30  C   UNL A   1      38.885  28.243  29.454  1.00  0.00     0.010 A 
ATOM     31  C   UNL A   1      39.872  28.319  28.468  1.00  0.00    -0.014 A 
BRANCH  31  32
ATOM     32  C   UNL A   1      41.176  27.685  28.717  1.00  0.00     0.031 A 
ATOM     33  C   UNL A   1      41.219  26.249  28.149  1.00  0.00     0.074 A 
ATOM     34  C   UNL A   1      42.084  28.469  29.378  1.00  0.00     0.049 A 
ATOM     35  N   UNL A   1      41.847  25.197  28.574  1.00  0.00    -0.248 NA
ATOM     36  C   UNL A   1      40.377  25.917  26.964  1.00  0.00     0.031 C 
ATOM     37  C   UNL A   1      41.833  29.866  29.812  1.00  0.00     0.029 A 
ATOM     38  N   UNL A   1      43.378  28.290  29.817  1.00  0.00    -0.354 N 
ATOM     39  C   UNL A   1      41.618  24.145  27.654  1.00  0.00     0.074 A 
ATOM     40  C   UNL A   1      40.613  24.619  26.750  1.00  0.00     0.031 C 
ATOM     41  C   UNL A   1      42.879  30.359  30.506  1.00  0.00     0.029 A 
ATOM     42  C   UNL A   1      43.911  29.350  30.604  1.00  0.00     0.049 A 
ATOM     43  H   UNL A   1      43.899  27.484  29.602  1.00  0.00     0.167 HD
ATOM     44  C   UNL A   1      42.377  23.006  27.614  1.00  0.00     0.037 A 
ATOM     45  C   UNL A   1      45.065  29.370  31.344  1.00  0.00     0.037 A 
ATOM     46  C   UNL A   1      43.407  23.086  28.595  1.00  0.00     0.049 A 
ATOM     47  C   UNL A   1      45.711  28.078  31.058  1.00  0.00     0.074 A 
ATOM     48  C   UNL A   1      43.389  22.999  29.961  1.00  0.00     0.029 A 
ATOM     49  N   UNL A   1      44.575  23.695  28.199  1.00  0.00    -0.354 N 
ATOM     50  N   UNL A   1      46.258  27.744  29.926  1.00  0.00    -0.248 NA
ATOM     51  C   UNL A   1      45.585  27.016  32.064  1.00  0.00     0.031 C 
ATOM     52  C   UNL A   1      44.270  24.032  30.350  1.00  0.00     0.029 A 
ATOM     53  C   UNL A   1      44.978  24.498  29.235  1.00  0.00     0.049 A 
ATOM     54  H   UNL A   1      45.034  23.576  27.336  1.00  0.00     0.167 HD
ATOM     55  C   UNL A   1      46.241  26.370  29.990  1.00  0.00     0.074 A 
ATOM     56  C   UNL A   1      46.120  26.010  31.385  1.00  0.00     0.031 C 
ATOM     57  C   UNL A   1      45.796  25.647  28.932  1.00  0.00     0.037 A 
BRANCH  44  58
ATOM     58  C   UNL A   1      42.502  21.878  26.625  1.00  0.00     0.064 A 
ATOM     59  C   UNL A   1      43.377  21.905  25.534  1.00  0.00     0.173 A 
ATOM     60  C   UNL A   1      42.010  20.600  27.001  1.00  0.00     0.173 A 
ATOM     61  F   UNL A   1      43.924  23.054  25.117  1.00  0.00    -0.203 F 
ATOM     62  C   UNL A   1      43.798  20.723  24.912  1.00  0.00     0.198 A 
ATOM     63  C   UNL A   1      42.469  19.423  26.410  1.00  0.00     0.198 A 
ATOM     64  F   UNL A   1      41.137  20.473  28.014  1.00  0.00    -0.203 F 
ATOM     65  F   UNL A   1      44.685  20.785  23.908  1.00  0.00    -0.200 F 
ATOM     66  C   UNL A   1      43.378  19.486  25.375  1.00  0.00     0.200 A 
ATOM     67  F   UNL A   1      42.082  18.234  26.895  1.00  0.00    -0.200 F 
ATOM     68  F   UNL A   1      43.878  18.358  24.849  1.00  0.00    -0.200 F 
ENDBRANCH  44  58
BRANCH  45  69
ATOM     69  C   UNL A   1      45.660  30.219  32.453  1.00  0.00     0.064 A 
ATOM     70  C   UNL A   1      46.931  30.836  32.263  1.00  0.00     0.173 A 
ATOM     71  C   UNL A   1      45.138  30.393  33.741  1.00  0.00     0.173 A 
ATOM     72  F   UNL A   1      47.482  30.949  31.046  1.00  0.00    -0.203 F 
ATOM     73  C   UNL A   1      47.703  31.355  33.303  1.00  0.00     0.198 A 
ATOM     74  C   UNL A   1      45.891  30.973  34.782  1.00  0.00     0.198 A 
ATOM     75  F   UNL A   1      43.884  30.035  34.032  1.00  0.00    -0.203 F 
ATOM     76  F   UNL A   1      48.950  31.781  33.057  1.00  0.00    -0.200 F 
ATOM     77  C   UNL A   1      47.190  31.401  34.575  1.00  0.00     0.200 A 
ATOM     78  F   UNL A   1      45.351  31.098  36.003  1.00  0.00    -0.200 F 
ATOM     79  F   UNL A   1      47.933  31.871  35.586  1.00  0.00    -0.200 F 
ENDBRANCH  45  69
BRANCH  57  80
ATOM     80  C   UNL A   1      45.917  26.328  27.584  1.00  0.00     0.064 A 
ATOM     81  C   UNL A   1      44.828  26.783  26.823  1.00  0.00     0.173 A 
ATOM     82  C   UNL A   1      47.186  26.593  27.052  1.00  0.00     0.173 A 
ATOM     83  F   UNL A   1      43.584  26.598  27.247  1.00  0.00    -0.203 F 
ATOM     84  C   UNL A   1      44.982  27.441  25.601  1.00  0.00     0.198 A 
ATOM     85  C   UNL A   1      47.348  27.258  25.831  1.00  0.00     0.198 A 
ATOM     86  F   UNL A   1      48.282  26.185  27.709  1.00  0.00    -0.203 F 
ATOM     87  F   UNL A   1      43.902  27.829  24.903  1.00  0.00    -0.200 F 
ATOM     88  C   UNL A   1      46.247  27.676  25.103  1.00  0.00     0.200 A 
ATOM     89  F   UNL A   1      48.580  27.472  25.349  1.00  0.00    -0.200 F 
ATOM     90  F   UNL A   1      46.403  28.284  23.918  1.00  0.00    -0.200 F 
ENDBRANCH  57  80
ENDBRANCH  31  32
ENDBRANCH  23  26
ENDBRANCH  21  22
ENDBRANCH  20  21
ENDBRANCH   1  20
TORSDOF 13
ENDMDL
