MODEL 1
REMARK VINA RESULT:     -11.9      0.000      0.000
REMARK SMILES O=C(Cc1ccn(C(F)F)c(=O)c1)NCCCCNC(=O)c1ccc(-c2c3nc(c(-c4c(F)c(F)c(F)c(F)c4F)c4ccc([nH]4)c(-c4c(F)c(F)c(F)c(F)c4F)c4nc(c(-c5c(F)c(F)c(F)c(F)c5F)c5ccc2[nH]5)C=C4)C=C3)cc1
REMARK SMILES IDX 16 1 15 2 14 3 1 4 2 5 3 7 4 8 5 9 13 10 6 11 11 12 7 13
REMARK SMILES IDX 12 14 8 15 9 16 10 17 17 18 18 19 19 20 20 21 21 23 22 24
REMARK SMILES IDX 23 25 84 26 24 27 83 28 25 29 26 30 27 31 77 32 28 33 82 34
REMARK SMILES IDX 76 35 78 36 29 37 81 38 75 39 74 40 30 42 62 43 42 44 61 45
REMARK SMILES IDX 43 46 46 47 60 48 79 49 44 50 45 51 59 53 80 54 47 55 31 56
REMARK SMILES IDX 32 57 40 58 33 59 34 60 38 61 41 62 35 63 36 64 39 65 37 66
REMARK SMILES IDX 63 67 64 68 72 69 65 70 66 71 70 72 73 73 67 74 68 75 71 76
REMARK SMILES IDX 69 77 48 78 49 79 57 80 50 81 51 82 55 83 58 84 52 85 53 86
REMARK SMILES IDX 56 87 54 88
REMARK H PARENT 14 6 19 22 78 41 46 52
REMARK Flexibility Score: inf
ROOT
ATOM      1  C   UNL A   1      32.187  27.568  27.106  1.00  0.00     0.023 C 
ENDROOT
BRANCH   1   2
ATOM      2  C   UNL A   1      32.486  26.386  26.188  1.00  0.00     0.116 C 
BRANCH   2   3
ATOM      3  N   UNL A   1      32.183  26.649  24.796  1.00  0.00    -0.356 N 
ATOM      4  O   UNL A   1      30.351  25.263  24.745  1.00  0.00    -0.275 OA
ATOM      5  C   UNL A   1      31.080  26.078  24.189  1.00  0.00     0.224 C 
ATOM      6  H   UNL A   1      32.771  27.242  24.275  1.00  0.00     0.163 HD
BRANCH   5   7
ATOM      7  C   UNL A   1      30.803  26.594  22.781  1.00  0.00     0.135 C 
BRANCH   7   8
ATOM      8  C   UNL A   1      29.892  27.800  22.774  1.00  0.00    -0.032 A 
ATOM      9  C   UNL A   1      30.481  29.081  22.432  1.00  0.00     0.022 A 
ATOM     10  C   UNL A   1      28.583  27.757  23.079  1.00  0.00     0.076 A 
ATOM     11  C   UNL A   1      29.737  30.194  22.426  1.00  0.00     0.095 A 
ATOM     12  C   UNL A   1      27.743  28.987  23.096  1.00  0.00     0.255 A 
ATOM     13  N   UNL A   1      28.392  30.159  22.751  1.00  0.00    -0.258 N 
ATOM     14  O   UNL A   1      26.565  28.879  23.421  1.00  0.00    -0.269 OA
BRANCH  13  15
ATOM     15  C   UNL A   1      27.611  31.367  22.775  1.00  0.00     0.451 C 
ATOM     16  F   UNL A   1      27.218  31.675  24.035  1.00  0.00    -0.185 F 
ATOM     17  F   UNL A   1      28.329  32.412  22.294  1.00  0.00    -0.185 F 
ENDBRANCH  13  15
ENDBRANCH   7   8
ENDBRANCH   5   7
ENDBRANCH   2   3
ENDBRANCH   1   2
BRANCH   1  18
ATOM     18  C   UNL A   1      31.642  28.820  26.414  1.00  0.00     0.023 C 
BRANCH  18  19
ATOM     19  C   UNL A   1      32.692  29.820  25.938  1.00  0.00     0.116 C 
BRANCH  19  20
ATOM     20  N   UNL A   1      32.444  31.174  26.410  1.00  0.00    -0.352 N 
ATOM     21  C   UNL A   1      33.191  31.965  27.254  1.00  0.00     0.251 C 
ATOM     22  H   UNL A   1      31.616  31.589  26.074  1.00  0.00     0.163 HD
ATOM     23  O   UNL A   1      32.742  33.039  27.645  1.00  0.00    -0.269 OA
BRANCH  21  24
ATOM     24  C   UNL A   1      34.515  31.506  27.734  1.00  0.00     0.039 A 
ATOM     25  C   UNL A   1      34.753  30.160  28.016  1.00  0.00     0.014 A 
ATOM     26  C   UNL A   1      35.532  32.447  27.922  1.00  0.00     0.014 A 
ATOM     27  C   UNL A   1      35.931  29.788  28.659  1.00  0.00     0.010 A 
ATOM     28  C   UNL A   1      36.749  32.056  28.490  1.00  0.00     0.010 A 
ATOM     29  C   UNL A   1      36.935  30.735  28.921  1.00  0.00    -0.014 A 
BRANCH  29  30
ATOM     30  C   UNL A   1      38.151  30.326  29.675  1.00  0.00     0.031 A 
ATOM     31  C   UNL A   1      38.358  30.772  31.099  1.00  0.00     0.074 A 
ATOM     32  C   UNL A   1      39.042  29.495  29.101  1.00  0.00     0.049 A 
ATOM     33  N   UNL A   1      39.338  30.488  31.922  1.00  0.00    -0.248 NA
ATOM     34  C   UNL A   1      37.333  31.656  31.678  1.00  0.00     0.031 C 
ATOM     35  C   UNL A   1      38.950  28.978  27.736  1.00  0.00     0.029 A 
ATOM     36  N   UNL A   1      40.182  28.915  29.601  1.00  0.00    -0.354 N 
ATOM     37  C   UNL A   1      39.054  31.164  33.102  1.00  0.00     0.074 A 
ATOM     38  C   UNL A   1      37.830  31.901  32.883  1.00  0.00     0.031 C 
ATOM     39  C   UNL A   1      39.956  28.115  27.524  1.00  0.00     0.029 A 
ATOM     40  C   UNL A   1      40.796  28.061  28.718  1.00  0.00     0.049 A 
ATOM     41  H   UNL A   1      40.526  29.094  30.506  1.00  0.00     0.167 HD
ATOM     42  C   UNL A   1      39.743  31.155  34.269  1.00  0.00     0.037 A 
ATOM     43  C   UNL A   1      41.912  27.320  28.849  1.00  0.00     0.037 A 
ATOM     44  C   UNL A   1      40.948  30.401  34.501  1.00  0.00     0.049 A 
ATOM     45  C   UNL A   1      42.681  27.366  30.139  1.00  0.00     0.074 A 
ATOM     46  C   UNL A   1      41.701  30.315  35.658  1.00  0.00     0.029 A 
ATOM     47  N   UNL A   1      41.572  29.600  33.557  1.00  0.00    -0.354 N 
ATOM     48  N   UNL A   1      42.399  28.006  31.247  1.00  0.00    -0.248 NA
ATOM     49  C   UNL A   1      43.931  26.595  30.192  1.00  0.00     0.031 C 
ATOM     50  C   UNL A   1      42.803  29.494  35.404  1.00  0.00     0.029 A 
ATOM     51  C   UNL A   1      42.714  29.033  34.101  1.00  0.00     0.049 A 
ATOM     52  H   UNL A   1      41.252  29.455  32.637  1.00  0.00     0.167 HD
ATOM     53  C   UNL A   1      43.427  27.709  32.130  1.00  0.00     0.074 A 
ATOM     54  C   UNL A   1      44.330  26.813  31.438  1.00  0.00     0.031 C 
ATOM     55  C   UNL A   1      43.606  28.146  33.400  1.00  0.00     0.037 A 
BRANCH  42  56
ATOM     56  C   UNL A   1      39.214  31.988  35.401  1.00  0.00     0.064 A 
ATOM     57  C   UNL A   1      38.398  31.436  36.398  1.00  0.00     0.173 A 
ATOM     58  C   UNL A   1      39.589  33.335  35.528  1.00  0.00     0.173 A 
ATOM     59  F   UNL A   1      38.005  30.156  36.317  1.00  0.00    -0.203 F 
ATOM     60  C   UNL A   1      37.966  32.204  37.476  1.00  0.00     0.198 A 
ATOM     61  C   UNL A   1      39.174  34.093  36.619  1.00  0.00     0.198 A 
ATOM     62  F   UNL A   1      40.374  33.908  34.604  1.00  0.00    -0.203 F 
ATOM     63  F   UNL A   1      37.163  31.664  38.402  1.00  0.00    -0.200 F 
ATOM     64  C   UNL A   1      38.361  33.529  37.591  1.00  0.00     0.200 A 
ATOM     65  F   UNL A   1      39.568  35.369  36.736  1.00  0.00    -0.200 F 
ATOM     66  F   UNL A   1      37.956  34.262  38.636  1.00  0.00    -0.200 F 
ENDBRANCH  42  56
BRANCH  43  67
ATOM     67  C   UNL A   1      42.359  26.464  27.721  1.00  0.00     0.064 A 
ATOM     68  C   UNL A   1      43.285  26.936  26.782  1.00  0.00     0.173 A 
ATOM     69  C   UNL A   1      41.889  25.150  27.574  1.00  0.00     0.173 A 
ATOM     70  F   UNL A   1      43.743  28.194  26.866  1.00  0.00    -0.203 F 
ATOM     71  C   UNL A   1      43.725  26.127  25.737  1.00  0.00     0.198 A 
ATOM     72  C   UNL A   1      42.349  24.333  26.545  1.00  0.00     0.198 A 
ATOM     73  F   UNL A   1      41.001  24.653  28.446  1.00  0.00    -0.203 F 
ATOM     74  F   UNL A   1      44.588  26.612  24.834  1.00  0.00    -0.200 F 
ATOM     75  C   UNL A   1      43.264  24.824  25.624  1.00  0.00     0.200 A 
ATOM     76  F   UNL A   1      41.912  23.071  26.447  1.00  0.00    -0.200 F 
ATOM     77  F   UNL A   1      43.697  24.041  24.627  1.00  0.00    -0.200 F 
ENDBRANCH  43  67
BRANCH  55  78
ATOM     78  C   UNL A   1      44.822  27.662  34.133  1.00  0.00     0.064 A 
ATOM     79  C   UNL A   1      44.814  26.450  34.839  1.00  0.00     0.173 A 
ATOM     80  C   UNL A   1      46.024  28.383  34.073  1.00  0.00     0.173 A 
ATOM     81  F   UNL A   1      43.685  25.733  34.936  1.00  0.00    -0.203 F 
ATOM     82  C   UNL A   1      45.963  25.984  35.470  1.00  0.00     0.198 A 
ATOM     83  C   UNL A   1      47.177  27.901  34.684  1.00  0.00     0.198 A 
ATOM     84  F   UNL A   1      46.084  29.543  33.403  1.00  0.00    -0.203 F 
ATOM     85  F   UNL A   1      45.926  24.839  36.166  1.00  0.00    -0.200 F 
ATOM     86  C   UNL A   1      47.146  26.704  35.386  1.00  0.00     0.200 A 
ATOM     87  F   UNL A   1      48.323  28.591  34.590  1.00  0.00    -0.200 F 
ATOM     88  F   UNL A   1      48.255  26.246  35.982  1.00  0.00    -0.200 F 
ENDBRANCH  55  78
ENDBRANCH  29  30
ENDBRANCH  21  24
ENDBRANCH  19  20
ENDBRANCH  18  19
ENDBRANCH   1  18
TORSDOF 13
ENDMDL
MODEL 2
REMARK VINA RESULT:     -11.9      2.608      4.062
REMARK SMILES O=C(Cc1ccn(C(F)F)c(=O)c1)NCCCCNC(=O)c1ccc(-c2c3nc(c(-c4c(F)c(F)c(F)c(F)c4F)c4ccc([nH]4)c(-c4c(F)c(F)c(F)c(F)c4F)c4nc(c(-c5c(F)c(F)c(F)c(F)c5F)c5ccc2[nH]5)C=C4)C=C3)cc1
REMARK SMILES IDX 16 1 15 2 14 3 1 4 2 5 3 7 4 8 5 9 13 10 6 11 11 12 7 13
REMARK SMILES IDX 12 14 8 15 9 16 10 17 17 18 18 19 19 20 20 21 21 23 22 24
REMARK SMILES IDX 23 25 84 26 24 27 83 28 25 29 26 30 27 31 77 32 28 33 82 34
REMARK SMILES IDX 76 35 78 36 29 37 81 38 75 39 74 40 30 42 62 43 42 44 61 45
REMARK SMILES IDX 43 46 46 47 60 48 79 49 44 50 45 51 59 53 80 54 47 55 31 56
REMARK SMILES IDX 32 57 40 58 33 59 34 60 38 61 41 62 35 63 36 64 39 65 37 66
REMARK SMILES IDX 63 67 64 68 72 69 65 70 66 71 70 72 73 73 67 74 68 75 71 76
REMARK SMILES IDX 69 77 48 78 49 79 57 80 50 81 51 82 55 83 58 84 52 85 53 86
REMARK SMILES IDX 56 87 54 88
REMARK H PARENT 14 6 19 22 78 41 46 52
REMARK Flexibility Score: inf
ROOT
ATOM      1  C   UNL A   1      31.765  30.374  26.710  1.00  0.00     0.023 C 
ENDROOT
BRANCH   1   2
ATOM      2  C   UNL A   1      32.073  29.788  25.334  1.00  0.00     0.116 C 
BRANCH   2   3
ATOM      3  N   UNL A   1      31.216  28.676  24.978  1.00  0.00    -0.356 N 
ATOM      4  O   UNL A   1      30.222  29.770  23.219  1.00  0.00    -0.275 OA
ATOM      5  C   UNL A   1      30.368  28.753  23.889  1.00  0.00     0.224 C 
ATOM      6  H   UNL A   1      31.237  27.854  25.520  1.00  0.00     0.163 HD
BRANCH   5   7
ATOM      7  C   UNL A   1      29.669  27.441  23.546  1.00  0.00     0.135 C 
BRANCH   7   8
ATOM      8  C   UNL A   1      30.632  26.377  23.074  1.00  0.00    -0.032 A 
ATOM      9  C   UNL A   1      30.627  25.109  23.779  1.00  0.00     0.022 A 
ATOM     10  C   UNL A   1      31.497  26.542  22.057  1.00  0.00     0.076 A 
ATOM     11  C   UNL A   1      31.468  24.129  23.426  1.00  0.00     0.095 A 
ATOM     12  C   UNL A   1      32.452  25.470  21.661  1.00  0.00     0.255 A 
ATOM     13  N   UNL A   1      32.368  24.296  22.388  1.00  0.00    -0.258 N 
ATOM     14  O   UNL A   1      33.239  25.704  20.749  1.00  0.00    -0.269 OA
BRANCH  13  15
ATOM     15  C   UNL A   1      33.292  23.248  22.042  1.00  0.00     0.451 C 
ATOM     16  F   UNL A   1      34.253  23.106  22.986  1.00  0.00    -0.185 F 
ATOM     17  F   UNL A   1      32.646  22.061  21.921  1.00  0.00    -0.185 F 
ENDBRANCH  13  15
ENDBRANCH   7   8
ENDBRANCH   5   7
ENDBRANCH   2   3
ENDBRANCH   1   2
BRANCH   1  18
ATOM     18  C   UNL A   1      31.570  31.891  26.753  1.00  0.00     0.023 C 
BRANCH  18  19
ATOM     19  C   UNL A   1      32.773  32.697  27.232  1.00  0.00     0.116 C 
BRANCH  19  20
ATOM     20  N   UNL A   1      32.429  34.055  27.625  1.00  0.00    -0.352 N 
ATOM     21  C   UNL A   1      32.994  34.866  28.584  1.00  0.00     0.251 C 
ATOM     22  H   UNL A   1      31.679  34.457  27.129  1.00  0.00     0.163 HD
ATOM     23  O   UNL A   1      32.471  35.941  28.865  1.00  0.00    -0.269 OA
BRANCH  21  24
ATOM     24  C   UNL A   1      34.203  34.427  29.318  1.00  0.00     0.039 A 
ATOM     25  C   UNL A   1      35.480  34.634  28.795  1.00  0.00     0.014 A 
ATOM     26  C   UNL A   1      34.052  33.778  30.548  1.00  0.00     0.014 A 
ATOM     27  C   UNL A   1      36.580  34.032  29.399  1.00  0.00     0.010 A 
ATOM     28  C   UNL A   1      35.170  33.246  31.198  1.00  0.00     0.010 A 
ATOM     29  C   UNL A   1      36.436  33.314  30.598  1.00  0.00    -0.014 A 
BRANCH  29  30
ATOM     30  C   UNL A   1      37.614  32.618  31.184  1.00  0.00     0.031 A 
ATOM     31  C   UNL A   1      38.086  32.949  32.576  1.00  0.00     0.074 A 
ATOM     32  C   UNL A   1      38.222  31.637  30.489  1.00  0.00     0.049 A 
ATOM     33  N   UNL A   1      39.071  32.423  33.263  1.00  0.00    -0.248 NA
ATOM     34  C   UNL A   1      37.361  34.009  33.294  1.00  0.00     0.031 C 
ATOM     35  C   UNL A   1      37.852  31.211  29.139  1.00  0.00     0.029 A 
ATOM     36  N   UNL A   1      39.257  30.803  30.830  1.00  0.00    -0.354 N 
ATOM     37  C   UNL A   1      39.090  33.094  34.479  1.00  0.00     0.074 A 
ATOM     38  C   UNL A   1      38.042  34.089  34.428  1.00  0.00     0.031 C 
ATOM     39  C   UNL A   1      38.609  30.160  28.788  1.00  0.00     0.029 A 
ATOM     40  C   UNL A   1      39.554  29.874  29.864  1.00  0.00     0.049 A 
ATOM     41  H   UNL A   1      39.740  30.865  31.686  1.00  0.00     0.167 HD
ATOM     42  C   UNL A   1      39.897  32.886  35.548  1.00  0.00     0.037 A 
ATOM     43  C   UNL A   1      40.486  28.902  29.840  1.00  0.00     0.037 A 
ATOM     44  C   UNL A   1      40.923  31.878  35.612  1.00  0.00     0.049 A 
ATOM     45  C   UNL A   1      41.398  28.725  31.022  1.00  0.00     0.074 A 
ATOM     46  C   UNL A   1      41.774  31.581  36.663  1.00  0.00     0.029 A 
ATOM     47  N   UNL A   1      41.236  31.001  34.585  1.00  0.00    -0.354 N 
ATOM     48  N   UNL A   1      41.401  29.364  32.166  1.00  0.00    -0.248 NA
ATOM     49  C   UNL A   1      42.442  27.698  30.904  1.00  0.00     0.031 C 
ATOM     50  C   UNL A   1      42.627  30.551  36.258  1.00  0.00     0.029 A 
ATOM     51  C   UNL A   1      42.280  30.176  34.970  1.00  0.00     0.049 A 
ATOM     52  H   UNL A   1      40.782  30.968  33.712  1.00  0.00     0.167 HD
ATOM     53  C   UNL A   1      42.437  28.813  32.906  1.00  0.00     0.074 A 
ATOM     54  C   UNL A   1      43.028  27.771  32.091  1.00  0.00     0.031 C 
ATOM     55  C   UNL A   1      42.861  29.146  34.149  1.00  0.00     0.037 A 
BRANCH  42  56
ATOM     56  C   UNL A   1      39.708  33.766  36.749  1.00  0.00     0.064 A 
ATOM     57  C   UNL A   1      40.299  35.034  36.829  1.00  0.00     0.173 A 
ATOM     58  C   UNL A   1      38.865  33.365  37.798  1.00  0.00     0.173 A 
ATOM     59  F   UNL A   1      41.120  35.460  35.857  1.00  0.00    -0.203 F 
ATOM     60  C   UNL A   1      40.065  35.866  37.922  1.00  0.00     0.198 A 
ATOM     61  C   UNL A   1      38.614  34.209  38.877  1.00  0.00     0.198 A 
ATOM     62  F   UNL A   1      38.270  32.164  37.766  1.00  0.00    -0.203 F 
ATOM     63  F   UNL A   1      40.664  37.062  37.991  1.00  0.00    -0.200 F 
ATOM     64  C   UNL A   1      39.216  35.457  38.940  1.00  0.00     0.200 A 
ATOM     65  F   UNL A   1      37.783  33.818  39.853  1.00  0.00    -0.200 F 
ATOM     66  F   UNL A   1      38.980  36.264  39.983  1.00  0.00    -0.200 F 
ENDBRANCH  42  56
BRANCH  43  67
ATOM     67  C   UNL A   1      40.591  28.017  28.652  1.00  0.00     0.064 A 
ATOM     68  C   UNL A   1      39.907  26.796  28.603  1.00  0.00     0.173 A 
ATOM     69  C   UNL A   1      41.353  28.387  27.534  1.00  0.00     0.173 A 
ATOM     70  F   UNL A   1      39.186  26.388  29.658  1.00  0.00    -0.203 F 
ATOM     71  C   UNL A   1      39.983  25.975  27.480  1.00  0.00     0.198 A 
ATOM     72  C   UNL A   1      41.408  27.578  26.402  1.00  0.00     0.198 A 
ATOM     73  F   UNL A   1      42.027  29.545  27.534  1.00  0.00    -0.203 F 
ATOM     74  F   UNL A   1      39.345  24.797  27.470  1.00  0.00    -0.200 F 
ATOM     75  C   UNL A   1      40.725  26.370  26.378  1.00  0.00     0.200 A 
ATOM     76  F   UNL A   1      42.115  27.970  25.335  1.00  0.00    -0.200 F 
ATOM     77  F   UNL A   1      40.788  25.587  25.293  1.00  0.00    -0.200 F 
ENDBRANCH  43  67
BRANCH  55  78
ATOM     78  C   UNL A   1      44.020  28.378  34.713  1.00  0.00     0.064 A 
ATOM     79  C   UNL A   1      45.337  28.843  34.581  1.00  0.00     0.173 A 
ATOM     80  C   UNL A   1      43.806  27.203  35.449  1.00  0.00     0.173 A 
ATOM     81  F   UNL A   1      45.592  29.954  33.875  1.00  0.00    -0.203 F 
ATOM     82  C   UNL A   1      46.399  28.150  35.155  1.00  0.00     0.198 A 
ATOM     83  C   UNL A   1      44.868  26.528  36.042  1.00  0.00     0.198 A 
ATOM     84  F   UNL A   1      42.564  26.723  35.610  1.00  0.00    -0.203 F 
ATOM     85  F   UNL A   1      47.653  28.595  34.990  1.00  0.00    -0.200 F 
ATOM     86  C   UNL A   1      46.164  26.999  35.892  1.00  0.00     0.200 A 
ATOM     87  F   UNL A   1      44.638  25.423  36.765  1.00  0.00    -0.200 F 
ATOM     88  F   UNL A   1      47.187  26.342  36.455  1.00  0.00    -0.200 F 
ENDBRANCH  55  78
ENDBRANCH  29  30
ENDBRANCH  21  24
ENDBRANCH  19  20
ENDBRANCH  18  19
ENDBRANCH   1  18
TORSDOF 13
ENDMDL
MODEL 3
REMARK VINA RESULT:     -11.8      6.027     11.256
REMARK SMILES O=C(Cc1ccn(C(F)F)c(=O)c1)NCCCCNC(=O)c1ccc(-c2c3nc(c(-c4c(F)c(F)c(F)c(F)c4F)c4ccc([nH]4)c(-c4c(F)c(F)c(F)c(F)c4F)c4nc(c(-c5c(F)c(F)c(F)c(F)c5F)c5ccc2[nH]5)C=C4)C=C3)cc1
REMARK SMILES IDX 16 1 15 2 14 3 1 4 2 5 3 7 4 8 5 9 13 10 6 11 11 12 7 13
REMARK SMILES IDX 12 14 8 15 9 16 10 17 17 18 18 19 19 20 20 21 21 23 22 24
REMARK SMILES IDX 23 25 84 26 24 27 83 28 25 29 26 30 27 31 77 32 28 33 82 34
REMARK SMILES IDX 76 35 78 36 29 37 81 38 75 39 74 40 30 42 62 43 42 44 61 45
REMARK SMILES IDX 43 46 46 47 60 48 79 49 44 50 45 51 59 53 80 54 47 55 31 56
REMARK SMILES IDX 32 57 40 58 33 59 34 60 38 61 41 62 35 63 36 64 39 65 37 66
REMARK SMILES IDX 63 67 64 68 72 69 65 70 66 71 70 72 73 73 67 74 68 75 71 76
REMARK SMILES IDX 69 77 48 78 49 79 57 80 50 81 51 82 55 83 58 84 52 85 53 86
REMARK SMILES IDX 56 87 54 88
REMARK H PARENT 14 6 19 22 78 41 46 52
REMARK Flexibility Score: inf
ROOT
ATOM      1  C   UNL A   1      37.229  21.058  24.510  1.00  0.00     0.023 C 
ENDROOT
BRANCH   1   2
ATOM      2  C   UNL A   1      36.299  21.696  25.540  1.00  0.00     0.116 C 
BRANCH   2   3
ATOM      3  N   UNL A   1      34.933  21.223  25.448  1.00  0.00    -0.356 N 
ATOM      4  O   UNL A   1      34.389  22.585  23.680  1.00  0.00    -0.275 OA
ATOM      5  C   UNL A   1      34.083  21.695  24.466  1.00  0.00     0.224 C 
ATOM      6  H   UNL A   1      34.605  20.557  26.095  1.00  0.00     0.163 HD
BRANCH   5   7
ATOM      7  C   UNL A   1      32.742  20.969  24.397  1.00  0.00     0.135 C 
BRANCH   7   8
ATOM      8  C   UNL A   1      32.890  19.468  24.489  1.00  0.00    -0.032 A 
ATOM      9  C   UNL A   1      32.519  18.835  25.741  1.00  0.00     0.022 A 
ATOM     10  C   UNL A   1      33.355  18.695  23.492  1.00  0.00     0.076 A 
ATOM     11  C   UNL A   1      32.643  17.512  25.898  1.00  0.00     0.095 A 
ATOM     12  C   UNL A   1      33.518  17.223  23.655  1.00  0.00     0.255 A 
ATOM     13  N   UNL A   1      33.133  16.711  24.881  1.00  0.00    -0.258 N 
ATOM     14  O   UNL A   1      33.985  16.585  22.717  1.00  0.00    -0.269 OA
BRANCH  13  15
ATOM     15  C   UNL A   1      33.295  15.294  25.075  1.00  0.00     0.451 C 
ATOM     16  F   UNL A   1      34.570  14.987  25.416  1.00  0.00    -0.185 F 
ATOM     17  F   UNL A   1      32.479  14.850  26.062  1.00  0.00    -0.185 F 
ENDBRANCH  13  15
ENDBRANCH   7   8
ENDBRANCH   5   7
ENDBRANCH   2   3
ENDBRANCH   1   2
BRANCH   1  18
ATOM     18  C   UNL A   1      38.040  19.858  25.006  1.00  0.00     0.023 C 
BRANCH  18  19
ATOM     19  C   UNL A   1      39.262  20.194  25.855  1.00  0.00     0.116 C 
BRANCH  19  20
ATOM     20  N   UNL A   1      40.257  19.133  25.866  1.00  0.00    -0.352 N 
ATOM     21  C   UNL A   1      41.617  19.199  26.075  1.00  0.00     0.251 C 
ATOM     22  H   UNL A   1      39.905  18.228  25.700  1.00  0.00     0.163 HD
ATOM     23  O   UNL A   1      42.313  18.202  25.907  1.00  0.00    -0.269 OA
BRANCH  21  24
ATOM     24  C   UNL A   1      42.254  20.482  26.452  1.00  0.00     0.039 A 
ATOM     25  C   UNL A   1      42.265  20.920  27.777  1.00  0.00     0.014 A 
ATOM     26  C   UNL A   1      42.835  21.271  25.454  1.00  0.00     0.014 A 
ATOM     27  C   UNL A   1      42.682  22.216  28.073  1.00  0.00     0.010 A 
ATOM     28  C   UNL A   1      43.332  22.540  25.767  1.00  0.00     0.010 A 
ATOM     29  C   UNL A   1      43.202  23.048  27.068  1.00  0.00    -0.014 A 
BRANCH  29  30
ATOM     30  C   UNL A   1      43.572  24.452  27.396  1.00  0.00     0.031 A 
ATOM     31  C   UNL A   1      44.952  24.973  27.091  1.00  0.00     0.074 A 
ATOM     32  C   UNL A   1      42.643  25.283  27.907  1.00  0.00     0.049 A 
ATOM     33  N   UNL A   1      45.443  26.175  27.275  1.00  0.00    -0.248 NA
ATOM     34  C   UNL A   1      45.911  24.023  26.505  1.00  0.00     0.031 C 
ATOM     35  C   UNL A   1      41.268  24.907  28.233  1.00  0.00     0.029 A 
ATOM     36  N   UNL A   1      42.705  26.619  28.215  1.00  0.00    -0.354 N 
ATOM     37  C   UNL A   1      46.762  26.120  26.842  1.00  0.00     0.074 A 
ATOM     38  C   UNL A   1      47.010  24.760  26.417  1.00  0.00     0.031 C 
ATOM     39  C   UNL A   1      40.599  25.997  28.640  1.00  0.00     0.029 A 
ATOM     40  C   UNL A   1      41.513  27.135  28.660  1.00  0.00     0.049 A 
ATOM     41  H   UNL A   1      43.526  27.156  28.125  1.00  0.00     0.167 HD
ATOM     42  C   UNL A   1      47.677  27.118  26.787  1.00  0.00     0.037 A 
ATOM     43  C   UNL A   1      41.189  28.384  29.046  1.00  0.00     0.037 A 
ATOM     44  C   UNL A   1      47.425  28.479  27.183  1.00  0.00     0.049 A 
ATOM     45  C   UNL A   1      42.237  29.460  29.018  1.00  0.00     0.074 A 
ATOM     46  C   UNL A   1      48.287  29.561  27.141  1.00  0.00     0.029 A 
ATOM     47  N   UNL A   1      46.222  28.945  27.691  1.00  0.00    -0.354 N 
ATOM     48  N   UNL A   1      43.479  29.394  28.603  1.00  0.00    -0.248 NA
ATOM     49  C   UNL A   1      41.842  30.783  29.523  1.00  0.00     0.031 C 
ATOM     50  C   UNL A   1      47.618  30.674  27.660  1.00  0.00     0.029 A 
ATOM     51  C   UNL A   1      46.326  30.295  27.985  1.00  0.00     0.049 A 
ATOM     52  H   UNL A   1      45.414  28.398  27.823  1.00  0.00     0.167 HD
ATOM     53  C   UNL A   1      44.009  30.664  28.786  1.00  0.00     0.074 A 
ATOM     54  C   UNL A   1      42.949  31.487  29.331  1.00  0.00     0.031 C 
ATOM     55  C   UNL A   1      45.265  31.102  28.530  1.00  0.00     0.037 A 
BRANCH  42  56
ATOM     56  C   UNL A   1      49.048  26.783  26.276  1.00  0.00     0.064 A 
ATOM     57  C   UNL A   1      50.008  26.174  27.097  1.00  0.00     0.173 A 
ATOM     58  C   UNL A   1      49.379  27.005  24.930  1.00  0.00     0.173 A 
ATOM     59  F   UNL A   1      49.744  25.950  28.393  1.00  0.00    -0.203 F 
ATOM     60  C   UNL A   1      51.255  25.812  26.594  1.00  0.00     0.198 A 
ATOM     61  C   UNL A   1      50.617  26.619  24.425  1.00  0.00     0.198 A 
ATOM     62  F   UNL A   1      48.493  27.577  24.102  1.00  0.00    -0.203 F 
ATOM     63  F   UNL A   1      52.167  25.259  27.404  1.00  0.00    -0.200 F 
ATOM     64  C   UNL A   1      51.556  26.026  25.257  1.00  0.00     0.200 A 
ATOM     65  F   UNL A   1      50.901  26.814  23.130  1.00  0.00    -0.200 F 
ATOM     66  F   UNL A   1      52.750  25.663  24.771  1.00  0.00    -0.200 F 
ENDBRANCH  42  56
BRANCH  43  67
ATOM     67  C   UNL A   1      39.801  28.678  29.484  1.00  0.00     0.064 A 
ATOM     68  C   UNL A   1      38.844  29.145  28.574  1.00  0.00     0.173 A 
ATOM     69  C   UNL A   1      39.398  28.473  30.811  1.00  0.00     0.173 A 
ATOM     70  F   UNL A   1      39.190  29.380  27.299  1.00  0.00    -0.203 F 
ATOM     71  C   UNL A   1      37.534  29.397  28.975  1.00  0.00     0.198 A 
ATOM     72  C   UNL A   1      38.082  28.701  31.206  1.00  0.00     0.198 A 
ATOM     73  F   UNL A   1      40.278  28.030  31.720  1.00  0.00    -0.203 F 
ATOM     74  F   UNL A   1      36.645  29.872  28.093  1.00  0.00    -0.200 F 
ATOM     75  C   UNL A   1      37.152  29.167  30.288  1.00  0.00     0.200 A 
ATOM     76  F   UNL A   1      37.714  28.465  32.472  1.00  0.00    -0.200 F 
ATOM     77  F   UNL A   1      35.889  29.398  30.671  1.00  0.00    -0.200 F 
ENDBRANCH  43  67
BRANCH  55  78
ATOM     78  C   UNL A   1      45.570  32.540  28.831  1.00  0.00     0.064 A 
ATOM     79  C   UNL A   1      46.118  32.928  30.062  1.00  0.00     0.173 A 
ATOM     80  C   UNL A   1      45.374  33.529  27.855  1.00  0.00     0.173 A 
ATOM     81  F   UNL A   1      46.311  32.020  31.030  1.00  0.00    -0.203 F 
ATOM     82  C   UNL A   1      46.447  34.257  30.310  1.00  0.00     0.198 A 
ATOM     83  C   UNL A   1      45.728  34.853  28.098  1.00  0.00     0.198 A 
ATOM     84  F   UNL A   1      44.860  33.207  26.658  1.00  0.00    -0.203 F 
ATOM     85  F   UNL A   1      46.941  34.611  31.505  1.00  0.00    -0.200 F 
ATOM     86  C   UNL A   1      46.261  35.217  29.326  1.00  0.00     0.200 A 
ATOM     87  F   UNL A   1      45.560  35.777  27.141  1.00  0.00    -0.200 F 
ATOM     88  F   UNL A   1      46.591  36.493  29.563  1.00  0.00    -0.200 F 
ENDBRANCH  55  78
ENDBRANCH  29  30
ENDBRANCH  21  24
ENDBRANCH  19  20
ENDBRANCH  18  19
ENDBRANCH   1  18
TORSDOF 13
ENDMDL
