MODEL 1
REMARK VINA RESULT:     -12.9      0.000      0.000
REMARK SMILES C[C@@H]1OCC[C@@H]1C(=O)Nc1ccc(C(=O)NCCCCNC(=O)c2ccc(-c3c4nc(c(-c5c(F)c(F)c(F)c(F)c5F)c5ccc([nH]5)c(-c5c(F)c(F)c(F)c(F)c5F)c5nc(c(-c6c(F)c(F)c(F)c(F)c6F)c6ccc3[nH]6)C=C5)C=C4)cc2)cc1F
REMARK SMILES IDX 18 1 17 2 16 3 14 4 15 5 13 7 10 8 11 9 88 10 12 11 87 12
REMARK SMILES IDX 89 13 9 14 7 15 8 16 6 18 1 19 2 20 3 21 4 22 5 23 19 24
REMARK SMILES IDX 20 25 21 26 22 27 23 29 24 30 25 31 86 32 26 33 85 34 27 35
REMARK SMILES IDX 28 36 29 37 79 38 30 39 84 40 78 41 80 42 31 43 83 44 77 45
REMARK SMILES IDX 76 46 32 48 64 49 44 50 63 51 45 52 48 53 62 54 81 55 46 56
REMARK SMILES IDX 47 57 61 59 82 60 49 61 33 62 34 63 42 64 35 65 36 66 40 67
REMARK SMILES IDX 43 68 37 69 38 70 41 71 39 72 65 73 66 74 74 75 67 76 68 77
REMARK SMILES IDX 72 78 75 79 69 80 70 81 73 82 71 83 50 84 51 85 59 86 52 87
REMARK SMILES IDX 53 88 57 89 60 90 54 91 55 92 58 93 56 94
REMARK H PARENT 16 6 9 17 21 28 80 47 48 58
REMARK Flexibility Score: inf
ROOT
ATOM      1  C   UNL A   1      32.154  30.294  26.903  1.00  0.00     0.023 C 
ENDROOT
BRANCH   1   2
ATOM      2  C   UNL A   1      32.331  29.671  25.507  1.00  0.00     0.116 C 
BRANCH   2   3
ATOM      3  N   UNL A   1      31.217  29.997  24.624  1.00  0.00    -0.352 N 
ATOM      4  C   UNL A   1      30.469  29.260  23.729  1.00  0.00     0.251 C 
ATOM      5  O   UNL A   1      29.536  29.824  23.159  1.00  0.00    -0.269 OA
ATOM      6  H   UNL A   1      30.940  30.940  24.678  1.00  0.00     0.163 HD
BRANCH   4   7
ATOM      7  C   UNL A   1      30.710  27.816  23.443  1.00  0.00     0.042 A 
ATOM      8  C   UNL A   1      31.269  25.044  22.992  1.00  0.00     0.077 A 
ATOM      9  C   UNL A   1      30.274  25.449  23.898  1.00  0.00     0.030 A 
ATOM     10  C   UNL A   1      31.981  26.065  22.386  1.00  0.00     0.147 A 
ATOM     11  C   UNL A   1      30.020  26.820  24.146  1.00  0.00     0.016 A 
ATOM     12  C   UNL A   1      31.633  27.394  22.514  1.00  0.00     0.055 A 
ATOM     13  F   UNL A   1      33.103  25.891  21.697  1.00  0.00    -0.205 F 
BRANCH   8  14
ATOM     14  N   UNL A   1      31.419  23.661  22.751  1.00  0.00    -0.323 N 
ATOM     15  C   UNL A   1      32.157  22.652  23.313  1.00  0.00     0.230 C 
ATOM     16  O   UNL A   1      32.087  21.548  22.761  1.00  0.00    -0.274 OA
ATOM     17  H   UNL A   1      30.861  23.347  22.003  1.00  0.00     0.170 HD
BRANCH  15  18
ATOM     18  C   UNL A   1      32.995  22.831  24.560  1.00  0.00     0.110 C 
ATOM     19  C   UNL A   1      35.099  23.328  23.128  1.00  0.00     0.039 C 
ATOM     20  C   UNL A   1      34.318  23.596  24.407  1.00  0.00     0.127 C 
ATOM     21  O   UNL A   1      35.148  23.187  25.521  1.00  0.00    -0.378 OA
ATOM     22  C   UNL A   1      34.469  22.134  26.217  1.00  0.00     0.161 C 
ATOM     23  C   UNL A   1      33.483  21.555  25.224  1.00  0.00     0.044 C 
ENDBRANCH  15  18
ENDBRANCH   8  14
ENDBRANCH   4   7
ENDBRANCH   2   3
ENDBRANCH   1   2
BRANCH   1  24
ATOM     24  C   UNL A   1      31.779  31.774  26.871  1.00  0.00     0.023 C 
BRANCH  24  25
ATOM     25  C   UNL A   1      32.891  32.686  27.368  1.00  0.00     0.116 C 
BRANCH  25  26
ATOM     26  N   UNL A   1      32.455  34.050  27.626  1.00  0.00    -0.352 N 
ATOM     27  C   UNL A   1      32.985  34.935  28.544  1.00  0.00     0.251 C 
ATOM     28  H   UNL A   1      31.700  34.379  27.086  1.00  0.00     0.163 HD
ATOM     29  O   UNL A   1      32.479  36.023  28.745  1.00  0.00    -0.269 OA
BRANCH  27  30
ATOM     30  C   UNL A   1      34.166  34.499  29.323  1.00  0.00     0.039 A 
ATOM     31  C   UNL A   1      33.971  33.930  30.583  1.00  0.00     0.014 A 
ATOM     32  C   UNL A   1      35.445  34.580  28.767  1.00  0.00     0.014 A 
ATOM     33  C   UNL A   1      35.058  33.370  31.259  1.00  0.00     0.010 A 
ATOM     34  C   UNL A   1      36.511  33.960  29.408  1.00  0.00     0.010 A 
ATOM     35  C   UNL A   1      36.327  33.346  30.657  1.00  0.00    -0.014 A 
BRANCH  35  36
ATOM     36  C   UNL A   1      37.490  32.701  31.312  1.00  0.00     0.031 A 
ATOM     37  C   UNL A   1      38.202  31.577  30.613  1.00  0.00     0.074 A 
ATOM     38  C   UNL A   1      37.849  33.061  32.559  1.00  0.00     0.049 A 
ATOM     39  N   UNL A   1      39.132  30.777  31.067  1.00  0.00    -0.248 NA
ATOM     40  C   UNL A   1      37.789  31.296  29.229  1.00  0.00     0.031 C 
ATOM     41  C   UNL A   1      37.219  34.118  33.351  1.00  0.00     0.029 A 
ATOM     42  N   UNL A   1      38.824  32.563  33.388  1.00  0.00    -0.354 N 
ATOM     43  C   UNL A   1      39.395  29.886  30.037  1.00  0.00     0.074 A 
ATOM     44  C   UNL A   1      38.502  30.215  28.948  1.00  0.00     0.031 C 
ATOM     45  C   UNL A   1      37.834  34.203  34.542  1.00  0.00     0.029 A 
ATOM     46  C   UNL A   1      38.873  33.178  34.615  1.00  0.00     0.049 A 
ATOM     47  H   UNL A   1      39.431  31.834  33.127  1.00  0.00     0.167 HD
ATOM     48  C   UNL A   1      40.316  28.895  29.996  1.00  0.00     0.037 A 
ATOM     49  C   UNL A   1      39.657  32.935  35.683  1.00  0.00     0.037 A 
ATOM     50  C   UNL A   1      41.234  28.603  31.062  1.00  0.00     0.049 A 
ATOM     51  C   UNL A   1      40.677  31.829  35.611  1.00  0.00     0.074 A 
ATOM     52  C   UNL A   1      42.236  27.649  31.097  1.00  0.00     0.029 A 
ATOM     53  N   UNL A   1      41.271  29.270  32.277  1.00  0.00    -0.354 N 
ATOM     54  N   UNL A   1      40.936  31.011  34.620  1.00  0.00    -0.248 NA
ATOM     55  C   UNL A   1      41.511  31.611  36.801  1.00  0.00     0.031 C 
ATOM     56  C   UNL A   1      42.861  27.719  32.344  1.00  0.00     0.029 A 
ATOM     57  C   UNL A   1      42.275  28.744  33.071  1.00  0.00     0.049 A 
ATOM     58  H   UNL A   1      40.673  30.008  32.536  1.00  0.00     0.167 HD
ATOM     59  C   UNL A   1      41.980  30.205  35.054  1.00  0.00     0.074 A 
ATOM     60  C   UNL A   1      42.310  30.631  36.397  1.00  0.00     0.031 C 
ATOM     61  C   UNL A   1      42.608  29.203  34.395  1.00  0.00     0.037 A 
BRANCH  48  62
ATOM     62  C   UNL A   1      40.395  28.063  28.753  1.00  0.00     0.064 A 
ATOM     63  C   UNL A   1      39.720  26.836  28.675  1.00  0.00     0.173 A 
ATOM     64  C   UNL A   1      41.197  28.445  27.668  1.00  0.00     0.173 A 
ATOM     65  F   UNL A   1      38.944  26.424  29.689  1.00  0.00    -0.203 F 
ATOM     66  C   UNL A   1      39.857  26.014  27.559  1.00  0.00     0.198 A 
ATOM     67  C   UNL A   1      41.310  27.633  26.543  1.00  0.00     0.198 A 
ATOM     68  F   UNL A   1      41.850  29.616  27.691  1.00  0.00    -0.203 F 
ATOM     69  F   UNL A   1      39.228  24.831  27.518  1.00  0.00    -0.200 F 
ATOM     70  C   UNL A   1      40.649  26.415  26.494  1.00  0.00     0.200 A 
ATOM     71  F   UNL A   1      42.057  28.031  25.504  1.00  0.00    -0.200 F 
ATOM     72  F   UNL A   1      40.774  25.626  25.417  1.00  0.00    -0.200 F 
ENDBRANCH  48  62
BRANCH  49  73
ATOM     73  C   UNL A   1      39.531  33.774  36.902  1.00  0.00     0.064 A 
ATOM     74  C   UNL A   1      38.717  33.391  37.976  1.00  0.00     0.173 A 
ATOM     75  C   UNL A   1      40.220  34.991  37.005  1.00  0.00     0.173 A 
ATOM     76  F   UNL A   1      38.033  32.238  37.924  1.00  0.00    -0.203 F 
ATOM     77  C   UNL A   1      38.586  34.199  39.104  1.00  0.00     0.198 A 
ATOM     78  C   UNL A   1      40.108  35.787  38.143  1.00  0.00     0.198 A 
ATOM     79  F   UNL A   1      41.027  35.389  36.012  1.00  0.00    -0.203 F 
ATOM     80  F   UNL A   1      37.781  33.822  40.106  1.00  0.00    -0.200 F 
ATOM     81  C   UNL A   1      39.286  35.393  39.189  1.00  0.00     0.200 A 
ATOM     82  F   UNL A   1      40.804  36.929  38.231  1.00  0.00    -0.200 F 
ATOM     83  F   UNL A   1      39.172  36.163  40.280  1.00  0.00    -0.200 F 
ENDBRANCH  49  73
BRANCH  61  84
ATOM     84  C   UNL A   1      43.750  28.518  35.081  1.00  0.00     0.064 A 
ATOM     85  C   UNL A   1      45.064  28.973  34.887  1.00  0.00     0.173 A 
ATOM     86  C   UNL A   1      43.559  27.350  35.832  1.00  0.00     0.173 A 
ATOM     87  F   UNL A   1      45.295  30.082  34.169  1.00  0.00    -0.203 F 
ATOM     88  C   UNL A   1      46.147  28.268  35.403  1.00  0.00     0.198 A 
ATOM     89  C   UNL A   1      44.644  26.661  36.365  1.00  0.00     0.198 A 
ATOM     90  F   UNL A   1      42.320  26.885  36.051  1.00  0.00    -0.203 F 
ATOM     91  F   UNL A   1      47.395  28.698  35.172  1.00  0.00    -0.200 F 
ATOM     92  C   UNL A   1      45.937  27.112  36.140  1.00  0.00     0.200 A 
ATOM     93  F   UNL A   1      44.440  25.553  37.090  1.00  0.00    -0.200 F 
ATOM     94  F   UNL A   1      46.980  26.432  36.631  1.00  0.00    -0.200 F 
ENDBRANCH  61  84
ENDBRANCH  35  36
ENDBRANCH  27  30
ENDBRANCH  25  26
ENDBRANCH  24  25
ENDBRANCH   1  24
TORSDOF 13
ENDMDL
MODEL 2
REMARK VINA RESULT:     -12.9      0.464      7.323
REMARK SMILES C[C@@H]1OCC[C@@H]1C(=O)Nc1ccc(C(=O)NCCCCNC(=O)c2ccc(-c3c4nc(c(-c5c(F)c(F)c(F)c(F)c5F)c5ccc([nH]5)c(-c5c(F)c(F)c(F)c(F)c5F)c5nc(c(-c6c(F)c(F)c(F)c(F)c6F)c6ccc3[nH]6)C=C5)C=C4)cc2)cc1F
REMARK SMILES IDX 18 1 17 2 16 3 14 4 15 5 13 7 10 8 11 9 88 10 12 11 87 12
REMARK SMILES IDX 89 13 9 14 7 15 8 16 6 18 1 19 2 20 3 21 4 22 5 23 19 24
REMARK SMILES IDX 20 25 21 26 22 27 23 29 24 30 25 31 86 32 26 33 85 34 27 35
REMARK SMILES IDX 28 36 29 37 79 38 30 39 84 40 78 41 80 42 31 43 83 44 77 45
REMARK SMILES IDX 76 46 32 48 64 49 44 50 63 51 45 52 48 53 62 54 81 55 46 56
REMARK SMILES IDX 47 57 61 59 82 60 49 61 33 62 34 63 42 64 35 65 36 66 40 67
REMARK SMILES IDX 43 68 37 69 38 70 41 71 39 72 65 73 66 74 74 75 67 76 68 77
REMARK SMILES IDX 72 78 75 79 69 80 70 81 73 82 71 83 50 84 51 85 59 86 52 87
REMARK SMILES IDX 53 88 57 89 60 90 54 91 55 92 58 93 56 94
REMARK H PARENT 16 6 9 17 21 28 80 47 48 58
REMARK Flexibility Score: inf
ROOT
ATOM      1  C   UNL A   1      31.882  30.475  26.853  1.00  0.00     0.023 C 
ENDROOT
BRANCH   1   2
ATOM      2  C   UNL A   1      32.069  29.825  25.471  1.00  0.00     0.116 C 
BRANCH   2   3
ATOM      3  N   UNL A   1      30.959  30.131  24.576  1.00  0.00    -0.352 N 
ATOM      4  C   UNL A   1      30.233  29.379  23.674  1.00  0.00     0.251 C 
ATOM      5  O   UNL A   1      29.296  29.926  23.093  1.00  0.00    -0.269 OA
ATOM      6  H   UNL A   1      30.664  31.069  24.625  1.00  0.00     0.163 HD
BRANCH   4   7
ATOM      7  C   UNL A   1      30.503  27.940  23.393  1.00  0.00     0.042 A 
ATOM      8  C   UNL A   1      31.123  25.180  22.943  1.00  0.00     0.077 A 
ATOM      9  C   UNL A   1      30.178  25.568  23.910  1.00  0.00     0.030 A 
ATOM     10  C   UNL A   1      31.756  26.214  22.275  1.00  0.00     0.147 A 
ATOM     11  C   UNL A   1      29.897  26.933  24.156  1.00  0.00     0.016 A 
ATOM     12  C   UNL A   1      31.373  27.532  22.408  1.00  0.00     0.055 A 
ATOM     13  F   UNL A   1      32.834  26.065  21.514  1.00  0.00    -0.205 F 
BRANCH   8  14
ATOM     14  N   UNL A   1      31.302  23.799  22.713  1.00  0.00    -0.323 N 
ATOM     15  C   UNL A   1      31.997  22.793  23.333  1.00  0.00     0.230 C 
ATOM     16  O   UNL A   1      31.982  21.690  22.774  1.00  0.00    -0.274 OA
ATOM     17  H   UNL A   1      30.812  23.483  21.919  1.00  0.00     0.170 HD
BRANCH  15  18
ATOM     18  C   UNL A   1      32.724  22.973  24.647  1.00  0.00     0.110 C 
ATOM     19  C   UNL A   1      34.898  23.647  23.403  1.00  0.00     0.039 C 
ATOM     20  C   UNL A   1      34.005  23.820  24.625  1.00  0.00     0.127 C 
ATOM     21  O   UNL A   1      34.771  23.419  25.786  1.00  0.00    -0.378 OA
ATOM     22  C   UNL A   1      34.106  22.302  26.392  1.00  0.00     0.161 C 
ATOM     23  C   UNL A   1      33.237  21.704  25.305  1.00  0.00     0.044 C 
ENDBRANCH  15  18
ENDBRANCH   8  14
ENDBRANCH   4   7
ENDBRANCH   2   3
ENDBRANCH   1   2
BRANCH   1  24
ATOM     24  C   UNL A   1      31.619  31.977  26.795  1.00  0.00     0.023 C 
BRANCH  24  25
ATOM     25  C   UNL A   1      32.805  32.813  27.254  1.00  0.00     0.116 C 
BRANCH  25  26
ATOM     26  N   UNL A   1      32.451  34.177  27.620  1.00  0.00    -0.352 N 
ATOM     27  C   UNL A   1      33.020  34.946  28.615  1.00  0.00     0.251 C 
ATOM     28  H   UNL A   1      31.728  34.596  27.101  1.00  0.00     0.163 HD
ATOM     29  O   UNL A   1      32.581  36.044  28.900  1.00  0.00    -0.269 OA
BRANCH  27  30
ATOM     30  C   UNL A   1      34.159  34.373  29.368  1.00  0.00     0.039 A 
ATOM     31  C   UNL A   1      33.897  33.589  30.493  1.00  0.00     0.014 A 
ATOM     32  C   UNL A   1      35.466  34.546  28.908  1.00  0.00     0.014 A 
ATOM     33  C   UNL A   1      34.948  32.913  31.117  1.00  0.00     0.010 A 
ATOM     34  C   UNL A   1      36.498  33.817  29.486  1.00  0.00     0.010 A 
ATOM     35  C   UNL A   1      36.248  32.991  30.592  1.00  0.00    -0.014 A 
BRANCH  35  36
ATOM     36  C   UNL A   1      37.377  32.233  31.186  1.00  0.00     0.031 A 
ATOM     37  C   UNL A   1      37.883  32.611  32.549  1.00  0.00     0.074 A 
ATOM     38  C   UNL A   1      37.998  31.275  30.472  1.00  0.00     0.049 A 
ATOM     39  N   UNL A   1      38.947  32.191  33.183  1.00  0.00    -0.248 NA
ATOM     40  C   UNL A   1      37.104  33.620  33.285  1.00  0.00     0.031 C 
ATOM     41  C   UNL A   1      37.617  30.838  29.129  1.00  0.00     0.029 A 
ATOM     42  N   UNL A   1      39.094  30.505  30.773  1.00  0.00    -0.354 N 
ATOM     43  C   UNL A   1      38.979  32.900  34.375  1.00  0.00     0.074 A 
ATOM     44  C   UNL A   1      37.852  33.807  34.363  1.00  0.00     0.031 C 
ATOM     45  C   UNL A   1      38.453  29.866  28.729  1.00  0.00     0.029 A 
ATOM     46  C   UNL A   1      39.455  29.641  29.768  1.00  0.00     0.049 A 
ATOM     47  H   UNL A   1      39.577  30.567  31.628  1.00  0.00     0.167 HD
ATOM     48  C   UNL A   1      39.858  32.789  35.397  1.00  0.00     0.037 A 
ATOM     49  C   UNL A   1      40.484  28.776  29.688  1.00  0.00     0.037 A 
ATOM     50  C   UNL A   1      40.948  31.853  35.425  1.00  0.00     0.049 A 
ATOM     51  C   UNL A   1      41.446  28.667  30.841  1.00  0.00     0.074 A 
ATOM     52  C   UNL A   1      41.866  31.631  36.437  1.00  0.00     0.029 A 
ATOM     53  N   UNL A   1      41.260  30.973  34.400  1.00  0.00    -0.354 N 
ATOM     54  N   UNL A   1      41.449  29.324  31.976  1.00  0.00    -0.248 NA
ATOM     55  C   UNL A   1      42.546  27.703  30.705  1.00  0.00     0.031 C 
ATOM     56  C   UNL A   1      42.752  30.638  36.013  1.00  0.00     0.029 A 
ATOM     57  C   UNL A   1      42.360  30.212  34.753  1.00  0.00     0.049 A 
ATOM     58  H   UNL A   1      40.771  30.901  33.548  1.00  0.00     0.167 HD
ATOM     59  C   UNL A   1      42.527  28.831  32.699  1.00  0.00     0.074 A 
ATOM     60  C   UNL A   1      43.156  27.819  31.878  1.00  0.00     0.031 C 
ATOM     61  C   UNL A   1      42.954  29.187  33.934  1.00  0.00     0.037 A 
BRANCH  48  62
ATOM     62  C   UNL A   1      39.672  33.685  36.583  1.00  0.00     0.064 A 
ATOM     63  C   UNL A   1      38.863  33.285  37.656  1.00  0.00     0.173 A 
ATOM     64  C   UNL A   1      40.236  34.969  36.624  1.00  0.00     0.173 A 
ATOM     65  F   UNL A   1      38.299  32.068  37.662  1.00  0.00    -0.203 F 
ATOM     66  C   UNL A   1      38.614  34.146  38.723  1.00  0.00     0.198 A 
ATOM     67  C   UNL A   1      40.005  35.815  37.704  1.00  0.00     0.198 A 
ATOM     68  F   UNL A   1      41.027  35.390  35.627  1.00  0.00    -0.203 F 
ATOM     69  F   UNL A   1      37.813  33.755  39.724  1.00  0.00    -0.200 F 
ATOM     70  C   UNL A   1      39.188  35.408  38.747  1.00  0.00     0.200 A 
ATOM     71  F   UNL A   1      40.579  37.026  37.737  1.00  0.00    -0.200 F 
ATOM     72  F   UNL A   1      38.953  36.232  39.778  1.00  0.00    -0.200 F 
ENDBRANCH  48  62
BRANCH  49  73
ATOM     73  C   UNL A   1      40.640  27.919  28.484  1.00  0.00     0.064 A 
ATOM     74  C   UNL A   1      41.370  28.348  27.368  1.00  0.00     0.173 A 
ATOM     75  C   UNL A   1      40.043  26.651  28.428  1.00  0.00     0.173 A 
ATOM     76  F   UNL A   1      41.956  29.554  27.370  1.00  0.00    -0.203 F 
ATOM     77  C   UNL A   1      41.488  27.546  26.234  1.00  0.00     0.198 A 
ATOM     78  C   UNL A   1      40.182  25.840  27.304  1.00  0.00     0.198 A 
ATOM     79  F   UNL A   1      39.353  26.189  29.480  1.00  0.00    -0.203 F 
ATOM     80  F   UNL A   1      42.171  27.990  25.170  1.00  0.00    -0.200 F 
ATOM     81  C   UNL A   1      40.900  26.291  26.205  1.00  0.00     0.200 A 
ATOM     82  F   UNL A   1      39.632  24.619  27.290  1.00  0.00    -0.200 F 
ATOM     83  F   UNL A   1      41.026  25.513  25.121  1.00  0.00    -0.200 F 
ENDBRANCH  49  73
BRANCH  61  84
ATOM     84  C   UNL A   1      44.127  28.455  34.509  1.00  0.00     0.064 A 
ATOM     85  C   UNL A   1      45.432  28.909  34.261  1.00  0.00     0.173 A 
ATOM     86  C   UNL A   1      43.968  27.247  35.201  1.00  0.00     0.173 A 
ATOM     87  F   UNL A   1      45.632  30.056  33.594  1.00  0.00    -0.203 F 
ATOM     88  C   UNL A   1      46.536  28.167  34.668  1.00  0.00     0.198 A 
ATOM     89  C   UNL A   1      45.076  26.518  35.626  1.00  0.00     0.198 A 
ATOM     90  F   UNL A   1      42.740  26.779  35.469  1.00  0.00    -0.203 F 
ATOM     91  F   UNL A   1      47.773  28.599  34.385  1.00  0.00    -0.200 F 
ATOM     92  C   UNL A   1      46.358  26.972  35.348  1.00  0.00     0.200 A 
ATOM     93  F   UNL A   1      44.904  25.372  36.298  1.00  0.00    -0.200 F 
ATOM     94  F   UNL A   1      47.421  26.256  35.735  1.00  0.00    -0.200 F 
ENDBRANCH  61  84
ENDBRANCH  35  36
ENDBRANCH  27  30
ENDBRANCH  25  26
ENDBRANCH  24  25
ENDBRANCH   1  24
TORSDOF 13
ENDMDL
MODEL 3
REMARK VINA RESULT:     -12.9      0.351      7.405
REMARK SMILES C[C@@H]1OCC[C@@H]1C(=O)Nc1ccc(C(=O)NCCCCNC(=O)c2ccc(-c3c4nc(c(-c5c(F)c(F)c(F)c(F)c5F)c5ccc([nH]5)c(-c5c(F)c(F)c(F)c(F)c5F)c5nc(c(-c6c(F)c(F)c(F)c(F)c6F)c6ccc3[nH]6)C=C5)C=C4)cc2)cc1F
REMARK SMILES IDX 18 1 17 2 16 3 14 4 15 5 13 7 10 8 11 9 88 10 12 11 87 12
REMARK SMILES IDX 89 13 9 14 7 15 8 16 6 18 1 19 2 20 3 21 4 22 5 23 19 24
REMARK SMILES IDX 20 25 21 26 22 27 23 29 24 30 25 31 86 32 26 33 85 34 27 35
REMARK SMILES IDX 28 36 29 37 79 38 30 39 84 40 78 41 80 42 31 43 83 44 77 45
REMARK SMILES IDX 76 46 32 48 64 49 44 50 63 51 45 52 48 53 62 54 81 55 46 56
REMARK SMILES IDX 47 57 61 59 82 60 49 61 33 62 34 63 42 64 35 65 36 66 40 67
REMARK SMILES IDX 43 68 37 69 38 70 41 71 39 72 65 73 66 74 74 75 67 76 68 77
REMARK SMILES IDX 72 78 75 79 69 80 70 81 73 82 71 83 50 84 51 85 59 86 52 87
REMARK SMILES IDX 53 88 57 89 60 90 54 91 55 92 58 93 56 94
REMARK H PARENT 16 6 9 17 21 28 80 47 48 58
REMARK Flexibility Score: inf
ROOT
ATOM      1  C   UNL A   1      31.775  30.516  26.764  1.00  0.00     0.023 C 
ENDROOT
BRANCH   1   2
ATOM      2  C   UNL A   1      31.998  29.859  25.390  1.00  0.00     0.116 C 
BRANCH   2   3
ATOM      3  N   UNL A   1      30.899  30.140  24.473  1.00  0.00    -0.352 N 
ATOM      4  C   UNL A   1      30.193  29.367  23.574  1.00  0.00     0.251 C 
ATOM      5  O   UNL A   1      29.261  29.896  22.970  1.00  0.00    -0.269 OA
ATOM      6  H   UNL A   1      30.597  31.077  24.501  1.00  0.00     0.163 HD
BRANCH   4   7
ATOM      7  C   UNL A   1      30.477  27.924  23.324  1.00  0.00     0.042 A 
ATOM      8  C   UNL A   1      31.117  25.159  22.943  1.00  0.00     0.077 A 
ATOM      9  C   UNL A   1      30.095  25.557  23.823  1.00  0.00     0.030 A 
ATOM     10  C   UNL A   1      31.811  26.186  22.326  1.00  0.00     0.147 A 
ATOM     11  C   UNL A   1      29.802  26.925  24.037  1.00  0.00     0.016 A 
ATOM     12  C   UNL A   1      31.426  27.507  22.420  1.00  0.00     0.055 A 
ATOM     13  F   UNL A   1      32.949  26.026  21.661  1.00  0.00    -0.205 F 
BRANCH   8  14
ATOM     14  N   UNL A   1      31.307  23.776  22.735  1.00  0.00    -0.323 N 
ATOM     15  C   UNL A   1      32.026  22.789  23.359  1.00  0.00     0.230 C 
ATOM     16  O   UNL A   1      32.012  21.676  22.822  1.00  0.00    -0.274 OA
ATOM     17  H   UNL A   1      30.804  23.439  21.958  1.00  0.00     0.170 HD
BRANCH  15  18
ATOM     18  C   UNL A   1      32.779  23.004  24.654  1.00  0.00     0.110 C 
ATOM     19  C   UNL A   1      34.971  23.479  23.352  1.00  0.00     0.039 C 
ATOM     20  C   UNL A   1      34.105  23.773  24.570  1.00  0.00     0.127 C 
ATOM     21  O   UNL A   1      34.862  23.396  25.745  1.00  0.00    -0.378 OA
ATOM     22  C   UNL A   1      34.143  22.356  26.421  1.00  0.00     0.161 C 
ATOM     23  C   UNL A   1      33.228  21.747  25.379  1.00  0.00     0.044 C 
ENDBRANCH  15  18
ENDBRANCH   8  14
ENDBRANCH   4   7
ENDBRANCH   2   3
ENDBRANCH   1   2
BRANCH   1  24
ATOM     24  C   UNL A   1      31.562  32.026  26.695  1.00  0.00     0.023 C 
BRANCH  24  25
ATOM     25  C   UNL A   1      32.734  32.824  27.245  1.00  0.00     0.116 C 
BRANCH  25  26
ATOM     26  N   UNL A   1      32.397  34.199  27.584  1.00  0.00    -0.352 N 
ATOM     27  C   UNL A   1      32.974  34.980  28.565  1.00  0.00     0.251 C 
ATOM     28  H   UNL A   1      31.680  34.618  27.056  1.00  0.00     0.163 HD
ATOM     29  O   UNL A   1      32.548  36.089  28.829  1.00  0.00    -0.269 OA
BRANCH  27  30
ATOM     30  C   UNL A   1      34.104  34.408  29.331  1.00  0.00     0.039 A 
ATOM     31  C   UNL A   1      33.831  33.638  30.464  1.00  0.00     0.014 A 
ATOM     32  C   UNL A   1      35.415  34.567  28.876  1.00  0.00     0.014 A 
ATOM     33  C   UNL A   1      34.873  32.961  31.101  1.00  0.00     0.010 A 
ATOM     34  C   UNL A   1      36.439  33.837  29.469  1.00  0.00     0.010 A 
ATOM     35  C   UNL A   1      36.177  33.025  30.583  1.00  0.00    -0.014 A 
BRANCH  35  36
ATOM     36  C   UNL A   1      37.297  32.266  31.191  1.00  0.00     0.031 A 
ATOM     37  C   UNL A   1      37.792  32.650  32.557  1.00  0.00     0.074 A 
ATOM     38  C   UNL A   1      37.920  31.301  30.488  1.00  0.00     0.049 A 
ATOM     39  N   UNL A   1      38.849  32.229  33.203  1.00  0.00    -0.248 NA
ATOM     40  C   UNL A   1      37.011  33.667  33.279  1.00  0.00     0.031 C 
ATOM     41  C   UNL A   1      37.550  30.858  29.144  1.00  0.00     0.029 A 
ATOM     42  N   UNL A   1      39.011  30.529  30.804  1.00  0.00    -0.354 N 
ATOM     43  C   UNL A   1      38.872  32.945  34.391  1.00  0.00     0.074 A 
ATOM     44  C   UNL A   1      37.750  33.857  34.363  1.00  0.00     0.031 C 
ATOM     45  C   UNL A   1      38.385  29.879  28.758  1.00  0.00     0.029 A 
ATOM     46  C   UNL A   1      39.377  29.657  29.807  1.00  0.00     0.049 A 
ATOM     47  H   UNL A   1      39.486  30.593  31.663  1.00  0.00     0.167 HD
ATOM     48  C   UNL A   1      39.742  32.836  35.421  1.00  0.00     0.037 A 
ATOM     49  C   UNL A   1      40.402  28.787  29.743  1.00  0.00     0.037 A 
ATOM     50  C   UNL A   1      40.828  31.896  35.465  1.00  0.00     0.049 A 
ATOM     51  C   UNL A   1      41.354  28.681  30.905  1.00  0.00     0.074 A 
ATOM     52  C   UNL A   1      41.735  31.677  36.486  1.00  0.00     0.029 A 
ATOM     53  N   UNL A   1      41.145  31.009  34.447  1.00  0.00    -0.354 N 
ATOM     54  N   UNL A   1      41.349  29.345  32.035  1.00  0.00    -0.248 NA
ATOM     55  C   UNL A   1      42.451  27.711  30.784  1.00  0.00     0.031 C 
ATOM     56  C   UNL A   1      42.620  30.677  36.076  1.00  0.00     0.029 A 
ATOM     57  C   UNL A   1      42.239  30.245  34.815  1.00  0.00     0.049 A 
ATOM     58  H   UNL A   1      40.664  30.934  33.592  1.00  0.00     0.167 HD
ATOM     59  C   UNL A   1      42.419  28.852  32.771  1.00  0.00     0.074 A 
ATOM     60  C   UNL A   1      43.051  27.832  31.962  1.00  0.00     0.031 C 
ATOM     61  C   UNL A   1      42.836  29.213  34.008  1.00  0.00     0.037 A 
BRANCH  48  62
ATOM     62  C   UNL A   1      39.549  33.741  36.600  1.00  0.00     0.064 A 
ATOM     63  C   UNL A   1      40.167  34.999  36.639  1.00  0.00     0.173 A 
ATOM     64  C   UNL A   1      38.811  33.333  37.721  1.00  0.00     0.173 A 
ATOM     65  F   UNL A   1      40.886  35.433  35.593  1.00  0.00    -0.203 F 
ATOM     66  C   UNL A   1      40.064  35.811  37.766  1.00  0.00     0.198 A 
ATOM     67  C   UNL A   1      38.690  34.158  38.834  1.00  0.00     0.198 A 
ATOM     68  F   UNL A   1      38.191  32.144  37.724  1.00  0.00    -0.203 F 
ATOM     69  F   UNL A   1      40.689  36.997  37.794  1.00  0.00    -0.200 F 
ATOM     70  C   UNL A   1      39.324  35.392  38.860  1.00  0.00     0.200 A 
ATOM     71  F   UNL A   1      37.955  33.762  39.883  1.00  0.00    -0.200 F 
ATOM     72  F   UNL A   1      39.220  36.177  39.941  1.00  0.00    -0.200 F 
ENDBRANCH  48  62
BRANCH  49  73
ATOM     73  C   UNL A   1      40.566  27.922  28.545  1.00  0.00     0.064 A 
ATOM     74  C   UNL A   1      39.986  26.648  28.475  1.00  0.00     0.173 A 
ATOM     75  C   UNL A   1      41.325  28.356  27.449  1.00  0.00     0.173 A 
ATOM     76  F   UNL A   1      39.255  26.184  29.499  1.00  0.00    -0.203 F 
ATOM     77  C   UNL A   1      40.168  25.835  27.357  1.00  0.00     0.198 A 
ATOM     78  C   UNL A   1      41.486  27.553  26.322  1.00  0.00     0.198 A 
ATOM     79  F   UNL A   1      41.881  29.576  27.462  1.00  0.00    -0.203 F 
ATOM     80  F   UNL A   1      39.624  24.612  27.325  1.00  0.00    -0.200 F 
ATOM     81  C   UNL A   1      40.913  26.291  26.279  1.00  0.00     0.200 A 
ATOM     82  F   UNL A   1      42.187  28.007  25.274  1.00  0.00    -0.200 F 
ATOM     83  F   UNL A   1      41.075  25.516  25.199  1.00  0.00    -0.200 F 
ENDBRANCH  49  73
BRANCH  61  84
ATOM     84  C   UNL A   1      44.000  28.479  34.598  1.00  0.00     0.064 A 
ATOM     85  C   UNL A   1      43.789  27.327  35.370  1.00  0.00     0.173 A 
ATOM     86  C   UNL A   1      45.306  28.978  34.498  1.00  0.00     0.173 A 
ATOM     87  F   UNL A   1      42.554  26.819  35.501  1.00  0.00    -0.203 F 
ATOM     88  C   UNL A   1      44.843  26.713  36.040  1.00  0.00     0.198 A 
ATOM     89  C   UNL A   1      46.361  28.348  35.152  1.00  0.00     0.198 A 
ATOM     90  F   UNL A   1      45.556  30.071  33.763  1.00  0.00    -0.203 F 
ATOM     91  F   UNL A   1      44.611  25.636  36.805  1.00  0.00    -0.200 F 
ATOM     92  C   UNL A   1      46.127  27.224  35.932  1.00  0.00     0.200 A 
ATOM     93  F   UNL A   1      47.604  28.832  35.035  1.00  0.00    -0.200 F 
ATOM     94  F   UNL A   1      47.139  26.636  36.582  1.00  0.00    -0.200 F 
ENDBRANCH  61  84
ENDBRANCH  35  36
ENDBRANCH  27  30
ENDBRANCH  25  26
ENDBRANCH  24  25
ENDBRANCH   1  24
TORSDOF 13
ENDMDL
