MODEL 1
REMARK VINA RESULT:     -12.1      0.000      0.000
REMARK SMILES COc1ccc(-c2nc(SCC(=O)NCCCCNC(=O)c3ccc(-c4c5nc(c(-c6c(F)c(F)c(F)c(F)c6F)c6ccc([nH]6)c(-c6c(F)c(F)c(F)c(F)c6F)c6nc(c(-c7c(F)c(F)c(F)c(F)c7F)c7ccc4[nH]7)C=C6)C=C5)cc3)[nH]c2C)cc1
REMARK SMILES IDX 15 1 14 2 12 3 13 4 11 6 10 7 9 8 7 9 8 10 86 11 85 12 87 13
REMARK SMILES IDX 6 15 3 16 4 17 89 18 5 19 88 20 2 21 1 22 16 23 17 24 18 25
REMARK SMILES IDX 19 26 20 27 21 29 22 30 23 31 84 32 24 33 83 34 25 35 26 36
REMARK SMILES IDX 27 37 77 38 28 39 82 40 76 41 78 42 29 43 81 44 75 45 74 46
REMARK SMILES IDX 30 48 62 49 42 50 61 51 43 52 46 53 60 54 79 55 44 56 45 57
REMARK SMILES IDX 59 59 80 60 47 61 31 62 32 63 40 64 33 65 34 66 38 67 41 68
REMARK SMILES IDX 35 69 36 70 39 71 37 72 63 73 64 74 72 75 65 76 66 77 70 78
REMARK SMILES IDX 73 79 67 80 68 81 71 82 69 83 48 84 49 85 57 86 50 87 51 88
REMARK SMILES IDX 55 89 58 90 52 91 53 92 56 93 54 94
REMARK H PARENT 14 5 85 14 19 28 78 47 46 58
REMARK Flexibility Score: inf
ROOT
ATOM      1  C   UNL A   1      33.021  30.016  26.821  1.00  0.00     0.116 C 
ENDROOT
BRANCH   1   2
ATOM      2  N   UNL A   1      33.629  29.724  25.540  1.00  0.00    -0.355 N 
ATOM      3  C   UNL A   1      33.923  28.523  24.959  1.00  0.00     0.230 C 
ATOM      4  O   UNL A   1      34.386  28.560  23.815  1.00  0.00    -0.274 OA
ATOM      5  H   UNL A   1      33.869  30.514  25.004  1.00  0.00     0.163 HD
BRANCH   3   6
ATOM      6  C   UNL A   1      33.543  27.210  25.622  1.00  0.00     0.178 C 
BRANCH   6   7
ATOM      7  S   UNL A   1      32.740  26.005  24.531  1.00  0.00    -0.078 SA
BRANCH   7   8
ATOM      8  C   UNL A   1      31.297  26.823  24.097  1.00  0.00     0.166 A 
ATOM      9  C   UNL A   1      29.817  28.235  23.513  1.00  0.00     0.092 A 
ATOM     10  N   UNL A   1      31.172  28.041  23.644  1.00  0.00    -0.222 NA
ATOM     11  C   UNL A   1      29.116  27.091  23.857  1.00  0.00     0.040 A 
ATOM     12  N   UNL A   1      30.094  26.199  24.229  1.00  0.00    -0.337 N 
ATOM     13  C   UNL A   1      27.681  26.731  23.875  1.00  0.00     0.067 C 
ATOM     14  H   UNL A   1      29.950  25.275  24.536  1.00  0.00     0.168 HD
BRANCH   9  15
ATOM     15  C   UNL A   1      29.259  29.498  23.084  1.00  0.00     0.002 A 
ATOM     16  C   UNL A   1      28.268  31.959  22.182  1.00  0.00     0.118 A 
ATOM     17  C   UNL A   1      28.041  30.799  21.442  1.00  0.00     0.047 A 
ATOM     18  C   UNL A   1      28.966  31.889  23.388  1.00  0.00     0.047 A 
ATOM     19  C   UNL A   1      28.551  29.574  21.880  1.00  0.00     0.014 A 
ATOM     20  C   UNL A   1      29.463  30.662  23.835  1.00  0.00     0.014 A 
BRANCH  16  21
ATOM     21  O   UNL A   1      27.733  33.114  21.677  1.00  0.00    -0.497 OA
ATOM     22  C   UNL A   1      27.632  33.127  20.256  1.00  0.00     0.278 C 
ENDBRANCH  16  21
ENDBRANCH   9  15
ENDBRANCH   7   8
ENDBRANCH   6   7
ENDBRANCH   3   6
ENDBRANCH   1   2
BRANCH   1  23
ATOM     23  C   UNL A   1      31.606  30.572  26.658  1.00  0.00     0.023 C 
BRANCH  23  24
ATOM     24  C   UNL A   1      31.521  32.101  26.635  1.00  0.00     0.023 C 
BRANCH  24  25
ATOM     25  C   UNL A   1      32.707  32.827  27.260  1.00  0.00     0.116 C 
BRANCH  25  26
ATOM     26  N   UNL A   1      32.398  34.199  27.633  1.00  0.00    -0.352 N 
ATOM     27  C   UNL A   1      32.973  34.982  28.604  1.00  0.00     0.251 C 
ATOM     28  H   UNL A   1      31.678  34.627  27.117  1.00  0.00     0.163 HD
ATOM     29  O   UNL A   1      32.495  36.078  28.878  1.00  0.00    -0.269 OA
BRANCH  27  30
ATOM     30  C   UNL A   1      34.153  34.486  29.346  1.00  0.00     0.039 A 
ATOM     31  C   UNL A   1      33.961  33.864  30.582  1.00  0.00     0.014 A 
ATOM     32  C   UNL A   1      35.439  34.619  28.818  1.00  0.00     0.014 A 
ATOM     33  C   UNL A   1      35.054  33.314  31.256  1.00  0.00     0.010 A 
ATOM     34  C   UNL A   1      36.515  34.006  29.453  1.00  0.00     0.010 A 
ATOM     35  C   UNL A   1      36.333  33.346  30.678  1.00  0.00    -0.014 A 
BRANCH  35  36
ATOM     36  C   UNL A   1      37.498  32.700  31.338  1.00  0.00     0.031 A 
ATOM     37  C   UNL A   1      38.211  31.563  30.661  1.00  0.00     0.074 A 
ATOM     38  C   UNL A   1      37.869  33.090  32.573  1.00  0.00     0.049 A 
ATOM     39  N   UNL A   1      39.185  30.810  31.109  1.00  0.00    -0.248 NA
ATOM     40  C   UNL A   1      37.746  31.203  29.313  1.00  0.00     0.031 C 
ATOM     41  C   UNL A   1      37.236  34.156  33.350  1.00  0.00     0.029 A 
ATOM     42  N   UNL A   1      38.864  32.624  33.397  1.00  0.00    -0.354 N 
ATOM     43  C   UNL A   1      39.439  29.885  30.105  1.00  0.00     0.074 A 
ATOM     44  C   UNL A   1      38.478  30.131  29.051  1.00  0.00     0.031 C 
ATOM     45  C   UNL A   1      37.869  34.277  34.528  1.00  0.00     0.029 A 
ATOM     46  C   UNL A   1      38.924  33.272  34.608  1.00  0.00     0.049 A 
ATOM     47  H   UNL A   1      39.476  31.895  33.145  1.00  0.00     0.167 HD
ATOM     48  C   UNL A   1      40.400  28.933  30.055  1.00  0.00     0.037 A 
ATOM     49  C   UNL A   1      39.732  33.068  35.666  1.00  0.00     0.037 A 
ATOM     50  C   UNL A   1      41.365  28.702  31.099  1.00  0.00     0.049 A 
ATOM     51  C   UNL A   1      40.774  31.984  35.597  1.00  0.00     0.074 A 
ATOM     52  C   UNL A   1      42.409  27.794  31.124  1.00  0.00     0.029 A 
ATOM     53  N   UNL A   1      41.401  29.385  32.307  1.00  0.00    -0.354 N 
ATOM     54  N   UNL A   1      41.047  31.157  34.617  1.00  0.00    -0.248 NA
ATOM     55  C   UNL A   1      41.627  31.809  36.782  1.00  0.00     0.031 C 
ATOM     56  C   UNL A   1      43.045  27.893  32.366  1.00  0.00     0.029 A 
ATOM     57  C   UNL A   1      42.435  28.902  33.093  1.00  0.00     0.049 A 
ATOM     58  H   UNL A   1      40.782  30.106  32.567  1.00  0.00     0.167 HD
ATOM     59  C   UNL A   1      42.120  30.390  35.051  1.00  0.00     0.074 A 
ATOM     60  C   UNL A   1      42.457  30.859  36.380  1.00  0.00     0.031 C 
ATOM     61  C   UNL A   1      42.770  29.390  34.407  1.00  0.00     0.037 A 
BRANCH  48  62
ATOM     62  C   UNL A   1      40.455  28.066  28.830  1.00  0.00     0.064 A 
ATOM     63  C   UNL A   1      41.219  28.425  27.709  1.00  0.00     0.173 A 
ATOM     64  C   UNL A   1      39.759  26.849  28.785  1.00  0.00     0.173 A 
ATOM     65  F   UNL A   1      41.894  29.584  27.694  1.00  0.00    -0.203 F 
ATOM     66  C   UNL A   1      41.256  27.616  26.576  1.00  0.00     0.198 A 
ATOM     67  C   UNL A   1      39.826  26.024  27.664  1.00  0.00     0.198 A 
ATOM     68  F   UNL A   1      39.020  26.452  29.831  1.00  0.00    -0.203 F 
ATOM     69  F   UNL A   1      41.946  28.009  25.496  1.00  0.00    -0.200 F 
ATOM     70  C   UNL A   1      40.566  26.414  26.557  1.00  0.00     0.200 A 
ATOM     71  F   UNL A   1      39.171  24.856  27.653  1.00  0.00    -0.200 F 
ATOM     72  F   UNL A   1      40.608  25.633  25.469  1.00  0.00    -0.200 F 
ENDBRANCH  48  62
BRANCH  49  73
ATOM     73  C   UNL A   1      39.606  33.925  36.875  1.00  0.00     0.064 A 
ATOM     74  C   UNL A   1      38.832  33.512  37.969  1.00  0.00     0.173 A 
ATOM     75  C   UNL A   1      40.241  35.172  36.960  1.00  0.00     0.173 A 
ATOM     76  F   UNL A   1      38.187  32.336  37.927  1.00  0.00    -0.203 F 
ATOM     77  C   UNL A   1      38.680  34.322  39.091  1.00  0.00     0.198 A 
ATOM     78  C   UNL A   1      40.113  35.970  38.096  1.00  0.00     0.198 A 
ATOM     79  F   UNL A   1      40.996  35.612  35.943  1.00  0.00    -0.203 F 
ATOM     80  F   UNL A   1      37.894  33.925  40.101  1.00  0.00    -0.200 F 
ATOM     81  C   UNL A   1      39.325  35.548  39.156  1.00  0.00     0.200 A 
ATOM     82  F   UNL A   1      40.749  37.146  38.161  1.00  0.00    -0.200 F 
ATOM     83  F   UNL A   1      39.180  36.328  40.237  1.00  0.00    -0.200 F 
ENDBRANCH  49  73
BRANCH  61  84
ATOM     84  C   UNL A   1      43.945  28.766  35.103  1.00  0.00     0.064 A 
ATOM     85  C   UNL A   1      45.243  29.282  34.971  1.00  0.00     0.173 A 
ATOM     86  C   UNL A   1      43.760  27.662  35.950  1.00  0.00     0.173 A 
ATOM     87  F   UNL A   1      45.475  30.326  34.162  1.00  0.00    -0.203 F 
ATOM     88  C   UNL A   1      46.316  28.700  35.643  1.00  0.00     0.198 A 
ATOM     89  C   UNL A   1      44.829  27.104  36.645  1.00  0.00     0.198 A 
ATOM     90  F   UNL A   1      42.538  27.135  36.116  1.00  0.00    -0.203 F 
ATOM     91  F   UNL A   1      47.554  29.179  35.466  1.00  0.00    -0.200 F 
ATOM     92  C   UNL A   1      46.106  27.619  36.485  1.00  0.00     0.200 A 
ATOM     93  F   UNL A   1      44.622  26.068  37.471  1.00  0.00    -0.200 F 
ATOM     94  F   UNL A   1      47.138  27.067  37.139  1.00  0.00    -0.200 F 
ENDBRANCH  61  84
ENDBRANCH  35  36
ENDBRANCH  27  30
ENDBRANCH  25  26
ENDBRANCH  24  25
ENDBRANCH  23  24
ENDBRANCH   1  23
TORSDOF 15
ENDMDL
MODEL 2
REMARK VINA RESULT:     -12.1      2.625      4.410
REMARK SMILES COc1ccc(-c2nc(SCC(=O)NCCCCNC(=O)c3ccc(-c4c5nc(c(-c6c(F)c(F)c(F)c(F)c6F)c6ccc([nH]6)c(-c6c(F)c(F)c(F)c(F)c6F)c6nc(c(-c7c(F)c(F)c(F)c(F)c7F)c7ccc4[nH]7)C=C6)C=C5)cc3)[nH]c2C)cc1
REMARK SMILES IDX 15 1 14 2 12 3 13 4 11 6 10 7 9 8 7 9 8 10 86 11 85 12 87 13
REMARK SMILES IDX 6 15 3 16 4 17 89 18 5 19 88 20 2 21 1 22 16 23 17 24 18 25
REMARK SMILES IDX 19 26 20 27 21 29 22 30 23 31 84 32 24 33 83 34 25 35 26 36
REMARK SMILES IDX 27 37 77 38 28 39 82 40 76 41 78 42 29 43 81 44 75 45 74 46
REMARK SMILES IDX 30 48 62 49 42 50 61 51 43 52 46 53 60 54 79 55 44 56 45 57
REMARK SMILES IDX 59 59 80 60 47 61 31 62 32 63 40 64 33 65 34 66 38 67 41 68
REMARK SMILES IDX 35 69 36 70 39 71 37 72 63 73 64 74 72 75 65 76 66 77 70 78
REMARK SMILES IDX 73 79 67 80 68 81 71 82 69 83 48 84 49 85 57 86 50 87 51 88
REMARK SMILES IDX 55 89 58 90 52 91 53 92 56 93 54 94
REMARK H PARENT 14 5 85 14 19 28 78 47 46 58
REMARK Flexibility Score: inf
ROOT
ATOM      1  C   UNL A   1      33.226  30.181  26.490  1.00  0.00     0.116 C 
ENDROOT
BRANCH   1   2
ATOM      2  N   UNL A   1      33.565  29.488  25.265  1.00  0.00    -0.355 N 
ATOM      3  C   UNL A   1      33.770  28.158  25.034  1.00  0.00     0.230 C 
ATOM      4  O   UNL A   1      33.985  27.825  23.865  1.00  0.00    -0.274 OA
ATOM      5  H   UNL A   1      33.665  30.066  24.474  1.00  0.00     0.163 HD
BRANCH   3   6
ATOM      6  C   UNL A   1      33.575  27.126  26.132  1.00  0.00     0.178 C 
BRANCH   6   7
ATOM      7  S   UNL A   1      31.998  26.233  26.074  1.00  0.00    -0.078 SA
BRANCH   7   8
ATOM      8  C   UNL A   1      32.396  24.868  25.114  1.00  0.00     0.166 A 
ATOM      9  C   UNL A   1      32.939  22.950  24.374  1.00  0.00     0.092 A 
ATOM     10  N   UNL A   1      32.582  23.639  25.510  1.00  0.00    -0.222 NA
ATOM     11  C   UNL A   1      32.926  23.779  23.265  1.00  0.00     0.040 A 
ATOM     12  N   UNL A   1      32.574  25.009  23.771  1.00  0.00    -0.337 N 
ATOM     13  C   UNL A   1      33.188  23.574  21.823  1.00  0.00     0.067 C 
ATOM     14  H   UNL A   1      32.469  25.840  23.256  1.00  0.00     0.168 HD
BRANCH   9  15
ATOM     15  C   UNL A   1      33.287  21.546  24.403  1.00  0.00     0.002 A 
ATOM     16  C   UNL A   1      33.915  18.821  24.566  1.00  0.00     0.118 A 
ATOM     17  C   UNL A   1      32.634  19.223  24.187  1.00  0.00     0.047 A 
ATOM     18  C   UNL A   1      34.893  19.778  24.836  1.00  0.00     0.047 A 
ATOM     19  C   UNL A   1      32.313  20.581  24.125  1.00  0.00     0.014 A 
ATOM     20  C   UNL A   1      34.578  21.138  24.759  1.00  0.00     0.014 A 
BRANCH  16  21
ATOM     21  O   UNL A   1      34.141  17.471  24.601  1.00  0.00    -0.497 OA
ATOM     22  C   UNL A   1      34.060  16.842  23.325  1.00  0.00     0.278 C 
ENDBRANCH  16  21
ENDBRANCH   9  15
ENDBRANCH   7   8
ENDBRANCH   6   7
ENDBRANCH   3   6
ENDBRANCH   1   2
BRANCH   1  23
ATOM     23  C   UNL A   1      31.753  30.591  26.514  1.00  0.00     0.023 C 
BRANCH  23  24
ATOM     24  C   UNL A   1      31.510  32.076  26.805  1.00  0.00     0.023 C 
BRANCH  24  25
ATOM     25  C   UNL A   1      32.736  32.857  27.261  1.00  0.00     0.116 C 
BRANCH  25  26
ATOM     26  N   UNL A   1      32.427  34.228  27.637  1.00  0.00    -0.352 N 
ATOM     27  C   UNL A   1      32.998  35.008  28.612  1.00  0.00     0.251 C 
ATOM     28  H   UNL A   1      31.708  34.658  27.120  1.00  0.00     0.163 HD
ATOM     29  O   UNL A   1      32.520  36.104  28.888  1.00  0.00    -0.269 OA
BRANCH  27  30
ATOM     30  C   UNL A   1      34.175  34.510  29.356  1.00  0.00     0.039 A 
ATOM     31  C   UNL A   1      33.981  33.898  30.597  1.00  0.00     0.014 A 
ATOM     32  C   UNL A   1      35.462  34.631  28.826  1.00  0.00     0.014 A 
ATOM     33  C   UNL A   1      35.071  33.346  31.275  1.00  0.00     0.010 A 
ATOM     34  C   UNL A   1      36.534  34.015  29.465  1.00  0.00     0.010 A 
ATOM     35  C   UNL A   1      36.350  33.366  30.695  1.00  0.00    -0.014 A 
BRANCH  35  36
ATOM     36  C   UNL A   1      37.511  32.717  31.358  1.00  0.00     0.031 A 
ATOM     37  C   UNL A   1      38.218  31.573  30.687  1.00  0.00     0.074 A 
ATOM     38  C   UNL A   1      37.883  33.110  32.592  1.00  0.00     0.049 A 
ATOM     39  N   UNL A   1      39.188  30.818  31.139  1.00  0.00    -0.248 NA
ATOM     40  C   UNL A   1      37.752  31.209  29.340  1.00  0.00     0.031 C 
ATOM     41  C   UNL A   1      37.255  34.183  33.364  1.00  0.00     0.029 A 
ATOM     42  N   UNL A   1      38.875  32.643  33.419  1.00  0.00    -0.354 N 
ATOM     43  C   UNL A   1      39.438  29.887  30.139  1.00  0.00     0.074 A 
ATOM     44  C   UNL A   1      38.479  30.133  29.083  1.00  0.00     0.031 C 
ATOM     45  C   UNL A   1      37.888  34.306  34.541  1.00  0.00     0.029 A 
ATOM     46  C   UNL A   1      38.937  33.296  34.626  1.00  0.00     0.049 A 
ATOM     47  H   UNL A   1      39.483  31.910  33.170  1.00  0.00     0.167 HD
ATOM     48  C   UNL A   1      40.395  28.929  30.094  1.00  0.00     0.037 A 
ATOM     49  C   UNL A   1      39.744  33.092  35.686  1.00  0.00     0.037 A 
ATOM     50  C   UNL A   1      41.358  28.698  31.140  1.00  0.00     0.049 A 
ATOM     51  C   UNL A   1      40.781  32.003  35.623  1.00  0.00     0.074 A 
ATOM     52  C   UNL A   1      42.398  27.786  31.169  1.00  0.00     0.029 A 
ATOM     53  N   UNL A   1      41.396  29.387  32.344  1.00  0.00    -0.354 N 
ATOM     54  N   UNL A   1      41.050  31.170  34.647  1.00  0.00    -0.248 NA
ATOM     55  C   UNL A   1      41.632  31.830  36.809  1.00  0.00     0.031 C 
ATOM     56  C   UNL A   1      43.033  27.887  32.411  1.00  0.00     0.029 A 
ATOM     57  C   UNL A   1      42.428  28.902  33.133  1.00  0.00     0.049 A 
ATOM     58  H   UNL A   1      40.781  30.111  32.601  1.00  0.00     0.167 HD
ATOM     59  C   UNL A   1      42.119  30.400  35.085  1.00  0.00     0.074 A 
ATOM     60  C   UNL A   1      42.458  30.873  36.411  1.00  0.00     0.031 C 
ATOM     61  C   UNL A   1      42.764  29.394  34.445  1.00  0.00     0.037 A 
BRANCH  48  62
ATOM     62  C   UNL A   1      40.446  28.058  28.873  1.00  0.00     0.064 A 
ATOM     63  C   UNL A   1      41.208  28.411  27.748  1.00  0.00     0.173 A 
ATOM     64  C   UNL A   1      39.750  26.840  28.835  1.00  0.00     0.173 A 
ATOM     65  F   UNL A   1      41.884  29.569  27.726  1.00  0.00    -0.203 F 
ATOM     66  C   UNL A   1      41.241  27.596  26.619  1.00  0.00     0.198 A 
ATOM     67  C   UNL A   1      39.813  26.011  27.717  1.00  0.00     0.198 A 
ATOM     68  F   UNL A   1      39.012  26.449  29.885  1.00  0.00    -0.203 F 
ATOM     69  F   UNL A   1      41.930  27.983  25.536  1.00  0.00    -0.200 F 
ATOM     70  C   UNL A   1      40.551  26.395  26.608  1.00  0.00     0.200 A 
ATOM     71  F   UNL A   1      39.157  24.843  27.714  1.00  0.00    -0.200 F 
ATOM     72  F   UNL A   1      40.589  25.608  25.522  1.00  0.00    -0.200 F 
ENDBRANCH  48  62
BRANCH  49  73
ATOM     73  C   UNL A   1      39.621  33.955  36.892  1.00  0.00     0.064 A 
ATOM     74  C   UNL A   1      38.835  33.556  37.981  1.00  0.00     0.173 A 
ATOM     75  C   UNL A   1      40.272  35.194  36.976  1.00  0.00     0.173 A 
ATOM     76  F   UNL A   1      38.174  32.390  37.939  1.00  0.00    -0.203 F 
ATOM     77  C   UNL A   1      38.686  34.373  39.100  1.00  0.00     0.198 A 
ATOM     78  C   UNL A   1      40.148  35.997  38.108  1.00  0.00     0.198 A 
ATOM     79  F   UNL A   1      41.041  35.620  35.963  1.00  0.00    -0.203 F 
ATOM     80  F   UNL A   1      37.888  33.990  40.106  1.00  0.00    -0.200 F 
ATOM     81  C   UNL A   1      39.347  35.591  39.165  1.00  0.00     0.200 A 
ATOM     82  F   UNL A   1      40.799  37.165  38.173  1.00  0.00    -0.200 F 
ATOM     83  F   UNL A   1      39.206  36.376  40.242  1.00  0.00    -0.200 F 
ENDBRANCH  49  73
BRANCH  61  84
ATOM     84  C   UNL A   1      43.936  28.768  35.144  1.00  0.00     0.064 A 
ATOM     85  C   UNL A   1      43.789  27.648  35.977  1.00  0.00     0.173 A 
ATOM     86  C   UNL A   1      45.231  29.269  34.942  1.00  0.00     0.173 A 
ATOM     87  F   UNL A   1      42.571  27.139  36.215  1.00  0.00    -0.203 F 
ATOM     88  C   UNL A   1      44.893  27.069  36.599  1.00  0.00     0.198 A 
ATOM     89  C   UNL A   1      46.335  28.669  35.540  1.00  0.00     0.198 A 
ATOM     90  F   UNL A   1      45.427  30.334  34.150  1.00  0.00    -0.203 F 
ATOM     91  F   UNL A   1      44.723  26.029  37.427  1.00  0.00    -0.200 F 
ATOM     92  C   UNL A   1      46.164  27.574  36.373  1.00  0.00     0.200 A 
ATOM     93  F   UNL A   1      47.565  29.149  35.308  1.00  0.00    -0.200 F 
ATOM     94  F   UNL A   1      47.226  27.009  36.965  1.00  0.00    -0.200 F 
ENDBRANCH  61  84
ENDBRANCH  35  36
ENDBRANCH  27  30
ENDBRANCH  25  26
ENDBRANCH  24  25
ENDBRANCH  23  24
ENDBRANCH   1  23
TORSDOF 15
ENDMDL
MODEL 3
REMARK VINA RESULT:     -12.0      1.906      4.158
REMARK SMILES COc1ccc(-c2nc(SCC(=O)NCCCCNC(=O)c3ccc(-c4c5nc(c(-c6c(F)c(F)c(F)c(F)c6F)c6ccc([nH]6)c(-c6c(F)c(F)c(F)c(F)c6F)c6nc(c(-c7c(F)c(F)c(F)c(F)c7F)c7ccc4[nH]7)C=C6)C=C5)cc3)[nH]c2C)cc1
REMARK SMILES IDX 15 1 14 2 12 3 13 4 11 6 10 7 9 8 7 9 8 10 86 11 85 12 87 13
REMARK SMILES IDX 6 15 3 16 4 17 89 18 5 19 88 20 2 21 1 22 16 23 17 24 18 25
REMARK SMILES IDX 19 26 20 27 21 29 22 30 23 31 84 32 24 33 83 34 25 35 26 36
REMARK SMILES IDX 27 37 77 38 28 39 82 40 76 41 78 42 29 43 81 44 75 45 74 46
REMARK SMILES IDX 30 48 62 49 42 50 61 51 43 52 46 53 60 54 79 55 44 56 45 57
REMARK SMILES IDX 59 59 80 60 47 61 31 62 32 63 40 64 33 65 34 66 38 67 41 68
REMARK SMILES IDX 35 69 36 70 39 71 37 72 63 73 64 74 72 75 65 76 66 77 70 78
REMARK SMILES IDX 73 79 67 80 68 81 71 82 69 83 48 84 49 85 57 86 50 87 51 88
REMARK SMILES IDX 55 89 58 90 52 91 53 92 56 93 54 94
REMARK H PARENT 14 5 85 14 19 28 78 47 46 58
REMARK Flexibility Score: inf
ROOT
ATOM      1  C   UNL A   1      32.643  29.960  25.975  1.00  0.00     0.116 C 
ENDROOT
BRANCH   1   2
ATOM      2  N   UNL A   1      33.274  29.728  24.693  1.00  0.00    -0.355 N 
ATOM      3  C   UNL A   1      32.921  28.885  23.678  1.00  0.00     0.230 C 
ATOM      4  O   UNL A   1      33.609  28.934  22.654  1.00  0.00    -0.274 OA
ATOM      5  H   UNL A   1      34.086  30.260  24.527  1.00  0.00     0.163 HD
BRANCH   3   6
ATOM      6  C   UNL A   1      31.650  28.056  23.745  1.00  0.00     0.178 C 
BRANCH   6   7
ATOM      7  S   UNL A   1      31.369  26.967  22.323  1.00  0.00    -0.078 SA
BRANCH   7   8
ATOM      8  C   UNL A   1      32.230  25.555  22.780  1.00  0.00     0.166 A 
ATOM      9  C   UNL A   1      33.646  24.139  23.497  1.00  0.00     0.092 A 
ATOM     10  N   UNL A   1      33.346  25.481  23.453  1.00  0.00    -0.222 NA
ATOM     11  C   UNL A   1      32.664  23.389  22.871  1.00  0.00     0.040 A 
ATOM     12  N   UNL A   1      31.766  24.327  22.417  1.00  0.00    -0.337 N 
ATOM     13  C   UNL A   1      32.459  21.941  22.651  1.00  0.00     0.067 C 
ATOM     14  H   UNL A   1      30.937  24.144  21.920  1.00  0.00     0.168 HD
BRANCH   9  15
ATOM     15  C   UNL A   1      34.853  23.642  24.118  1.00  0.00     0.002 A 
ATOM     16  C   UNL A   1      37.243  22.779  25.300  1.00  0.00     0.118 A 
ATOM     17  C   UNL A   1      36.337  23.545  26.032  1.00  0.00     0.047 A 
ATOM     18  C   UNL A   1      36.945  22.417  23.986  1.00  0.00     0.047 A 
ATOM     19  C   UNL A   1      35.154  23.994  25.439  1.00  0.00     0.014 A 
ATOM     20  C   UNL A   1      35.755  22.851  23.396  1.00  0.00     0.014 A 
BRANCH  16  21
ATOM     21  O   UNL A   1      38.376  22.385  25.960  1.00  0.00    -0.497 OA
ATOM     22  C   UNL A   1      38.850  21.099  25.569  1.00  0.00     0.278 C 
ENDBRANCH  16  21
ENDBRANCH   9  15
ENDBRANCH   7   8
ENDBRANCH   6   7
ENDBRANCH   3   6
ENDBRANCH   1   2
BRANCH   1  23
ATOM     23  C   UNL A   1      31.489  30.958  25.861  1.00  0.00     0.023 C 
BRANCH  23  24
ATOM     24  C   UNL A   1      31.398  31.961  27.015  1.00  0.00     0.023 C 
BRANCH  24  25
ATOM     25  C   UNL A   1      32.660  32.778  27.267  1.00  0.00     0.116 C 
BRANCH  25  26
ATOM     26  N   UNL A   1      32.379  34.166  27.597  1.00  0.00    -0.352 N 
ATOM     27  C   UNL A   1      32.973  34.969  28.540  1.00  0.00     0.251 C 
ATOM     28  H   UNL A   1      31.664  34.591  27.070  1.00  0.00     0.163 HD
ATOM     29  O   UNL A   1      32.517  36.083  28.780  1.00  0.00    -0.269 OA
BRANCH  27  30
ATOM     30  C   UNL A   1      34.146  34.476  29.292  1.00  0.00     0.039 A 
ATOM     31  C   UNL A   1      33.944  33.846  30.523  1.00  0.00     0.014 A 
ATOM     32  C   UNL A   1      35.438  34.618  28.779  1.00  0.00     0.014 A 
ATOM     33  C   UNL A   1      35.032  33.297  31.207  1.00  0.00     0.010 A 
ATOM     34  C   UNL A   1      36.510  34.007  29.424  1.00  0.00     0.010 A 
ATOM     35  C   UNL A   1      36.318  33.340  30.643  1.00  0.00    -0.014 A 
BRANCH  35  36
ATOM     36  C   UNL A   1      37.478  32.696  31.313  1.00  0.00     0.031 A 
ATOM     37  C   UNL A   1      38.198  31.559  30.642  1.00  0.00     0.074 A 
ATOM     38  C   UNL A   1      37.839  33.086  32.551  1.00  0.00     0.049 A 
ATOM     39  N   UNL A   1      39.170  30.809  31.098  1.00  0.00    -0.248 NA
ATOM     40  C   UNL A   1      37.745  31.199  29.290  1.00  0.00     0.031 C 
ATOM     41  C   UNL A   1      37.197  34.151  33.322  1.00  0.00     0.029 A 
ATOM     42  N   UNL A   1      38.827  32.623  33.383  1.00  0.00    -0.354 N 
ATOM     43  C   UNL A   1      39.434  29.884  30.096  1.00  0.00     0.074 A 
ATOM     44  C   UNL A   1      38.481  30.128  29.034  1.00  0.00     0.031 C 
ATOM     45  C   UNL A   1      37.820  34.274  34.505  1.00  0.00     0.029 A 
ATOM     46  C   UNL A   1      38.876  33.271  34.594  1.00  0.00     0.049 A 
ATOM     47  H   UNL A   1      39.442  31.895  33.136  1.00  0.00     0.167 HD
ATOM     48  C   UNL A   1      40.398  28.933  30.055  1.00  0.00     0.037 A 
ATOM     49  C   UNL A   1      39.676  33.068  35.659  1.00  0.00     0.037 A 
ATOM     50  C   UNL A   1      41.354  28.705  31.107  1.00  0.00     0.049 A 
ATOM     51  C   UNL A   1      40.721  31.987  35.599  1.00  0.00     0.074 A 
ATOM     52  C   UNL A   1      42.400  27.799  31.140  1.00  0.00     0.029 A 
ATOM     53  N   UNL A   1      41.379  29.388  32.314  1.00  0.00    -0.354 N 
ATOM     54  N   UNL A   1      41.003  31.160  34.621  1.00  0.00    -0.248 NA
ATOM     55  C   UNL A   1      41.564  31.814  36.791  1.00  0.00     0.031 C 
ATOM     56  C   UNL A   1      43.025  27.899  32.387  1.00  0.00     0.029 A 
ATOM     57  C   UNL A   1      42.407  28.907  33.109  1.00  0.00     0.049 A 
ATOM     58  H   UNL A   1      40.756  30.108  32.569  1.00  0.00     0.167 HD
ATOM     59  C   UNL A   1      42.074  30.395  35.064  1.00  0.00     0.074 A 
ATOM     60  C   UNL A   1      42.399  30.865  36.395  1.00  0.00     0.031 C 
ATOM     61  C   UNL A   1      42.730  29.396  34.425  1.00  0.00     0.037 A 
BRANCH  48  62
ATOM     62  C   UNL A   1      40.464  28.067  28.830  1.00  0.00     0.064 A 
ATOM     63  C   UNL A   1      39.762  26.854  28.747  1.00  0.00     0.173 A 
ATOM     64  C   UNL A   1      41.214  28.466  27.713  1.00  0.00     0.173 A 
ATOM     65  F   UNL A   1      39.039  26.420  29.790  1.00  0.00    -0.203 F 
ATOM     66  C   UNL A   1      39.838  26.058  27.608  1.00  0.00     0.198 A 
ATOM     67  C   UNL A   1      41.259  27.684  26.561  1.00  0.00     0.198 A 
ATOM     68  F   UNL A   1      41.898  29.620  27.734  1.00  0.00    -0.203 F 
ATOM     69  F   UNL A   1      39.205  24.876  27.576  1.00  0.00    -0.200 F 
ATOM     70  C   UNL A   1      40.579  26.476  26.514  1.00  0.00     0.200 A 
ATOM     71  F   UNL A   1      41.964  28.097  25.500  1.00  0.00    -0.200 F 
ATOM     72  F   UNL A   1      40.646  25.711  25.416  1.00  0.00    -0.200 F 
ENDBRANCH  48  62
BRANCH  49  73
ATOM     73  C   UNL A   1      39.538  33.925  36.867  1.00  0.00     0.064 A 
ATOM     74  C   UNL A   1      38.784  33.497  37.968  1.00  0.00     0.173 A 
ATOM     75  C   UNL A   1      40.143  35.188  36.943  1.00  0.00     0.173 A 
ATOM     76  F   UNL A   1      38.167  32.306  37.934  1.00  0.00    -0.203 F 
ATOM     77  C   UNL A   1      38.620  34.307  39.089  1.00  0.00     0.198 A 
ATOM     78  C   UNL A   1      40.004  35.986  38.078  1.00  0.00     0.198 A 
ATOM     79  F   UNL A   1      40.880  35.644  35.919  1.00  0.00    -0.203 F 
ATOM     80  F   UNL A   1      37.852  33.893  40.106  1.00  0.00    -0.200 F 
ATOM     81  C   UNL A   1      39.235  35.548  39.146  1.00  0.00     0.200 A 
ATOM     82  F   UNL A   1      40.612  37.177  38.135  1.00  0.00    -0.200 F 
ATOM     83  F   UNL A   1      39.080  36.327  40.225  1.00  0.00    -0.200 F 
ENDBRANCH  49  73
BRANCH  61  84
ATOM     84  C   UNL A   1      43.901  28.775  35.131  1.00  0.00     0.064 A 
ATOM     85  C   UNL A   1      45.199  29.293  35.010  1.00  0.00     0.173 A 
ATOM     86  C   UNL A   1      43.711  27.670  35.977  1.00  0.00     0.173 A 
ATOM     87  F   UNL A   1      45.436  30.338  34.203  1.00  0.00    -0.203 F 
ATOM     88  C   UNL A   1      46.267  28.713  35.691  1.00  0.00     0.198 A 
ATOM     89  C   UNL A   1      44.776  27.114  36.681  1.00  0.00     0.198 A 
ATOM     90  F   UNL A   1      42.489  27.141  36.133  1.00  0.00    -0.203 F 
ATOM     91  F   UNL A   1      47.506  29.195  35.524  1.00  0.00    -0.200 F 
ATOM     92  C   UNL A   1      46.053  27.631  36.532  1.00  0.00     0.200 A 
ATOM     93  F   UNL A   1      44.564  26.079  37.505  1.00  0.00    -0.200 F 
ATOM     94  F   UNL A   1      47.081  27.082  37.194  1.00  0.00    -0.200 F 
ENDBRANCH  61  84
ENDBRANCH  35  36
ENDBRANCH  27  30
ENDBRANCH  25  26
ENDBRANCH  24  25
ENDBRANCH  23  24
ENDBRANCH   1  23
TORSDOF 15
ENDMDL
