MODEL 1
REMARK VINA RESULT:     -13.1      0.000      0.000
REMARK SMILES O=C(NCCCCNC(=O)c1ccc(-c2c3nc(c(-c4c(F)c(F)c(F)c(F)c4F)c4ccc([nH]4)c(-c4c(F)c(F)c(F)c(F)c4F)c4nc(c(-c5c(F)c(F)c(F)c(F)c5F)c5ccc2[nH]5)C=C4)C=C3)cc1)C1=Cc2c(ccc(Cl)c2-c2ccccc2)O[C@H]1C(F)(F)F
REMARK SMILES IDX 6 1 5 2 4 3 3 4 1 5 2 6 74 8 75 9 90 10 76 11 89 12 77 13
REMARK SMILES IDX 82 14 78 15 80 16 79 17 81 18 91 19 92 20 93 21 94 22 83 23
REMARK SMILES IDX 84 24 88 25 85 26 87 27 86 28 7 29 8 30 9 31 10 33 11 34
REMARK SMILES IDX 12 35 73 36 13 37 72 38 14 39 15 40 16 41 66 42 17 43 71 44
REMARK SMILES IDX 65 45 67 46 18 47 70 48 64 49 63 50 19 52 51 53 31 54 50 55
REMARK SMILES IDX 32 56 35 57 49 58 68 59 33 60 34 61 48 63 69 64 36 65 20 66
REMARK SMILES IDX 21 67 29 68 22 69 23 70 27 71 30 72 24 73 25 74 28 75 26 76
REMARK SMILES IDX 52 77 53 78 61 79 54 80 55 81 59 82 62 83 56 84 57 85 60 86
REMARK SMILES IDX 58 87 37 88 38 89 46 90 39 91 40 92 44 93 47 94 41 95 42 96
REMARK SMILES IDX 45 97 43 98
REMARK H PARENT 3 7 8 32 67 51 35 62
REMARK Flexibility Score: inf
ROOT
ATOM      1  C   UNL A   1      31.024  31.422  25.820  1.00  0.00     0.023 C 
ENDROOT
BRANCH   1   2
ATOM      2  C   UNL A   1      31.179  30.277  24.819  1.00  0.00     0.023 C 
BRANCH   2   3
ATOM      3  C   UNL A   1      32.585  29.713  24.655  1.00  0.00     0.116 C 
BRANCH   3   4
ATOM      4  N   UNL A   1      32.684  28.536  23.812  1.00  0.00    -0.352 N 
ATOM      5  O   UNL A   1      32.882  26.354  23.311  1.00  0.00    -0.270 OA
ATOM      6  C   UNL A   1      32.770  27.220  24.175  1.00  0.00     0.251 C 
ATOM      7  H   UNL A   1      32.691  28.710  22.843  1.00  0.00     0.163 HD
BRANCH   6   8
ATOM      8  C   UNL A   1      32.707  26.812  25.597  1.00  0.00     0.067 C 
ATOM      9  C   UNL A   1      33.523  25.820  25.977  1.00  0.00     0.026 C 
ATOM     10  C   UNL A   1      31.494  27.091  26.433  1.00  0.00     0.314 C 
ATOM     11  C   UNL A   1      32.733  24.562  26.095  1.00  0.00     0.027 A 
ATOM     12  O   UNL A   1      30.820  25.860  26.873  1.00  0.00    -0.475 OA
ATOM     13  C   UNL A   1      31.399  24.663  26.521  1.00  0.00     0.128 A 
ATOM     14  C   UNL A   1      33.278  23.349  25.604  1.00  0.00     0.011 A 
ATOM     15  C   UNL A   1      30.578  23.544  26.470  1.00  0.00     0.049 A 
ATOM     16  C   UNL A   1      32.417  22.245  25.519  1.00  0.00     0.049 A 
ATOM     17  C   UNL A   1      31.081  22.344  25.950  1.00  0.00     0.025 A 
ATOM     18  Cl  UNL A   1      32.924  20.754  24.811  1.00  0.00    -0.084 Cl
BRANCH  10  19
ATOM     19  C   UNL A   1      31.831  27.992  27.643  1.00  0.00     0.429 C 
ATOM     20  F   UNL A   1      31.820  27.327  28.823  1.00  0.00    -0.167 F 
ATOM     21  F   UNL A   1      33.061  28.543  27.509  1.00  0.00    -0.167 F 
ATOM     22  F   UNL A   1      30.953  29.015  27.771  1.00  0.00    -0.167 F 
ENDBRANCH  10  19
BRANCH  14  23
ATOM     23  C   UNL A   1      34.662  23.401  25.090  1.00  0.00    -0.016 A 
ATOM     24  C   UNL A   1      35.729  23.043  25.929  1.00  0.00     0.009 A 
ATOM     25  C   UNL A   1      34.886  23.439  23.701  1.00  0.00     0.009 A 
ATOM     26  C   UNL A   1      36.943  22.613  25.395  1.00  0.00     0.001 A 
ATOM     27  C   UNL A   1      36.098  22.995  23.168  1.00  0.00     0.001 A 
ATOM     28  C   UNL A   1      37.114  22.557  24.014  1.00  0.00     0.000 A 
ENDBRANCH  14  23
ENDBRANCH   6   8
ENDBRANCH   3   4
ENDBRANCH   2   3
ENDBRANCH   1   2
BRANCH   1  29
ATOM     29  C   UNL A   1      32.243  31.776  26.672  1.00  0.00     0.116 C 
BRANCH  29  30
ATOM     30  N   UNL A   1      32.241  33.120  27.227  1.00  0.00    -0.352 N 
ATOM     31  C   UNL A   1      33.180  33.748  28.014  1.00  0.00     0.251 C 
ATOM     32  H   UNL A   1      31.448  33.662  27.007  1.00  0.00     0.163 HD
ATOM     33  O   UNL A   1      32.981  34.900  28.396  1.00  0.00    -0.269 OA
BRANCH  31  34
ATOM     34  C   UNL A   1      34.396  33.027  28.462  1.00  0.00     0.039 A 
ATOM     35  C   UNL A   1      35.589  33.747  28.589  1.00  0.00     0.014 A 
ATOM     36  C   UNL A   1      34.371  31.668  28.784  1.00  0.00     0.014 A 
ATOM     37  C   UNL A   1      36.722  33.131  29.129  1.00  0.00     0.010 A 
ATOM     38  C   UNL A   1      35.479  31.076  29.393  1.00  0.00     0.010 A 
ATOM     39  C   UNL A   1      36.664  31.804  29.585  1.00  0.00    -0.014 A 
BRANCH  39  40
ATOM     40  C   UNL A   1      37.828  31.178  30.271  1.00  0.00     0.031 A 
ATOM     41  C   UNL A   1      38.152  31.526  31.699  1.00  0.00     0.074 A 
ATOM     42  C   UNL A   1      38.626  30.325  29.596  1.00  0.00     0.049 A 
ATOM     43  N   UNL A   1      39.143  31.111  32.450  1.00  0.00    -0.248 NA
ATOM     44  C   UNL A   1      37.259  32.487  32.364  1.00  0.00     0.031 C 
ATOM     45  C   UNL A   1      38.462  29.945  28.192  1.00  0.00     0.029 A 
ATOM     46  N   UNL A   1      39.741  29.629  29.998  1.00  0.00    -0.354 N 
ATOM     47  C   UNL A   1      38.991  31.757  33.670  1.00  0.00     0.074 A 
ATOM     48  C   UNL A   1      37.852  32.641  33.539  1.00  0.00     0.031 C 
ATOM     49  C   UNL A   1      39.425  29.071  27.856  1.00  0.00     0.029 A 
ATOM     50  C   UNL A   1      40.291  28.848  29.010  1.00  0.00     0.049 A 
ATOM     51  H   UNL A   1      40.110  29.684  30.909  1.00  0.00     0.167 HD
ATOM     52  C   UNL A   1      39.711  31.606  34.807  1.00  0.00     0.037 A 
ATOM     53  C   UNL A   1      41.370  28.042  29.031  1.00  0.00     0.037 A 
ATOM     54  C   UNL A   1      40.840  30.722  34.947  1.00  0.00     0.049 A 
ATOM     55  C   UNL A   1      42.144  27.881  30.314  1.00  0.00     0.074 A 
ATOM     56  C   UNL A   1      41.632  30.498  36.060  1.00  0.00     0.029 A 
ATOM     57  N   UNL A   1      41.331  29.908  33.938  1.00  0.00    -0.354 N 
ATOM     58  N   UNL A   1      41.955  28.459  31.474  1.00  0.00    -0.248 NA
ATOM     59  C   UNL A   1      43.273  26.938  30.292  1.00  0.00     0.031 C 
ATOM     60  C   UNL A   1      42.619  29.566  35.718  1.00  0.00     0.029 A 
ATOM     61  C   UNL A   1      42.412  29.177  34.405  1.00  0.00     0.049 A 
ATOM     62  H   UNL A   1      40.966  29.857  33.025  1.00  0.00     0.167 HD
ATOM     63  C   UNL A   1      42.910  27.923  32.328  1.00  0.00     0.074 A 
ATOM     64  C   UNL A   1      43.669  26.962  31.556  1.00  0.00     0.031 C 
ATOM     65  C   UNL A   1      43.141  28.203  33.634  1.00  0.00     0.037 A 
BRANCH  52  66
ATOM     66  C   UNL A   1      39.282  32.403  36.005  1.00  0.00     0.064 A 
ATOM     67  C   UNL A   1      38.361  31.887  36.930  1.00  0.00     0.173 A 
ATOM     68  C   UNL A   1      39.818  33.676  36.255  1.00  0.00     0.173 A 
ATOM     69  F   UNL A   1      37.810  30.679  36.730  1.00  0.00    -0.203 F 
ATOM     70  C   UNL A   1      37.971  32.625  38.043  1.00  0.00     0.198 A 
ATOM     71  C   UNL A   1      39.449  34.398  37.386  1.00  0.00     0.198 A 
ATOM     72  F   UNL A   1      40.707  34.214  35.406  1.00  0.00    -0.203 F 
ATOM     73  F   UNL A   1      37.054  32.129  38.886  1.00  0.00    -0.200 F 
ATOM     74  C   UNL A   1      38.520  33.877  38.275  1.00  0.00     0.200 A 
ATOM     75  F   UNL A   1      39.990  35.603  37.616  1.00  0.00    -0.200 F 
ATOM     76  F   UNL A   1      38.151  34.583  39.352  1.00  0.00    -0.200 F 
ENDBRANCH  52  66
BRANCH  53  77
ATOM     77  C   UNL A   1      41.773  27.293  27.811  1.00  0.00     0.064 A 
ATOM     78  C   UNL A   1      41.262  26.013  27.547  1.00  0.00     0.173 A 
ATOM     79  C   UNL A   1      42.705  27.821  26.907  1.00  0.00     0.173 A 
ATOM     80  F   UNL A   1      40.384  25.455  28.393  1.00  0.00    -0.203 F 
ATOM     81  C   UNL A   1      41.695  25.277  26.446  1.00  0.00     0.198 A 
ATOM     82  C   UNL A   1      43.114  27.096  25.788  1.00  0.00     0.198 A 
ATOM     83  F   UNL A   1      43.219  29.042  27.108  1.00  0.00    -0.203 F 
ATOM     84  F   UNL A   1      41.238  24.031  26.254  1.00  0.00    -0.200 F 
ATOM     85  C   UNL A   1      42.619  25.820  25.567  1.00  0.00     0.200 A 
ATOM     86  F   UNL A   1      43.996  27.630  24.933  1.00  0.00    -0.200 F 
ATOM     87  F   UNL A   1      43.041  25.109  24.512  1.00  0.00    -0.200 F 
ENDBRANCH  53  77
BRANCH  65  88
ATOM     88  C   UNL A   1      44.215  27.415  34.326  1.00  0.00     0.064 A 
ATOM     89  C   UNL A   1      45.538  27.874  34.403  1.00  0.00     0.173 A 
ATOM     90  C   UNL A   1      43.909  26.189  34.935  1.00  0.00     0.173 A 
ATOM     91  F   UNL A   1      45.885  29.035  33.825  1.00  0.00    -0.203 F 
ATOM     92  C   UNL A   1      46.523  27.116  35.031  1.00  0.00     0.198 A 
ATOM     93  C   UNL A   1      44.890  25.447  35.588  1.00  0.00     0.198 A 
ATOM     94  F   UNL A   1      42.657  25.708  34.896  1.00  0.00    -0.203 F 
ATOM     95  F   UNL A   1      47.792  27.546  35.041  1.00  0.00    -0.200 F 
ATOM     96  C   UNL A   1      46.198  25.906  35.627  1.00  0.00     0.200 A 
ATOM     97  F   UNL A   1      44.571  24.285  36.174  1.00  0.00    -0.200 F 
ATOM     98  F   UNL A   1      47.147  25.178  36.228  1.00  0.00    -0.200 F 
ENDBRANCH  65  88
ENDBRANCH  39  40
ENDBRANCH  31  34
ENDBRANCH  29  30
ENDBRANCH   1  29
TORSDOF 13
ENDMDL
MODEL 2
REMARK VINA RESULT:     -13.1      4.257      8.991
REMARK SMILES O=C(NCCCCNC(=O)c1ccc(-c2c3nc(c(-c4c(F)c(F)c(F)c(F)c4F)c4ccc([nH]4)c(-c4c(F)c(F)c(F)c(F)c4F)c4nc(c(-c5c(F)c(F)c(F)c(F)c5F)c5ccc2[nH]5)C=C4)C=C3)cc1)C1=Cc2c(ccc(Cl)c2-c2ccccc2)O[C@H]1C(F)(F)F
REMARK SMILES IDX 6 1 5 2 4 3 3 4 1 5 2 6 74 8 75 9 90 10 76 11 89 12 77 13
REMARK SMILES IDX 82 14 78 15 80 16 79 17 81 18 91 19 92 20 93 21 94 22 83 23
REMARK SMILES IDX 84 24 88 25 85 26 87 27 86 28 7 29 8 30 9 31 10 33 11 34
REMARK SMILES IDX 12 35 73 36 13 37 72 38 14 39 15 40 16 41 66 42 17 43 71 44
REMARK SMILES IDX 65 45 67 46 18 47 70 48 64 49 63 50 19 52 51 53 31 54 50 55
REMARK SMILES IDX 32 56 35 57 49 58 68 59 33 60 34 61 48 63 69 64 36 65 20 66
REMARK SMILES IDX 21 67 29 68 22 69 23 70 27 71 30 72 24 73 25 74 28 75 26 76
REMARK SMILES IDX 52 77 53 78 61 79 54 80 55 81 59 82 62 83 56 84 57 85 60 86
REMARK SMILES IDX 58 87 37 88 38 89 46 90 39 91 40 92 44 93 47 94 41 95 42 96
REMARK SMILES IDX 45 97 43 98
REMARK H PARENT 3 7 8 32 67 51 35 62
REMARK Flexibility Score: inf
ROOT
ATOM      1  C   UNL A   1      35.552  22.301  25.961  1.00  0.00     0.023 C 
ENDROOT
BRANCH   1   2
ATOM      2  C   UNL A   1      34.794  22.532  27.268  1.00  0.00     0.023 C 
BRANCH   2   3
ATOM      3  C   UNL A   1      33.495  21.753  27.438  1.00  0.00     0.116 C 
BRANCH   3   4
ATOM      4  N   UNL A   1      32.312  22.564  27.654  1.00  0.00    -0.352 N 
ATOM      5  O   UNL A   1      30.693  24.044  27.163  1.00  0.00    -0.270 OA
ATOM      6  C   UNL A   1      31.674  23.409  26.787  1.00  0.00     0.251 C 
ATOM      7  H   UNL A   1      31.911  22.497  28.552  1.00  0.00     0.163 HD
BRANCH   6   8
ATOM      8  C   UNL A   1      32.132  23.556  25.387  1.00  0.00     0.067 C 
ATOM      9  C   UNL A   1      32.761  24.697  25.074  1.00  0.00     0.026 C 
ATOM     10  C   UNL A   1      31.507  22.764  24.277  1.00  0.00     0.314 C 
ATOM     11  C   UNL A   1      31.816  25.583  24.337  1.00  0.00     0.027 A 
ATOM     12  O   UNL A   1      30.809  23.617  23.303  1.00  0.00    -0.475 OA
ATOM     13  C   UNL A   1      30.867  24.978  23.499  1.00  0.00     0.128 A 
ATOM     14  C   UNL A   1      31.780  26.968  24.641  1.00  0.00     0.011 A 
ATOM     15  C   UNL A   1      29.857  25.750  22.940  1.00  0.00     0.049 A 
ATOM     16  C   UNL A   1      30.725  27.717  24.101  1.00  0.00     0.049 A 
ATOM     17  C   UNL A   1      29.775  27.112  23.257  1.00  0.00     0.025 A 
ATOM     18  Cl  UNL A   1      30.494  29.380  24.508  1.00  0.00    -0.084 Cl
BRANCH  10  19
ATOM     19  C   UNL A   1      32.542  21.861  23.569  1.00  0.00     0.429 C 
ATOM     20  F   UNL A   1      33.649  22.530  23.166  1.00  0.00    -0.167 F 
ATOM     21  F   UNL A   1      32.957  20.864  24.389  1.00  0.00    -0.167 F 
ATOM     22  F   UNL A   1      32.026  21.272  22.464  1.00  0.00    -0.167 F 
ENDBRANCH  10  19
BRANCH  14  23
ATOM     23  C   UNL A   1      32.773  27.461  25.617  1.00  0.00    -0.016 A 
ATOM     24  C   UNL A   1      33.962  28.053  25.161  1.00  0.00     0.009 A 
ATOM     25  C   UNL A   1      32.386  27.681  26.952  1.00  0.00     0.009 A 
ATOM     26  C   UNL A   1      34.673  28.940  25.970  1.00  0.00     0.001 A 
ATOM     27  C   UNL A   1      33.091  28.578  27.755  1.00  0.00     0.001 A 
ATOM     28  C   UNL A   1      34.217  29.228  27.254  1.00  0.00     0.000 A 
ENDBRANCH  14  23
ENDBRANCH   6   8
ENDBRANCH   3   4
ENDBRANCH   2   3
ENDBRANCH   1   2
BRANCH   1  29
ATOM     29  C   UNL A   1      36.848  23.085  25.756  1.00  0.00     0.116 C 
BRANCH  29  30
ATOM     30  N   UNL A   1      38.071  22.316  25.926  1.00  0.00    -0.352 N 
ATOM     31  C   UNL A   1      39.280  22.696  26.464  1.00  0.00     0.251 C 
ATOM     32  H   UNL A   1      38.027  21.386  25.607  1.00  0.00     0.163 HD
ATOM     33  O   UNL A   1      40.207  21.889  26.505  1.00  0.00    -0.269 OA
BRANCH  31  34
ATOM     34  C   UNL A   1      39.498  24.085  26.935  1.00  0.00     0.039 A 
ATOM     35  C   UNL A   1      39.160  24.403  28.254  1.00  0.00     0.014 A 
ATOM     36  C   UNL A   1      40.052  25.065  26.107  1.00  0.00     0.014 A 
ATOM     37  C   UNL A   1      39.470  25.666  28.769  1.00  0.00     0.010 A 
ATOM     38  C   UNL A   1      40.429  26.297  26.643  1.00  0.00     0.010 A 
ATOM     39  C   UNL A   1      40.154  26.609  27.984  1.00  0.00    -0.014 A 
BRANCH  39  40
ATOM     40  C   UNL A   1      40.594  27.909  28.560  1.00  0.00     0.031 A 
ATOM     41  C   UNL A   1      42.038  28.139  28.917  1.00  0.00     0.074 A 
ATOM     42  C   UNL A   1      39.685  28.876  28.807  1.00  0.00     0.049 A 
ATOM     43  N   UNL A   1      42.602  29.190  29.459  1.00  0.00    -0.248 NA
ATOM     44  C   UNL A   1      42.968  27.031  28.650  1.00  0.00     0.031 C 
ATOM     45  C   UNL A   1      38.246  28.765  28.565  1.00  0.00     0.029 A 
ATOM     46  N   UNL A   1      39.837  30.140  29.324  1.00  0.00    -0.354 N 
ATOM     47  C   UNL A   1      43.947  28.871  29.597  1.00  0.00     0.074 A 
ATOM     48  C   UNL A   1      44.104  27.505  29.143  1.00  0.00     0.031 C 
ATOM     49  C   UNL A   1      37.650  29.918  28.913  1.00  0.00     0.029 A 
ATOM     50  C   UNL A   1      38.659  30.840  29.427  1.00  0.00     0.049 A 
ATOM     51  H   UNL A   1      40.708  30.510  29.595  1.00  0.00     0.167 HD
ATOM     52  C   UNL A   1      44.965  29.651  30.031  1.00  0.00     0.037 A 
ATOM     53  C   UNL A   1      38.417  32.085  29.882  1.00  0.00     0.037 A 
ATOM     54  C   UNL A   1      44.818  31.013  30.476  1.00  0.00     0.049 A 
ATOM     55  C   UNL A   1      39.571  32.937  30.345  1.00  0.00     0.074 A 
ATOM     56  C   UNL A   1      45.790  31.886  30.932  1.00  0.00     0.029 A 
ATOM     57  N   UNL A   1      43.615  31.703  30.513  1.00  0.00    -0.354 N 
ATOM     58  N   UNL A   1      40.844  32.638  30.419  1.00  0.00    -0.248 NA
ATOM     59  C   UNL A   1      39.253  34.308  30.770  1.00  0.00     0.031 C 
ATOM     60  C   UNL A   1      45.174  33.097  31.268  1.00  0.00     0.029 A 
ATOM     61  C   UNL A   1      43.824  32.992  30.978  1.00  0.00     0.049 A 
ATOM     62  H   UNL A   1      42.742  31.332  30.248  1.00  0.00     0.167 HD
ATOM     63  C   UNL A   1      41.483  33.790  30.858  1.00  0.00     0.074 A 
ATOM     64  C   UNL A   1      40.458  34.800  31.019  1.00  0.00     0.031 C 
ATOM     65  C   UNL A   1      42.798  33.995  31.108  1.00  0.00     0.037 A 
BRANCH  52  66
ATOM     66  C   UNL A   1      46.343  29.054  30.023  1.00  0.00     0.064 A 
ATOM     67  C   UNL A   1      46.852  28.385  31.148  1.00  0.00     0.173 A 
ATOM     68  C   UNL A   1      47.149  29.116  28.876  1.00  0.00     0.173 A 
ATOM     69  F   UNL A   1      46.125  28.308  32.273  1.00  0.00    -0.203 F 
ATOM     70  C   UNL A   1      48.126  27.826  31.134  1.00  0.00     0.198 A 
ATOM     71  C   UNL A   1      48.411  28.529  28.857  1.00  0.00     0.198 A 
ATOM     72  F   UNL A   1      46.708  29.738  27.772  1.00  0.00    -0.203 F 
ATOM     73  F   UNL A   1      48.608  27.234  32.236  1.00  0.00    -0.200 F 
ATOM     74  C   UNL A   1      48.903  27.892  29.987  1.00  0.00     0.200 A 
ATOM     75  F   UNL A   1      49.156  28.581  27.744  1.00  0.00    -0.200 F 
ATOM     76  F   UNL A   1      50.126  27.346  29.972  1.00  0.00    -0.200 F 
ENDBRANCH  52  66
BRANCH  53  77
ATOM     77  C   UNL A   1      37.031  32.625  29.896  1.00  0.00     0.064 A 
ATOM     78  C   UNL A   1      36.535  33.370  28.817  1.00  0.00     0.173 A 
ATOM     79  C   UNL A   1      36.190  32.442  31.003  1.00  0.00     0.173 A 
ATOM     80  F   UNL A   1      37.309  33.591  27.744  1.00  0.00    -0.203 F 
ATOM     81  C   UNL A   1      35.266  33.943  28.859  1.00  0.00     0.198 A 
ATOM     82  C   UNL A   1      34.908  32.989  31.030  1.00  0.00     0.198 A 
ATOM     83  F   UNL A   1      36.613  31.732  32.058  1.00  0.00    -0.203 F 
ATOM     84  F   UNL A   1      34.842  34.704  27.839  1.00  0.00    -0.200 F 
ATOM     85  C   UNL A   1      34.452  33.749  29.964  1.00  0.00     0.200 A 
ATOM     86  F   UNL A   1      34.119  32.788  32.094  1.00  0.00    -0.200 F 
ATOM     87  F   UNL A   1      33.234  34.306  30.008  1.00  0.00    -0.200 F 
ENDBRANCH  53  77
BRANCH  65  88
ATOM     88  C   UNL A   1      43.213  35.378  31.520  1.00  0.00     0.064 A 
ATOM     89  C   UNL A   1      43.628  36.337  30.585  1.00  0.00     0.173 A 
ATOM     90  C   UNL A   1      43.181  35.750  32.872  1.00  0.00     0.173 A 
ATOM     91  F   UNL A   1      43.689  36.027  29.281  1.00  0.00    -0.203 F 
ATOM     92  C   UNL A   1      44.030  37.606  30.993  1.00  0.00     0.198 A 
ATOM     93  C   UNL A   1      43.555  37.029  33.273  1.00  0.00     0.198 A 
ATOM     94  F   UNL A   1      42.785  34.872  33.807  1.00  0.00    -0.203 F 
ATOM     95  F   UNL A   1      44.478  38.488  30.088  1.00  0.00    -0.200 F 
ATOM     96  C   UNL A   1      43.989  37.953  32.335  1.00  0.00     0.200 A 
ATOM     97  F   UNL A   1      43.503  37.366  34.570  1.00  0.00    -0.200 F 
ATOM     98  F   UNL A   1      44.379  39.174  32.725  1.00  0.00    -0.200 F 
ENDBRANCH  65  88
ENDBRANCH  39  40
ENDBRANCH  31  34
ENDBRANCH  29  30
ENDBRANCH   1  29
TORSDOF 13
ENDMDL
MODEL 3
REMARK VINA RESULT:     -13.0      1.859      2.962
REMARK SMILES O=C(NCCCCNC(=O)c1ccc(-c2c3nc(c(-c4c(F)c(F)c(F)c(F)c4F)c4ccc([nH]4)c(-c4c(F)c(F)c(F)c(F)c4F)c4nc(c(-c5c(F)c(F)c(F)c(F)c5F)c5ccc2[nH]5)C=C4)C=C3)cc1)C1=Cc2c(ccc(Cl)c2-c2ccccc2)O[C@H]1C(F)(F)F
REMARK SMILES IDX 6 1 5 2 4 3 3 4 1 5 2 6 74 8 75 9 90 10 76 11 89 12 77 13
REMARK SMILES IDX 82 14 78 15 80 16 79 17 81 18 91 19 92 20 93 21 94 22 83 23
REMARK SMILES IDX 84 24 88 25 85 26 87 27 86 28 7 29 8 30 9 31 10 33 11 34
REMARK SMILES IDX 12 35 73 36 13 37 72 38 14 39 15 40 16 41 66 42 17 43 71 44
REMARK SMILES IDX 65 45 67 46 18 47 70 48 64 49 63 50 19 52 51 53 31 54 50 55
REMARK SMILES IDX 32 56 35 57 49 58 68 59 33 60 34 61 48 63 69 64 36 65 20 66
REMARK SMILES IDX 21 67 29 68 22 69 23 70 27 71 30 72 24 73 25 74 28 75 26 76
REMARK SMILES IDX 52 77 53 78 61 79 54 80 55 81 59 82 62 83 56 84 57 85 60 86
REMARK SMILES IDX 58 87 37 88 38 89 46 90 39 91 40 92 44 93 47 94 41 95 42 96
REMARK SMILES IDX 45 97 43 98
REMARK H PARENT 3 7 8 32 67 51 35 62
REMARK Flexibility Score: inf
ROOT
ATOM      1  C   UNL A   1      31.517  28.678  25.806  1.00  0.00     0.023 C 
ENDROOT
BRANCH   1   2
ATOM      2  C   UNL A   1      31.462  27.491  26.767  1.00  0.00     0.023 C 
BRANCH   2   3
ATOM      3  C   UNL A   1      30.861  26.204  26.214  1.00  0.00     0.116 C 
BRANCH   3   4
ATOM      4  N   UNL A   1      31.349  24.982  26.823  1.00  0.00    -0.352 N 
ATOM      5  O   UNL A   1      32.410  23.004  26.944  1.00  0.00    -0.270 OA
ATOM      6  C   UNL A   1      32.120  23.993  26.276  1.00  0.00     0.251 C 
ATOM      7  H   UNL A   1      31.087  24.844  27.763  1.00  0.00     0.163 HD
BRANCH   6   8
ATOM      8  C   UNL A   1      32.636  24.102  24.893  1.00  0.00     0.067 C 
ATOM      9  C   UNL A   1      32.781  22.958  24.210  1.00  0.00     0.026 C 
ATOM     10  C   UNL A   1      33.429  25.295  24.451  1.00  0.00     0.314 C 
ATOM     11  C   UNL A   1      34.223  22.585  24.192  1.00  0.00     0.027 A 
ATOM     12  O   UNL A   1      34.814  24.949  24.094  1.00  0.00    -0.475 OA
ATOM     13  C   UNL A   1      35.169  23.621  24.157  1.00  0.00     0.128 A 
ATOM     14  C   UNL A   1      34.594  21.232  24.395  1.00  0.00     0.011 A 
ATOM     15  C   UNL A   1      36.516  23.324  24.322  1.00  0.00     0.049 A 
ATOM     16  C   UNL A   1      35.955  20.963  24.605  1.00  0.00     0.049 A 
ATOM     17  C   UNL A   1      36.904  22.001  24.567  1.00  0.00     0.025 A 
ATOM     18  Cl  UNL A   1      36.514  19.377  25.000  1.00  0.00    -0.084 Cl
BRANCH  10  19
ATOM     19  C   UNL A   1      32.737  26.041  23.288  1.00  0.00     0.429 C 
ATOM     20  F   UNL A   1      31.403  25.815  23.226  1.00  0.00    -0.167 F 
ATOM     21  F   UNL A   1      32.908  27.381  23.401  1.00  0.00    -0.167 F 
ATOM     22  F   UNL A   1      33.243  25.680  22.084  1.00  0.00    -0.167 F 
ENDBRANCH  10  19
BRANCH  14  23
ATOM     23  C   UNL A   1      33.496  20.250  24.515  1.00  0.00    -0.016 A 
ATOM     24  C   UNL A   1      32.946  19.679  23.357  1.00  0.00     0.009 A 
ATOM     25  C   UNL A   1      33.259  19.620  25.750  1.00  0.00     0.009 A 
ATOM     26  C   UNL A   1      32.290  18.449  23.411  1.00  0.00     0.001 A 
ATOM     27  C   UNL A   1      32.614  18.383  25.801  1.00  0.00     0.001 A 
ATOM     28  C   UNL A   1      32.156  17.786  24.629  1.00  0.00     0.000 A 
ENDBRANCH  14  23
ENDBRANCH   6   8
ENDBRANCH   3   4
ENDBRANCH   2   3
ENDBRANCH   1   2
BRANCH   1  29
ATOM     29  C   UNL A   1      32.741  29.590  25.890  1.00  0.00     0.116 C 
BRANCH  29  30
ATOM     30  N   UNL A   1      32.486  30.919  26.424  1.00  0.00    -0.352 N 
ATOM     31  C   UNL A   1      33.263  31.696  27.254  1.00  0.00     0.251 C 
ATOM     32  H   UNL A   1      31.630  31.322  26.152  1.00  0.00     0.163 HD
ATOM     33  O   UNL A   1      32.857  32.802  27.607  1.00  0.00    -0.269 OA
BRANCH  31  34
ATOM     34  C   UNL A   1      34.552  31.188  27.781  1.00  0.00     0.039 A 
ATOM     35  C   UNL A   1      35.591  32.099  27.997  1.00  0.00     0.014 A 
ATOM     36  C   UNL A   1      34.742  29.838  28.088  1.00  0.00     0.014 A 
ATOM     37  C   UNL A   1      36.774  31.678  28.611  1.00  0.00     0.010 A 
ATOM     38  C   UNL A   1      35.892  29.434  28.769  1.00  0.00     0.010 A 
ATOM     39  C   UNL A   1      36.917  30.351  29.050  1.00  0.00    -0.014 A 
BRANCH  39  40
ATOM     40  C   UNL A   1      38.122  29.922  29.812  1.00  0.00     0.031 A 
ATOM     41  C   UNL A   1      38.381  30.451  31.196  1.00  0.00     0.074 A 
ATOM     42  C   UNL A   1      39.014  29.086  29.241  1.00  0.00     0.049 A 
ATOM     43  N   UNL A   1      39.392  30.220  31.998  1.00  0.00    -0.248 NA
ATOM     44  C   UNL A   1      37.384  31.383  31.745  1.00  0.00     0.031 C 
ATOM     45  C   UNL A   1      38.917  28.544  27.884  1.00  0.00     0.029 A 
ATOM     46  N   UNL A   1      40.183  28.552  29.727  1.00  0.00    -0.354 N 
ATOM     47  C   UNL A   1      39.152  30.974  33.139  1.00  0.00     0.074 A 
ATOM     48  C   UNL A   1      37.935  31.721  32.902  1.00  0.00     0.031 C 
ATOM     49  C   UNL A   1      39.968  27.739  27.655  1.00  0.00     0.029 A 
ATOM     50  C   UNL A   1      40.828  27.728  28.834  1.00  0.00     0.049 A 
ATOM     51  H   UNL A   1      40.527  28.740  30.630  1.00  0.00     0.167 HD
ATOM     52  C   UNL A   1      39.860  31.018  34.292  1.00  0.00     0.037 A 
ATOM     53  C   UNL A   1      41.980  27.041  28.954  1.00  0.00     0.037 A 
ATOM     54  C   UNL A   1      41.067  30.271  34.539  1.00  0.00     0.049 A 
ATOM     55  C   UNL A   1      42.740  27.096  30.254  1.00  0.00     0.074 A 
ATOM     56  C   UNL A   1      41.855  30.248  35.677  1.00  0.00     0.029 A 
ATOM     57  N   UNL A   1      41.657  29.407  33.629  1.00  0.00    -0.354 N 
ATOM     58  N   UNL A   1      42.471  27.773  31.343  1.00  0.00    -0.248 NA
ATOM     59  C   UNL A   1      43.956  26.274  30.345  1.00  0.00     0.031 C 
ATOM     60  C   UNL A   1      42.935  29.388  35.448  1.00  0.00     0.029 A 
ATOM     61  C   UNL A   1      42.795  28.842  34.183  1.00  0.00     0.049 A 
ATOM     62  H   UNL A   1      41.318  29.222  32.723  1.00  0.00     0.167 HD
ATOM     63  C   UNL A   1      43.456  27.430  32.259  1.00  0.00     0.074 A 
ATOM     64  C   UNL A   1      44.321  26.472  31.603  1.00  0.00     0.031 C 
ATOM     65  C   UNL A   1      43.631  27.869  33.529  1.00  0.00     0.037 A 
BRANCH  52  66
ATOM     66  C   UNL A   1      39.331  31.892  35.393  1.00  0.00     0.064 A 
ATOM     67  C   UNL A   1      38.511  31.369  36.406  1.00  0.00     0.173 A 
ATOM     68  C   UNL A   1      39.670  33.252  35.461  1.00  0.00     0.173 A 
ATOM     69  F   UNL A   1      38.148  30.077  36.379  1.00  0.00    -0.203 F 
ATOM     70  C   UNL A   1      38.028  32.179  37.428  1.00  0.00     0.198 A 
ATOM     71  C   UNL A   1      39.209  34.053  36.503  1.00  0.00     0.198 A 
ATOM     72  F   UNL A   1      40.455  33.801  34.523  1.00  0.00    -0.203 F 
ATOM     73  F   UNL A   1      37.209  31.666  38.357  1.00  0.00    -0.200 F 
ATOM     74  C   UNL A   1      38.383  33.519  37.481  1.00  0.00     0.200 A 
ATOM     75  F   UNL A   1      39.563  35.344  36.561  1.00  0.00    -0.200 F 
ATOM     76  F   UNL A   1      37.924  34.296  38.471  1.00  0.00    -0.200 F 
ENDBRANCH  52  66
BRANCH  53  77
ATOM     77  C   UNL A   1      42.480  26.210  27.825  1.00  0.00     0.064 A 
ATOM     78  C   UNL A   1      43.453  26.700  26.943  1.00  0.00     0.173 A 
ATOM     79  C   UNL A   1      41.967  24.928  27.583  1.00  0.00     0.173 A 
ATOM     80  F   UNL A   1      43.959  27.930  27.120  1.00  0.00    -0.203 F 
ATOM     81  C   UNL A   1      43.866  25.956  25.840  1.00  0.00     0.198 A 
ATOM     82  C   UNL A   1      42.405  24.171  26.497  1.00  0.00     0.198 A 
ATOM     83  F   UNL A   1      41.040  24.409  28.400  1.00  0.00    -0.203 F 
ATOM     84  F   UNL A   1      44.751  26.476  24.976  1.00  0.00    -0.200 F 
ATOM     85  C   UNL A   1      43.344  24.691  25.620  1.00  0.00     0.200 A 
ATOM     86  F   UNL A   1      41.908  22.944  26.295  1.00  0.00    -0.200 F 
ATOM     87  F   UNL A   1      43.737  23.978  24.554  1.00  0.00    -0.200 F 
ENDBRANCH  53  77
BRANCH  65  88
ATOM     88  C   UNL A   1      44.763  27.271  34.313  1.00  0.00     0.064 A 
ATOM     89  C   UNL A   1      46.042  27.847  34.325  1.00  0.00     0.173 A 
ATOM     90  C   UNL A   1      44.558  26.111  35.075  1.00  0.00     0.173 A 
ATOM     91  F   UNL A   1      46.294  28.949  33.602  1.00  0.00    -0.203 F 
ATOM     92  C   UNL A   1      47.083  27.262  35.042  1.00  0.00     0.198 A 
ATOM     93  C   UNL A   1      45.593  25.547  35.815  1.00  0.00     0.198 A 
ATOM     94  F   UNL A   1      43.351  25.525  35.104  1.00  0.00    -0.203 F 
ATOM     95  F   UNL A   1      48.311  27.797  34.992  1.00  0.00    -0.200 F 
ATOM     96  C   UNL A   1      46.857  26.116  35.790  1.00  0.00     0.200 A 
ATOM     97  F   UNL A   1      45.370  24.446  36.547  1.00  0.00    -0.200 F 
ATOM     98  F   UNL A   1      47.860  25.554  36.477  1.00  0.00    -0.200 F 
ENDBRANCH  65  88
ENDBRANCH  39  40
ENDBRANCH  31  34
ENDBRANCH  29  30
ENDBRANCH   1  29
TORSDOF 13
ENDMDL
