MODEL 1
REMARK VINA RESULT:     -13.1      0.000      0.000
REMARK SMILES Cc1ccc(C(=O)[C@@H](C)[C@H](C)C(=O)NCCCCNC(=O)c2ccc(-c3c4nc(c(-c5c(F)c(F)c(F)c(F)c5F)c5ccc([nH]5)c(-c5c(F)c(F)c(F)c(F)c5F)c5nc(c(-c6c(F)c(F)c(F)c(F)c6F)c6ccc3[nH]6)C=C5)C=C4)cc2)cc1
REMARK SMILES IDX 16 1 15 2 14 3 12 4 13 5 10 7 11 8 8 9 9 10 6 11 7 12 5 13
REMARK SMILES IDX 1 14 2 15 3 16 86 17 4 18 85 19 17 20 18 21 19 22 20 23
REMARK SMILES IDX 21 25 22 26 23 27 84 28 24 29 83 30 25 31 26 32 27 33 77 34
REMARK SMILES IDX 28 35 82 36 76 37 78 38 29 39 81 40 75 41 74 42 30 44 62 45
REMARK SMILES IDX 42 46 61 47 43 48 46 49 60 50 79 51 44 52 45 53 59 55 80 56
REMARK SMILES IDX 47 57 31 58 32 59 40 60 33 61 34 62 38 63 41 64 35 65 36 66
REMARK SMILES IDX 39 67 37 68 63 69 64 70 72 71 65 72 66 73 70 74 73 75 67 76
REMARK SMILES IDX 68 77 71 78 69 79 48 80 49 81 57 82 50 83 51 84 55 85 58 86
REMARK SMILES IDX 52 87 53 88 56 89 54 90
REMARK H PARENT 14 6 19 24 78 43 46 54
REMARK Flexibility Score: inf
ROOT
ATOM      1  C   UNL A   1      31.831  29.334  26.632  1.00  0.00     0.023 C 
ENDROOT
BRANCH   1   2
ATOM      2  C   UNL A   1      31.999  27.977  27.322  1.00  0.00     0.116 C 
BRANCH   2   3
ATOM      3  N   UNL A   1      31.033  26.975  26.882  1.00  0.00    -0.356 N 
ATOM      4  C   UNL A   1      30.746  26.229  25.794  1.00  0.00     0.223 C 
ATOM      5  O   UNL A   1      29.843  25.399  25.987  1.00  0.00    -0.275 OA
ATOM      6  H   UNL A   1      30.390  26.785  27.603  1.00  0.00     0.163 HD
BRANCH   4   7
ATOM      7  C   UNL A   1      31.358  26.308  24.384  1.00  0.00     0.086 C 
ATOM      8  C   UNL A   1      30.607  27.273  23.469  1.00  0.00     0.019 C 
BRANCH   7   9
ATOM      9  C   UNL A   1      32.899  26.158  24.216  1.00  0.00     0.070 C 
ATOM     10  C   UNL A   1      33.664  27.400  23.768  1.00  0.00     0.017 C 
BRANCH   9  11
ATOM     11  C   UNL A   1      33.478  24.868  23.587  1.00  0.00     0.166 C 
ATOM     12  O   UNL A   1      32.900  24.338  22.636  1.00  0.00    -0.294 OA
BRANCH  11  13
ATOM     13  C   UNL A   1      34.703  24.193  24.112  1.00  0.00     0.018 A 
ATOM     14  C   UNL A   1      38.196  22.141  25.628  1.00  0.00     0.044 C 
ATOM     15  C   UNL A   1      36.977  22.848  25.116  1.00  0.00    -0.051 A 
ATOM     16  C   UNL A   1      36.238  23.709  25.935  1.00  0.00     0.004 A 
ATOM     17  C   UNL A   1      36.566  22.663  23.801  1.00  0.00     0.004 A 
ATOM     18  C   UNL A   1      35.106  24.376  25.438  1.00  0.00     0.012 A 
ATOM     19  C   UNL A   1      35.445  23.335  23.318  1.00  0.00     0.012 A 
ENDBRANCH  11  13
ENDBRANCH   9  11
ENDBRANCH   7   9
ENDBRANCH   4   7
ENDBRANCH   2   3
ENDBRANCH   1   2
BRANCH   1  20
ATOM     20  C   UNL A   1      32.827  30.460  26.986  1.00  0.00     0.023 C 
BRANCH  20  21
ATOM     21  C   UNL A   1      34.146  30.043  27.631  1.00  0.00     0.116 C 
BRANCH  21  22
ATOM     22  N   UNL A   1      34.719  31.047  28.530  1.00  0.00    -0.352 N 
ATOM     23  C   UNL A   1      35.973  31.085  29.130  1.00  0.00     0.251 C 
ATOM     24  H   UNL A   1      34.128  31.806  28.742  1.00  0.00     0.163 HD
ATOM     25  O   UNL A   1      36.355  32.097  29.690  1.00  0.00    -0.269 OA
BRANCH  23  26
ATOM     26  C   UNL A   1      36.886  29.920  28.994  1.00  0.00     0.039 A 
ATOM     27  C   UNL A   1      37.095  29.064  30.083  1.00  0.00     0.014 A 
ATOM     28  C   UNL A   1      37.629  29.752  27.835  1.00  0.00     0.014 A 
ATOM     29  C   UNL A   1      38.209  28.219  30.085  1.00  0.00     0.010 A 
ATOM     30  C   UNL A   1      38.806  29.039  27.892  1.00  0.00     0.010 A 
ATOM     31  C   UNL A   1      39.126  28.309  29.039  1.00  0.00    -0.014 A 
BRANCH  31  32
ATOM     32  C   UNL A   1      40.473  27.748  29.059  1.00  0.00     0.031 A 
ATOM     33  C   UNL A   1      40.703  26.337  28.675  1.00  0.00     0.074 A 
ATOM     34  C   UNL A   1      41.518  28.588  29.237  1.00  0.00     0.049 A 
ATOM     35  N   UNL A   1      41.809  25.697  28.852  1.00  0.00    -0.248 NA
ATOM     36  C   UNL A   1      39.666  25.521  28.057  1.00  0.00     0.031 C 
ATOM     37  C   UNL A   1      42.928  28.332  28.960  1.00  0.00     0.029 A 
ATOM     38  N   UNL A   1      41.518  29.815  29.923  1.00  0.00    -0.354 N 
ATOM     39  C   UNL A   1      41.720  24.493  28.190  1.00  0.00     0.074 A 
ATOM     40  C   UNL A   1      40.356  24.428  27.720  1.00  0.00     0.031 C 
ATOM     41  C   UNL A   1      43.671  29.152  29.721  1.00  0.00     0.029 A 
ATOM     42  C   UNL A   1      42.757  29.847  30.612  1.00  0.00     0.049 A 
ATOM     43  H   UNL A   1      40.813  30.502  29.925  1.00  0.00     0.167 HD
ATOM     44  C   UNL A   1      42.842  23.727  28.044  1.00  0.00     0.037 A 
ATOM     45  C   UNL A   1      42.781  29.769  31.975  1.00  0.00     0.037 A 
ATOM     46  C   UNL A   1      43.966  24.296  28.786  1.00  0.00     0.049 A 
ATOM     47  C   UNL A   1      43.459  28.532  32.527  1.00  0.00     0.074 A 
ATOM     48  C   UNL A   1      45.029  25.121  28.458  1.00  0.00     0.029 A 
ATOM     49  N   UNL A   1      43.908  24.276  30.168  1.00  0.00    -0.354 N 
ATOM     50  N   UNL A   1      43.908  27.547  31.799  1.00  0.00    -0.248 NA
ATOM     51  C   UNL A   1      43.591  28.270  33.962  1.00  0.00     0.031 C 
ATOM     52  C   UNL A   1      45.563  25.653  29.668  1.00  0.00     0.029 A 
ATOM     53  C   UNL A   1      44.833  25.138  30.724  1.00  0.00     0.049 A 
ATOM     54  H   UNL A   1      43.287  23.718  30.690  1.00  0.00     0.167 HD
ATOM     55  C   UNL A   1      44.338  26.542  32.619  1.00  0.00     0.074 A 
ATOM     56  C   UNL A   1      44.121  27.036  33.965  1.00  0.00     0.031 C 
ATOM     57  C   UNL A   1      44.814  25.353  32.157  1.00  0.00     0.037 A 
BRANCH  44  58
ATOM     58  C   UNL A   1      42.982  22.563  27.091  1.00  0.00     0.064 A 
ATOM     59  C   UNL A   1      42.212  21.392  27.273  1.00  0.00     0.173 A 
ATOM     60  C   UNL A   1      43.876  22.509  26.005  1.00  0.00     0.173 A 
ATOM     61  F   UNL A   1      41.254  21.324  28.207  1.00  0.00    -0.203 F 
ATOM     62  C   UNL A   1      42.400  20.239  26.504  1.00  0.00     0.198 A 
ATOM     63  C   UNL A   1      44.110  21.338  25.276  1.00  0.00     0.198 A 
ATOM     64  F   UNL A   1      44.505  23.605  25.564  1.00  0.00    -0.203 F 
ATOM     65  F   UNL A   1      41.633  19.162  26.723  1.00  0.00    -0.200 F 
ATOM     66  C   UNL A   1      43.376  20.200  25.531  1.00  0.00     0.200 A 
ATOM     67  F   UNL A   1      45.048  21.329  24.318  1.00  0.00    -0.200 F 
ATOM     68  F   UNL A   1      43.589  19.081  24.824  1.00  0.00    -0.200 F 
ENDBRANCH  44  58
BRANCH  45  69
ATOM     69  C   UNL A   1      41.616  30.453  32.601  1.00  0.00     0.064 A 
ATOM     70  C   UNL A   1      41.594  31.862  32.604  1.00  0.00     0.173 A 
ATOM     71  C   UNL A   1      40.406  29.787  32.820  1.00  0.00     0.173 A 
ATOM     72  F   UNL A   1      42.729  32.551  32.402  1.00  0.00    -0.203 F 
ATOM     73  C   UNL A   1      40.396  32.566  32.679  1.00  0.00     0.198 A 
ATOM     74  C   UNL A   1      39.209  30.498  32.915  1.00  0.00     0.198 A 
ATOM     75  F   UNL A   1      40.355  28.447  32.813  1.00  0.00    -0.203 F 
ATOM     76  F   UNL A   1      40.393  33.898  32.558  1.00  0.00    -0.200 F 
ATOM     77  C   UNL A   1      39.200  31.880  32.800  1.00  0.00     0.200 A 
ATOM     78  F   UNL A   1      38.048  29.834  33.012  1.00  0.00    -0.200 F 
ATOM     79  F   UNL A   1      38.036  32.546  32.759  1.00  0.00    -0.200 F 
ENDBRANCH  45  69
BRANCH  57  80
ATOM     80  C   UNL A   1      45.313  24.295  33.082  1.00  0.00     0.064 A 
ATOM     81  C   UNL A   1      44.496  23.223  33.471  1.00  0.00     0.173 A 
ATOM     82  C   UNL A   1      46.580  24.384  33.686  1.00  0.00     0.173 A 
ATOM     83  F   UNL A   1      43.263  23.086  32.959  1.00  0.00    -0.203 F 
ATOM     84  C   UNL A   1      44.934  22.276  34.395  1.00  0.00     0.198 A 
ATOM     85  C   UNL A   1      46.998  23.462  34.641  1.00  0.00     0.198 A 
ATOM     86  F   UNL A   1      47.441  25.355  33.345  1.00  0.00    -0.203 F 
ATOM     87  F   UNL A   1      44.144  21.240  34.711  1.00  0.00    -0.200 F 
ATOM     88  C   UNL A   1      46.178  22.404  34.990  1.00  0.00     0.200 A 
ATOM     89  F   UNL A   1      48.199  23.601  35.219  1.00  0.00    -0.200 F 
ATOM     90  F   UNL A   1      46.590  21.502  35.891  1.00  0.00    -0.200 F 
ENDBRANCH  57  80
ENDBRANCH  31  32
ENDBRANCH  23  26
ENDBRANCH  21  22
ENDBRANCH  20  21
ENDBRANCH   1  20
TORSDOF 14
ENDMDL
MODEL 2
REMARK VINA RESULT:     -13.0      3.664     10.158
REMARK SMILES Cc1ccc(C(=O)[C@@H](C)[C@H](C)C(=O)NCCCCNC(=O)c2ccc(-c3c4nc(c(-c5c(F)c(F)c(F)c(F)c5F)c5ccc([nH]5)c(-c5c(F)c(F)c(F)c(F)c5F)c5nc(c(-c6c(F)c(F)c(F)c(F)c6F)c6ccc3[nH]6)C=C5)C=C4)cc2)cc1
REMARK SMILES IDX 16 1 15 2 14 3 12 4 13 5 10 7 11 8 8 9 9 10 6 11 7 12 5 13
REMARK SMILES IDX 1 14 2 15 3 16 86 17 4 18 85 19 17 20 18 21 19 22 20 23
REMARK SMILES IDX 21 25 22 26 23 27 84 28 24 29 83 30 25 31 26 32 27 33 77 34
REMARK SMILES IDX 28 35 82 36 76 37 78 38 29 39 81 40 75 41 74 42 30 44 62 45
REMARK SMILES IDX 42 46 61 47 43 48 46 49 60 50 79 51 44 52 45 53 59 55 80 56
REMARK SMILES IDX 47 57 31 58 32 59 40 60 33 61 34 62 38 63 41 64 35 65 36 66
REMARK SMILES IDX 39 67 37 68 63 69 64 70 72 71 65 72 66 73 70 74 73 75 67 76
REMARK SMILES IDX 68 77 71 78 69 79 48 80 49 81 57 82 50 83 51 84 55 85 58 86
REMARK SMILES IDX 52 87 53 88 56 89 54 90
REMARK H PARENT 14 6 19 24 78 43 46 54
REMARK Flexibility Score: inf
ROOT
ATOM      1  C   UNL A   1      36.312  21.899  24.580  1.00  0.00     0.023 C 
ENDROOT
BRANCH   1   2
ATOM      2  C   UNL A   1      35.097  21.185  25.182  1.00  0.00     0.116 C 
BRANCH   2   3
ATOM      3  N   UNL A   1      33.882  21.331  24.387  1.00  0.00    -0.356 N 
ATOM      4  C   UNL A   1      33.074  22.301  23.909  1.00  0.00     0.223 C 
ATOM      5  O   UNL A   1      32.191  21.879  23.146  1.00  0.00    -0.275 OA
ATOM      6  H   UNL A   1      33.547  20.446  24.115  1.00  0.00     0.163 HD
BRANCH   4   7
ATOM      7  C   UNL A   1      33.096  23.810  24.216  1.00  0.00     0.086 C 
ATOM      8  C   UNL A   1      33.985  24.594  23.254  1.00  0.00     0.019 C 
BRANCH   7   9
ATOM      9  C   UNL A   1      31.811  24.489  24.775  1.00  0.00     0.070 C 
ATOM     10  C   UNL A   1      31.007  25.343  23.798  1.00  0.00     0.017 C 
BRANCH   9  11
ATOM     11  C   UNL A   1      31.824  25.100  26.196  1.00  0.00     0.166 C 
ATOM     12  O   UNL A   1      31.422  24.434  27.153  1.00  0.00    -0.294 OA
BRANCH  11  13
ATOM     13  C   UNL A   1      32.267  26.500  26.469  1.00  0.00     0.018 A 
ATOM     14  C   UNL A   1      33.484  30.590  27.179  1.00  0.00     0.044 C 
ATOM     15  C   UNL A   1      33.069  29.173  26.917  1.00  0.00    -0.051 A 
ATOM     16  C   UNL A   1      33.954  28.248  26.353  1.00  0.00     0.004 A 
ATOM     17  C   UNL A   1      31.786  28.752  27.247  1.00  0.00     0.004 A 
ATOM     18  C   UNL A   1      33.556  26.920  26.128  1.00  0.00     0.012 A 
ATOM     19  C   UNL A   1      31.404  27.431  27.024  1.00  0.00     0.012 A 
ENDBRANCH  11  13
ENDBRANCH   9  11
ENDBRANCH   7   9
ENDBRANCH   4   7
ENDBRANCH   2   3
ENDBRANCH   1   2
BRANCH   1  20
ATOM     20  C   UNL A   1      37.673  21.748  25.293  1.00  0.00     0.023 C 
BRANCH  20  21
ATOM     21  C   UNL A   1      38.302  23.016  25.866  1.00  0.00     0.116 C 
BRANCH  21  22
ATOM     22  N   UNL A   1      39.739  22.910  26.125  1.00  0.00    -0.352 N 
ATOM     23  C   UNL A   1      40.600  23.822  26.727  1.00  0.00     0.251 C 
ATOM     24  H   UNL A   1      40.158  22.069  25.829  1.00  0.00     0.163 HD
ATOM     25  O   UNL A   1      41.727  23.486  27.041  1.00  0.00    -0.269 OA
BRANCH  23  26
ATOM     26  C   UNL A   1      40.101  25.177  27.078  1.00  0.00     0.039 A 
ATOM     27  C   UNL A   1      40.548  26.296  26.363  1.00  0.00     0.014 A 
ATOM     28  C   UNL A   1      39.295  25.352  28.193  1.00  0.00     0.014 A 
ATOM     29  C   UNL A   1      40.389  27.570  26.915  1.00  0.00     0.010 A 
ATOM     30  C   UNL A   1      39.269  26.582  28.814  1.00  0.00     0.010 A 
ATOM     31  C   UNL A   1      39.861  27.688  28.199  1.00  0.00    -0.014 A 
BRANCH  31  32
ATOM     32  C   UNL A   1      39.936  28.888  29.026  1.00  0.00     0.031 A 
ATOM     33  C   UNL A   1      38.889  29.930  28.931  1.00  0.00     0.074 A 
ATOM     34  C   UNL A   1      40.859  28.934  30.013  1.00  0.00     0.049 A 
ATOM     35  N   UNL A   1      38.968  31.103  29.460  1.00  0.00    -0.248 NA
ATOM     36  C   UNL A   1      37.647  29.719  28.198  1.00  0.00     0.031 C 
ATOM     37  C   UNL A   1      40.903  29.843  31.155  1.00  0.00     0.029 A 
ATOM     38  N   UNL A   1      42.095  28.265  30.058  1.00  0.00    -0.354 N 
ATOM     39  C   UNL A   1      37.738  31.712  29.343  1.00  0.00     0.074 A 
ATOM     40  C   UNL A   1      36.952  30.809  28.536  1.00  0.00     0.031 C 
ATOM     41  C   UNL A   1      42.172  29.931  31.586  1.00  0.00     0.029 A 
ATOM     42  C   UNL A   1      42.993  29.198  30.637  1.00  0.00     0.049 A 
ATOM     43  H   UNL A   1      42.294  27.351  29.752  1.00  0.00     0.167 HD
ATOM     44  C   UNL A   1      37.503  32.876  30.019  1.00  0.00     0.037 A 
ATOM     45  C   UNL A   1      43.993  29.741  29.883  1.00  0.00     0.037 A 
ATOM     46  C   UNL A   1      38.720  33.363  30.664  1.00  0.00     0.049 A 
ATOM     47  C   UNL A   1      43.887  31.238  29.676  1.00  0.00     0.074 A 
ATOM     48  C   UNL A   1      39.254  33.255  31.938  1.00  0.00     0.029 A 
ATOM     49  N   UNL A   1      39.745  33.823  29.857  1.00  0.00    -0.354 N 
ATOM     50  N   UNL A   1      42.889  31.973  30.081  1.00  0.00    -0.248 NA
ATOM     51  C   UNL A   1      44.866  32.005  28.901  1.00  0.00     0.031 C 
ATOM     52  C   UNL A   1      40.638  33.591  31.865  1.00  0.00     0.029 A 
ATOM     53  C   UNL A   1      40.934  33.915  30.554  1.00  0.00     0.049 A 
ATOM     54  H   UNL A   1      39.640  34.057  28.907  1.00  0.00     0.167 HD
ATOM     55  C   UNL A   1      43.052  33.247  29.617  1.00  0.00     0.074 A 
ATOM     56  C   UNL A   1      44.302  33.224  28.883  1.00  0.00     0.031 C 
ATOM     57  C   UNL A   1      42.145  34.241  29.828  1.00  0.00     0.037 A 
BRANCH  44  58
ATOM     58  C   UNL A   1      36.140  33.487  30.250  1.00  0.00     0.064 A 
ATOM     59  C   UNL A   1      35.402  34.020  29.169  1.00  0.00     0.173 A 
ATOM     60  C   UNL A   1      35.516  33.619  31.504  1.00  0.00     0.173 A 
ATOM     61  F   UNL A   1      35.822  33.889  27.904  1.00  0.00    -0.203 F 
ATOM     62  C   UNL A   1      34.201  34.714  29.346  1.00  0.00     0.198 A 
ATOM     63  C   UNL A   1      34.348  34.367  31.691  1.00  0.00     0.198 A 
ATOM     64  F   UNL A   1      35.971  32.972  32.583  1.00  0.00    -0.203 F 
ATOM     65  F   UNL A   1      33.545  35.191  28.279  1.00  0.00    -0.200 F 
ATOM     66  C   UNL A   1      33.694  34.922  30.612  1.00  0.00     0.200 A 
ATOM     67  F   UNL A   1      33.860  34.537  32.928  1.00  0.00    -0.200 F 
ATOM     68  F   UNL A   1      32.568  35.627  30.788  1.00  0.00    -0.200 F 
ENDBRANCH  44  58
BRANCH  45  69
ATOM     69  C   UNL A   1      44.534  28.779  28.883  1.00  0.00     0.064 A 
ATOM     70  C   UNL A   1      45.316  27.703  29.351  1.00  0.00     0.173 A 
ATOM     71  C   UNL A   1      43.991  28.673  27.599  1.00  0.00     0.173 A 
ATOM     72  F   UNL A   1      45.863  27.755  30.576  1.00  0.00    -0.203 F 
ATOM     73  C   UNL A   1      45.428  26.523  28.622  1.00  0.00     0.198 A 
ATOM     74  C   UNL A   1      44.125  27.495  26.864  1.00  0.00     0.198 A 
ATOM     75  F   UNL A   1      43.224  29.655  27.101  1.00  0.00    -0.203 F 
ATOM     76  F   UNL A   1      46.077  25.474  29.144  1.00  0.00    -0.200 F 
ATOM     77  C   UNL A   1      44.803  26.407  27.394  1.00  0.00     0.200 A 
ATOM     78  F   UNL A   1      43.502  27.375  25.682  1.00  0.00    -0.200 F 
ATOM     79  F   UNL A   1      44.814  25.235  26.742  1.00  0.00    -0.200 F 
ENDBRANCH  45  69
BRANCH  57  80
ATOM     80  C   UNL A   1      42.377  35.631  29.341  1.00  0.00     0.064 A 
ATOM     81  C   UNL A   1      41.827  36.081  28.131  1.00  0.00     0.173 A 
ATOM     82  C   UNL A   1      43.241  36.512  30.016  1.00  0.00     0.173 A 
ATOM     83  F   UNL A   1      41.014  35.288  27.416  1.00  0.00    -0.203 F 
ATOM     84  C   UNL A   1      42.106  37.354  27.637  1.00  0.00     0.198 A 
ATOM     85  C   UNL A   1      43.553  37.766  29.498  1.00  0.00     0.198 A 
ATOM     86  F   UNL A   1      43.782  36.179  31.198  1.00  0.00    -0.203 F 
ATOM     87  F   UNL A   1      41.528  37.767  26.501  1.00  0.00    -0.200 F 
ATOM     88  C   UNL A   1      42.979  38.190  28.313  1.00  0.00     0.200 A 
ATOM     89  F   UNL A   1      44.409  38.563  30.154  1.00  0.00    -0.200 F 
ATOM     90  F   UNL A   1      43.260  39.406  27.828  1.00  0.00    -0.200 F 
ENDBRANCH  57  80
ENDBRANCH  31  32
ENDBRANCH  23  26
ENDBRANCH  21  22
ENDBRANCH  20  21
ENDBRANCH   1  20
TORSDOF 14
ENDMDL
MODEL 3
REMARK VINA RESULT:     -12.8      1.372      2.983
REMARK SMILES Cc1ccc(C(=O)[C@@H](C)[C@H](C)C(=O)NCCCCNC(=O)c2ccc(-c3c4nc(c(-c5c(F)c(F)c(F)c(F)c5F)c5ccc([nH]5)c(-c5c(F)c(F)c(F)c(F)c5F)c5nc(c(-c6c(F)c(F)c(F)c(F)c6F)c6ccc3[nH]6)C=C5)C=C4)cc2)cc1
REMARK SMILES IDX 16 1 15 2 14 3 12 4 13 5 10 7 11 8 8 9 9 10 6 11 7 12 5 13
REMARK SMILES IDX 1 14 2 15 3 16 86 17 4 18 85 19 17 20 18 21 19 22 20 23
REMARK SMILES IDX 21 25 22 26 23 27 84 28 24 29 83 30 25 31 26 32 27 33 77 34
REMARK SMILES IDX 28 35 82 36 76 37 78 38 29 39 81 40 75 41 74 42 30 44 62 45
REMARK SMILES IDX 42 46 61 47 43 48 46 49 60 50 79 51 44 52 45 53 59 55 80 56
REMARK SMILES IDX 47 57 31 58 32 59 40 60 33 61 34 62 38 63 41 64 35 65 36 66
REMARK SMILES IDX 39 67 37 68 63 69 64 70 72 71 65 72 66 73 70 74 73 75 67 76
REMARK SMILES IDX 68 77 71 78 69 79 48 80 49 81 57 82 50 83 51 84 55 85 58 86
REMARK SMILES IDX 52 87 53 88 56 89 54 90
REMARK H PARENT 14 6 19 24 78 43 46 54
REMARK Flexibility Score: inf
ROOT
ATOM      1  C   UNL A   1      32.697  27.932  26.573  1.00  0.00     0.023 C 
ENDROOT
BRANCH   1   2
ATOM      2  C   UNL A   1      31.449  27.055  26.431  1.00  0.00     0.116 C 
BRANCH   2   3
ATOM      3  N   UNL A   1      31.725  25.626  26.546  1.00  0.00    -0.356 N 
ATOM      4  C   UNL A   1      32.580  24.700  26.061  1.00  0.00     0.223 C 
ATOM      5  O   UNL A   1      32.462  23.588  26.597  1.00  0.00    -0.275 OA
ATOM      6  H   UNL A   1      31.092  25.207  27.171  1.00  0.00     0.163 HD
BRANCH   4   7
ATOM      7  C   UNL A   1      33.621  24.847  24.936  1.00  0.00     0.086 C 
ATOM      8  C   UNL A   1      35.027  24.449  25.380  1.00  0.00     0.019 C 
BRANCH   7   9
ATOM      9  C   UNL A   1      33.192  24.574  23.464  1.00  0.00     0.070 C 
ATOM     10  C   UNL A   1      33.839  23.376  22.772  1.00  0.00     0.017 C 
BRANCH   9  11
ATOM     11  C   UNL A   1      32.994  25.761  22.492  1.00  0.00     0.166 C 
ATOM     12  O   UNL A   1      33.652  25.816  21.450  1.00  0.00    -0.294 OA
BRANCH  11  13
ATOM     13  C   UNL A   1      32.061  26.891  22.777  1.00  0.00     0.018 A 
ATOM     14  C   UNL A   1      29.312  30.152  23.499  1.00  0.00     0.044 C 
ATOM     15  C   UNL A   1      30.271  29.031  23.236  1.00  0.00    -0.051 A 
ATOM     16  C   UNL A   1      31.637  29.270  23.051  1.00  0.00     0.004 A 
ATOM     17  C   UNL A   1      29.812  27.719  23.184  1.00  0.00     0.004 A 
ATOM     18  C   UNL A   1      32.527  28.209  22.820  1.00  0.00     0.012 A 
ATOM     19  C   UNL A   1      30.705  26.674  22.960  1.00  0.00     0.012 A 
ENDBRANCH  11  13
ENDBRANCH   9  11
ENDBRANCH   7   9
ENDBRANCH   4   7
ENDBRANCH   2   3
ENDBRANCH   1   2
BRANCH   1  20
ATOM     20  C   UNL A   1      32.547  29.306  27.264  1.00  0.00     0.023 C 
BRANCH  20  21
ATOM     21  C   UNL A   1      33.553  30.388  26.884  1.00  0.00     0.116 C 
BRANCH  21  22
ATOM     22  N   UNL A   1      33.830  31.352  27.951  1.00  0.00    -0.352 N 
ATOM     23  C   UNL A   1      34.931  31.446  28.796  1.00  0.00     0.251 C 
ATOM     24  H   UNL A   1      33.133  32.034  28.091  1.00  0.00     0.163 HD
ATOM     25  O   UNL A   1      35.087  32.432  29.493  1.00  0.00    -0.269 OA
BRANCH  23  26
ATOM     26  C   UNL A   1      35.969  30.383  28.767  1.00  0.00     0.039 A 
ATOM     27  C   UNL A   1      36.268  29.663  29.931  1.00  0.00     0.014 A 
ATOM     28  C   UNL A   1      36.732  30.189  27.625  1.00  0.00     0.014 A 
ATOM     29  C   UNL A   1      37.469  28.953  30.007  1.00  0.00     0.010 A 
ATOM     30  C   UNL A   1      37.981  29.621  27.743  1.00  0.00     0.010 A 
ATOM     31  C   UNL A   1      38.375  29.044  28.953  1.00  0.00    -0.014 A 
BRANCH  31  32
ATOM     32  C   UNL A   1      39.777  28.643  29.018  1.00  0.00     0.031 A 
ATOM     33  C   UNL A   1      40.187  27.282  28.603  1.00  0.00     0.074 A 
ATOM     34  C   UNL A   1      40.708  29.591  29.269  1.00  0.00     0.049 A 
ATOM     35  N   UNL A   1      41.351  26.769  28.812  1.00  0.00    -0.248 NA
ATOM     36  C   UNL A   1      39.279  26.373  27.915  1.00  0.00     0.031 C 
ATOM     37  C   UNL A   1      42.149  29.509  29.049  1.00  0.00     0.029 A 
ATOM     38  N   UNL A   1      40.536  30.786  29.989  1.00  0.00    -0.354 N 
ATOM     39  C   UNL A   1      41.432  25.586  28.112  1.00  0.00     0.074 A 
ATOM     40  C   UNL A   1      40.106  25.380  27.578  1.00  0.00     0.031 C 
ATOM     41  C   UNL A   1      42.758  30.383  29.868  1.00  0.00     0.029 A 
ATOM     42  C   UNL A   1      41.733  30.936  30.735  1.00  0.00     0.049 A 
ATOM     43  H   UNL A   1      39.756  31.386  29.979  1.00  0.00     0.167 HD
ATOM     44  C   UNL A   1      42.641  24.960  27.996  1.00  0.00     0.037 A 
ATOM     45  C   UNL A   1      41.708  30.815  32.095  1.00  0.00     0.037 A 
ATOM     46  C   UNL A   1      43.658  25.629  28.805  1.00  0.00     0.049 A 
ATOM     47  C   UNL A   1      42.502  29.646  32.641  1.00  0.00     0.074 A 
ATOM     48  C   UNL A   1      44.630  26.582  28.550  1.00  0.00     0.029 A 
ATOM     49  N   UNL A   1      43.544  25.555  30.181  1.00  0.00    -0.354 N 
ATOM     50  N   UNL A   1      43.093  28.745  31.906  1.00  0.00    -0.248 NA
ATOM     51  C   UNL A   1      42.603  29.352  34.072  1.00  0.00     0.031 C 
ATOM     52  C   UNL A   1      45.046  27.130  29.799  1.00  0.00     0.029 A 
ATOM     53  C   UNL A   1      44.338  26.498  30.804  1.00  0.00     0.049 A 
ATOM     54  H   UNL A   1      42.971  24.911  30.657  1.00  0.00     0.167 HD
ATOM     55  C   UNL A   1      43.603  27.770  32.715  1.00  0.00     0.074 A 
ATOM     56  C   UNL A   1      43.272  28.188  34.063  1.00  0.00     0.031 C 
ATOM     57  C   UNL A   1      44.234  26.660  32.241  1.00  0.00     0.037 A 
BRANCH  44  58
ATOM     58  C   UNL A   1      42.956  23.853  27.016  1.00  0.00     0.064 A 
ATOM     59  C   UNL A   1      42.609  22.516  27.311  1.00  0.00     0.173 A 
ATOM     60  C   UNL A   1      43.630  24.024  25.792  1.00  0.00     0.173 A 
ATOM     61  F   UNL A   1      41.884  22.205  28.394  1.00  0.00    -0.203 F 
ATOM     62  C   UNL A   1      42.996  21.441  26.504  1.00  0.00     0.198 A 
ATOM     63  C   UNL A   1      44.073  22.946  25.017  1.00  0.00     0.198 A 
ATOM     64  F   UNL A   1      43.824  25.239  25.265  1.00  0.00    -0.203 F 
ATOM     65  F   UNL A   1      42.629  20.195  26.836  1.00  0.00    -0.200 F 
ATOM     66  C   UNL A   1      43.762  21.653  25.378  1.00  0.00     0.200 A 
ATOM     67  F   UNL A   1      44.797  23.177  23.913  1.00  0.00    -0.200 F 
ATOM     68  F   UNL A   1      44.174  20.621  24.629  1.00  0.00    -0.200 F 
ENDBRANCH  44  58
BRANCH  45  69
ATOM     69  C   UNL A   1      40.445  31.338  32.687  1.00  0.00     0.064 A 
ATOM     70  C   UNL A   1      40.242  32.733  32.695  1.00  0.00     0.173 A 
ATOM     71  C   UNL A   1      39.325  30.520  32.863  1.00  0.00     0.173 A 
ATOM     72  F   UNL A   1      41.284  33.563  32.534  1.00  0.00    -0.203 F 
ATOM     73  C   UNL A   1      38.961  33.275  32.736  1.00  0.00     0.198 A 
ATOM     74  C   UNL A   1      38.044  31.070  32.924  1.00  0.00     0.198 A 
ATOM     75  F   UNL A   1      39.448  29.184  32.849  1.00  0.00    -0.203 F 
ATOM     76  F   UNL A   1      38.791  34.598  32.621  1.00  0.00    -0.200 F 
ATOM     77  C   UNL A   1      37.860  32.441  32.815  1.00  0.00     0.200 A 
ATOM     78  F   UNL A   1      36.976  30.261  32.981  1.00  0.00    -0.200 F 
ATOM     79  F   UNL A   1      36.622  32.952  32.739  1.00  0.00    -0.200 F 
ENDBRANCH  45  69
BRANCH  57  80
ATOM     80  C   UNL A   1      44.813  25.635  33.156  1.00  0.00     0.064 A 
ATOM     81  C   UNL A   1      46.195  25.395  33.201  1.00  0.00     0.173 A 
ATOM     82  C   UNL A   1      43.994  24.793  33.930  1.00  0.00     0.173 A 
ATOM     83  F   UNL A   1      47.038  26.139  32.468  1.00  0.00    -0.203 F 
ATOM     84  C   UNL A   1      46.730  24.386  33.998  1.00  0.00     0.198 A 
ATOM     85  C   UNL A   1      44.527  23.757  34.691  1.00  0.00     0.198 A 
ATOM     86  F   UNL A   1      42.665  24.975  33.976  1.00  0.00    -0.203 F 
ATOM     87  F   UNL A   1      48.058  24.213  34.050  1.00  0.00    -0.200 F 
ATOM     88  C   UNL A   1      45.895  23.558  34.731  1.00  0.00     0.200 A 
ATOM     89  F   UNL A   1      43.710  22.955  35.388  1.00  0.00    -0.200 F 
ATOM     90  F   UNL A   1      46.410  22.576  35.483  1.00  0.00    -0.200 F 
ENDBRANCH  57  80
ENDBRANCH  31  32
ENDBRANCH  23  26
ENDBRANCH  21  22
ENDBRANCH  20  21
ENDBRANCH   1  20
TORSDOF 14
ENDMDL
