MODEL 1
REMARK VINA RESULT:     -12.9      0.000      0.000
REMARK SMILES O=C(NCCCCNC(=O)c1ccc(-c2c3nc(c(-c4c(F)c(F)c(F)c(F)c4F)c4ccc([nH]4)c(-c4c(F)c(F)c(F)c(F)c4F)c4nc(c(-c5c(F)c(F)c(F)c(F)c5F)c5ccc2[nH]5)C=C4)C=C3)cc1)C1=Cc2cc(C(F)(F)F)ccc2O[C@@H]1C(F)(F)F
REMARK SMILES IDX 6 1 5 2 4 3 3 4 1 5 2 6 74 8 75 9 87 10 76 11 86 12 77 13
REMARK SMILES IDX 85 14 78 15 84 16 83 17 88 18 89 19 90 20 91 21 79 22 80 23
REMARK SMILES IDX 81 24 82 25 7 26 8 27 9 28 10 30 11 31 12 32 73 33 13 34
REMARK SMILES IDX 72 35 14 36 15 37 16 38 66 39 17 40 71 41 65 42 67 43 18 44
REMARK SMILES IDX 70 45 64 46 63 47 19 49 51 50 31 51 50 52 32 53 35 54 49 55
REMARK SMILES IDX 68 56 33 57 34 58 48 60 69 61 36 62 20 63 21 64 29 65 22 66
REMARK SMILES IDX 23 67 27 68 30 69 24 70 25 71 28 72 26 73 52 74 53 75 61 76
REMARK SMILES IDX 54 77 55 78 59 79 62 80 56 81 57 82 60 83 58 84 37 85 38 86
REMARK SMILES IDX 46 87 39 88 40 89 44 90 47 91 41 92 42 93 45 94 43 95
REMARK H PARENT 3 7 8 29 67 48 35 59
REMARK Flexibility Score: inf
ROOT
ATOM      1  C   UNL A   1      31.766  28.586  25.810  1.00  0.00     0.023 C 
ENDROOT
BRANCH   1   2
ATOM      2  C   UNL A   1      31.775  27.350  26.702  1.00  0.00     0.023 C 
BRANCH   2   3
ATOM      3  C   UNL A   1      31.068  26.126  26.126  1.00  0.00     0.116 C 
BRANCH   3   4
ATOM      4  N   UNL A   1      31.305  24.884  26.849  1.00  0.00    -0.352 N 
ATOM      5  O   UNL A   1      32.453  23.064  27.504  1.00  0.00    -0.270 OA
ATOM      6  C   UNL A   1      32.244  23.905  26.634  1.00  0.00     0.251 C 
ATOM      7  H   UNL A   1      30.700  24.722  27.607  1.00  0.00     0.163 HD
BRANCH   6   8
ATOM      8  C   UNL A   1      33.093  23.898  25.409  1.00  0.00     0.067 C 
ATOM      9  C   UNL A   1      34.251  24.573  25.402  1.00  0.00     0.025 C 
ATOM     10  C   UNL A   1      32.931  22.674  24.545  1.00  0.00     0.314 C 
ATOM     11  C   UNL A   1      35.436  23.725  25.235  1.00  0.00     0.018 A 
ATOM     12  O   UNL A   1      34.085  21.794  24.589  1.00  0.00    -0.475 OA
ATOM     13  C   UNL A   1      36.648  24.199  25.752  1.00  0.00     0.025 A 
ATOM     14  C   UNL A   1      35.282  22.363  24.946  1.00  0.00     0.128 A 
ATOM     15  C   UNL A   1      37.679  23.301  26.069  1.00  0.00     0.056 A 
ATOM     16  C   UNL A   1      36.335  21.481  25.170  1.00  0.00     0.048 A 
ATOM     17  C   UNL A   1      37.521  21.942  25.750  1.00  0.00     0.017 A 
BRANCH  10  18
ATOM     18  C   UNL A   1      32.606  23.078  23.094  1.00  0.00     0.429 C 
ATOM     19  F   UNL A   1      32.145  22.022  22.381  1.00  0.00    -0.167 F 
ATOM     20  F   UNL A   1      31.651  24.036  23.039  1.00  0.00    -0.167 F 
ATOM     21  F   UNL A   1      33.690  23.561  22.440  1.00  0.00    -0.167 F 
ENDBRANCH  10  18
BRANCH  15  22
ATOM     22  C   UNL A   1      38.898  23.792  26.816  1.00  0.00     0.416 C 
ATOM     23  F   UNL A   1      38.582  24.454  27.959  1.00  0.00    -0.166 F 
ATOM     24  F   UNL A   1      39.717  22.765  27.185  1.00  0.00    -0.166 F 
ATOM     25  F   UNL A   1      39.673  24.634  26.083  1.00  0.00    -0.166 F 
ENDBRANCH  15  22
ENDBRANCH   6   8
ENDBRANCH   3   4
ENDBRANCH   2   3
ENDBRANCH   1   2
BRANCH   1  26
ATOM     26  C   UNL A   1      32.966  29.524  25.931  1.00  0.00     0.116 C 
BRANCH  26  27
ATOM     27  N   UNL A   1      32.679  30.829  26.512  1.00  0.00    -0.352 N 
ATOM     28  C   UNL A   1      33.480  31.608  27.319  1.00  0.00     0.251 C 
ATOM     29  H   UNL A   1      31.793  31.203  26.301  1.00  0.00     0.163 HD
ATOM     30  O   UNL A   1      33.084  32.693  27.736  1.00  0.00    -0.269 OA
BRANCH  28  31
ATOM     31  C   UNL A   1      34.803  31.098  27.736  1.00  0.00     0.039 A 
ATOM     32  C   UNL A   1      35.830  32.013  27.980  1.00  0.00     0.014 A 
ATOM     33  C   UNL A   1      34.995  29.736  27.982  1.00  0.00     0.014 A 
ATOM     34  C   UNL A   1      37.010  31.577  28.587  1.00  0.00     0.010 A 
ATOM     35  C   UNL A   1      36.135  29.319  28.660  1.00  0.00     0.010 A 
ATOM     36  C   UNL A   1      37.143  30.238  28.992  1.00  0.00    -0.014 A 
BRANCH  36  37
ATOM     37  C   UNL A   1      38.302  29.791  29.806  1.00  0.00     0.031 A 
ATOM     38  C   UNL A   1      38.494  30.312  31.200  1.00  0.00     0.074 A 
ATOM     39  C   UNL A   1      39.231  28.985  29.252  1.00  0.00     0.049 A 
ATOM     40  N   UNL A   1      39.481  30.100  32.035  1.00  0.00    -0.248 NA
ATOM     41  C   UNL A   1      37.457  31.218  31.714  1.00  0.00     0.031 C 
ATOM     42  C   UNL A   1      39.193  28.461  27.886  1.00  0.00     0.029 A 
ATOM     43  N   UNL A   1      40.395  28.472  29.770  1.00  0.00    -0.354 N 
ATOM     44  C   UNL A   1      39.193  30.861  33.158  1.00  0.00     0.074 A 
ATOM     45  C   UNL A   1      37.968  31.580  32.881  1.00  0.00     0.031 C 
ATOM     46  C   UNL A   1      40.262  27.676  27.684  1.00  0.00     0.029 A 
ATOM     47  C   UNL A   1      41.081  27.668  28.893  1.00  0.00     0.049 A 
ATOM     48  H   UNL A   1      40.708  28.664  30.682  1.00  0.00     0.167 HD
ATOM     49  C   UNL A   1      39.877  30.938  34.326  1.00  0.00     0.037 A 
ATOM     50  C   UNL A   1      42.237  26.996  29.049  1.00  0.00     0.037 A 
ATOM     51  C   UNL A   1      41.074  30.195  34.614  1.00  0.00     0.049 A 
ATOM     52  C   UNL A   1      42.967  27.084  30.360  1.00  0.00     0.074 A 
ATOM     53  C   UNL A   1      41.798  30.145  35.793  1.00  0.00     0.029 A 
ATOM     54  N   UNL A   1      41.727  29.370  33.709  1.00  0.00    -0.354 N 
ATOM     55  N   UNL A   1      42.645  27.748  31.444  1.00  0.00    -0.248 NA
ATOM     56  C   UNL A   1      44.223  26.327  30.470  1.00  0.00     0.031 C 
ATOM     57  C   UNL A   1      42.906  29.315  35.590  1.00  0.00     0.029 A 
ATOM     58  C   UNL A   1      42.853  28.819  34.298  1.00  0.00     0.049 A 
ATOM     59  H   UNL A   1      41.431  29.200  32.785  1.00  0.00     0.167 HD
ATOM     60  C   UNL A   1      43.637  27.465  32.372  1.00  0.00     0.074 A 
ATOM     61  C   UNL A   1      44.569  26.562  31.728  1.00  0.00     0.031 C 
ATOM     62  C   UNL A   1      43.763  27.913  33.645  1.00  0.00     0.037 A 
BRANCH  49  63
ATOM     63  C   UNL A   1      39.332  31.855  35.380  1.00  0.00     0.064 A 
ATOM     64  C   UNL A   1      39.669  33.216  35.416  1.00  0.00     0.173 A 
ATOM     65  C   UNL A   1      38.457  31.369  36.363  1.00  0.00     0.173 A 
ATOM     66  F   UNL A   1      40.514  33.725  34.506  1.00  0.00    -0.203 F 
ATOM     67  C   UNL A   1      39.180  34.050  36.417  1.00  0.00     0.198 A 
ATOM     68  C   UNL A   1      37.945  32.213  37.346  1.00  0.00     0.198 A 
ATOM     69  F   UNL A   1      38.099  30.076  36.372  1.00  0.00    -0.203 F 
ATOM     70  F   UNL A   1      39.562  35.334  36.463  1.00  0.00    -0.200 F 
ATOM     71  C   UNL A   1      38.314  33.549  37.377  1.00  0.00     0.200 A 
ATOM     72  F   UNL A   1      37.102  31.730  38.270  1.00  0.00    -0.200 F 
ATOM     73  F   UNL A   1      37.846  34.353  38.342  1.00  0.00    -0.200 F 
ENDBRANCH  49  63
BRANCH  50  74
ATOM     74  C   UNL A   1      42.754  26.140  27.950  1.00  0.00     0.064 A 
ATOM     75  C   UNL A   1      43.613  26.671  26.978  1.00  0.00     0.173 A 
ATOM     76  C   UNL A   1      42.404  24.787  27.844  1.00  0.00     0.173 A 
ATOM     77  F   UNL A   1      43.957  27.967  27.028  1.00  0.00    -0.203 F 
ATOM     78  C   UNL A   1      44.090  25.886  25.931  1.00  0.00     0.198 A 
ATOM     79  C   UNL A   1      42.900  23.996  26.809  1.00  0.00     0.198 A 
ATOM     80  F   UNL A   1      41.588  24.231  28.751  1.00  0.00    -0.203 F 
ATOM     81  F   UNL A   1      44.879  26.430  24.994  1.00  0.00    -0.200 F 
ATOM     82  C   UNL A   1      43.737  24.547  25.850  1.00  0.00     0.200 A 
ATOM     83  F   UNL A   1      42.566  22.700  26.740  1.00  0.00    -0.200 F 
ATOM     84  F   UNL A   1      44.198  23.792  24.845  1.00  0.00    -0.200 F 
ENDBRANCH  50  74
BRANCH  62  85
ATOM     85  C   UNL A   1      44.931  27.404  34.437  1.00  0.00     0.064 A 
ATOM     86  C   UNL A   1      46.148  28.099  34.479  1.00  0.00     0.173 A 
ATOM     87  C   UNL A   1      44.817  26.226  35.190  1.00  0.00     0.173 A 
ATOM     88  F   UNL A   1      46.310  29.222  33.761  1.00  0.00    -0.203 F 
ATOM     89  C   UNL A   1      47.217  27.621  35.230  1.00  0.00     0.198 A 
ATOM     90  C   UNL A   1      45.880  25.764  35.959  1.00  0.00     0.198 A 
ATOM     91  F   UNL A   1      43.672  25.528  35.184  1.00  0.00    -0.203 F 
ATOM     92  F   UNL A   1      48.386  28.277  35.223  1.00  0.00    -0.200 F 
ATOM     93  C   UNL A   1      47.081  26.458  35.975  1.00  0.00     0.200 A 
ATOM     94  F   UNL A   1      45.744  24.646  36.686  1.00  0.00    -0.200 F 
ATOM     95  F   UNL A   1      48.111  26.002  36.701  1.00  0.00    -0.200 F 
ENDBRANCH  62  85
ENDBRANCH  36  37
ENDBRANCH  28  31
ENDBRANCH  26  27
ENDBRANCH   1  26
TORSDOF 13
ENDMDL
MODEL 2
REMARK VINA RESULT:     -12.9      0.229      1.639
REMARK SMILES O=C(NCCCCNC(=O)c1ccc(-c2c3nc(c(-c4c(F)c(F)c(F)c(F)c4F)c4ccc([nH]4)c(-c4c(F)c(F)c(F)c(F)c4F)c4nc(c(-c5c(F)c(F)c(F)c(F)c5F)c5ccc2[nH]5)C=C4)C=C3)cc1)C1=Cc2cc(C(F)(F)F)ccc2O[C@@H]1C(F)(F)F
REMARK SMILES IDX 6 1 5 2 4 3 3 4 1 5 2 6 74 8 75 9 87 10 76 11 86 12 77 13
REMARK SMILES IDX 85 14 78 15 84 16 83 17 88 18 89 19 90 20 91 21 79 22 80 23
REMARK SMILES IDX 81 24 82 25 7 26 8 27 9 28 10 30 11 31 12 32 73 33 13 34
REMARK SMILES IDX 72 35 14 36 15 37 16 38 66 39 17 40 71 41 65 42 67 43 18 44
REMARK SMILES IDX 70 45 64 46 63 47 19 49 51 50 31 51 50 52 32 53 35 54 49 55
REMARK SMILES IDX 68 56 33 57 34 58 48 60 69 61 36 62 20 63 21 64 29 65 22 66
REMARK SMILES IDX 23 67 27 68 30 69 24 70 25 71 28 72 26 73 52 74 53 75 61 76
REMARK SMILES IDX 54 77 55 78 59 79 62 80 56 81 57 82 60 83 58 84 37 85 38 86
REMARK SMILES IDX 46 87 39 88 40 89 44 90 47 91 41 92 42 93 45 94 43 95
REMARK H PARENT 3 7 8 29 67 48 35 59
REMARK Flexibility Score: inf
ROOT
ATOM      1  C   UNL A   1      31.732  28.716  26.061  1.00  0.00     0.023 C 
ENDROOT
BRANCH   1   2
ATOM      2  C   UNL A   1      31.802  27.407  26.839  1.00  0.00     0.023 C 
BRANCH   2   3
ATOM      3  C   UNL A   1      31.201  26.195  26.130  1.00  0.00     0.116 C 
BRANCH   3   4
ATOM      4  N   UNL A   1      31.350  24.933  26.841  1.00  0.00    -0.352 N 
ATOM      5  O   UNL A   1      32.363  23.025  27.471  1.00  0.00    -0.270 OA
ATOM      6  C   UNL A   1      32.210  23.888  26.609  1.00  0.00     0.251 C 
ATOM      7  H   UNL A   1      30.741  24.810  27.604  1.00  0.00     0.163 HD
BRANCH   6   8
ATOM      8  C   UNL A   1      33.045  23.827  25.376  1.00  0.00     0.067 C 
ATOM      9  C   UNL A   1      34.205  24.498  25.327  1.00  0.00     0.025 C 
ATOM     10  C   UNL A   1      32.870  22.568  24.566  1.00  0.00     0.314 C 
ATOM     11  C   UNL A   1      35.385  23.639  25.183  1.00  0.00     0.018 A 
ATOM     12  O   UNL A   1      34.022  21.688  24.633  1.00  0.00    -0.475 OA
ATOM     13  C   UNL A   1      36.604  24.132  25.666  1.00  0.00     0.025 A 
ATOM     14  C   UNL A   1      35.224  22.267  24.953  1.00  0.00     0.128 A 
ATOM     15  C   UNL A   1      37.637  23.244  26.008  1.00  0.00     0.056 A 
ATOM     16  C   UNL A   1      36.278  21.392  25.201  1.00  0.00     0.048 A 
ATOM     17  C   UNL A   1      37.472  21.874  25.748  1.00  0.00     0.017 A 
BRANCH  10  18
ATOM     18  C   UNL A   1      32.529  22.911  23.103  1.00  0.00     0.429 C 
ATOM     19  F   UNL A   1      31.776  21.941  22.533  1.00  0.00    -0.167 F 
ATOM     20  F   UNL A   1      31.824  24.064  23.007  1.00  0.00    -0.167 F 
ATOM     21  F   UNL A   1      33.638  23.060  22.338  1.00  0.00    -0.167 F 
ENDBRANCH  10  18
BRANCH  15  22
ATOM     22  C   UNL A   1      38.865  23.763  26.719  1.00  0.00     0.416 C 
ATOM     23  F   UNL A   1      39.735  22.775  27.054  1.00  0.00    -0.166 F 
ATOM     24  F   UNL A   1      39.568  24.641  25.946  1.00  0.00    -0.166 F 
ATOM     25  F   UNL A   1      38.579  24.433  27.866  1.00  0.00    -0.166 F 
ENDBRANCH  15  22
ENDBRANCH   6   8
ENDBRANCH   3   4
ENDBRANCH   2   3
ENDBRANCH   1   2
BRANCH   1  26
ATOM     26  C   UNL A   1      32.971  29.608  26.115  1.00  0.00     0.116 C 
BRANCH  26  27
ATOM     27  N   UNL A   1      32.758  30.934  26.680  1.00  0.00    -0.352 N 
ATOM     28  C   UNL A   1      33.613  31.687  27.456  1.00  0.00     0.251 C 
ATOM     29  H   UNL A   1      31.886  31.346  26.483  1.00  0.00     0.163 HD
ATOM     30  O   UNL A   1      33.277  32.797  27.863  1.00  0.00    -0.269 OA
BRANCH  28  31
ATOM     31  C   UNL A   1      34.920  31.124  27.851  1.00  0.00     0.039 A 
ATOM     32  C   UNL A   1      36.008  31.987  28.001  1.00  0.00     0.014 A 
ATOM     33  C   UNL A   1      35.043  29.769  28.170  1.00  0.00     0.014 A 
ATOM     34  C   UNL A   1      37.185  31.517  28.587  1.00  0.00     0.010 A 
ATOM     35  C   UNL A   1      36.185  29.323  28.827  1.00  0.00     0.010 A 
ATOM     36  C   UNL A   1      37.257  30.197  29.065  1.00  0.00    -0.014 A 
BRANCH  36  37
ATOM     37  C   UNL A   1      38.421  29.728  29.859  1.00  0.00     0.031 A 
ATOM     38  C   UNL A   1      38.644  30.241  31.252  1.00  0.00     0.074 A 
ATOM     39  C   UNL A   1      39.327  28.908  29.288  1.00  0.00     0.049 A 
ATOM     40  N   UNL A   1      39.640  30.010  32.070  1.00  0.00    -0.248 NA
ATOM     41  C   UNL A   1      37.631  31.163  31.784  1.00  0.00     0.031 C 
ATOM     42  C   UNL A   1      39.259  28.389  27.921  1.00  0.00     0.029 A 
ATOM     43  N   UNL A   1      40.491  28.374  29.786  1.00  0.00    -0.354 N 
ATOM     44  C   UNL A   1      39.384  30.772  33.200  1.00  0.00     0.074 A 
ATOM     45  C   UNL A   1      38.166  31.512  32.944  1.00  0.00     0.031 C 
ATOM     46  C   UNL A   1      40.311  27.587  27.700  1.00  0.00     0.029 A 
ATOM     47  C   UNL A   1      41.149  27.561  28.896  1.00  0.00     0.049 A 
ATOM     48  H   UNL A   1      40.822  28.558  30.694  1.00  0.00     0.167 HD
ATOM     49  C   UNL A   1      40.087  30.834  34.357  1.00  0.00     0.037 A 
ATOM     50  C   UNL A   1      42.296  26.869  29.031  1.00  0.00     0.037 A 
ATOM     51  C   UNL A   1      41.276  30.070  34.623  1.00  0.00     0.049 A 
ATOM     52  C   UNL A   1      43.049  26.942  30.331  1.00  0.00     0.074 A 
ATOM     53  C   UNL A   1      42.017  30.004  35.790  1.00  0.00     0.029 A 
ATOM     54  N   UNL A   1      41.900  29.237  33.706  1.00  0.00    -0.354 N 
ATOM     55  N   UNL A   1      42.755  27.607  31.422  1.00  0.00    -0.248 NA
ATOM     56  C   UNL A   1      44.292  26.163  30.419  1.00  0.00     0.031 C 
ATOM     57  C   UNL A   1      43.108  29.156  35.568  1.00  0.00     0.029 A 
ATOM     58  C   UNL A   1      43.026  28.666  34.275  1.00  0.00     0.049 A 
ATOM     59  H   UNL A   1      41.587  29.075  32.786  1.00  0.00     0.167 HD
ATOM     60  C   UNL A   1      43.757  27.304  32.333  1.00  0.00     0.074 A 
ATOM     61  C   UNL A   1      44.663  26.388  31.672  1.00  0.00     0.031 C 
ATOM     62  C   UNL A   1      43.910  27.747  33.606  1.00  0.00     0.037 A 
BRANCH  49  63
ATOM     63  C   UNL A   1      39.574  31.757  35.423  1.00  0.00     0.064 A 
ATOM     64  C   UNL A   1      38.635  31.331  36.373  1.00  0.00     0.173 A 
ATOM     65  C   UNL A   1      40.034  33.079  35.500  1.00  0.00     0.173 A 
ATOM     66  F   UNL A   1      38.154  30.079  36.333  1.00  0.00    -0.203 F 
ATOM     67  C   UNL A   1      38.146  32.206  37.340  1.00  0.00     0.198 A 
ATOM     68  C   UNL A   1      39.565  33.943  36.486  1.00  0.00     0.198 A 
ATOM     69  F   UNL A   1      40.936  33.535  34.618  1.00  0.00    -0.203 F 
ATOM     70  F   UNL A   1      37.206  31.792  38.201  1.00  0.00    -0.200 F 
ATOM     71  C   UNL A   1      38.616  33.509  37.398  1.00  0.00     0.200 A 
ATOM     72  F   UNL A   1      40.025  35.201  36.548  1.00  0.00    -0.200 F 
ATOM     73  F   UNL A   1      38.142  34.351  38.328  1.00  0.00    -0.200 F 
ENDBRANCH  49  63
BRANCH  50  74
ATOM     74  C   UNL A   1      42.781  26.009  27.922  1.00  0.00     0.064 A 
ATOM     75  C   UNL A   1      43.622  26.532  26.930  1.00  0.00     0.173 A 
ATOM     76  C   UNL A   1      42.418  24.658  27.825  1.00  0.00     0.173 A 
ATOM     77  F   UNL A   1      43.977  27.825  26.970  1.00  0.00    -0.203 F 
ATOM     78  C   UNL A   1      44.068  25.742  25.873  1.00  0.00     0.198 A 
ATOM     79  C   UNL A   1      42.884  23.863  26.780  1.00  0.00     0.198 A 
ATOM     80  F   UNL A   1      41.618  24.110  28.752  1.00  0.00    -0.203 F 
ATOM     81  F   UNL A   1      44.839  26.279  24.918  1.00  0.00    -0.200 F 
ATOM     82  C   UNL A   1      43.703  24.406  25.802  1.00  0.00     0.200 A 
ATOM     83  F   UNL A   1      42.538  22.569  26.720  1.00  0.00    -0.200 F 
ATOM     84  F   UNL A   1      44.134  23.646  24.787  1.00  0.00    -0.200 F 
ENDBRANCH  50  74
BRANCH  62  85
ATOM     85  C   UNL A   1      45.081  27.216  34.377  1.00  0.00     0.064 A 
ATOM     86  C   UNL A   1      44.990  26.039  35.133  1.00  0.00     0.173 A 
ATOM     87  C   UNL A   1      46.319  27.875  34.329  1.00  0.00     0.173 A 
ATOM     88  F   UNL A   1      43.822  25.383  35.223  1.00  0.00    -0.203 F 
ATOM     89  C   UNL A   1      46.090  25.551  35.831  1.00  0.00     0.198 A 
ATOM     90  C   UNL A   1      47.424  27.370  35.008  1.00  0.00     0.198 A 
ATOM     91  F   UNL A   1      46.458  29.002  33.616  1.00  0.00    -0.203 F 
ATOM     92  F   UNL A   1      45.970  24.447  36.582  1.00  0.00    -0.200 F 
ATOM     93  C   UNL A   1      47.308  26.213  35.763  1.00  0.00     0.200 A 
ATOM     94  F   UNL A   1      48.602  28.006  34.934  1.00  0.00    -0.200 F 
ATOM     95  F   UNL A   1      48.368  25.739  36.433  1.00  0.00    -0.200 F 
ENDBRANCH  62  85
ENDBRANCH  36  37
ENDBRANCH  28  31
ENDBRANCH  26  27
ENDBRANCH   1  26
TORSDOF 13
ENDMDL
MODEL 3
REMARK VINA RESULT:     -12.8      0.493      7.347
REMARK SMILES O=C(NCCCCNC(=O)c1ccc(-c2c3nc(c(-c4c(F)c(F)c(F)c(F)c4F)c4ccc([nH]4)c(-c4c(F)c(F)c(F)c(F)c4F)c4nc(c(-c5c(F)c(F)c(F)c(F)c5F)c5ccc2[nH]5)C=C4)C=C3)cc1)C1=Cc2cc(C(F)(F)F)ccc2O[C@@H]1C(F)(F)F
REMARK SMILES IDX 6 1 5 2 4 3 3 4 1 5 2 6 74 8 75 9 87 10 76 11 86 12 77 13
REMARK SMILES IDX 85 14 78 15 84 16 83 17 88 18 89 19 90 20 91 21 79 22 80 23
REMARK SMILES IDX 81 24 82 25 7 26 8 27 9 28 10 30 11 31 12 32 73 33 13 34
REMARK SMILES IDX 72 35 14 36 15 37 16 38 66 39 17 40 71 41 65 42 67 43 18 44
REMARK SMILES IDX 70 45 64 46 63 47 19 49 51 50 31 51 50 52 32 53 35 54 49 55
REMARK SMILES IDX 68 56 33 57 34 58 48 60 69 61 36 62 20 63 21 64 29 65 22 66
REMARK SMILES IDX 23 67 27 68 30 69 24 70 25 71 28 72 26 73 52 74 53 75 61 76
REMARK SMILES IDX 54 77 55 78 59 79 62 80 56 81 57 82 60 83 58 84 37 85 38 86
REMARK SMILES IDX 46 87 39 88 40 89 44 90 47 91 41 92 42 93 45 94 43 95
REMARK H PARENT 3 7 8 29 67 48 35 59
REMARK Flexibility Score: inf
ROOT
ATOM      1  C   UNL A   1      32.115  28.201  25.363  1.00  0.00     0.023 C 
ENDROOT
BRANCH   1   2
ATOM      2  C   UNL A   1      31.877  27.147  26.439  1.00  0.00     0.023 C 
BRANCH   2   3
ATOM      3  C   UNL A   1      31.079  25.926  25.990  1.00  0.00     0.116 C 
BRANCH   3   4
ATOM      4  N   UNL A   1      31.366  24.702  26.724  1.00  0.00    -0.352 N 
ATOM      5  O   UNL A   1      32.593  22.943  27.406  1.00  0.00    -0.270 OA
ATOM      6  C   UNL A   1      32.354  23.769  26.527  1.00  0.00     0.251 C 
ATOM      7  H   UNL A   1      30.760  24.515  27.476  1.00  0.00     0.163 HD
BRANCH   6   8
ATOM      8  C   UNL A   1      33.219  23.796  25.313  1.00  0.00     0.067 C 
ATOM      9  C   UNL A   1      34.355  24.507  25.325  1.00  0.00     0.025 C 
ATOM     10  C   UNL A   1      33.106  22.573  24.440  1.00  0.00     0.314 C 
ATOM     11  C   UNL A   1      35.568  23.696  25.169  1.00  0.00     0.018 A 
ATOM     12  O   UNL A   1      34.286  21.729  24.494  1.00  0.00    -0.475 OA
ATOM     13  C   UNL A   1      36.758  24.205  25.704  1.00  0.00     0.025 A 
ATOM     14  C   UNL A   1      35.460  22.332  24.870  1.00  0.00     0.128 A 
ATOM     15  C   UNL A   1      37.812  23.337  26.029  1.00  0.00     0.056 A 
ATOM     16  C   UNL A   1      36.538  21.482  25.102  1.00  0.00     0.048 A 
ATOM     17  C   UNL A   1      37.701  21.976  25.700  1.00  0.00     0.017 A 
BRANCH  10  18
ATOM     18  C   UNL A   1      32.787  22.975  22.988  1.00  0.00     0.429 C 
ATOM     19  F   UNL A   1      33.917  23.253  22.295  1.00  0.00    -0.167 F 
ATOM     20  F   UNL A   1      32.150  21.984  22.319  1.00  0.00    -0.167 F 
ATOM     21  F   UNL A   1      31.995  24.072  22.920  1.00  0.00    -0.167 F 
ENDBRANCH  10  18
BRANCH  15  22
ATOM     22  C   UNL A   1      39.006  23.862  26.794  1.00  0.00     0.416 C 
ATOM     23  F   UNL A   1      39.757  24.728  26.066  1.00  0.00    -0.166 F 
ATOM     24  F   UNL A   1      38.632  24.537  27.920  1.00  0.00    -0.166 F 
ATOM     25  F   UNL A   1      39.846  22.881  27.216  1.00  0.00    -0.166 F 
ENDBRANCH  15  22
ENDBRANCH   6   8
ENDBRANCH   3   4
ENDBRANCH   2   3
ENDBRANCH   1   2
BRANCH   1  26
ATOM     26  C   UNL A   1      33.196  29.240  25.653  1.00  0.00     0.116 C 
BRANCH  26  27
ATOM     27  N   UNL A   1      32.730  30.456  26.307  1.00  0.00    -0.352 N 
ATOM     28  C   UNL A   1      33.399  31.263  27.203  1.00  0.00     0.251 C 
ATOM     29  H   UNL A   1      31.815  30.737  26.080  1.00  0.00     0.163 HD
ATOM     30  O   UNL A   1      32.858  32.260  27.673  1.00  0.00    -0.269 OA
BRANCH  28  31
ATOM     31  C   UNL A   1      34.756  30.885  27.646  1.00  0.00     0.039 A 
ATOM     32  C   UNL A   1      35.727  31.882  27.768  1.00  0.00     0.014 A 
ATOM     33  C   UNL A   1      35.037  29.573  28.036  1.00  0.00     0.014 A 
ATOM     34  C   UNL A   1      36.940  31.590  28.395  1.00  0.00     0.010 A 
ATOM     35  C   UNL A   1      36.211  29.304  28.733  1.00  0.00     0.010 A 
ATOM     36  C   UNL A   1      37.162  30.314  28.941  1.00  0.00    -0.014 A 
BRANCH  36  37
ATOM     37  C   UNL A   1      38.358  30.031  29.776  1.00  0.00     0.031 A 
ATOM     38  C   UNL A   1      39.445  29.134  29.261  1.00  0.00     0.074 A 
ATOM     39  C   UNL A   1      38.419  30.511  31.034  1.00  0.00     0.049 A 
ATOM     40  N   UNL A   1      40.525  28.708  29.868  1.00  0.00    -0.248 NA
ATOM     41  C   UNL A   1      39.282  28.619  27.893  1.00  0.00     0.031 C 
ATOM     42  C   UNL A   1      37.398  31.342  31.675  1.00  0.00     0.029 A 
ATOM     43  N   UNL A   1      39.379  30.361  32.005  1.00  0.00    -0.354 N 
ATOM     44  C   UNL A   1      41.154  27.862  28.967  1.00  0.00     0.074 A 
ATOM     45  C   UNL A   1      40.312  27.793  27.791  1.00  0.00     0.031 C 
ATOM     46  C   UNL A   1      37.800  31.657  32.916  1.00  0.00     0.029 A 
ATOM     47  C   UNL A   1      39.089  31.022  33.174  1.00  0.00     0.049 A 
ATOM     48  H   UNL A   1      40.197  29.830  31.876  1.00  0.00     0.167 HD
ATOM     49  C   UNL A   1      42.339  27.217  29.097  1.00  0.00     0.037 A 
ATOM     50  C   UNL A   1      39.787  31.108  34.322  1.00  0.00     0.037 A 
ATOM     51  C   UNL A   1      43.192  27.315  30.251  1.00  0.00     0.049 A 
ATOM     52  C   UNL A   1      41.106  30.397  34.435  1.00  0.00     0.074 A 
ATOM     53  C   UNL A   1      44.446  26.763  30.449  1.00  0.00     0.029 A 
ATOM     54  N   UNL A   1      42.877  28.014  31.407  1.00  0.00    -0.354 N 
ATOM     55  N   UNL A   1      41.729  29.661  33.547  1.00  0.00    -0.248 NA
ATOM     56  C   UNL A   1      41.823  30.531  35.712  1.00  0.00     0.031 C 
ATOM     57  C   UNL A   1      44.874  27.101  31.738  1.00  0.00     0.029 A 
ATOM     58  C   UNL A   1      43.904  27.894  32.328  1.00  0.00     0.049 A 
ATOM     59  H   UNL A   1      42.045  28.522  31.551  1.00  0.00     0.167 HD
ATOM     60  C   UNL A   1      42.920  29.271  34.143  1.00  0.00     0.074 A 
ATOM     61  C   UNL A   1      42.938  29.858  35.467  1.00  0.00     0.031 C 
ATOM     62  C   UNL A   1      43.910  28.495  33.637  1.00  0.00     0.037 A 
BRANCH  49  63
ATOM     63  C   UNL A   1      42.781  26.355  27.952  1.00  0.00     0.064 A 
ATOM     64  C   UNL A   1      42.463  24.990  27.895  1.00  0.00     0.173 A 
ATOM     65  C   UNL A   1      43.523  26.901  26.895  1.00  0.00     0.173 A 
ATOM     66  F   UNL A   1      41.766  24.417  28.888  1.00  0.00    -0.203 F 
ATOM     67  C   UNL A   1      42.903  24.194  26.840  1.00  0.00     0.198 A 
ATOM     68  C   UNL A   1      43.937  26.109  25.827  1.00  0.00     0.198 A 
ATOM     69  F   UNL A   1      43.850  28.202  26.898  1.00  0.00    -0.203 F 
ATOM     70  F   UNL A   1      42.636  22.881  26.837  1.00  0.00    -0.200 F 
ATOM     71  C   UNL A   1      43.635  24.756  25.805  1.00  0.00     0.200 A 
ATOM     72  F   UNL A   1      44.638  26.654  24.822  1.00  0.00    -0.200 F 
ATOM     73  F   UNL A   1      44.061  23.989  24.792  1.00  0.00    -0.200 F 
ENDBRANCH  49  63
BRANCH  50  74
ATOM     74  C   UNL A   1      39.275  31.939  35.442  1.00  0.00     0.064 A 
ATOM     75  C   UNL A   1      39.611  33.297  35.532  1.00  0.00     0.173 A 
ATOM     76  C   UNL A   1      38.450  31.402  36.440  1.00  0.00     0.173 A 
ATOM     77  F   UNL A   1      40.416  33.848  34.612  1.00  0.00    -0.203 F 
ATOM     78  C   UNL A   1      39.154  34.084  36.587  1.00  0.00     0.198 A 
ATOM     79  C   UNL A   1      37.974  32.195  37.482  1.00  0.00     0.198 A 
ATOM     80  F   UNL A   1      38.098  30.109  36.397  1.00  0.00    -0.203 F 
ATOM     81  F   UNL A   1      39.522  35.370  36.669  1.00  0.00    -0.200 F 
ATOM     82  C   UNL A   1      38.331  33.534  37.558  1.00  0.00     0.200 A 
ATOM     83  F   UNL A   1      37.171  31.663  38.414  1.00  0.00    -0.200 F 
ATOM     84  F   UNL A   1      37.890  34.291  38.572  1.00  0.00    -0.200 F 
ENDBRANCH  50  74
BRANCH  62  85
ATOM     85  C   UNL A   1      45.112  28.269  34.505  1.00  0.00     0.064 A 
ATOM     86  C   UNL A   1      45.199  27.166  35.365  1.00  0.00     0.173 A 
ATOM     87  C   UNL A   1      46.204  29.149  34.447  1.00  0.00     0.173 A 
ATOM     88  F   UNL A   1      44.173  26.306  35.467  1.00  0.00    -0.203 F 
ATOM     89  C   UNL A   1      46.328  26.962  36.153  1.00  0.00     0.198 A 
ATOM     90  C   UNL A   1      47.341  28.928  35.218  1.00  0.00     0.198 A 
ATOM     91  F   UNL A   1      46.169  30.217  33.637  1.00  0.00    -0.203 F 
ATOM     92  F   UNL A   1      46.374  25.924  37.000  1.00  0.00    -0.200 F 
ATOM     93  C   UNL A   1      47.400  27.839  36.074  1.00  0.00     0.200 A 
ATOM     94  F   UNL A   1      48.380  29.771  35.134  1.00  0.00    -0.200 F 
ATOM     95  F   UNL A   1      48.488  27.638  36.831  1.00  0.00    -0.200 F 
ENDBRANCH  62  85
ENDBRANCH  36  37
ENDBRANCH  28  31
ENDBRANCH  26  27
ENDBRANCH   1  26
TORSDOF 13
ENDMDL
