MODEL 1
REMARK VINA RESULT:     -12.5      0.000      0.000
REMARK SMILES COc1ccc2c(c1)C=C(C(=O)NCCCCNC(=O)c1ccc(-c3c4nc(c(-c5c(F)c(F)c(F)c(F)c5F)c5ccc([nH]5)c(-c5c(F)c(F)c(F)c(F)c5F)c5nc(c(-c6c(F)c(F)c(F)c(F)c6F)c6ccc3[nH]6)C=C5)C=C4)cc1)[C@H](C(F)(F)F)O2
REMARK SMILES IDX 16 1 15 2 14 3 13 4 11 5 12 6 10 8 3 9 4 10 8 11 5 12 7 13
REMARK SMILES IDX 6 14 9 15 89 16 84 17 2 18 1 19 85 20 86 21 87 22 88 23
REMARK SMILES IDX 17 24 18 25 19 26 20 28 21 29 22 30 83 31 23 32 82 33 24 34
REMARK SMILES IDX 25 35 26 36 76 37 27 38 81 39 75 40 77 41 28 42 80 43 74 44
REMARK SMILES IDX 73 45 29 47 61 48 41 49 60 50 42 51 45 52 59 53 78 54 43 55
REMARK SMILES IDX 44 56 58 58 79 59 46 60 30 61 31 62 39 63 32 64 33 65 37 66
REMARK SMILES IDX 40 67 34 68 35 69 38 70 36 71 62 72 63 73 71 74 64 75 65 76
REMARK SMILES IDX 69 77 72 78 66 79 67 80 70 81 68 82 47 83 48 84 56 85 49 86
REMARK SMILES IDX 50 87 54 88 57 89 51 90 52 91 55 92 53 93
REMARK H PARENT 13 7 18 27 77 46 45 57
REMARK Flexibility Score: inf
ROOT
ATOM      1  C   UNL A   1      31.492  31.807  26.529  1.00  0.00     0.023 C 
ENDROOT
BRANCH   1   2
ATOM      2  C   UNL A   1      31.679  30.297  26.364  1.00  0.00     0.023 C 
BRANCH   2   3
ATOM      3  C   UNL A   1      33.122  29.867  26.074  1.00  0.00     0.116 C 
BRANCH   3   4
ATOM      4  N   UNL A   1      33.332  29.750  24.641  1.00  0.00    -0.352 N 
ATOM      5  C   UNL A   1      33.284  28.690  23.791  1.00  0.00     0.251 C 
ATOM      6  O   UNL A   1      33.668  28.862  22.636  1.00  0.00    -0.270 OA
ATOM      7  H   UNL A   1      33.551  30.603  24.202  1.00  0.00     0.163 HD
BRANCH   5   8
ATOM      8  C   UNL A   1      32.726  27.365  24.178  1.00  0.00     0.067 C 
ATOM      9  C   UNL A   1      32.664  23.306  26.789  1.00  0.00     0.119 A 
ATOM     10  C   UNL A   1      31.413  22.978  26.270  1.00  0.00     0.050 A 
ATOM     11  C   UNL A   1      33.306  24.470  26.373  1.00  0.00     0.058 A 
ATOM     12  C   UNL A   1      30.815  23.813  25.320  1.00  0.00     0.051 A 
ATOM     13  C   UNL A   1      32.708  25.300  25.419  1.00  0.00     0.021 A 
ATOM     14  C   UNL A   1      31.463  24.973  24.897  1.00  0.00     0.128 A 
ATOM     15  C   UNL A   1      33.342  26.547  25.040  1.00  0.00     0.025 C 
ATOM     16  O   UNL A   1      30.786  25.772  24.025  1.00  0.00    -0.475 OA
ATOM     17  C   UNL A   1      31.480  26.907  23.421  1.00  0.00     0.314 C 
BRANCH   9  18
ATOM     18  O   UNL A   1      33.283  22.599  27.781  1.00  0.00    -0.497 OA
ATOM     19  C   UNL A   1      34.168  21.598  27.288  1.00  0.00     0.278 C 
ENDBRANCH   9  18
BRANCH  17  20
ATOM     20  C   UNL A   1      30.418  27.994  23.140  1.00  0.00     0.429 C 
ATOM     21  F   UNL A   1      30.668  28.691  22.009  1.00  0.00    -0.167 F 
ATOM     22  F   UNL A   1      29.189  27.440  22.959  1.00  0.00    -0.167 F 
ATOM     23  F   UNL A   1      30.301  28.875  24.160  1.00  0.00    -0.167 F 
ENDBRANCH  17  20
ENDBRANCH   5   8
ENDBRANCH   3   4
ENDBRANCH   2   3
ENDBRANCH   1   2
BRANCH   1  24
ATOM     24  C   UNL A   1      32.659  32.519  27.197  1.00  0.00     0.116 C 
BRANCH  24  25
ATOM     25  N   UNL A   1      32.372  33.904  27.530  1.00  0.00    -0.352 N 
ATOM     26  C   UNL A   1      32.999  34.713  28.450  1.00  0.00     0.251 C 
ATOM     27  H   UNL A   1      31.630  34.318  27.031  1.00  0.00     0.163 HD
ATOM     28  O   UNL A   1      32.571  35.829  28.689  1.00  0.00    -0.269 OA
BRANCH  26  29
ATOM     29  C   UNL A   1      34.177  34.194  29.177  1.00  0.00     0.039 A 
ATOM     30  C   UNL A   1      33.968  33.376  30.289  1.00  0.00     0.014 A 
ATOM     31  C   UNL A   1      35.473  34.496  28.753  1.00  0.00     0.014 A 
ATOM     32  C   UNL A   1      35.063  32.817  30.949  1.00  0.00     0.010 A 
ATOM     33  C   UNL A   1      36.558  33.881  29.366  1.00  0.00     0.010 A 
ATOM     34  C   UNL A   1      36.365  33.044  30.474  1.00  0.00    -0.014 A 
BRANCH  34  35
ATOM     35  C   UNL A   1      37.542  32.438  31.140  1.00  0.00     0.031 A 
ATOM     36  C   UNL A   1      38.296  31.330  30.462  1.00  0.00     0.074 A 
ATOM     37  C   UNL A   1      37.886  32.835  32.379  1.00  0.00     0.049 A 
ATOM     38  N   UNL A   1      39.303  30.621  30.903  1.00  0.00    -0.248 NA
ATOM     39  C   UNL A   1      37.832  30.945  29.120  1.00  0.00     0.031 C 
ATOM     40  C   UNL A   1      37.196  33.862  33.161  1.00  0.00     0.029 A 
ATOM     41  N   UNL A   1      38.898  32.412  33.203  1.00  0.00    -0.354 N 
ATOM     42  C   UNL A   1      39.577  29.695  29.905  1.00  0.00     0.074 A 
ATOM     43  C   UNL A   1      38.597  29.896  28.860  1.00  0.00     0.031 C 
ATOM     44  C   UNL A   1      37.816  34.002  34.344  1.00  0.00     0.029 A 
ATOM     45  C   UNL A   1      38.926  33.057  34.415  1.00  0.00     0.049 A 
ATOM     46  H   UNL A   1      39.541  31.711  32.951  1.00  0.00     0.167 HD
ATOM     47  C   UNL A   1      40.571  28.777  29.855  1.00  0.00     0.037 A 
ATOM     48  C   UNL A   1      39.757  32.901  35.463  1.00  0.00     0.037 A 
ATOM     49  C   UNL A   1      41.563  28.606  30.882  1.00  0.00     0.049 A 
ATOM     50  C   UNL A   1      40.873  31.897  35.371  1.00  0.00     0.074 A 
ATOM     51  C   UNL A   1      42.649  27.748  30.901  1.00  0.00     0.029 A 
ATOM     52  N   UNL A   1      41.588  29.311  32.077  1.00  0.00    -0.354 N 
ATOM     53  N   UNL A   1      41.167  31.074  34.394  1.00  0.00    -0.248 NA
ATOM     54  C   UNL A   1      41.781  31.809  36.523  1.00  0.00     0.031 C 
ATOM     55  C   UNL A   1      43.312  27.910  32.124  1.00  0.00     0.029 A 
ATOM     56  C   UNL A   1      42.665  28.900  32.847  1.00  0.00     0.049 A 
ATOM     57  H   UNL A   1      40.937  30.002  32.340  1.00  0.00     0.167 HD
ATOM     58  C   UNL A   1      42.309  30.395  34.797  1.00  0.00     0.074 A 
ATOM     59  C   UNL A   1      42.659  30.909  36.105  1.00  0.00     0.031 C 
ATOM     60  C   UNL A   1      43.004  29.434  34.141  1.00  0.00     0.037 A 
BRANCH  47  61
ATOM     61  C   UNL A   1      40.629  27.892  28.644  1.00  0.00     0.064 A 
ATOM     62  C   UNL A   1      41.391  28.235  27.516  1.00  0.00     0.173 A 
ATOM     63  C   UNL A   1      39.921  26.681  28.613  1.00  0.00     0.173 A 
ATOM     64  F   UNL A   1      42.076  29.388  27.490  1.00  0.00    -0.203 F 
ATOM     65  C   UNL A   1      41.409  27.419  26.389  1.00  0.00     0.198 A 
ATOM     66  C   UNL A   1      39.968  25.852  27.496  1.00  0.00     0.198 A 
ATOM     67  F   UNL A   1      39.181  26.303  29.666  1.00  0.00    -0.203 F 
ATOM     68  F   UNL A   1      42.096  27.798  25.301  1.00  0.00    -0.200 F 
ATOM     69  C   UNL A   1      40.703  26.226  26.381  1.00  0.00     0.200 A 
ATOM     70  F   UNL A   1      39.294  24.694  27.493  1.00  0.00    -0.200 F 
ATOM     71  F   UNL A   1      40.723  25.441  25.294  1.00  0.00    -0.200 F 
ENDBRANCH  47  61
BRANCH  48  72
ATOM     72  C   UNL A   1      39.589  33.751  36.669  1.00  0.00     0.064 A 
ATOM     73  C   UNL A   1      40.207  35.006  36.753  1.00  0.00     0.173 A 
ATOM     74  C   UNL A   1      38.799  33.337  37.751  1.00  0.00     0.173 A 
ATOM     75  F   UNL A   1      40.987  35.435  35.751  1.00  0.00    -0.203 F 
ATOM     76  C   UNL A   1      40.055  35.808  37.882  1.00  0.00     0.198 A 
ATOM     77  C   UNL A   1      38.627  34.152  38.868  1.00  0.00     0.198 A 
ATOM     78  F   UNL A   1      38.179  32.148  37.715  1.00  0.00    -0.203 F 
ATOM     79  F   UNL A   1      40.688  36.988  37.952  1.00  0.00    -0.200 F 
ATOM     80  C   UNL A   1      39.261  35.384  38.935  1.00  0.00     0.200 A 
ATOM     81  F   UNL A   1      37.846  33.744  39.879  1.00  0.00    -0.200 F 
ATOM     82  F   UNL A   1      39.109  36.159  40.018  1.00  0.00    -0.200 F 
ENDBRANCH  48  72
BRANCH  60  83
ATOM     83  C   UNL A   1      44.241  28.907  34.808  1.00  0.00     0.064 A 
ATOM     84  C   UNL A   1      44.208  27.777  35.638  1.00  0.00     0.173 A 
ATOM     85  C   UNL A   1      45.483  29.517  34.576  1.00  0.00     0.173 A 
ATOM     86  F   UNL A   1      43.041  27.168  35.901  1.00  0.00    -0.203 F 
ATOM     87  C   UNL A   1      45.369  27.293  36.233  1.00  0.00     0.198 A 
ATOM     88  C   UNL A   1      46.647  29.014  35.150  1.00  0.00     0.198 A 
ATOM     89  F   UNL A   1      45.569  30.596  33.783  1.00  0.00    -0.203 F 
ATOM     90  F   UNL A   1      45.307  26.240  37.060  1.00  0.00    -0.200 F 
ATOM     91  C   UNL A   1      46.588  27.907  35.983  1.00  0.00     0.200 A 
ATOM     92  F   UNL A   1      47.825  29.600  34.898  1.00  0.00    -0.200 F 
ATOM     93  F   UNL A   1      47.706  27.435  36.552  1.00  0.00    -0.200 F 
ENDBRANCH  60  83
ENDBRANCH  34  35
ENDBRANCH  26  29
ENDBRANCH  24  25
ENDBRANCH   1  24
TORSDOF 13
ENDMDL
MODEL 2
REMARK VINA RESULT:     -12.4      0.280      1.616
REMARK SMILES COc1ccc2c(c1)C=C(C(=O)NCCCCNC(=O)c1ccc(-c3c4nc(c(-c5c(F)c(F)c(F)c(F)c5F)c5ccc([nH]5)c(-c5c(F)c(F)c(F)c(F)c5F)c5nc(c(-c6c(F)c(F)c(F)c(F)c6F)c6ccc3[nH]6)C=C5)C=C4)cc1)[C@H](C(F)(F)F)O2
REMARK SMILES IDX 16 1 15 2 14 3 13 4 11 5 12 6 10 8 3 9 4 10 8 11 5 12 7 13
REMARK SMILES IDX 6 14 9 15 89 16 84 17 2 18 1 19 85 20 86 21 87 22 88 23
REMARK SMILES IDX 17 24 18 25 19 26 20 28 21 29 22 30 83 31 23 32 82 33 24 34
REMARK SMILES IDX 25 35 26 36 76 37 27 38 81 39 75 40 77 41 28 42 80 43 74 44
REMARK SMILES IDX 73 45 29 47 61 48 41 49 60 50 42 51 45 52 59 53 78 54 43 55
REMARK SMILES IDX 44 56 58 58 79 59 46 60 30 61 31 62 39 63 32 64 33 65 37 66
REMARK SMILES IDX 40 67 34 68 35 69 38 70 36 71 62 72 63 73 71 74 64 75 65 76
REMARK SMILES IDX 69 77 72 78 66 79 67 80 70 81 68 82 47 83 48 84 56 85 49 86
REMARK SMILES IDX 50 87 54 88 57 89 51 90 52 91 55 92 53 93
REMARK H PARENT 13 7 18 27 77 46 45 57
REMARK Flexibility Score: inf
ROOT
ATOM      1  C   UNL A   1      31.593  31.832  26.538  1.00  0.00     0.023 C 
ENDROOT
BRANCH   1   2
ATOM      2  C   UNL A   1      31.729  30.307  26.534  1.00  0.00     0.023 C 
BRANCH   2   3
ATOM      3  C   UNL A   1      33.134  29.799  26.181  1.00  0.00     0.116 C 
BRANCH   3   4
ATOM      4  N   UNL A   1      33.283  29.703  24.739  1.00  0.00    -0.352 N 
ATOM      5  C   UNL A   1      33.176  28.659  23.875  1.00  0.00     0.251 C 
ATOM      6  O   UNL A   1      33.517  28.841  22.708  1.00  0.00    -0.270 OA
ATOM      7  H   UNL A   1      33.505  30.558  24.305  1.00  0.00     0.163 HD
BRANCH   5   8
ATOM      8  C   UNL A   1      32.601  27.341  24.262  1.00  0.00     0.067 C 
ATOM      9  C   UNL A   1      32.494  23.282  26.871  1.00  0.00     0.119 A 
ATOM     10  C   UNL A   1      31.237  22.969  26.355  1.00  0.00     0.050 A 
ATOM     11  C   UNL A   1      33.149  24.438  26.454  1.00  0.00     0.058 A 
ATOM     12  C   UNL A   1      30.647  23.813  25.406  1.00  0.00     0.051 A 
ATOM     13  C   UNL A   1      32.560  25.276  25.502  1.00  0.00     0.021 A 
ATOM     14  C   UNL A   1      31.310  24.965  24.982  1.00  0.00     0.128 A 
ATOM     15  C   UNL A   1      33.209  26.515  25.122  1.00  0.00     0.025 C 
ATOM     16  O   UNL A   1      30.641  25.773  24.112  1.00  0.00    -0.475 OA
ATOM     17  C   UNL A   1      31.348  26.899  23.508  1.00  0.00     0.314 C 
BRANCH   9  18
ATOM     18  O   UNL A   1      33.106  22.566  27.861  1.00  0.00    -0.497 OA
ATOM     19  C   UNL A   1      34.239  21.833  27.405  1.00  0.00     0.278 C 
ENDBRANCH   9  18
BRANCH  17  20
ATOM     20  C   UNL A   1      30.299  28.000  23.230  1.00  0.00     0.429 C 
ATOM     21  F   UNL A   1      30.513  28.645  22.061  1.00  0.00    -0.167 F 
ATOM     22  F   UNL A   1      29.051  27.470  23.127  1.00  0.00    -0.167 F 
ATOM     23  F   UNL A   1      30.249  28.924  24.217  1.00  0.00    -0.167 F 
ENDBRANCH  17  20
ENDBRANCH   5   8
ENDBRANCH   3   4
ENDBRANCH   2   3
ENDBRANCH   1   2
BRANCH   1  24
ATOM     24  C   UNL A   1      32.762  32.570  27.175  1.00  0.00     0.116 C 
BRANCH  24  25
ATOM     25  N   UNL A   1      32.437  33.932  27.563  1.00  0.00    -0.352 N 
ATOM     26  C   UNL A   1      33.014  34.704  28.545  1.00  0.00     0.251 C 
ATOM     27  H   UNL A   1      31.707  34.358  27.057  1.00  0.00     0.163 HD
ATOM     28  O   UNL A   1      32.557  35.799  28.822  1.00  0.00    -0.269 OA
BRANCH  26  29
ATOM     29  C   UNL A   1      34.173  34.169  29.291  1.00  0.00     0.039 A 
ATOM     30  C   UNL A   1      33.935  33.340  30.389  1.00  0.00     0.014 A 
ATOM     31  C   UNL A   1      35.480  34.467  28.898  1.00  0.00     0.014 A 
ATOM     32  C   UNL A   1      35.012  32.766  31.065  1.00  0.00     0.010 A 
ATOM     33  C   UNL A   1      36.548  33.838  29.527  1.00  0.00     0.010 A 
ATOM     34  C   UNL A   1      36.325  32.990  30.621  1.00  0.00    -0.014 A 
BRANCH  34  35
ATOM     35  C   UNL A   1      37.483  32.368  31.305  1.00  0.00     0.031 A 
ATOM     36  C   UNL A   1      38.214  31.229  30.652  1.00  0.00     0.074 A 
ATOM     37  C   UNL A   1      37.832  32.780  32.538  1.00  0.00     0.049 A 
ATOM     38  N   UNL A   1      39.201  30.505  31.112  1.00  0.00    -0.248 NA
ATOM     39  C   UNL A   1      37.747  30.830  29.315  1.00  0.00     0.031 C 
ATOM     40  C   UNL A   1      37.163  33.838  33.296  1.00  0.00     0.029 A 
ATOM     41  N   UNL A   1      38.828  32.348  33.375  1.00  0.00    -0.354 N 
ATOM     42  C   UNL A   1      39.458  29.554  30.133  1.00  0.00     0.074 A 
ATOM     43  C   UNL A   1      38.488  29.758  29.079  1.00  0.00     0.031 C 
ATOM     44  C   UNL A   1      37.780  33.986  34.480  1.00  0.00     0.029 A 
ATOM     45  C   UNL A   1      38.866  33.016  34.575  1.00  0.00     0.049 A 
ATOM     46  H   UNL A   1      39.456  31.627  33.140  1.00  0.00     0.167 HD
ATOM     47  C   UNL A   1      40.429  28.610  30.106  1.00  0.00     0.037 A 
ATOM     48  C   UNL A   1      39.688  32.860  35.630  1.00  0.00     0.037 A 
ATOM     49  C   UNL A   1      41.412  28.435  31.142  1.00  0.00     0.049 A 
ATOM     50  C   UNL A   1      40.779  31.827  35.564  1.00  0.00     0.074 A 
ATOM     51  C   UNL A   1      42.476  27.552  31.183  1.00  0.00     0.029 A 
ATOM     52  N   UNL A   1      41.447  29.162  32.323  1.00  0.00    -0.354 N 
ATOM     53  N   UNL A   1      41.058  30.979  34.604  1.00  0.00    -0.248 NA
ATOM     54  C   UNL A   1      41.680  31.740  36.722  1.00  0.00     0.031 C 
ATOM     55  C   UNL A   1      43.137  27.721  32.406  1.00  0.00     0.029 A 
ATOM     56  C   UNL A   1      42.510  28.740  33.106  1.00  0.00     0.049 A 
ATOM     57  H   UNL A   1      40.813  29.873  32.569  1.00  0.00     0.167 HD
ATOM     58  C   UNL A   1      42.181  30.280  35.025  1.00  0.00     0.074 A 
ATOM     59  C   UNL A   1      42.538  30.810  36.326  1.00  0.00     0.031 C 
ATOM     60  C   UNL A   1      42.856  29.290  34.392  1.00  0.00     0.037 A 
BRANCH  47  61
ATOM     61  C   UNL A   1      40.472  27.701  28.913  1.00  0.00     0.064 A 
ATOM     62  C   UNL A   1      39.698  26.531  28.850  1.00  0.00     0.173 A 
ATOM     63  C   UNL A   1      41.289  28.005  27.814  1.00  0.00     0.173 A 
ATOM     64  F   UNL A   1      38.910  26.188  29.880  1.00  0.00    -0.203 F 
ATOM     65  C   UNL A   1      39.772  25.682  27.750  1.00  0.00     0.198 A 
ATOM     66  C   UNL A   1      41.336  27.169  26.702  1.00  0.00     0.198 A 
ATOM     67  F   UNL A   1      42.045  29.113  27.819  1.00  0.00    -0.203 F 
ATOM     68  F   UNL A   1      39.069  24.539  27.741  1.00  0.00    -0.200 F 
ATOM     69  C   UNL A   1      40.585  26.003  26.675  1.00  0.00     0.200 A 
ATOM     70  F   UNL A   1      42.114  27.487  25.658  1.00  0.00    -0.200 F 
ATOM     71  F   UNL A   1      40.654  25.183  25.617  1.00  0.00    -0.200 F 
ENDBRANCH  47  61
BRANCH  48  72
ATOM     72  C   UNL A   1      39.535  33.737  36.819  1.00  0.00     0.064 A 
ATOM     73  C   UNL A   1      40.175  34.982  36.878  1.00  0.00     0.173 A 
ATOM     74  C   UNL A   1      38.738  33.358  37.909  1.00  0.00     0.173 A 
ATOM     75  F   UNL A   1      40.961  35.378  35.867  1.00  0.00    -0.203 F 
ATOM     76  C   UNL A   1      40.036  35.809  37.990  1.00  0.00     0.198 A 
ATOM     77  C   UNL A   1      38.580  34.198  39.009  1.00  0.00     0.198 A 
ATOM     78  F   UNL A   1      38.098  32.179  37.896  1.00  0.00    -0.203 F 
ATOM     79  F   UNL A   1      40.689  36.979  38.038  1.00  0.00    -0.200 F 
ATOM     80  C   UNL A   1      39.235  35.420  39.052  1.00  0.00     0.200 A 
ATOM     81  F   UNL A   1      37.793  33.824  40.028  1.00  0.00    -0.200 F 
ATOM     82  F   UNL A   1      39.097  36.219  40.118  1.00  0.00    -0.200 F 
ENDBRANCH  48  72
BRANCH  60  83
ATOM     83  C   UNL A   1      44.077  28.746  35.075  1.00  0.00     0.064 A 
ATOM     84  C   UNL A   1      45.344  29.317  34.886  1.00  0.00     0.173 A 
ATOM     85  C   UNL A   1      43.967  27.665  35.963  1.00  0.00     0.173 A 
ATOM     86  F   UNL A   1      45.502  30.343  34.035  1.00  0.00    -0.203 F 
ATOM     87  C   UNL A   1      46.461  28.809  35.543  1.00  0.00     0.198 A 
ATOM     88  C   UNL A   1      45.081  27.178  36.640  1.00  0.00     0.198 A 
ATOM     89  F   UNL A   1      42.776  27.090  36.184  1.00  0.00    -0.203 F 
ATOM     90  F   UNL A   1      47.670  29.340  35.312  1.00  0.00    -0.200 F 
ATOM     91  C   UNL A   1      46.328  27.745  36.423  1.00  0.00     0.200 A 
ATOM     92  F   UNL A   1      44.950  26.159  37.500  1.00  0.00    -0.200 F 
ATOM     93  F   UNL A   1      47.405  27.263  37.060  1.00  0.00    -0.200 F 
ENDBRANCH  60  83
ENDBRANCH  34  35
ENDBRANCH  26  29
ENDBRANCH  24  25
ENDBRANCH   1  24
TORSDOF 13
ENDMDL
MODEL 3
REMARK VINA RESULT:     -12.4      0.572      7.414
REMARK SMILES COc1ccc2c(c1)C=C(C(=O)NCCCCNC(=O)c1ccc(-c3c4nc(c(-c5c(F)c(F)c(F)c(F)c5F)c5ccc([nH]5)c(-c5c(F)c(F)c(F)c(F)c5F)c5nc(c(-c6c(F)c(F)c(F)c(F)c6F)c6ccc3[nH]6)C=C5)C=C4)cc1)[C@H](C(F)(F)F)O2
REMARK SMILES IDX 16 1 15 2 14 3 13 4 11 5 12 6 10 8 3 9 4 10 8 11 5 12 7 13
REMARK SMILES IDX 6 14 9 15 89 16 84 17 2 18 1 19 85 20 86 21 87 22 88 23
REMARK SMILES IDX 17 24 18 25 19 26 20 28 21 29 22 30 83 31 23 32 82 33 24 34
REMARK SMILES IDX 25 35 26 36 76 37 27 38 81 39 75 40 77 41 28 42 80 43 74 44
REMARK SMILES IDX 73 45 29 47 61 48 41 49 60 50 42 51 45 52 59 53 78 54 43 55
REMARK SMILES IDX 44 56 58 58 79 59 46 60 30 61 31 62 39 63 32 64 33 65 37 66
REMARK SMILES IDX 40 67 34 68 35 69 38 70 36 71 62 72 63 73 71 74 64 75 65 76
REMARK SMILES IDX 69 77 72 78 66 79 67 80 70 81 68 82 47 83 48 84 56 85 49 86
REMARK SMILES IDX 50 87 54 88 57 89 51 90 52 91 55 92 53 93
REMARK H PARENT 13 7 18 27 77 46 45 57
REMARK Flexibility Score: inf
ROOT
ATOM      1  C   UNL A   1      31.445  31.947  26.481  1.00  0.00     0.023 C 
ENDROOT
BRANCH   1   2
ATOM      2  C   UNL A   1      31.585  30.465  26.124  1.00  0.00     0.023 C 
BRANCH   2   3
ATOM      3  C   UNL A   1      33.030  29.950  26.116  1.00  0.00     0.116 C 
BRANCH   3   4
ATOM      4  N   UNL A   1      33.485  29.753  24.750  1.00  0.00    -0.352 N 
ATOM      5  C   UNL A   1      33.541  28.653  23.953  1.00  0.00     0.251 C 
ATOM      6  O   UNL A   1      34.130  28.751  22.879  1.00  0.00    -0.270 OA
ATOM      7  H   UNL A   1      33.816  30.574  24.320  1.00  0.00     0.163 HD
BRANCH   5   8
ATOM      8  C   UNL A   1      32.865  27.370  24.292  1.00  0.00     0.067 C 
ATOM      9  C   UNL A   1      32.299  23.352  26.906  1.00  0.00     0.119 A 
ATOM     10  C   UNL A   1      31.083  23.098  26.273  1.00  0.00     0.050 A 
ATOM     11  C   UNL A   1      33.050  24.469  26.547  1.00  0.00     0.058 A 
ATOM     12  C   UNL A   1      30.632  23.959  25.266  1.00  0.00     0.051 A 
ATOM     13  C   UNL A   1      32.599  25.324  25.536  1.00  0.00     0.021 A 
ATOM     14  C   UNL A   1      31.390  25.071  24.901  1.00  0.00     0.128 A 
ATOM     15  C   UNL A   1      33.344  26.525  25.212  1.00  0.00     0.025 C 
ATOM     16  O   UNL A   1      30.850  25.901  23.964  1.00  0.00    -0.475 OA
ATOM     17  C   UNL A   1      31.670  26.983  23.423  1.00  0.00     0.314 C 
BRANCH   9  18
ATOM     18  O   UNL A   1      32.776  22.619  27.956  1.00  0.00    -0.497 OA
ATOM     19  C   UNL A   1      33.873  21.782  27.603  1.00  0.00     0.278 C 
ENDBRANCH   9  18
BRANCH  17  20
ATOM     20  C   UNL A   1      30.710  28.132  23.038  1.00  0.00     0.429 C 
ATOM     21  F   UNL A   1      31.230  28.958  22.102  1.00  0.00    -0.167 F 
ATOM     22  F   UNL A   1      29.562  27.648  22.493  1.00  0.00    -0.167 F 
ATOM     23  F   UNL A   1      30.348  28.881  24.105  1.00  0.00    -0.167 F 
ENDBRANCH  17  20
ENDBRANCH   5   8
ENDBRANCH   3   4
ENDBRANCH   2   3
ENDBRANCH   1   2
BRANCH   1  24
ATOM     24  C   UNL A   1      32.641  32.535  27.216  1.00  0.00     0.116 C 
BRANCH  24  25
ATOM     25  N   UNL A   1      32.451  33.923  27.602  1.00  0.00    -0.352 N 
ATOM     26  C   UNL A   1      33.149  34.658  28.533  1.00  0.00     0.251 C 
ATOM     27  H   UNL A   1      31.726  34.400  27.136  1.00  0.00     0.163 HD
ATOM     28  O   UNL A   1      32.800  35.789  28.820  1.00  0.00    -0.269 OA
BRANCH  26  29
ATOM     29  C   UNL A   1      34.308  34.039  29.212  1.00  0.00     0.039 A 
ATOM     30  C   UNL A   1      34.069  33.139  30.253  1.00  0.00     0.014 A 
ATOM     31  C   UNL A   1      35.614  34.332  28.814  1.00  0.00     0.014 A 
ATOM     32  C   UNL A   1      35.144  32.489  30.862  1.00  0.00     0.010 A 
ATOM     33  C   UNL A   1      36.677  33.631  29.371  1.00  0.00     0.010 A 
ATOM     34  C   UNL A   1      36.453  32.711  30.406  1.00  0.00    -0.014 A 
BRANCH  34  35
ATOM     35  C   UNL A   1      37.607  32.011  31.018  1.00  0.00     0.031 A 
ATOM     36  C   UNL A   1      38.065  32.391  32.398  1.00  0.00     0.074 A 
ATOM     37  C   UNL A   1      38.283  31.089  30.309  1.00  0.00     0.049 A 
ATOM     38  N   UNL A   1      39.092  31.954  33.081  1.00  0.00    -0.248 NA
ATOM     39  C   UNL A   1      37.281  33.427  33.089  1.00  0.00     0.031 C 
ATOM     40  C   UNL A   1      37.967  30.678  28.940  1.00  0.00     0.029 A 
ATOM     41  N   UNL A   1      39.384  30.340  30.637  1.00  0.00    -0.354 N 
ATOM     42  C   UNL A   1      39.089  32.675  34.267  1.00  0.00     0.074 A 
ATOM     43  C   UNL A   1      37.993  33.615  34.189  1.00  0.00     0.031 C 
ATOM     44  C   UNL A   1      38.844  29.736  28.552  1.00  0.00     0.029 A 
ATOM     45  C   UNL A   1      39.797  29.500  29.632  1.00  0.00     0.049 A 
ATOM     46  H   UNL A   1      39.836  30.400  31.510  1.00  0.00     0.167 HD
ATOM     47  C   UNL A   1      39.912  32.547  35.335  1.00  0.00     0.037 A 
ATOM     48  C   UNL A   1      40.829  28.637  29.592  1.00  0.00     0.037 A 
ATOM     49  C   UNL A   1      40.979  31.586  35.420  1.00  0.00     0.049 A 
ATOM     50  C   UNL A   1      41.711  28.490  30.801  1.00  0.00     0.074 A 
ATOM     51  C   UNL A   1      41.831  31.332  36.480  1.00  0.00     0.029 A 
ATOM     52  N   UNL A   1      41.339  30.718  34.398  1.00  0.00    -0.354 N 
ATOM     53  N   UNL A   1      41.658  29.127  31.945  1.00  0.00    -0.248 NA
ATOM     54  C   UNL A   1      42.788  27.494  30.718  1.00  0.00     0.031 C 
ATOM     55  C   UNL A   1      42.730  30.333  36.088  1.00  0.00     0.029 A 
ATOM     56  C   UNL A   1      42.409  29.934  34.800  1.00  0.00     0.049 A 
ATOM     57  H   UNL A   1      40.900  30.666  33.519  1.00  0.00     0.167 HD
ATOM     58  C   UNL A   1      42.670  28.589  32.729  1.00  0.00     0.074 A 
ATOM     59  C   UNL A   1      43.316  27.567  31.932  1.00  0.00     0.031 C 
ATOM     60  C   UNL A   1      43.030  28.912  33.996  1.00  0.00     0.037 A 
BRANCH  47  61
ATOM     61  C   UNL A   1      39.683  33.472  36.494  1.00  0.00     0.064 A 
ATOM     62  C   UNL A   1      38.851  33.116  37.568  1.00  0.00     0.173 A 
ATOM     63  C   UNL A   1      40.308  34.727  36.539  1.00  0.00     0.173 A 
ATOM     64  F   UNL A   1      38.219  31.932  37.568  1.00  0.00    -0.203 F 
ATOM     65  C   UNL A   1      38.623  33.997  38.621  1.00  0.00     0.198 A 
ATOM     66  C   UNL A   1      40.103  35.593  37.610  1.00  0.00     0.198 A 
ATOM     67  F   UNL A   1      41.117  35.116  35.542  1.00  0.00    -0.203 F 
ATOM     68  F   UNL A   1      37.776  33.657  39.604  1.00  0.00    -0.200 F 
ATOM     69  C   UNL A   1      39.253  35.231  38.645  1.00  0.00     0.200 A 
ATOM     70  F   UNL A   1      40.721  36.781  37.638  1.00  0.00    -0.200 F 
ATOM     71  F   UNL A   1      39.032  36.078  39.660  1.00  0.00    -0.200 F 
ENDBRANCH  47  61
BRANCH  48  72
ATOM     72  C   UNL A   1      41.053  27.814  28.376  1.00  0.00     0.064 A 
ATOM     73  C   UNL A   1      41.898  28.262  27.352  1.00  0.00     0.173 A 
ATOM     74  C   UNL A   1      40.443  26.561  28.218  1.00  0.00     0.173 A 
ATOM     75  F   UNL A   1      42.489  29.462  27.451  1.00  0.00    -0.203 F 
ATOM     76  C   UNL A   1      42.112  27.496  26.208  1.00  0.00     0.198 A 
ATOM     77  C   UNL A   1      40.677  25.784  27.085  1.00  0.00     0.198 A 
ATOM     78  F   UNL A   1      39.632  26.083  29.174  1.00  0.00    -0.203 F 
ATOM     79  F   UNL A   1      42.895  27.966  25.227  1.00  0.00    -0.200 F 
ATOM     80  C   UNL A   1      41.507  26.256  26.078  1.00  0.00     0.200 A 
ATOM     81  F   UNL A   1      40.102  24.580  26.970  1.00  0.00    -0.200 F 
ATOM     82  F   UNL A   1      41.718  25.517  24.981  1.00  0.00    -0.200 F 
ENDBRANCH  48  72
BRANCH  60  83
ATOM     83  C   UNL A   1      44.145  28.121  34.615  1.00  0.00     0.064 A 
ATOM     84  C   UNL A   1      45.478  28.549  34.547  1.00  0.00     0.173 A 
ATOM     85  C   UNL A   1      43.866  26.942  35.322  1.00  0.00     0.173 A 
ATOM     86  F   UNL A   1      45.796  29.663  33.870  1.00  0.00    -0.203 F 
ATOM     87  C   UNL A   1      46.497  27.811  35.144  1.00  0.00     0.198 A 
ATOM     88  C   UNL A   1      44.883  26.221  35.941  1.00  0.00     0.198 A 
ATOM     89  F   UNL A   1      42.605  26.495  35.422  1.00  0.00    -0.203 F 
ATOM     90  F   UNL A   1      47.769  28.213  35.028  1.00  0.00    -0.200 F 
ATOM     91  C   UNL A   1      46.198  26.652  35.845  1.00  0.00     0.200 A 
ATOM     92  F   UNL A   1      44.592  25.109  36.629  1.00  0.00    -0.200 F 
ATOM     93  F   UNL A   1      47.179  25.946  36.425  1.00  0.00    -0.200 F 
ENDBRANCH  60  83
ENDBRANCH  34  35
ENDBRANCH  26  29
ENDBRANCH  24  25
ENDBRANCH   1  24
TORSDOF 13
ENDMDL
