MODEL 1
REMARK VINA RESULT:     -12.3      0.000      0.000
REMARK SMILES O=C(CS(=O)(=O)[C@@H]1CCOC2(CCCCC2)C1)NCCCCNC(=O)c1ccc(-c2c3nc(c(-c4c(F)c(F)c(F)c(F)c4F)c4ccc([nH]4)c(-c4c(F)c(F)c(F)c(F)c4F)c4nc(c(-c5c(F)c(F)c(F)c(F)c5F)c5ccc2[nH]5)C=C4)C=C3)cc1
REMARK SMILES IDX 20 1 19 2 18 3 1 4 2 5 3 7 4 8 5 9 6 10 7 11 8 12 17 13 9 14
REMARK SMILES IDX 11 15 10 16 12 17 16 18 13 19 15 20 14 21 21 22 22 23 23 24
REMARK SMILES IDX 24 25 25 27 26 28 27 29 88 30 28 31 87 32 29 33 30 34 31 35
REMARK SMILES IDX 81 36 32 37 86 38 80 39 82 40 33 41 85 42 79 43 78 44 34 46
REMARK SMILES IDX 66 47 46 48 65 49 47 50 50 51 64 52 83 53 48 54 49 55 63 57
REMARK SMILES IDX 84 58 51 59 35 60 36 61 44 62 37 63 38 64 42 65 45 66 39 67
REMARK SMILES IDX 40 68 43 69 41 70 67 71 68 72 76 73 69 74 70 75 74 76 77 77
REMARK SMILES IDX 71 78 72 79 75 80 73 81 52 82 53 83 61 84 54 85 55 86 59 87
REMARK SMILES IDX 62 88 56 89 57 90 60 91 58 92
REMARK H PARENT 18 6 23 26 82 45 50 56
REMARK Flexibility Score: inf
ROOT
ATOM      1  C   UNL A   1      31.713  30.853  26.022  1.00  0.00     0.023 C 
ENDROOT
BRANCH   1   2
ATOM      2  C   UNL A   1      32.351  29.762  26.878  1.00  0.00     0.116 C 
BRANCH   2   3
ATOM      3  N   UNL A   1      32.432  28.506  26.164  1.00  0.00    -0.355 N 
ATOM      4  O   UNL A   1      31.251  27.336  27.717  1.00  0.00    -0.274 OA
ATOM      5  C   UNL A   1      31.877  27.359  26.659  1.00  0.00     0.235 C 
ATOM      6  H   UNL A   1      32.899  28.477  25.297  1.00  0.00     0.163 HD
BRANCH   5   7
ATOM      7  C   UNL A   1      32.154  26.103  25.906  1.00  0.00     0.236 C 
BRANCH   7   8
ATOM      8  S   UNL A   1      32.481  26.311  24.169  1.00  0.00     0.162 S 
ATOM      9  O   UNL A   1      31.284  26.952  23.635  1.00  0.00    -0.228 OA
ATOM     10  O   UNL A   1      33.739  27.034  24.085  1.00  0.00    -0.228 OA
BRANCH   8  11
ATOM     11  C   UNL A   1      32.685  24.765  23.240  1.00  0.00     0.114 C 
ATOM     12  C   UNL A   1      31.943  23.561  23.790  1.00  0.00     0.048 C 
ATOM     13  C   UNL A   1      34.125  24.390  22.826  1.00  0.00     0.055 C 
ATOM     14  C   UNL A   1      32.766  22.818  24.825  1.00  0.00     0.162 C 
ATOM     15  C   UNL A   1      34.883  23.544  23.868  1.00  0.00     0.069 C 
ATOM     16  O   UNL A   1      34.040  22.472  24.311  1.00  0.00    -0.375 OA
ATOM     17  C   UNL A   1      35.410  24.433  25.002  1.00  0.00     0.035 C 
ATOM     18  C   UNL A   1      36.116  22.835  23.262  1.00  0.00     0.035 C 
ATOM     19  C   UNL A   1      36.103  23.650  26.104  1.00  0.00     0.003 C 
ATOM     20  C   UNL A   1      36.887  22.034  24.331  1.00  0.00     0.003 C 
ATOM     21  C   UNL A   1      37.285  22.883  25.537  1.00  0.00     0.000 C 
ENDBRANCH   8  11
ENDBRANCH   7   8
ENDBRANCH   5   7
ENDBRANCH   2   3
ENDBRANCH   1   2
BRANCH   1  22
ATOM     22  C   UNL A   1      31.429  32.158  26.771  1.00  0.00     0.023 C 
BRANCH  22  23
ATOM     23  C   UNL A   1      32.662  32.879  27.301  1.00  0.00     0.116 C 
BRANCH  23  24
ATOM     24  N   UNL A   1      32.391  34.262  27.654  1.00  0.00    -0.352 N 
ATOM     25  C   UNL A   1      32.986  35.038  28.617  1.00  0.00     0.251 C 
ATOM     26  H   UNL A   1      31.683  34.703  27.132  1.00  0.00     0.163 HD
ATOM     27  O   UNL A   1      32.533  36.146  28.887  1.00  0.00    -0.269 OA
BRANCH  25  28
ATOM     28  C   UNL A   1      34.157  34.520  29.355  1.00  0.00     0.039 A 
ATOM     29  C   UNL A   1      33.951  33.896  30.587  1.00  0.00     0.014 A 
ATOM     30  C   UNL A   1      35.447  34.632  28.828  1.00  0.00     0.014 A 
ATOM     31  C   UNL A   1      35.033  33.328  31.263  1.00  0.00     0.010 A 
ATOM     32  C   UNL A   1      36.510  33.996  29.464  1.00  0.00     0.010 A 
ATOM     33  C   UNL A   1      36.315  33.339  30.689  1.00  0.00    -0.014 A 
BRANCH  33  34
ATOM     34  C   UNL A   1      37.459  32.667  31.355  1.00  0.00     0.031 A 
ATOM     35  C   UNL A   1      38.134  31.493  30.702  1.00  0.00     0.074 A 
ATOM     36  C   UNL A   1      37.855  33.077  32.576  1.00  0.00     0.049 A 
ATOM     37  N   UNL A   1      39.108  30.741  31.150  1.00  0.00    -0.248 NA
ATOM     38  C   UNL A   1      37.630  31.094  29.378  1.00  0.00     0.031 C 
ATOM     39  C   UNL A   1      37.251  34.175  33.335  1.00  0.00     0.029 A 
ATOM     40  N   UNL A   1      38.851  32.614  33.399  1.00  0.00    -0.354 N 
ATOM     41  C   UNL A   1      39.324  29.780  30.172  1.00  0.00     0.074 A 
ATOM     42  C   UNL A   1      38.344  30.005  29.132  1.00  0.00     0.031 C 
ATOM     43  C   UNL A   1      37.906  34.316  34.500  1.00  0.00     0.029 A 
ATOM     44  C   UNL A   1      38.943  33.292  34.590  1.00  0.00     0.049 A 
ATOM     45  H   UNL A   1      39.443  31.865  33.159  1.00  0.00     0.167 HD
ATOM     46  C   UNL A   1      40.271  28.812  30.133  1.00  0.00     0.037 A 
ATOM     47  C   UNL A   1      39.763  33.104  35.642  1.00  0.00     0.037 A 
ATOM     48  C   UNL A   1      41.255  28.600  31.163  1.00  0.00     0.049 A 
ATOM     49  C   UNL A   1      40.791  32.005  35.582  1.00  0.00     0.074 A 
ATOM     50  C   UNL A   1      42.291  27.683  31.190  1.00  0.00     0.029 A 
ATOM     51  N   UNL A   1      41.321  29.313  32.351  1.00  0.00    -0.354 N 
ATOM     52  N   UNL A   1      41.034  31.150  34.620  1.00  0.00    -0.248 NA
ATOM     53  C   UNL A   1      41.663  31.851  36.754  1.00  0.00     0.031 C 
ATOM     54  C   UNL A   1      42.946  27.799  32.420  1.00  0.00     0.029 A 
ATOM     55  C   UNL A   1      42.362  28.835  33.131  1.00  0.00     0.049 A 
ATOM     56  H   UNL A   1      40.718  30.049  32.603  1.00  0.00     0.167 HD
ATOM     57  C   UNL A   1      42.106  30.380  35.055  1.00  0.00     0.074 A 
ATOM     58  C   UNL A   1      42.475  30.881  36.362  1.00  0.00     0.031 C 
ATOM     59  C   UNL A   1      42.726  29.349  34.427  1.00  0.00     0.037 A 
BRANCH  46  60
ATOM     60  C   UNL A   1      40.289  27.902  28.937  1.00  0.00     0.064 A 
ATOM     61  C   UNL A   1      41.024  28.215  27.783  1.00  0.00     0.173 A 
ATOM     62  C   UNL A   1      39.597  26.680  28.961  1.00  0.00     0.173 A 
ATOM     63  F   UNL A   1      41.695  29.373  27.703  1.00  0.00    -0.203 F 
ATOM     64  C   UNL A   1      41.042  27.355  26.688  1.00  0.00     0.198 A 
ATOM     65  C   UNL A   1      39.645  25.808  27.877  1.00  0.00     0.198 A 
ATOM     66  F   UNL A   1      38.884  26.328  30.041  1.00  0.00    -0.203 F 
ATOM     67  F   UNL A   1      41.709  27.700  25.578  1.00  0.00    -0.200 F 
ATOM     68  C   UNL A   1      40.360  26.149  26.739  1.00  0.00     0.200 A 
ATOM     69  F   UNL A   1      38.999  24.635  27.934  1.00  0.00    -0.200 F 
ATOM     70  F   UNL A   1      40.386  25.318  25.689  1.00  0.00    -0.200 F 
ENDBRANCH  46  60
BRANCH  47  71
ATOM     71  C   UNL A   1      39.660  33.985  36.836  1.00  0.00     0.064 A 
ATOM     72  C   UNL A   1      38.879  33.614  37.940  1.00  0.00     0.173 A 
ATOM     73  C   UNL A   1      40.322  35.220  36.892  1.00  0.00     0.173 A 
ATOM     74  F   UNL A   1      38.209  32.452  37.926  1.00  0.00    -0.203 F 
ATOM     75  C   UNL A   1      38.745  34.455  39.043  1.00  0.00     0.198 A 
ATOM     76  C   UNL A   1      40.213  36.045  38.009  1.00  0.00     0.198 A 
ATOM     77  F   UNL A   1      41.086  35.621  35.866  1.00  0.00    -0.203 F 
ATOM     78  F   UNL A   1      37.948  34.100  40.060  1.00  0.00    -0.200 F 
ATOM     79  C   UNL A   1      39.416  35.668  39.079  1.00  0.00     0.200 A 
ATOM     80  F   UNL A   1      40.878  37.208  38.047  1.00  0.00    -0.200 F 
ATOM     81  F   UNL A   1      39.288  36.476  40.141  1.00  0.00    -0.200 F 
ENDBRANCH  47  71
BRANCH  59  82
ATOM     82  C   UNL A   1      43.899  28.721  35.126  1.00  0.00     0.064 A 
ATOM     83  C   UNL A   1      43.745  27.638  36.004  1.00  0.00     0.173 A 
ATOM     84  C   UNL A   1      45.200  29.187  34.880  1.00  0.00     0.173 A 
ATOM     85  F   UNL A   1      42.522  27.164  36.285  1.00  0.00    -0.203 F 
ATOM     86  C   UNL A   1      44.847  27.064  36.632  1.00  0.00     0.198 A 
ATOM     87  C   UNL A   1      46.303  28.588  35.483  1.00  0.00     0.198 A 
ATOM     88  F   UNL A   1      45.405  30.215  34.043  1.00  0.00    -0.203 F 
ATOM     89  F   UNL A   1      44.672  26.066  37.509  1.00  0.00    -0.200 F 
ATOM     90  C   UNL A   1      46.126  27.533  36.365  1.00  0.00     0.200 A 
ATOM     91  F   UNL A   1      47.538  29.031  35.209  1.00  0.00    -0.200 F 
ATOM     92  F   UNL A   1      47.184  26.974  36.964  1.00  0.00    -0.200 F 
ENDBRANCH  59  82
ENDBRANCH  33  34
ENDBRANCH  25  28
ENDBRANCH  23  24
ENDBRANCH  22  23
ENDBRANCH   1  22
TORSDOF 13
ENDMDL
MODEL 2
REMARK VINA RESULT:     -12.2      4.297     10.592
REMARK SMILES O=C(CS(=O)(=O)[C@@H]1CCOC2(CCCCC2)C1)NCCCCNC(=O)c1ccc(-c2c3nc(c(-c4c(F)c(F)c(F)c(F)c4F)c4ccc([nH]4)c(-c4c(F)c(F)c(F)c(F)c4F)c4nc(c(-c5c(F)c(F)c(F)c(F)c5F)c5ccc2[nH]5)C=C4)C=C3)cc1
REMARK SMILES IDX 20 1 19 2 18 3 1 4 2 5 3 7 4 8 5 9 6 10 7 11 8 12 17 13 9 14
REMARK SMILES IDX 11 15 10 16 12 17 16 18 13 19 15 20 14 21 21 22 22 23 23 24
REMARK SMILES IDX 24 25 25 27 26 28 27 29 88 30 28 31 87 32 29 33 30 34 31 35
REMARK SMILES IDX 81 36 32 37 86 38 80 39 82 40 33 41 85 42 79 43 78 44 34 46
REMARK SMILES IDX 66 47 46 48 65 49 47 50 50 51 64 52 83 53 48 54 49 55 63 57
REMARK SMILES IDX 84 58 51 59 35 60 36 61 44 62 37 63 38 64 42 65 45 66 39 67
REMARK SMILES IDX 40 68 43 69 41 70 67 71 68 72 76 73 69 74 70 75 74 76 77 77
REMARK SMILES IDX 71 78 72 79 75 80 73 81 52 82 53 83 61 84 54 85 55 86 59 87
REMARK SMILES IDX 62 88 56 89 57 90 60 91 58 92
REMARK H PARENT 18 6 23 26 82 45 50 56
REMARK Flexibility Score: inf
ROOT
ATOM      1  C   UNL A   1      33.053  34.285  28.506  1.00  0.00     0.023 C 
ENDROOT
BRANCH   1   2
ATOM      2  C   UNL A   1      33.127  35.479  29.454  1.00  0.00     0.116 C 
BRANCH   2   3
ATOM      3  N   UNL A   1      33.763  35.126  30.703  1.00  0.00    -0.355 N 
ATOM      4  O   UNL A   1      32.726  36.758  31.903  1.00  0.00    -0.274 OA
ATOM      5  C   UNL A   1      33.521  35.821  31.856  1.00  0.00     0.235 C 
ATOM      6  H   UNL A   1      34.388  34.365  30.725  1.00  0.00     0.163 HD
BRANCH   5   7
ATOM      7  C   UNL A   1      34.347  35.457  33.042  1.00  0.00     0.236 C 
BRANCH   7   8
ATOM      8  S   UNL A   1      34.588  33.712  33.298  1.00  0.00     0.162 S 
ATOM      9  O   UNL A   1      35.112  33.601  34.656  1.00  0.00    -0.228 OA
ATOM     10  O   UNL A   1      33.309  33.088  33.007  1.00  0.00    -0.228 OA
BRANCH   8  11
ATOM     11  C   UNL A   1      35.823  32.944  32.213  1.00  0.00     0.114 C 
ATOM     12  C   UNL A   1      36.310  31.570  32.636  1.00  0.00     0.048 C 
ATOM     13  C   UNL A   1      37.000  33.837  31.763  1.00  0.00     0.055 C 
ATOM     14  C   UNL A   1      37.487  31.659  33.588  1.00  0.00     0.162 C 
ATOM     15  C   UNL A   1      38.215  33.809  32.711  1.00  0.00     0.069 C 
ATOM     16  O   UNL A   1      38.527  32.449  33.041  1.00  0.00    -0.375 OA
ATOM     17  C   UNL A   1      37.966  34.706  33.931  1.00  0.00     0.035 C 
ATOM     18  C   UNL A   1      39.499  34.343  32.034  1.00  0.00     0.035 C 
ATOM     19  C   UNL A   1      39.095  34.664  34.946  1.00  0.00     0.003 C 
ATOM     20  C   UNL A   1      40.690  34.352  33.014  1.00  0.00     0.003 C 
ATOM     21  C   UNL A   1      40.394  35.119  34.302  1.00  0.00     0.000 C 
ENDBRANCH   8  11
ENDBRANCH   7   8
ENDBRANCH   5   7
ENDBRANCH   2   3
ENDBRANCH   1   2
BRANCH   1  22
ATOM     22  C   UNL A   1      34.415  33.707  28.111  1.00  0.00     0.023 C 
BRANCH  22  23
ATOM     23  C   UNL A   1      34.839  32.467  28.886  1.00  0.00     0.116 C 
BRANCH  23  24
ATOM     24  N   UNL A   1      34.217  31.254  28.384  1.00  0.00    -0.352 N 
ATOM     25  C   UNL A   1      34.797  30.046  28.088  1.00  0.00     0.251 C 
ATOM     26  H   UNL A   1      33.245  31.305  28.235  1.00  0.00     0.163 HD
ATOM     27  O   UNL A   1      34.147  29.168  27.527  1.00  0.00    -0.269 OA
BRANCH  25  28
ATOM     28  C   UNL A   1      36.220  29.817  28.413  1.00  0.00     0.039 A 
ATOM     29  C   UNL A   1      36.548  29.318  29.675  1.00  0.00     0.014 A 
ATOM     30  C   UNL A   1      37.223  30.074  27.474  1.00  0.00     0.014 A 
ATOM     31  C   UNL A   1      37.878  29.018  29.975  1.00  0.00     0.010 A 
ATOM     32  C   UNL A   1      38.536  29.700  27.747  1.00  0.00     0.010 A 
ATOM     33  C   UNL A   1      38.878  29.170  29.001  1.00  0.00    -0.014 A 
BRANCH  33  34
ATOM     34  C   UNL A   1      40.283  28.776  29.277  1.00  0.00     0.031 A 
ATOM     35  C   UNL A   1      41.194  29.699  30.037  1.00  0.00     0.074 A 
ATOM     36  C   UNL A   1      40.756  27.611  28.793  1.00  0.00     0.049 A 
ATOM     37  N   UNL A   1      42.463  29.559  30.327  1.00  0.00    -0.248 NA
ATOM     38  C   UNL A   1      40.607  30.961  30.515  1.00  0.00     0.031 C 
ATOM     39  C   UNL A   1      39.985  26.649  28.002  1.00  0.00     0.029 A 
ATOM     40  N   UNL A   1      42.001  27.040  28.887  1.00  0.00    -0.354 N 
ATOM     41  C   UNL A   1      42.826  30.713  31.008  1.00  0.00     0.074 A 
ATOM     42  C   UNL A   1      41.661  31.570  31.039  1.00  0.00     0.031 C 
ATOM     43  C   UNL A   1      40.766  25.598  27.705  1.00  0.00     0.029 A 
ATOM     44  C   UNL A   1      42.103  25.830  28.243  1.00  0.00     0.049 A 
ATOM     45  H   UNL A   1      42.750  27.459  29.369  1.00  0.00     0.167 HD
ATOM     46  C   UNL A   1      44.016  31.020  31.577  1.00  0.00     0.037 A 
ATOM     47  C   UNL A   1      43.158  25.006  28.095  1.00  0.00     0.037 A 
ATOM     48  C   UNL A   1      45.169  30.158  31.557  1.00  0.00     0.049 A 
ATOM     49  C   UNL A   1      44.476  25.383  28.718  1.00  0.00     0.074 A 
ATOM     50  C   UNL A   1      46.403  30.354  32.153  1.00  0.00     0.029 A 
ATOM     51  N   UNL A   1      45.231  28.937  30.902  1.00  0.00    -0.354 N 
ATOM     52  N   UNL A   1      44.787  26.444  29.422  1.00  0.00    -0.248 NA
ATOM     53  C   UNL A   1      45.589  24.443  28.529  1.00  0.00     0.031 C 
ATOM     54  C   UNL A   1      47.231  29.281  31.808  1.00  0.00     0.029 A 
ATOM     55  C   UNL A   1      46.493  28.383  31.054  1.00  0.00     0.049 A 
ATOM     56  H   UNL A   1      44.490  28.524  30.402  1.00  0.00     0.167 HD
ATOM     57  C   UNL A   1      46.117  26.284  29.788  1.00  0.00     0.074 A 
ATOM     58  C   UNL A   1      46.550  25.015  29.241  1.00  0.00     0.031 C 
ATOM     59  C   UNL A   1      46.908  27.114  30.512  1.00  0.00     0.037 A 
BRANCH  46  60
ATOM     60  C   UNL A   1      44.136  32.349  32.270  1.00  0.00     0.064 A 
ATOM     61  C   UNL A   1      44.469  33.518  31.570  1.00  0.00     0.173 A 
ATOM     62  C   UNL A   1      43.871  32.461  33.644  1.00  0.00     0.173 A 
ATOM     63  F   UNL A   1      44.742  33.465  30.258  1.00  0.00    -0.203 F 
ATOM     64  C   UNL A   1      44.563  34.744  32.224  1.00  0.00     0.198 A 
ATOM     65  C   UNL A   1      43.933  33.694  34.287  1.00  0.00     0.198 A 
ATOM     66  F   UNL A   1      43.541  31.377  34.361  1.00  0.00    -0.203 F 
ATOM     67  F   UNL A   1      44.934  35.838  31.544  1.00  0.00    -0.200 F 
ATOM     68  C   UNL A   1      44.286  34.833  33.580  1.00  0.00     0.200 A 
ATOM     69  F   UNL A   1      43.648  33.781  35.594  1.00  0.00    -0.200 F 
ATOM     70  F   UNL A   1      44.367  36.014  34.206  1.00  0.00    -0.200 F 
ENDBRANCH  46  60
BRANCH  47  71
ATOM     71  C   UNL A   1      43.010  23.735  27.338  1.00  0.00     0.064 A 
ATOM     72  C   UNL A   1      42.481  22.589  27.949  1.00  0.00     0.173 A 
ATOM     73  C   UNL A   1      43.409  23.632  25.997  1.00  0.00     0.173 A 
ATOM     74  F   UNL A   1      42.105  22.630  29.236  1.00  0.00    -0.203 F 
ATOM     75  C   UNL A   1      42.380  21.384  27.257  1.00  0.00     0.198 A 
ATOM     76  C   UNL A   1      43.277  22.435  25.296  1.00  0.00     0.198 A 
ATOM     77  F   UNL A   1      43.916  24.699  25.363  1.00  0.00    -0.203 F 
ATOM     78  F   UNL A   1      41.923  20.291  27.883  1.00  0.00    -0.200 F 
ATOM     79  C   UNL A   1      42.774  21.309  25.929  1.00  0.00     0.200 A 
ATOM     80  F   UNL A   1      43.642  22.372  24.008  1.00  0.00    -0.200 F 
ATOM     81  F   UNL A   1      42.675  20.150  25.263  1.00  0.00    -0.200 F 
ENDBRANCH  47  71
BRANCH  59  82
ATOM     82  C   UNL A   1      48.312  26.658  30.793  1.00  0.00     0.064 A 
ATOM     83  C   UNL A   1      49.392  27.043  29.984  1.00  0.00     0.173 A 
ATOM     84  C   UNL A   1      48.584  25.856  31.913  1.00  0.00     0.173 A 
ATOM     85  F   UNL A   1      49.185  27.796  28.894  1.00  0.00    -0.203 F 
ATOM     86  C   UNL A   1      50.687  26.618  30.270  1.00  0.00     0.198 A 
ATOM     87  C   UNL A   1      49.885  25.463  32.215  1.00  0.00     0.198 A 
ATOM     88  F   UNL A   1      47.590  25.467  32.725  1.00  0.00    -0.203 F 
ATOM     89  F   UNL A   1      51.695  26.952  29.453  1.00  0.00    -0.200 F 
ATOM     90  C   UNL A   1      50.934  25.836  31.389  1.00  0.00     0.200 A 
ATOM     91  F   UNL A   1      50.123  24.723  33.307  1.00  0.00    -0.200 F 
ATOM     92  F   UNL A   1      52.182  25.436  31.666  1.00  0.00    -0.200 F 
ENDBRANCH  59  82
ENDBRANCH  33  34
ENDBRANCH  25  28
ENDBRANCH  23  24
ENDBRANCH  22  23
ENDBRANCH   1  22
TORSDOF 13
ENDMDL
MODEL 3
REMARK VINA RESULT:     -12.2      5.606     11.199
REMARK SMILES O=C(CS(=O)(=O)[C@@H]1CCOC2(CCCCC2)C1)NCCCCNC(=O)c1ccc(-c2c3nc(c(-c4c(F)c(F)c(F)c(F)c4F)c4ccc([nH]4)c(-c4c(F)c(F)c(F)c(F)c4F)c4nc(c(-c5c(F)c(F)c(F)c(F)c5F)c5ccc2[nH]5)C=C4)C=C3)cc1
REMARK SMILES IDX 20 1 19 2 18 3 1 4 2 5 3 7 4 8 5 9 6 10 7 11 8 12 17 13 9 14
REMARK SMILES IDX 11 15 10 16 12 17 16 18 13 19 15 20 14 21 21 22 22 23 23 24
REMARK SMILES IDX 24 25 25 27 26 28 27 29 88 30 28 31 87 32 29 33 30 34 31 35
REMARK SMILES IDX 81 36 32 37 86 38 80 39 82 40 33 41 85 42 79 43 78 44 34 46
REMARK SMILES IDX 66 47 46 48 65 49 47 50 50 51 64 52 83 53 48 54 49 55 63 57
REMARK SMILES IDX 84 58 51 59 35 60 36 61 44 62 37 63 38 64 42 65 45 66 39 67
REMARK SMILES IDX 40 68 43 69 41 70 67 71 68 72 76 73 69 74 70 75 74 76 77 77
REMARK SMILES IDX 71 78 72 79 75 80 73 81 52 82 53 83 61 84 54 85 55 86 59 87
REMARK SMILES IDX 62 88 56 89 57 90 60 91 58 92
REMARK H PARENT 18 6 23 26 82 45 50 56
REMARK Flexibility Score: inf
ROOT
ATOM      1  C   UNL A   1      36.926  20.532  24.998  1.00  0.00     0.023 C 
ENDROOT
BRANCH   1   2
ATOM      2  C   UNL A   1      37.238  22.027  24.959  1.00  0.00     0.116 C 
BRANCH   2   3
ATOM      3  N   UNL A   1      36.031  22.822  24.987  1.00  0.00    -0.355 N 
ATOM      4  O   UNL A   1      36.110  23.349  22.774  1.00  0.00    -0.274 OA
ATOM      5  C   UNL A   1      35.558  23.451  23.868  1.00  0.00     0.235 C 
ATOM      6  H   UNL A   1      35.535  22.913  25.833  1.00  0.00     0.163 HD
BRANCH   5   7
ATOM      7  C   UNL A   1      34.391  24.360  24.056  1.00  0.00     0.236 C 
BRANCH   7   8
ATOM      8  S   UNL A   1      33.153  23.787  25.198  1.00  0.00     0.162 S 
ATOM      9  O   UNL A   1      32.785  22.458  24.718  1.00  0.00    -0.228 OA
ATOM     10  O   UNL A   1      33.749  23.894  26.518  1.00  0.00    -0.228 OA
BRANCH   8  11
ATOM     11  C   UNL A   1      31.621  24.761  25.217  1.00  0.00     0.114 C 
ATOM     12  C   UNL A   1      31.255  25.441  23.910  1.00  0.00     0.048 C 
ATOM     13  C   UNL A   1      31.421  25.713  26.416  1.00  0.00     0.055 C 
ATOM     14  C   UNL A   1      31.894  26.811  23.793  1.00  0.00     0.162 C 
ATOM     15  C   UNL A   1      31.995  27.127  26.203  1.00  0.00     0.069 C 
ATOM     16  O   UNL A   1      31.589  27.615  24.918  1.00  0.00    -0.375 OA
ATOM     17  C   UNL A   1      33.515  27.130  26.420  1.00  0.00     0.035 C 
ATOM     18  C   UNL A   1      31.413  28.153  27.203  1.00  0.00     0.035 C 
ATOM     19  C   UNL A   1      34.156  28.479  26.151  1.00  0.00     0.003 C 
ATOM     20  C   UNL A   1      32.036  29.550  27.005  1.00  0.00     0.003 C 
ATOM     21  C   UNL A   1      33.562  29.533  27.070  1.00  0.00     0.000 C 
ENDBRANCH   8  11
ENDBRANCH   7   8
ENDBRANCH   5   7
ENDBRANCH   2   3
ENDBRANCH   1   2
BRANCH   1  22
ATOM     22  C   UNL A   1      38.153  19.627  24.868  1.00  0.00     0.023 C 
BRANCH  22  23
ATOM     23  C   UNL A   1      39.345  20.029  25.728  1.00  0.00     0.116 C 
BRANCH  23  24
ATOM     24  N   UNL A   1      40.334  18.971  25.842  1.00  0.00    -0.352 N 
ATOM     25  C   UNL A   1      41.683  19.073  26.071  1.00  0.00     0.251 C 
ATOM     26  H   UNL A   1      39.990  18.054  25.740  1.00  0.00     0.163 HD
ATOM     27  O   UNL A   1      42.402  18.081  25.988  1.00  0.00    -0.269 OA
BRANCH  25  28
ATOM     28  C   UNL A   1      42.276  20.390  26.384  1.00  0.00     0.039 A 
ATOM     29  C   UNL A   1      42.806  21.152  25.341  1.00  0.00     0.014 A 
ATOM     30  C   UNL A   1      42.292  20.879  27.693  1.00  0.00     0.014 A 
ATOM     31  C   UNL A   1      43.297  22.433  25.602  1.00  0.00     0.010 A 
ATOM     32  C   UNL A   1      42.708  22.185  27.937  1.00  0.00     0.010 A 
ATOM     33  C   UNL A   1      43.217  22.975  26.895  1.00  0.00    -0.014 A 
BRANCH  33  34
ATOM     34  C   UNL A   1      43.657  24.366  27.171  1.00  0.00     0.031 A 
ATOM     35  C   UNL A   1      42.672  25.390  27.663  1.00  0.00     0.074 A 
ATOM     36  C   UNL A   1      44.934  24.723  26.926  1.00  0.00     0.049 A 
ATOM     37  N   UNL A   1      42.852  26.664  27.906  1.00  0.00    -0.248 NA
ATOM     38  C   UNL A   1      41.294  24.926  27.888  1.00  0.00     0.031 C 
ATOM     39  C   UNL A   1      45.974  23.833  26.405  1.00  0.00     0.029 A 
ATOM     40  N   UNL A   1      45.571  25.929  27.072  1.00  0.00    -0.354 N 
ATOM     41  C   UNL A   1      41.614  27.152  28.301  1.00  0.00     0.074 A 
ATOM     42  C   UNL A   1      40.677  26.054  28.210  1.00  0.00     0.031 C 
ATOM     43  C   UNL A   1      47.124  24.518  26.299  1.00  0.00     0.029 A 
ATOM     44  C   UNL A   1      46.894  25.902  26.700  1.00  0.00     0.049 A 
ATOM     45  H   UNL A   1      45.124  26.737  27.410  1.00  0.00     0.167 HD
ATOM     46  C   UNL A   1      41.292  28.398  28.724  1.00  0.00     0.037 A 
ATOM     47  C   UNL A   1      47.815  26.885  26.675  1.00  0.00     0.037 A 
ATOM     48  C   UNL A   1      42.231  29.485  28.827  1.00  0.00     0.049 A 
ATOM     49  C   UNL A   1      47.424  28.267  27.129  1.00  0.00     0.074 A 
ATOM     50  C   UNL A   1      42.015  30.769  29.298  1.00  0.00     0.029 A 
ATOM     51  N   UNL A   1      43.564  29.417  28.449  1.00  0.00    -0.354 N 
ATOM     52  N   UNL A   1      46.268  28.698  27.569  1.00  0.00    -0.248 NA
ATOM     53  C   UNL A   1      48.471  29.297  27.086  1.00  0.00     0.031 C 
ATOM     54  C   UNL A   1      43.201  31.494  29.148  1.00  0.00     0.029 A 
ATOM     55  C   UNL A   1      44.174  30.645  28.647  1.00  0.00     0.049 A 
ATOM     56  H   UNL A   1      44.010  28.615  28.092  1.00  0.00     0.167 HD
ATOM     57  C   UNL A   1      46.456  30.037  27.888  1.00  0.00     0.074 A 
ATOM     58  C   UNL A   1      47.842  30.342  27.604  1.00  0.00     0.031 C 
ATOM     59  C   UNL A   1      45.559  30.933  28.370  1.00  0.00     0.037 A 
BRANCH  46  60
ATOM     60  C   UNL A   1      39.862  28.657  29.106  1.00  0.00     0.064 A 
ATOM     61  C   UNL A   1      39.395  28.435  30.411  1.00  0.00     0.173 A 
ATOM     62  C   UNL A   1      38.956  29.175  28.166  1.00  0.00     0.173 A 
ATOM     63  F   UNL A   1      40.215  27.932  31.345  1.00  0.00    -0.203 F 
ATOM     64  C   UNL A   1      38.070  28.693  30.752  1.00  0.00     0.198 A 
ATOM     65  C   UNL A   1      37.641  29.463  28.521  1.00  0.00     0.198 A 
ATOM     66  F   UNL A   1      39.350  29.412  26.906  1.00  0.00    -0.203 F 
ATOM     67  F   UNL A   1      37.635  28.424  31.991  1.00  0.00    -0.200 F 
ATOM     68  C   UNL A   1      37.197  29.214  29.810  1.00  0.00     0.200 A 
ATOM     69  F   UNL A   1      36.803  29.983  27.613  1.00  0.00    -0.200 F 
ATOM     70  F   UNL A   1      35.925  29.471  30.143  1.00  0.00    -0.200 F 
ENDBRANCH  46  60
BRANCH  47  71
ATOM     71  C   UNL A   1      49.201  26.597  26.220  1.00  0.00     0.064 A 
ATOM     72  C   UNL A   1      50.156  26.074  27.104  1.00  0.00     0.173 A 
ATOM     73  C   UNL A   1      49.605  26.853  24.902  1.00  0.00     0.173 A 
ATOM     74  F   UNL A   1      49.825  25.832  28.381  1.00  0.00    -0.203 F 
ATOM     75  C   UNL A   1      51.468  25.843  26.694  1.00  0.00     0.198 A 
ATOM     76  C   UNL A   1      50.908  26.590  24.484  1.00  0.00     0.198 A 
ATOM     77  F   UNL A   1      48.730  27.347  24.014  1.00  0.00    -0.203 F 
ATOM     78  F   UNL A   1      52.373  25.396  27.574  1.00  0.00    -0.200 F 
ATOM     79  C   UNL A   1      51.841  26.097  25.383  1.00  0.00     0.200 A 
ATOM     80  F   UNL A   1      51.260  26.820  23.211  1.00  0.00    -0.200 F 
ATOM     81  F   UNL A   1      53.102  25.872  24.987  1.00  0.00    -0.200 F 
ENDBRANCH  47  71
BRANCH  59  82
ATOM     82  C   UNL A   1      46.059  32.319  28.666  1.00  0.00     0.064 A 
ATOM     83  C   UNL A   1      46.608  32.659  29.912  1.00  0.00     0.173 A 
ATOM     84  C   UNL A   1      46.022  33.310  27.673  1.00  0.00     0.173 A 
ATOM     85  F   UNL A   1      46.653  31.753  30.900  1.00  0.00    -0.203 F 
ATOM     86  C   UNL A   1      47.075  33.946  30.161  1.00  0.00     0.198 A 
ATOM     87  C   UNL A   1      46.523  34.587  27.914  1.00  0.00     0.198 A 
ATOM     88  F   UNL A   1      45.516  33.038  26.461  1.00  0.00    -0.203 F 
ATOM     89  F   UNL A   1      47.545  34.263  31.375  1.00  0.00    -0.200 F 
ATOM     90  C   UNL A   1      47.041  34.907  29.159  1.00  0.00     0.200 A 
ATOM     91  F   UNL A   1      46.505  35.508  26.939  1.00  0.00    -0.200 F 
ATOM     92  F   UNL A   1      47.499  36.142  29.399  1.00  0.00    -0.200 F 
ENDBRANCH  59  82
ENDBRANCH  33  34
ENDBRANCH  25  28
ENDBRANCH  23  24
ENDBRANCH  22  23
ENDBRANCH   1  22
TORSDOF 13
ENDMDL
