MODEL 1
REMARK VINA RESULT:     -12.7      0.000      0.000
REMARK SMILES CC(C)C(=O)Nc1ccc(C(=O)Nc2ccc(CC(=O)NCCCCNC(=O)c3ccc(-c4c5nc(c(-c6c(F)c(F)c(F)c(F)c6F)c6ccc([nH]6)c(-c6c(F)c(F)c(F)c(F)c6F)c6nc(c(-c7c(F)c(F)c(F)c(F)c7F)c7ccc4[nH]7)C=C6)C=C5)cc3)cc2)cc1
REMARK SMILES IDX 22 1 21 2 19 3 20 4 18 6 17 7 14 8 15 9 93 10 16 11 92 12
REMARK SMILES IDX 13 13 11 14 12 15 10 17 7 18 8 19 95 20 9 21 94 22 6 23 4 24
REMARK SMILES IDX 5 25 2 27 1 28 3 29 23 30 24 31 25 32 26 33 27 34 28 36
REMARK SMILES IDX 29 37 30 38 91 39 31 40 90 41 32 42 33 43 34 44 84 45 35 46
REMARK SMILES IDX 89 47 83 48 85 49 36 50 88 51 82 52 81 53 37 55 69 56 49 57
REMARK SMILES IDX 68 58 50 59 53 60 67 61 86 62 51 63 52 64 66 66 87 67 54 68
REMARK SMILES IDX 38 69 39 70 47 71 40 72 41 73 45 74 48 75 42 76 43 77 46 78
REMARK SMILES IDX 44 79 70 80 71 81 79 82 72 83 73 84 77 85 80 86 74 87 75 88
REMARK SMILES IDX 78 89 76 90 55 91 56 92 64 93 57 94 58 95 62 96 65 97 59 98
REMARK SMILES IDX 60 99 63 100 61 101
REMARK H PARENT 21 5 13 16 6 26 26 35 85 54 53 65
REMARK Flexibility Score: inf
ROOT
ATOM      1  C   UNL A   1      35.637  20.621  25.093  1.00  0.00     0.116 C 
ENDROOT
BRANCH   1   2
ATOM      2  N   UNL A   1      35.335  21.138  26.412  1.00  0.00    -0.356 N 
ATOM      3  C   UNL A   1      34.119  21.493  26.925  1.00  0.00     0.224 C 
ATOM      4  O   UNL A   1      34.077  21.982  28.055  1.00  0.00    -0.275 OA
ATOM      5  H   UNL A   1      36.104  21.247  27.017  1.00  0.00     0.163 HD
BRANCH   3   6
ATOM      6  C   UNL A   1      32.852  21.239  26.124  1.00  0.00     0.135 C 
BRANCH   6   7
ATOM      7  C   UNL A   1      32.762  22.028  24.838  1.00  0.00    -0.039 A 
ATOM      8  C   UNL A   1      32.695  23.495  22.442  1.00  0.00     0.041 A 
ATOM      9  C   UNL A   1      32.420  22.125  22.431  1.00  0.00     0.026 A 
ATOM     10  C   UNL A   1      32.847  24.154  23.662  1.00  0.00     0.026 A 
ATOM     11  C   UNL A   1      32.463  21.393  23.625  1.00  0.00     0.006 A 
ATOM     12  C   UNL A   1      32.948  23.417  24.844  1.00  0.00     0.006 A 
BRANCH   8  13
ATOM     13  N   UNL A   1      32.944  24.130  21.211  1.00  0.00    -0.322 N 
ATOM     14  C   UNL A   1      32.765  25.455  20.826  1.00  0.00     0.255 C 
ATOM     15  O   UNL A   1      32.861  25.743  19.632  1.00  0.00    -0.269 OA
ATOM     16  H   UNL A   1      33.304  23.542  20.508  1.00  0.00     0.170 HD
BRANCH  14  17
ATOM     17  C   UNL A   1      32.586  26.571  21.812  1.00  0.00     0.040 A 
ATOM     18  C   UNL A   1      32.260  28.700  23.640  1.00  0.00     0.041 A 
ATOM     19  C   UNL A   1      31.142  28.040  23.131  1.00  0.00     0.027 A 
ATOM     20  C   UNL A   1      33.505  28.213  23.318  1.00  0.00     0.027 A 
ATOM     21  C   UNL A   1      31.307  26.959  22.237  1.00  0.00     0.016 A 
ATOM     22  C   UNL A   1      33.665  27.297  22.297  1.00  0.00     0.016 A 
BRANCH  18  23
ATOM     23  N   UNL A   1      32.141  29.826  24.461  1.00  0.00    -0.326 N 
ATOM     24  C   UNL A   1      31.977  29.924  25.820  1.00  0.00     0.226 C 
ATOM     25  O   UNL A   1      31.590  31.017  26.257  1.00  0.00    -0.274 OA
ATOM     26  H   UNL A   1      32.181  30.687  23.987  1.00  0.00     0.169 HD
BRANCH  24  27
ATOM     27  C   UNL A   1      32.324  28.802  26.830  1.00  0.00     0.072 C 
ATOM     28  C   UNL A   1      31.475  27.530  26.762  1.00  0.00     0.018 C 
ATOM     29  C   UNL A   1      33.817  28.509  26.976  1.00  0.00     0.018 C 
ENDBRANCH  24  27
ENDBRANCH  18  23
ENDBRANCH  14  17
ENDBRANCH   8  13
ENDBRANCH   6   7
ENDBRANCH   3   6
ENDBRANCH   1   2
BRANCH   1  30
ATOM     30  C   UNL A   1      36.644  21.505  24.354  1.00  0.00     0.023 C 
BRANCH  30  31
ATOM     31  C   UNL A   1      36.428  23.003  24.522  1.00  0.00     0.023 C 
BRANCH  31  32
ATOM     32  C   UNL A   1      37.469  23.701  25.379  1.00  0.00     0.116 C 
BRANCH  32  33
ATOM     33  N   UNL A   1      38.639  22.878  25.654  1.00  0.00    -0.352 N 
ATOM     34  C   UNL A   1      39.776  23.224  26.343  1.00  0.00     0.251 C 
ATOM     35  H   UNL A   1      38.611  21.959  25.302  1.00  0.00     0.163 HD
ATOM     36  O   UNL A   1      40.728  22.455  26.415  1.00  0.00    -0.269 OA
BRANCH  34  37
ATOM     37  C   UNL A   1      39.852  24.566  26.953  1.00  0.00     0.039 A 
ATOM     38  C   UNL A   1      39.371  24.742  28.252  1.00  0.00     0.014 A 
ATOM     39  C   UNL A   1      40.481  25.613  26.275  1.00  0.00     0.014 A 
ATOM     40  C   UNL A   1      39.605  25.950  28.908  1.00  0.00     0.010 A 
ATOM     41  C   UNL A   1      40.776  26.787  26.956  1.00  0.00     0.010 A 
ATOM     42  C   UNL A   1      40.353  26.961  28.284  1.00  0.00    -0.014 A 
BRANCH  42  43
ATOM     43  C   UNL A   1      40.743  28.193  29.010  1.00  0.00     0.031 A 
ATOM     44  C   UNL A   1      42.123  28.325  29.582  1.00  0.00     0.074 A 
ATOM     45  C   UNL A   1      39.822  29.152  29.229  1.00  0.00     0.049 A 
ATOM     46  N   UNL A   1      42.621  29.276  30.330  1.00  0.00    -0.248 NA
ATOM     47  C   UNL A   1      43.061  27.228  29.299  1.00  0.00     0.031 C 
ATOM     48  C   UNL A   1      38.432  29.112  28.766  1.00  0.00     0.029 A 
ATOM     49  N   UNL A   1      39.910  30.338  29.912  1.00  0.00    -0.354 N 
ATOM     50  C   UNL A   1      43.922  28.887  30.617  1.00  0.00     0.074 A 
ATOM     51  C   UNL A   1      44.123  27.592  30.005  1.00  0.00     0.031 C 
ATOM     52  C   UNL A   1      37.804  30.230  29.166  1.00  0.00     0.029 A 
ATOM     53  C   UNL A   1      38.732  31.044  29.945  1.00  0.00     0.049 A 
ATOM     54  H   UNL A   1      40.739  30.654  30.339  1.00  0.00     0.167 HD
ATOM     55  C   UNL A   1      44.869  29.563  31.310  1.00  0.00     0.037 A 
ATOM     56  C   UNL A   1      38.431  32.210  30.547  1.00  0.00     0.037 A 
ATOM     57  C   UNL A   1      44.672  30.862  31.896  1.00  0.00     0.049 A 
ATOM     58  C   UNL A   1      39.498  32.931  31.324  1.00  0.00     0.074 A 
ATOM     59  C   UNL A   1      45.590  31.660  32.553  1.00  0.00     0.029 A 
ATOM     60  N   UNL A   1      43.468  31.552  31.898  1.00  0.00    -0.354 N 
ATOM     61  N   UNL A   1      40.747  32.590  31.527  1.00  0.00    -0.248 NA
ATOM     62  C   UNL A   1      39.112  34.201  31.958  1.00  0.00     0.031 C 
ATOM     63  C   UNL A   1      44.932  32.812  32.995  1.00  0.00     0.029 A 
ATOM     64  C   UNL A   1      43.614  32.753  32.573  1.00  0.00     0.049 A 
ATOM     65  H   UNL A   1      42.633  31.234  31.483  1.00  0.00     0.167 HD
ATOM     66  C   UNL A   1      41.301  33.608  32.290  1.00  0.00     0.074 A 
ATOM     67  C   UNL A   1      40.257  34.588  32.502  1.00  0.00     0.031 C 
ATOM     68  C   UNL A   1      42.563  33.718  32.774  1.00  0.00     0.037 A 
BRANCH  55  69
ATOM     69  C   UNL A   1      46.209  28.909  31.468  1.00  0.00     0.064 A 
ATOM     70  C   UNL A   1      47.228  29.084  30.518  1.00  0.00     0.173 A 
ATOM     71  C   UNL A   1      46.493  28.132  32.600  1.00  0.00     0.173 A 
ATOM     72  F   UNL A   1      47.003  29.807  29.412  1.00  0.00    -0.203 F 
ATOM     73  C   UNL A   1      48.472  28.482  30.685  1.00  0.00     0.198 A 
ATOM     74  C   UNL A   1      47.748  27.556  32.777  1.00  0.00     0.198 A 
ATOM     75  F   UNL A   1      45.556  27.936  33.540  1.00  0.00    -0.203 F 
ATOM     76  F   UNL A   1      49.415  28.626  29.742  1.00  0.00    -0.200 F 
ATOM     77  C   UNL A   1      48.734  27.725  31.817  1.00  0.00     0.200 A 
ATOM     78  F   UNL A   1      48.003  26.833  33.877  1.00  0.00    -0.200 F 
ATOM     79  F   UNL A   1      49.936  27.153  31.978  1.00  0.00    -0.200 F 
ENDBRANCH  55  69
BRANCH  56  80
ATOM     80  C   UNL A   1      37.062  32.775  30.428  1.00  0.00     0.064 A 
ATOM     81  C   UNL A   1      36.699  33.549  29.318  1.00  0.00     0.173 A 
ATOM     82  C   UNL A   1      36.091  32.554  31.417  1.00  0.00     0.173 A 
ATOM     83  F   UNL A   1      37.599  33.805  28.358  1.00  0.00    -0.203 F 
ATOM     84  C   UNL A   1      35.422  34.097  29.209  1.00  0.00     0.198 A 
ATOM     85  C   UNL A   1      34.807  33.080  31.293  1.00  0.00     0.198 A 
ATOM     86  F   UNL A   1      36.388  31.816  32.496  1.00  0.00    -0.203 F 
ATOM     87  F   UNL A   1      35.115  34.869  28.158  1.00  0.00    -0.200 F 
ATOM     88  C   UNL A   1      34.476  33.857  30.194  1.00  0.00     0.200 A 
ATOM     89  F   UNL A   1      33.891  32.834  32.240  1.00  0.00    -0.200 F 
ATOM     90  F   UNL A   1      33.247  34.380  30.086  1.00  0.00    -0.200 F 
ENDBRANCH  56  80
BRANCH  68  91
ATOM     91  C   UNL A   1      42.891  34.951  33.563  1.00  0.00     0.064 A 
ATOM     92  C   UNL A   1      43.269  36.145  32.932  1.00  0.00     0.173 A 
ATOM     93  C   UNL A   1      42.781  34.951  34.962  1.00  0.00     0.173 A 
ATOM     94  F   UNL A   1      43.405  36.190  31.598  1.00  0.00    -0.203 F 
ATOM     95  C   UNL A   1      43.542  37.290  33.674  1.00  0.00     0.198 A 
ATOM     96  C   UNL A   1      43.027  36.106  35.699  1.00  0.00     0.198 A 
ATOM     97  F   UNL A   1      42.417  33.835  35.612  1.00  0.00    -0.203 F 
ATOM     98  F   UNL A   1      43.941  38.409  33.055  1.00  0.00    -0.200 F 
ATOM     99  C   UNL A   1      43.413  37.272  35.056  1.00  0.00     0.200 A 
ATOM    100  F   UNL A   1      42.890  36.089  37.032  1.00  0.00    -0.200 F 
ATOM    101  F   UNL A   1      43.667  38.378  35.768  1.00  0.00    -0.200 F 
ENDBRANCH  68  91
ENDBRANCH  42  43
ENDBRANCH  34  37
ENDBRANCH  32  33
ENDBRANCH  31  32
ENDBRANCH  30  31
ENDBRANCH   1  30
TORSDOF 16
ENDMDL
MODEL 2
REMARK VINA RESULT:     -12.6      3.580      9.334
REMARK SMILES CC(C)C(=O)Nc1ccc(C(=O)Nc2ccc(CC(=O)NCCCCNC(=O)c3ccc(-c4c5nc(c(-c6c(F)c(F)c(F)c(F)c6F)c6ccc([nH]6)c(-c6c(F)c(F)c(F)c(F)c6F)c6nc(c(-c7c(F)c(F)c(F)c(F)c7F)c7ccc4[nH]7)C=C6)C=C5)cc3)cc2)cc1
REMARK SMILES IDX 22 1 21 2 19 3 20 4 18 6 17 7 14 8 15 9 93 10 16 11 92 12
REMARK SMILES IDX 13 13 11 14 12 15 10 17 7 18 8 19 95 20 9 21 94 22 6 23 4 24
REMARK SMILES IDX 5 25 2 27 1 28 3 29 23 30 24 31 25 32 26 33 27 34 28 36
REMARK SMILES IDX 29 37 30 38 91 39 31 40 90 41 32 42 33 43 34 44 84 45 35 46
REMARK SMILES IDX 89 47 83 48 85 49 36 50 88 51 82 52 81 53 37 55 69 56 49 57
REMARK SMILES IDX 68 58 50 59 53 60 67 61 86 62 51 63 52 64 66 66 87 67 54 68
REMARK SMILES IDX 38 69 39 70 47 71 40 72 41 73 45 74 48 75 42 76 43 77 46 78
REMARK SMILES IDX 44 79 70 80 71 81 79 82 72 83 73 84 77 85 80 86 74 87 75 88
REMARK SMILES IDX 78 89 76 90 55 91 56 92 64 93 57 94 58 95 62 96 65 97 59 98
REMARK SMILES IDX 60 99 63 100 61 101
REMARK H PARENT 21 5 13 16 6 26 26 35 85 54 53 65
REMARK Flexibility Score: inf
ROOT
ATOM      1  C   UNL A   1      34.025  31.466  28.020  1.00  0.00     0.116 C 
ENDROOT
BRANCH   1   2
ATOM      2  N   UNL A   1      32.884  31.631  27.144  1.00  0.00    -0.356 N 
ATOM      3  C   UNL A   1      32.081  30.664  26.606  1.00  0.00     0.224 C 
ATOM      4  O   UNL A   1      31.195  31.004  25.821  1.00  0.00    -0.275 OA
ATOM      5  H   UNL A   1      32.656  32.559  26.905  1.00  0.00     0.163 HD
BRANCH   3   6
ATOM      6  C   UNL A   1      32.261  29.212  27.016  1.00  0.00     0.135 C 
BRANCH   6   7
ATOM      7  C   UNL A   1      32.418  28.254  25.858  1.00  0.00    -0.039 A 
ATOM      8  C   UNL A   1      32.666  26.542  23.642  1.00  0.00     0.041 A 
ATOM      9  C   UNL A   1      33.778  27.248  24.109  1.00  0.00     0.026 A 
ATOM     10  C   UNL A   1      31.479  26.572  24.374  1.00  0.00     0.026 A 
ATOM     11  C   UNL A   1      33.651  28.108  25.208  1.00  0.00     0.006 A 
ATOM     12  C   UNL A   1      31.335  27.472  25.431  1.00  0.00     0.006 A 
BRANCH   8  13
ATOM     13  N   UNL A   1      32.750  25.938  22.374  1.00  0.00    -0.322 N 
ATOM     14  C   UNL A   1      33.067  24.632  22.015  1.00  0.00     0.255 C 
ATOM     15  O   UNL A   1      33.277  24.378  20.828  1.00  0.00    -0.269 OA
ATOM     16  H   UNL A   1      32.553  26.537  21.618  1.00  0.00     0.170 HD
BRANCH  14  17
ATOM     17  C   UNL A   1      33.038  23.492  22.989  1.00  0.00     0.040 A 
ATOM     18  C   UNL A   1      32.973  21.319  24.794  1.00  0.00     0.041 A 
ATOM     19  C   UNL A   1      34.196  21.854  24.390  1.00  0.00     0.027 A 
ATOM     20  C   UNL A   1      31.821  21.947  24.382  1.00  0.00     0.027 A 
ATOM     21  C   UNL A   1      34.227  22.957  23.508  1.00  0.00     0.016 A 
ATOM     22  C   UNL A   1      31.849  22.887  23.371  1.00  0.00     0.016 A 
BRANCH  18  23
ATOM     23  N   UNL A   1      32.898  20.177  25.598  1.00  0.00    -0.326 N 
ATOM     24  C   UNL A   1      32.916  18.848  25.261  1.00  0.00     0.226 C 
ATOM     25  O   UNL A   1      32.528  18.048  26.124  1.00  0.00    -0.274 OA
ATOM     26  H   UNL A   1      32.822  20.358  26.563  1.00  0.00     0.169 HD
BRANCH  24  27
ATOM     27  C   UNL A   1      33.466  18.288  23.925  1.00  0.00     0.072 C 
ATOM     28  C   UNL A   1      34.403  17.081  24.019  1.00  0.00     0.018 C 
ATOM     29  C   UNL A   1      32.428  18.146  22.812  1.00  0.00     0.018 C 
ENDBRANCH  24  27
ENDBRANCH  18  23
ENDBRANCH  14  17
ENDBRANCH   8  13
ENDBRANCH   6   7
ENDBRANCH   3   6
ENDBRANCH   1   2
BRANCH   1  30
ATOM     30  C   UNL A   1      34.355  32.758  28.772  1.00  0.00     0.023 C 
BRANCH  30  31
ATOM     31  C   UNL A   1      33.401  33.915  28.509  1.00  0.00     0.023 C 
BRANCH  31  32
ATOM     32  C   UNL A   1      33.814  35.234  29.139  1.00  0.00     0.116 C 
BRANCH  32  33
ATOM     33  N   UNL A   1      32.811  35.786  30.038  1.00  0.00    -0.352 N 
ATOM     34  C   UNL A   1      32.771  35.715  31.409  1.00  0.00     0.251 C 
ATOM     35  H   UNL A   1      32.069  36.271  29.609  1.00  0.00     0.163 HD
ATOM     36  O   UNL A   1      31.808  36.146  32.035  1.00  0.00    -0.269 OA
BRANCH  34  37
ATOM     37  C   UNL A   1      33.889  35.061  32.116  1.00  0.00     0.039 A 
ATOM     38  C   UNL A   1      33.699  33.778  32.631  1.00  0.00     0.014 A 
ATOM     39  C   UNL A   1      35.140  35.680  32.181  1.00  0.00     0.014 A 
ATOM     40  C   UNL A   1      34.794  33.074  33.133  1.00  0.00     0.010 A 
ATOM     41  C   UNL A   1      36.240  34.952  32.614  1.00  0.00     0.010 A 
ATOM     42  C   UNL A   1      36.080  33.637  33.080  1.00  0.00    -0.014 A 
BRANCH  42  43
ATOM     43  C   UNL A   1      37.280  32.858  33.469  1.00  0.00     0.031 A 
ATOM     44  C   UNL A   1      37.991  33.161  34.754  1.00  0.00     0.074 A 
ATOM     45  C   UNL A   1      37.777  31.939  32.617  1.00  0.00     0.049 A 
ATOM     46  N   UNL A   1      39.107  32.662  35.219  1.00  0.00    -0.248 NA
ATOM     47  C   UNL A   1      37.382  34.183  35.619  1.00  0.00     0.031 C 
ATOM     48  C   UNL A   1      37.201  31.593  31.315  1.00  0.00     0.029 A 
ATOM     49  N   UNL A   1      38.889  31.141  32.711  1.00  0.00    -0.354 N 
ATOM     50  C   UNL A   1      39.339  33.315  36.421  1.00  0.00     0.074 A 
ATOM     51  C   UNL A   1      38.277  34.282  36.591  1.00  0.00     0.031 C 
ATOM     52  C   UNL A   1      37.956  30.643  30.740  1.00  0.00     0.029 A 
ATOM     53  C   UNL A   1      39.087  30.342  31.611  1.00  0.00     0.049 A 
ATOM     54  H   UNL A   1      39.488  31.141  33.492  1.00  0.00     0.167 HD
ATOM     55  C   UNL A   1      40.338  33.110  37.312  1.00  0.00     0.037 A 
ATOM     56  C   UNL A   1      40.078  29.475  31.332  1.00  0.00     0.037 A 
ATOM     57  C   UNL A   1      41.380  32.129  37.149  1.00  0.00     0.049 A 
ATOM     58  C   UNL A   1      41.185  29.278  32.332  1.00  0.00     0.074 A 
ATOM     59  C   UNL A   1      42.393  31.794  38.029  1.00  0.00     0.029 A 
ATOM     60  N   UNL A   1      41.542  31.330  36.028  1.00  0.00    -0.354 N 
ATOM     61  N   UNL A   1      41.354  29.848  33.500  1.00  0.00    -0.248 NA
ATOM     62  C   UNL A   1      42.238  28.317  31.974  1.00  0.00     0.031 C 
ATOM     63  C   UNL A   1      43.197  30.825  37.421  1.00  0.00     0.029 A 
ATOM     64  C   UNL A   1      42.658  30.523  36.181  1.00  0.00     0.049 A 
ATOM     65  H   UNL A   1      40.952  31.335  35.239  1.00  0.00     0.167 HD
ATOM     66  C   UNL A   1      42.517  29.301  34.025  1.00  0.00     0.074 A 
ATOM     67  C   UNL A   1      43.004  28.342  33.056  1.00  0.00     0.031 C 
ATOM     68  C   UNL A   1      43.127  29.573  35.205  1.00  0.00     0.037 A 
BRANCH  55  69
ATOM     69  C   UNL A   1      40.350  33.959  38.547  1.00  0.00     0.064 A 
ATOM     70  C   UNL A   1      39.713  33.547  39.729  1.00  0.00     0.173 A 
ATOM     71  C   UNL A   1      41.039  35.181  38.565  1.00  0.00     0.173 A 
ATOM     72  F   UNL A   1      39.031  32.393  39.759  1.00  0.00    -0.203 F 
ATOM     73  C   UNL A   1      39.744  34.339  40.873  1.00  0.00     0.198 A 
ATOM     74  C   UNL A   1      41.092  35.956  39.720  1.00  0.00     0.198 A 
ATOM     75  F   UNL A   1      41.667  35.619  37.464  1.00  0.00    -0.203 F 
ATOM     76  F   UNL A   1      39.089  33.946  41.974  1.00  0.00    -0.200 F 
ATOM     77  C   UNL A   1      40.439  35.539  40.870  1.00  0.00     0.200 A 
ATOM     78  F   UNL A   1      41.773  37.111  39.719  1.00  0.00    -0.200 F 
ATOM     79  F   UNL A   1      40.473  36.297  41.975  1.00  0.00    -0.200 F 
ENDBRANCH  55  69
BRANCH  56  80
ATOM     80  C   UNL A   1      40.064  28.717  30.054  1.00  0.00     0.064 A 
ATOM     81  C   UNL A   1      39.455  27.457  29.974  1.00  0.00     0.173 A 
ATOM     82  C   UNL A   1      40.653  29.233  28.891  1.00  0.00     0.173 A 
ATOM     83  F   UNL A   1      38.897  26.913  31.065  1.00  0.00    -0.203 F 
ATOM     84  C   UNL A   1      39.453  26.734  28.783  1.00  0.00     0.198 A 
ATOM     85  C   UNL A   1      40.627  28.520  27.694  1.00  0.00     0.198 A 
ATOM     86  F   UNL A   1      41.244  30.437  28.915  1.00  0.00    -0.203 F 
ATOM     87  F   UNL A   1      38.903  25.512  28.745  1.00  0.00    -0.200 F 
ATOM     88  C   UNL A   1      40.034  27.268  27.643  1.00  0.00     0.200 A 
ATOM     89  F   UNL A   1      41.177  29.047  26.591  1.00  0.00    -0.200 F 
ATOM     90  F   UNL A   1      40.028  26.573  26.497  1.00  0.00    -0.200 F 
ENDBRANCH  56  80
BRANCH  68  91
ATOM     91  C   UNL A   1      44.379  28.809  35.522  1.00  0.00     0.064 A 
ATOM     92  C   UNL A   1      44.335  27.585  36.208  1.00  0.00     0.173 A 
ATOM     93  C   UNL A   1      45.629  29.281  35.097  1.00  0.00     0.173 A 
ATOM     94  F   UNL A   1      43.165  27.101  36.651  1.00  0.00    -0.203 F 
ATOM     95  C   UNL A   1      45.501  26.873  36.471  1.00  0.00     0.198 A 
ATOM     96  C   UNL A   1      46.790  28.551  35.337  1.00  0.00     0.198 A 
ATOM     97  F   UNL A   1      45.723  30.443  34.432  1.00  0.00    -0.203 F 
ATOM     98  F   UNL A   1      45.442  25.727  37.163  1.00  0.00    -0.200 F 
ATOM     99  C   UNL A   1      46.726  27.351  36.028  1.00  0.00     0.200 A 
ATOM    100  F   UNL A   1      47.970  29.010  34.897  1.00  0.00    -0.200 F 
ATOM    101  F   UNL A   1      47.846  26.658  36.274  1.00  0.00    -0.200 F 
ENDBRANCH  68  91
ENDBRANCH  42  43
ENDBRANCH  34  37
ENDBRANCH  32  33
ENDBRANCH  31  32
ENDBRANCH  30  31
ENDBRANCH   1  30
TORSDOF 16
ENDMDL
MODEL 3
REMARK VINA RESULT:     -12.4      3.680      8.993
REMARK SMILES CC(C)C(=O)Nc1ccc(C(=O)Nc2ccc(CC(=O)NCCCCNC(=O)c3ccc(-c4c5nc(c(-c6c(F)c(F)c(F)c(F)c6F)c6ccc([nH]6)c(-c6c(F)c(F)c(F)c(F)c6F)c6nc(c(-c7c(F)c(F)c(F)c(F)c7F)c7ccc4[nH]7)C=C6)C=C5)cc3)cc2)cc1
REMARK SMILES IDX 22 1 21 2 19 3 20 4 18 6 17 7 14 8 15 9 93 10 16 11 92 12
REMARK SMILES IDX 13 13 11 14 12 15 10 17 7 18 8 19 95 20 9 21 94 22 6 23 4 24
REMARK SMILES IDX 5 25 2 27 1 28 3 29 23 30 24 31 25 32 26 33 27 34 28 36
REMARK SMILES IDX 29 37 30 38 91 39 31 40 90 41 32 42 33 43 34 44 84 45 35 46
REMARK SMILES IDX 89 47 83 48 85 49 36 50 88 51 82 52 81 53 37 55 69 56 49 57
REMARK SMILES IDX 68 58 50 59 53 60 67 61 86 62 51 63 52 64 66 66 87 67 54 68
REMARK SMILES IDX 38 69 39 70 47 71 40 72 41 73 45 74 48 75 42 76 43 77 46 78
REMARK SMILES IDX 44 79 70 80 71 81 79 82 72 83 73 84 77 85 80 86 74 87 75 88
REMARK SMILES IDX 78 89 76 90 55 91 56 92 64 93 57 94 58 95 62 96 65 97 59 98
REMARK SMILES IDX 60 99 63 100 61 101
REMARK H PARENT 21 5 13 16 6 26 26 35 85 54 53 65
REMARK Flexibility Score: inf
ROOT
ATOM      1  C   UNL A   1      34.614  31.917  28.925  1.00  0.00     0.116 C 
ENDROOT
BRANCH   1   2
ATOM      2  N   UNL A   1      35.751  31.346  28.235  1.00  0.00    -0.356 N 
ATOM      3  C   UNL A   1      35.885  30.086  27.719  1.00  0.00     0.224 C 
ATOM      4  O   UNL A   1      36.967  29.764  27.226  1.00  0.00    -0.275 OA
ATOM      5  H   UNL A   1      36.529  31.940  28.122  1.00  0.00     0.163 HD
BRANCH   3   6
ATOM      6  C   UNL A   1      34.700  29.134  27.721  1.00  0.00     0.135 C 
BRANCH   6   7
ATOM      7  C   UNL A   1      33.725  29.355  26.588  1.00  0.00    -0.039 A 
ATOM      8  C   UNL A   1      31.869  29.674  24.501  1.00  0.00     0.041 A 
ATOM      9  C   UNL A   1      31.669  30.326  25.721  1.00  0.00     0.026 A 
ATOM     10  C   UNL A   1      33.068  28.996  24.275  1.00  0.00     0.026 A 
ATOM     11  C   UNL A   1      32.590  30.158  26.763  1.00  0.00     0.006 A 
ATOM     12  C   UNL A   1      33.956  28.780  25.330  1.00  0.00     0.006 A 
BRANCH   8  13
ATOM     13  N   UNL A   1      30.792  29.613  23.598  1.00  0.00    -0.322 N 
ATOM     14  C   UNL A   1      30.197  28.521  22.974  1.00  0.00     0.255 C 
ATOM     15  O   UNL A   1      29.395  28.724  22.063  1.00  0.00    -0.269 OA
ATOM     16  H   UNL A   1      30.395  30.485  23.369  1.00  0.00     0.170 HD
BRANCH  14  17
ATOM     17  C   UNL A   1      30.391  27.111  23.447  1.00  0.00     0.040 A 
ATOM     18  C   UNL A   1      30.717  24.447  24.329  1.00  0.00     0.041 A 
ATOM     19  C   UNL A   1      31.238  24.842  23.096  1.00  0.00     0.027 A 
ATOM     20  C   UNL A   1      30.153  25.407  25.135  1.00  0.00     0.027 A 
ATOM     21  C   UNL A   1      31.097  26.180  22.668  1.00  0.00     0.016 A 
ATOM     22  C   UNL A   1      29.839  26.655  24.635  1.00  0.00     0.016 A 
BRANCH  18  23
ATOM     23  N   UNL A   1      30.762  23.114  24.754  1.00  0.00    -0.326 N 
ATOM     24  C   UNL A   1      31.713  22.442  25.478  1.00  0.00     0.226 C 
ATOM     25  O   UNL A   1      31.660  21.205  25.454  1.00  0.00    -0.274 OA
ATOM     26  H   UNL A   1      29.983  22.573  24.490  1.00  0.00     0.169 HD
BRANCH  24  27
ATOM     27  C   UNL A   1      32.774  23.122  26.379  1.00  0.00     0.072 C 
ATOM     28  C   UNL A   1      32.936  22.561  27.794  1.00  0.00     0.018 C 
ATOM     29  C   UNL A   1      34.113  23.400  25.696  1.00  0.00     0.018 C 
ENDBRANCH  24  27
ENDBRANCH  18  23
ENDBRANCH  14  17
ENDBRANCH   8  13
ENDBRANCH   6   7
ENDBRANCH   3   6
ENDBRANCH   1   2
BRANCH   1  30
ATOM     30  C   UNL A   1      34.849  33.385  29.288  1.00  0.00     0.023 C 
BRANCH  30  31
ATOM     31  C   UNL A   1      33.671  34.311  29.014  1.00  0.00     0.023 C 
BRANCH  31  32
ATOM     32  C   UNL A   1      33.769  35.674  29.676  1.00  0.00     0.116 C 
BRANCH  32  33
ATOM     33  N   UNL A   1      32.674  35.952  30.594  1.00  0.00    -0.352 N 
ATOM     34  C   UNL A   1      32.593  35.654  31.933  1.00  0.00     0.251 C 
ATOM     35  H   UNL A   1      31.893  36.412  30.207  1.00  0.00     0.163 HD
ATOM     36  O   UNL A   1      31.563  35.862  32.564  1.00  0.00    -0.269 OA
BRANCH  34  37
ATOM     37  C   UNL A   1      33.757  35.026  32.588  1.00  0.00     0.039 A 
ATOM     38  C   UNL A   1      33.616  33.747  33.128  1.00  0.00     0.014 A 
ATOM     39  C   UNL A   1      35.000  35.666  32.579  1.00  0.00     0.014 A 
ATOM     40  C   UNL A   1      34.746  33.067  33.580  1.00  0.00     0.010 A 
ATOM     41  C   UNL A   1      36.133  34.960  32.963  1.00  0.00     0.010 A 
ATOM     42  C   UNL A   1      36.018  33.649  33.453  1.00  0.00    -0.014 A 
BRANCH  42  43
ATOM     43  C   UNL A   1      37.249  32.893  33.787  1.00  0.00     0.031 A 
ATOM     44  C   UNL A   1      38.007  33.206  35.043  1.00  0.00     0.074 A 
ATOM     45  C   UNL A   1      37.729  31.989  32.911  1.00  0.00     0.049 A 
ATOM     46  N   UNL A   1      39.152  32.728  35.459  1.00  0.00    -0.248 NA
ATOM     47  C   UNL A   1      37.413  34.212  35.937  1.00  0.00     0.031 C 
ATOM     48  C   UNL A   1      37.107  31.636  31.633  1.00  0.00     0.029 A 
ATOM     49  N   UNL A   1      38.860  31.213  32.954  1.00  0.00    -0.354 N 
ATOM     50  C   UNL A   1      39.420  33.382  36.653  1.00  0.00     0.074 A 
ATOM     51  C   UNL A   1      38.346  34.326  36.872  1.00  0.00     0.031 C 
ATOM     52  C   UNL A   1      37.856  30.704  31.022  1.00  0.00     0.029 A 
ATOM     53  C   UNL A   1      39.029  30.423  31.844  1.00  0.00     0.049 A 
ATOM     54  H   UNL A   1      39.491  31.223  33.710  1.00  0.00     0.167 HD
ATOM     55  C   UNL A   1      40.460  33.194  37.501  1.00  0.00     0.037 A 
ATOM     56  C   UNL A   1      40.025  29.577  31.520  1.00  0.00     0.037 A 
ATOM     57  C   UNL A   1      41.513  32.236  37.290  1.00  0.00     0.049 A 
ATOM     58  C   UNL A   1      41.176  29.400  32.472  1.00  0.00     0.074 A 
ATOM     59  C   UNL A   1      42.569  31.918  38.125  1.00  0.00     0.029 A 
ATOM     60  N   UNL A   1      41.645  31.444  36.159  1.00  0.00    -0.354 N 
ATOM     61  N   UNL A   1      41.382  29.969  33.634  1.00  0.00    -0.248 NA
ATOM     62  C   UNL A   1      42.233  28.462  32.066  1.00  0.00     0.031 C 
ATOM     63  C   UNL A   1      43.367  30.969  37.479  1.00  0.00     0.029 A 
ATOM     64  C   UNL A   1      42.783  30.660  36.261  1.00  0.00     0.049 A 
ATOM     65  H   UNL A   1      41.023  31.440  35.395  1.00  0.00     0.167 HD
ATOM     66  C   UNL A   1      42.577  29.444  34.108  1.00  0.00     0.074 A 
ATOM     67  C   UNL A   1      43.043  28.499  33.115  1.00  0.00     0.031 C 
ATOM     68  C   UNL A   1      43.231  29.724  35.263  1.00  0.00     0.037 A 
BRANCH  55  69
ATOM     69  C   UNL A   1      40.505  34.038  38.739  1.00  0.00     0.064 A 
ATOM     70  C   UNL A   1      41.161  35.280  38.757  1.00  0.00     0.173 A 
ATOM     71  C   UNL A   1      39.853  33.623  39.909  1.00  0.00     0.173 A 
ATOM     72  F   UNL A   1      41.810  35.716  37.668  1.00  0.00    -0.203 F 
ATOM     73  C   UNL A   1      41.184  36.060  39.910  1.00  0.00     0.198 A 
ATOM     74  C   UNL A   1      39.854  34.419  41.050  1.00  0.00     0.198 A 
ATOM     75  F   UNL A   1      39.209  32.447  39.943  1.00  0.00    -0.203 F 
ATOM     76  F   UNL A   1      41.855  37.220  39.917  1.00  0.00    -0.200 F 
ATOM     77  C   UNL A   1      40.524  35.634  41.053  1.00  0.00     0.200 A 
ATOM     78  F   UNL A   1      39.207  34.011  42.151  1.00  0.00    -0.200 F 
ATOM     79  F   UNL A   1      40.541  36.390  42.159  1.00  0.00    -0.200 F 
ENDBRANCH  55  69
BRANCH  56  80
ATOM     80  C   UNL A   1      39.973  28.824  30.240  1.00  0.00     0.064 A 
ATOM     81  C   UNL A   1      40.490  29.377  29.060  1.00  0.00     0.173 A 
ATOM     82  C   UNL A   1      39.408  27.543  30.168  1.00  0.00     0.173 A 
ATOM     83  F   UNL A   1      41.020  30.609  29.076  1.00  0.00    -0.203 F 
ATOM     84  C   UNL A   1      40.428  28.684  27.854  1.00  0.00     0.198 A 
ATOM     85  C   UNL A   1      39.371  26.840  28.965  1.00  0.00     0.198 A 
ATOM     86  F   UNL A   1      38.904  26.968  31.270  1.00  0.00    -0.203 F 
ATOM     87  F   UNL A   1      40.891  29.254  26.732  1.00  0.00    -0.200 F 
ATOM     88  C   UNL A   1      39.874  27.414  27.808  1.00  0.00     0.200 A 
ATOM     89  F   UNL A   1      38.848  25.606  28.929  1.00  0.00    -0.200 F 
ATOM     90  F   UNL A   1      39.819  26.746  26.647  1.00  0.00    -0.200 F 
ENDBRANCH  56  80
BRANCH  68  91
ATOM     91  C   UNL A   1      44.510  28.985  35.524  1.00  0.00     0.064 A 
ATOM     92  C   UNL A   1      45.750  29.502  35.120  1.00  0.00     0.173 A 
ATOM     93  C   UNL A   1      44.499  27.769  36.225  1.00  0.00     0.173 A 
ATOM     94  F   UNL A   1      45.810  30.652  34.432  1.00  0.00    -0.203 F 
ATOM     95  C   UNL A   1      46.931  28.819  35.395  1.00  0.00     0.198 A 
ATOM     96  C   UNL A   1      45.685  27.104  36.522  1.00  0.00     0.198 A 
ATOM     97  F   UNL A   1      43.339  27.236  36.636  1.00  0.00    -0.203 F 
ATOM     98  F   UNL A   1      48.102  29.310  34.965  1.00  0.00    -0.200 F 
ATOM     99  C   UNL A   1      46.899  27.625  36.102  1.00  0.00     0.200 A 
ATOM    100  F   UNL A   1      45.652  25.958  37.215  1.00  0.00    -0.200 F 
ATOM    101  F   UNL A   1      48.038  26.975  36.373  1.00  0.00    -0.200 F 
ENDBRANCH  68  91
ENDBRANCH  42  43
ENDBRANCH  34  37
ENDBRANCH  32  33
ENDBRANCH  31  32
ENDBRANCH  30  31
ENDBRANCH   1  30
TORSDOF 16
ENDMDL
