MODEL 1
REMARK VINA RESULT:     -14.2      0.000      0.000
REMARK SMILES O=C(NCCCCNC(=O)[C@@H]1[C@@H](C(=O)N2CCN(c3cccc(Cl)c3)CC2)[C@H]2CC[C@@H]1O2)c1ccc(-c2c3nc(c(-c4c(F)c(F)c(F)c(F)c4F)c4ccc([nH]4)c(-c4c(F)c(F)c(F)c(F)c4F)c4nc(c(-c5c(F)c(F)c(F)c(F)c5F)c5ccc2[nH]5)C=C4)C=C3)cc1
REMARK SMILES IDX 5 1 4 2 3 3 1 4 2 5 33 7 34 8 95 9 35 10 94 11 36 12 37 13
REMARK SMILES IDX 38 14 88 15 39 16 93 17 87 18 89 19 40 20 92 21 86 22 85 23
REMARK SMILES IDX 41 25 73 26 53 27 72 28 54 29 57 30 71 31 90 32 55 33 56 34
REMARK SMILES IDX 70 36 91 37 58 38 42 39 43 40 51 41 44 42 45 43 49 44 52 45
REMARK SMILES IDX 46 46 47 47 50 48 48 49 74 50 75 51 83 52 76 53 77 54 81 55
REMARK SMILES IDX 84 56 78 57 79 58 82 59 80 60 59 61 60 62 68 63 61 64 62 65
REMARK SMILES IDX 66 66 69 67 63 68 64 69 67 70 65 71 6 72 7 73 8 74 9 75
REMARK SMILES IDX 10 77 11 78 12 79 31 80 28 81 30 82 32 83 29 84 13 85 14 86
REMARK SMILES IDX 15 87 16 88 27 89 17 90 26 91 18 92 19 93 20 94 25 95 21 96
REMARK SMILES IDX 23 97 22 98 24 99
REMARK H PARENT 3 6 89 24 57 35 8 76
REMARK Flexibility Score: inf
ROOT
ATOM      1  C   UNL A   1      31.640  31.843  26.841  1.00  0.00     0.023 C 
ENDROOT
BRANCH   1   2
ATOM      2  C   UNL A   1      32.801  32.674  27.328  1.00  0.00     0.116 C 
BRANCH   2   3
ATOM      3  N   UNL A   1      32.437  34.053  27.633  1.00  0.00    -0.352 N 
ATOM      4  O   UNL A   1      32.472  36.007  28.775  1.00  0.00    -0.269 OA
ATOM      5  C   UNL A   1      32.976  34.908  28.570  1.00  0.00     0.251 C 
ATOM      6  H   UNL A   1      31.704  34.427  27.094  1.00  0.00     0.163 HD
BRANCH   5   7
ATOM      7  C   UNL A   1      34.146  34.463  29.355  1.00  0.00     0.039 A 
ATOM      8  C   UNL A   1      35.430  34.684  28.863  1.00  0.00     0.014 A 
ATOM      9  C   UNL A   1      33.962  33.747  30.540  1.00  0.00     0.014 A 
ATOM     10  C   UNL A   1      36.492  33.981  29.402  1.00  0.00     0.010 A 
ATOM     11  C   UNL A   1      35.066  33.171  31.179  1.00  0.00     0.010 A 
ATOM     12  C   UNL A   1      36.335  33.242  30.586  1.00  0.00    -0.014 A 
BRANCH  12  13
ATOM     13  C   UNL A   1      37.549  32.624  31.183  1.00  0.00     0.031 A 
ATOM     14  C   UNL A   1      37.998  32.945  32.582  1.00  0.00     0.074 A 
ATOM     15  C   UNL A   1      38.188  31.680  30.463  1.00  0.00     0.049 A 
ATOM     16  N   UNL A   1      38.996  32.430  33.258  1.00  0.00    -0.248 NA
ATOM     17  C   UNL A   1      37.252  33.977  33.315  1.00  0.00     0.031 C 
ATOM     18  C   UNL A   1      37.848  31.305  29.086  1.00  0.00     0.029 A 
ATOM     19  N   UNL A   1      39.205  30.826  30.794  1.00  0.00    -0.354 N 
ATOM     20  C   UNL A   1      39.017  33.094  34.477  1.00  0.00     0.074 A 
ATOM     21  C   UNL A   1      37.939  34.061  34.447  1.00  0.00     0.031 C 
ATOM     22  C   UNL A   1      38.566  30.235  28.730  1.00  0.00     0.029 A 
ATOM     23  C   UNL A   1      39.485  29.907  29.811  1.00  0.00     0.049 A 
ATOM     24  H   UNL A   1      39.689  30.867  31.651  1.00  0.00     0.167 HD
ATOM     25  C   UNL A   1      39.858  32.909  35.523  1.00  0.00     0.037 A 
ATOM     26  C   UNL A   1      40.392  28.916  29.774  1.00  0.00     0.037 A 
ATOM     27  C   UNL A   1      40.912  31.925  35.553  1.00  0.00     0.049 A 
ATOM     28  C   UNL A   1      41.283  28.713  30.961  1.00  0.00     0.074 A 
ATOM     29  C   UNL A   1      41.824  31.663  36.561  1.00  0.00     0.029 A 
ATOM     30  N   UNL A   1      41.184  31.029  34.528  1.00  0.00    -0.354 N 
ATOM     31  N   UNL A   1      41.302  29.366  32.097  1.00  0.00    -0.248 NA
ATOM     32  C   UNL A   1      42.287  27.648  30.858  1.00  0.00     0.031 C 
ATOM     33  C   UNL A   1      42.665  30.628  36.136  1.00  0.00     0.029 A 
ATOM     34  C   UNL A   1      42.252  30.218  34.879  1.00  0.00     0.049 A 
ATOM     35  H   UNL A   1      40.692  30.977  33.678  1.00  0.00     0.167 HD
ATOM     36  C   UNL A   1      42.327  28.803  32.840  1.00  0.00     0.074 A 
ATOM     37  C   UNL A   1      42.874  27.723  32.043  1.00  0.00     0.031 C 
ATOM     38  C   UNL A   1      42.788  29.160  34.063  1.00  0.00     0.037 A 
BRANCH  25  39
ATOM     39  C   UNL A   1      39.692  33.796  36.723  1.00  0.00     0.064 A 
ATOM     40  C   UNL A   1      40.303  35.055  36.798  1.00  0.00     0.173 A 
ATOM     41  C   UNL A   1      38.859  33.408  37.784  1.00  0.00     0.173 A 
ATOM     42  F   UNL A   1      41.119  35.468  35.816  1.00  0.00    -0.203 F 
ATOM     43  C   UNL A   1      40.097  35.889  37.896  1.00  0.00     0.198 A 
ATOM     44  C   UNL A   1      38.636  34.253  38.869  1.00  0.00     0.198 A 
ATOM     45  F   UNL A   1      38.245  32.215  37.761  1.00  0.00    -0.203 F 
ATOM     46  F   UNL A   1      40.716  37.076  37.959  1.00  0.00    -0.200 F 
ATOM     47  C   UNL A   1      39.257  35.491  38.925  1.00  0.00     0.200 A 
ATOM     48  F   UNL A   1      37.815  33.871  39.858  1.00  0.00    -0.200 F 
ATOM     49  F   UNL A   1      39.051  36.299  39.975  1.00  0.00    -0.200 F 
ENDBRANCH  25  39
BRANCH  26  50
ATOM     50  C   UNL A   1      40.503  28.067  28.561  1.00  0.00     0.064 A 
ATOM     51  C   UNL A   1      41.304  28.452  27.477  1.00  0.00     0.173 A 
ATOM     52  C   UNL A   1      39.838  26.835  28.477  1.00  0.00     0.173 A 
ATOM     53  F   UNL A   1      41.948  29.628  27.504  1.00  0.00    -0.203 F 
ATOM     54  C   UNL A   1      41.424  27.640  26.351  1.00  0.00     0.198 A 
ATOM     55  C   UNL A   1      39.987  26.009  27.367  1.00  0.00     0.198 A 
ATOM     56  F   UNL A   1      39.068  26.417  29.493  1.00  0.00    -0.203 F 
ATOM     57  F   UNL A   1      42.168  28.047  25.313  1.00  0.00    -0.200 F 
ATOM     58  C   UNL A   1      40.775  26.415  26.301  1.00  0.00     0.200 A 
ATOM     59  F   UNL A   1      39.376  24.817  27.335  1.00  0.00    -0.200 F 
ATOM     60  F   UNL A   1      40.906  25.628  25.226  1.00  0.00    -0.200 F 
ENDBRANCH  26  50
BRANCH  38  61
ATOM     61  C   UNL A   1      43.944  28.370  34.597  1.00  0.00     0.064 A 
ATOM     62  C   UNL A   1      43.743  27.196  35.338  1.00  0.00     0.173 A 
ATOM     63  C   UNL A   1      45.261  28.791  34.368  1.00  0.00     0.173 A 
ATOM     64  F   UNL A   1      42.498  26.767  35.598  1.00  0.00    -0.203 F 
ATOM     65  C   UNL A   1      44.821  26.491  35.862  1.00  0.00     0.198 A 
ATOM     66  C   UNL A   1      46.338  28.067  34.872  1.00  0.00     0.198 A 
ATOM     67  F   UNL A   1      45.504  29.906  33.662  1.00  0.00    -0.203 F 
ATOM     68  F   UNL A   1      44.605  25.404  36.616  1.00  0.00    -0.200 F 
ATOM     69  C   UNL A   1      46.117  26.924  35.626  1.00  0.00     0.200 A 
ATOM     70  F   UNL A   1      47.591  28.483  34.639  1.00  0.00    -0.200 F 
ATOM     71  F   UNL A   1      47.154  26.247  36.137  1.00  0.00    -0.200 F 
ENDBRANCH  38  61
ENDBRANCH  12  13
ENDBRANCH   5   7
ENDBRANCH   2   3
ENDBRANCH   1   2
BRANCH   1  72
ATOM     72  C   UNL A   1      31.917  30.355  26.775  1.00  0.00     0.023 C 
BRANCH  72  73
ATOM     73  C   UNL A   1      33.273  29.931  26.207  1.00  0.00     0.116 C 
BRANCH  73  74
ATOM     74  N   UNL A   1      33.193  29.861  24.765  1.00  0.00    -0.356 N 
ATOM     75  C   UNL A   1      32.835  28.830  23.950  1.00  0.00     0.226 C 
ATOM     76  H   UNL A   1      33.436  30.692  24.297  1.00  0.00     0.163 HD
ATOM     77  O   UNL A   1      33.244  28.901  22.790  1.00  0.00    -0.275 OA
BRANCH  75  78
ATOM     78  C   UNL A   1      31.927  27.700  24.442  1.00  0.00     0.122 C 
ATOM     79  C   UNL A   1      32.481  26.296  24.115  1.00  0.00     0.122 C 
ATOM     80  C   UNL A   1      30.677  27.748  23.536  1.00  0.00     0.132 C 
ATOM     81  C   UNL A   1      31.427  25.751  23.132  1.00  0.00     0.132 C 
ATOM     82  C   UNL A   1      29.560  26.872  24.096  1.00  0.00     0.035 C 
ATOM     83  O   UNL A   1      31.100  26.955  22.395  1.00  0.00    -0.373 OA
ATOM     84  C   UNL A   1      30.038  25.474  23.711  1.00  0.00     0.035 C 
BRANCH  79  85
ATOM     85  C   UNL A   1      32.709  25.332  25.283  1.00  0.00     0.229 C 
ATOM     86  O   UNL A   1      32.873  25.677  26.447  1.00  0.00    -0.274 OA
ATOM     87  N   UNL A   1      32.687  23.992  24.934  1.00  0.00    -0.339 N 
ATOM     88  C   UNL A   1      32.020  23.012  25.795  1.00  0.00     0.141 C 
ATOM     89  C   UNL A   1      33.878  23.463  24.306  1.00  0.00     0.141 C 
ATOM     90  C   UNL A   1      31.713  21.697  25.030  1.00  0.00     0.138 C 
ATOM     91  C   UNL A   1      33.592  22.202  23.487  1.00  0.00     0.138 C 
ATOM     92  N   UNL A   1      32.926  21.212  24.345  1.00  0.00    -0.368 N 
BRANCH  92  93
ATOM     93  C   UNL A   1      33.097  19.881  24.002  1.00  0.00     0.038 A 
ATOM     94  C   UNL A   1      32.299  19.326  22.986  1.00  0.00     0.026 A 
ATOM     95  C   UNL A   1      34.030  19.047  24.626  1.00  0.00     0.046 A 
ATOM     96  C   UNL A   1      32.424  17.990  22.598  1.00  0.00     0.004 A 
ATOM     97  C   UNL A   1      34.148  17.705  24.248  1.00  0.00     0.043 A 
ATOM     98  C   UNL A   1      33.353  17.174  23.234  1.00  0.00     0.020 A 
ATOM     99  Cl  UNL A   1      35.282  16.690  25.051  1.00  0.00    -0.084 Cl
ENDBRANCH  92  93
ENDBRANCH  79  85
ENDBRANCH  75  78
ENDBRANCH  73  74
ENDBRANCH  72  73
ENDBRANCH   1  72
TORSDOF 13
ENDMDL
MODEL 2
REMARK VINA RESULT:     -14.2      0.143      1.548
REMARK SMILES O=C(NCCCCNC(=O)[C@@H]1[C@@H](C(=O)N2CCN(c3cccc(Cl)c3)CC2)[C@H]2CC[C@@H]1O2)c1ccc(-c2c3nc(c(-c4c(F)c(F)c(F)c(F)c4F)c4ccc([nH]4)c(-c4c(F)c(F)c(F)c(F)c4F)c4nc(c(-c5c(F)c(F)c(F)c(F)c5F)c5ccc2[nH]5)C=C4)C=C3)cc1
REMARK SMILES IDX 5 1 4 2 3 3 1 4 2 5 33 7 34 8 95 9 35 10 94 11 36 12 37 13
REMARK SMILES IDX 38 14 88 15 39 16 93 17 87 18 89 19 40 20 92 21 86 22 85 23
REMARK SMILES IDX 41 25 73 26 53 27 72 28 54 29 57 30 71 31 90 32 55 33 56 34
REMARK SMILES IDX 70 36 91 37 58 38 42 39 43 40 51 41 44 42 45 43 49 44 52 45
REMARK SMILES IDX 46 46 47 47 50 48 48 49 74 50 75 51 83 52 76 53 77 54 81 55
REMARK SMILES IDX 84 56 78 57 79 58 82 59 80 60 59 61 60 62 68 63 61 64 62 65
REMARK SMILES IDX 66 66 69 67 63 68 64 69 67 70 65 71 6 72 7 73 8 74 9 75
REMARK SMILES IDX 10 77 11 78 12 79 31 80 28 81 30 82 32 83 29 84 13 85 14 86
REMARK SMILES IDX 15 87 16 88 27 89 17 90 26 91 18 92 19 93 20 94 25 95 21 96
REMARK SMILES IDX 23 97 22 98 24 99
REMARK H PARENT 3 6 89 24 57 35 8 76
REMARK Flexibility Score: inf
ROOT
ATOM      1  C   UNL A   1      31.654  31.948  26.797  1.00  0.00     0.023 C 
ENDROOT
BRANCH   1   2
ATOM      2  C   UNL A   1      32.792  32.777  27.340  1.00  0.00     0.116 C 
BRANCH   2   3
ATOM      3  N   UNL A   1      32.411  34.148  27.655  1.00  0.00    -0.352 N 
ATOM      4  O   UNL A   1      32.416  36.091  28.816  1.00  0.00    -0.269 OA
ATOM      5  C   UNL A   1      32.934  35.000  28.605  1.00  0.00     0.251 C 
ATOM      6  H   UNL A   1      31.677  34.519  27.115  1.00  0.00     0.163 HD
BRANCH   5   7
ATOM      7  C   UNL A   1      34.103  34.561  29.394  1.00  0.00     0.039 A 
ATOM      8  C   UNL A   1      35.385  34.740  28.882  1.00  0.00     0.014 A 
ATOM      9  C   UNL A   1      33.918  33.889  30.605  1.00  0.00     0.014 A 
ATOM     10  C   UNL A   1      36.440  34.036  29.436  1.00  0.00     0.010 A 
ATOM     11  C   UNL A   1      35.017  33.315  31.253  1.00  0.00     0.010 A 
ATOM     12  C   UNL A   1      36.281  33.341  30.646  1.00  0.00    -0.014 A 
BRANCH  12  13
ATOM     13  C   UNL A   1      37.489  32.722  31.253  1.00  0.00     0.031 A 
ATOM     14  C   UNL A   1      37.935  33.051  32.651  1.00  0.00     0.074 A 
ATOM     15  C   UNL A   1      38.126  31.769  30.544  1.00  0.00     0.049 A 
ATOM     16  N   UNL A   1      38.927  32.537  33.335  1.00  0.00    -0.248 NA
ATOM     17  C   UNL A   1      37.191  34.093  33.373  1.00  0.00     0.031 C 
ATOM     18  C   UNL A   1      37.790  31.385  29.168  1.00  0.00     0.029 A 
ATOM     19  N   UNL A   1      39.138  30.912  30.885  1.00  0.00    -0.354 N 
ATOM     20  C   UNL A   1      38.947  33.211  34.549  1.00  0.00     0.074 A 
ATOM     21  C   UNL A   1      37.874  34.183  34.507  1.00  0.00     0.031 C 
ATOM     22  C   UNL A   1      38.504  30.308  28.824  1.00  0.00     0.029 A 
ATOM     23  C   UNL A   1      39.416  29.984  29.911  1.00  0.00     0.049 A 
ATOM     24  H   UNL A   1      39.618  30.958  31.743  1.00  0.00     0.167 HD
ATOM     25  C   UNL A   1      39.782  33.029  35.600  1.00  0.00     0.037 A 
ATOM     26  C   UNL A   1      40.318  28.987  29.886  1.00  0.00     0.037 A 
ATOM     27  C   UNL A   1      40.831  32.040  35.642  1.00  0.00     0.049 A 
ATOM     28  C   UNL A   1      41.203  28.789  31.078  1.00  0.00     0.074 A 
ATOM     29  C   UNL A   1      41.738  31.782  36.655  1.00  0.00     0.029 A 
ATOM     30  N   UNL A   1      41.102  31.134  34.625  1.00  0.00    -0.354 N 
ATOM     31  N   UNL A   1      41.221  29.452  32.208  1.00  0.00    -0.248 NA
ATOM     32  C   UNL A   1      42.201  27.718  30.987  1.00  0.00     0.031 C 
ATOM     33  C   UNL A   1      42.575  30.739  36.242  1.00  0.00     0.029 A 
ATOM     34  C   UNL A   1      42.165  30.321  34.987  1.00  0.00     0.049 A 
ATOM     35  H   UNL A   1      40.614  31.079  33.774  1.00  0.00     0.167 HD
ATOM     36  C   UNL A   1      42.240  28.889  32.960  1.00  0.00     0.074 A 
ATOM     37  C   UNL A   1      42.784  27.799  32.174  1.00  0.00     0.031 C 
ATOM     38  C   UNL A   1      42.698  29.253  34.182  1.00  0.00     0.037 A 
BRANCH  25  39
ATOM     39  C   UNL A   1      39.616  33.928  36.792  1.00  0.00     0.064 A 
ATOM     40  C   UNL A   1      38.849  33.545  37.901  1.00  0.00     0.173 A 
ATOM     41  C   UNL A   1      40.286  35.160  36.852  1.00  0.00     0.173 A 
ATOM     42  F   UNL A   1      38.179  32.384  37.889  1.00  0.00    -0.203 F 
ATOM     43  C   UNL A   1      38.747  34.369  39.021  1.00  0.00     0.198 A 
ATOM     44  C   UNL A   1      40.202  35.970  37.982  1.00  0.00     0.198 A 
ATOM     45  F   UNL A   1      41.038  35.572  35.819  1.00  0.00    -0.203 F 
ATOM     46  F   UNL A   1      37.983  33.995  40.058  1.00  0.00    -0.200 F 
ATOM     47  C   UNL A   1      39.430  35.575  39.064  1.00  0.00     0.200 A 
ATOM     48  F   UNL A   1      40.871  37.131  38.025  1.00  0.00    -0.200 F 
ATOM     49  F   UNL A   1      39.341  36.360  40.147  1.00  0.00    -0.200 F 
ENDBRANCH  25  39
BRANCH  26  50
ATOM     50  C   UNL A   1      40.429  28.128  28.680  1.00  0.00     0.064 A 
ATOM     51  C   UNL A   1      41.230  28.504  27.593  1.00  0.00     0.173 A 
ATOM     52  C   UNL A   1      39.764  26.895  28.606  1.00  0.00     0.173 A 
ATOM     53  F   UNL A   1      41.873  29.681  27.609  1.00  0.00    -0.203 F 
ATOM     54  C   UNL A   1      41.351  27.682  26.474  1.00  0.00     0.198 A 
ATOM     55  C   UNL A   1      39.914  26.060  27.504  1.00  0.00     0.198 A 
ATOM     56  F   UNL A   1      38.995  26.486  29.626  1.00  0.00    -0.203 F 
ATOM     57  F   UNL A   1      42.094  28.080  25.432  1.00  0.00    -0.200 F 
ATOM     58  C   UNL A   1      40.701  26.457  26.434  1.00  0.00     0.200 A 
ATOM     59  F   UNL A   1      39.303  24.868  27.482  1.00  0.00    -0.200 F 
ATOM     60  F   UNL A   1      40.833  25.660  25.366  1.00  0.00    -0.200 F 
ENDBRANCH  26  50
BRANCH  38  61
ATOM     61  C   UNL A   1      43.848  28.461  34.726  1.00  0.00     0.064 A 
ATOM     62  C   UNL A   1      45.175  28.856  34.500  1.00  0.00     0.173 A 
ATOM     63  C   UNL A   1      43.621  27.298  35.475  1.00  0.00     0.173 A 
ATOM     64  F   UNL A   1      45.438  29.951  33.771  1.00  0.00    -0.203 F 
ATOM     65  C   UNL A   1      46.236  28.094  34.976  1.00  0.00     0.198 A 
ATOM     66  C   UNL A   1      44.686  26.553  35.973  1.00  0.00     0.198 A 
ATOM     67  F   UNL A   1      42.370  26.883  35.720  1.00  0.00    -0.203 F 
ATOM     68  F   UNL A   1      47.496  28.457  34.701  1.00  0.00    -0.200 F 
ATOM     69  C   UNL A   1      45.991  26.945  35.715  1.00  0.00     0.200 A 
ATOM     70  F   UNL A   1      44.450  25.446  36.691  1.00  0.00    -0.200 F 
ATOM     71  F   UNL A   1      47.015  26.208  36.168  1.00  0.00    -0.200 F 
ENDBRANCH  38  61
ENDBRANCH  12  13
ENDBRANCH   5   7
ENDBRANCH   2   3
ENDBRANCH   1   2
BRANCH   1  72
ATOM     72  C   UNL A   1      31.881  30.452  26.858  1.00  0.00     0.023 C 
BRANCH  72  73
ATOM     73  C   UNL A   1      33.202  29.932  26.290  1.00  0.00     0.116 C 
BRANCH  73  74
ATOM     74  N   UNL A   1      33.123  29.882  24.846  1.00  0.00    -0.356 N 
ATOM     75  C   UNL A   1      32.788  28.857  24.016  1.00  0.00     0.226 C 
ATOM     76  H   UNL A   1      33.346  30.727  24.391  1.00  0.00     0.163 HD
ATOM     77  O   UNL A   1      33.194  28.955  22.857  1.00  0.00    -0.275 OA
BRANCH  75  78
ATOM     78  C   UNL A   1      31.906  27.699  24.490  1.00  0.00     0.122 C 
ATOM     79  C   UNL A   1      32.496  26.314  24.150  1.00  0.00     0.122 C 
ATOM     80  C   UNL A   1      30.659  27.726  23.579  1.00  0.00     0.132 C 
ATOM     81  C   UNL A   1      31.461  25.754  23.155  1.00  0.00     0.132 C 
ATOM     82  C   UNL A   1      29.562  26.816  24.123  1.00  0.00     0.035 C 
ATOM     83  O   UNL A   1      31.106  26.957  22.431  1.00  0.00    -0.373 OA
ATOM     84  C   UNL A   1      30.077  25.435  23.725  1.00  0.00     0.035 C 
BRANCH  79  85
ATOM     85  C   UNL A   1      32.742  25.342  25.308  1.00  0.00     0.229 C 
ATOM     86  O   UNL A   1      32.932  25.680  26.469  1.00  0.00    -0.274 OA
ATOM     87  N   UNL A   1      32.708  24.004  24.952  1.00  0.00    -0.339 N 
ATOM     88  C   UNL A   1      32.054  23.022  25.821  1.00  0.00     0.141 C 
ATOM     89  C   UNL A   1      33.883  23.473  24.297  1.00  0.00     0.141 C 
ATOM     90  C   UNL A   1      31.726  21.712  25.054  1.00  0.00     0.138 C 
ATOM     91  C   UNL A   1      33.576  22.218  23.477  1.00  0.00     0.138 C 
ATOM     92  N   UNL A   1      32.923  21.226  24.343  1.00  0.00    -0.368 N 
BRANCH  92  93
ATOM     93  C   UNL A   1      33.081  19.896  23.989  1.00  0.00     0.038 A 
ATOM     94  C   UNL A   1      32.273  19.355  22.973  1.00  0.00     0.026 A 
ATOM     95  C   UNL A   1      34.009  19.050  24.602  1.00  0.00     0.046 A 
ATOM     96  C   UNL A   1      32.385  18.021  22.575  1.00  0.00     0.004 A 
ATOM     97  C   UNL A   1      34.114  17.710  24.214  1.00  0.00     0.043 A 
ATOM     98  C   UNL A   1      33.310  17.193  23.200  1.00  0.00     0.020 A 
ATOM     99  Cl  UNL A   1      35.244  16.679  25.004  1.00  0.00    -0.084 Cl
ENDBRANCH  92  93
ENDBRANCH  79  85
ENDBRANCH  75  78
ENDBRANCH  73  74
ENDBRANCH  72  73
ENDBRANCH   1  72
TORSDOF 13
ENDMDL
MODEL 3
REMARK VINA RESULT:     -14.0      5.385     10.817
REMARK SMILES O=C(NCCCCNC(=O)[C@@H]1[C@@H](C(=O)N2CCN(c3cccc(Cl)c3)CC2)[C@H]2CC[C@@H]1O2)c1ccc(-c2c3nc(c(-c4c(F)c(F)c(F)c(F)c4F)c4ccc([nH]4)c(-c4c(F)c(F)c(F)c(F)c4F)c4nc(c(-c5c(F)c(F)c(F)c(F)c5F)c5ccc2[nH]5)C=C4)C=C3)cc1
REMARK SMILES IDX 5 1 4 2 3 3 1 4 2 5 33 7 34 8 95 9 35 10 94 11 36 12 37 13
REMARK SMILES IDX 38 14 88 15 39 16 93 17 87 18 89 19 40 20 92 21 86 22 85 23
REMARK SMILES IDX 41 25 73 26 53 27 72 28 54 29 57 30 71 31 90 32 55 33 56 34
REMARK SMILES IDX 70 36 91 37 58 38 42 39 43 40 51 41 44 42 45 43 49 44 52 45
REMARK SMILES IDX 46 46 47 47 50 48 48 49 74 50 75 51 83 52 76 53 77 54 81 55
REMARK SMILES IDX 84 56 78 57 79 58 82 59 80 60 59 61 60 62 68 63 61 64 62 65
REMARK SMILES IDX 66 66 69 67 63 68 64 69 67 70 65 71 6 72 7 73 8 74 9 75
REMARK SMILES IDX 10 77 11 78 12 79 31 80 28 81 30 82 32 83 29 84 13 85 14 86
REMARK SMILES IDX 15 87 16 88 27 89 17 90 26 91 18 92 19 93 20 94 25 95 21 96
REMARK SMILES IDX 23 97 22 98 24 99
REMARK H PARENT 3 6 89 24 57 35 8 76
REMARK Flexibility Score: inf
ROOT
ATOM      1  C   UNL A   1      37.965  20.252  25.001  1.00  0.00     0.023 C 
ENDROOT
BRANCH   1   2
ATOM      2  C   UNL A   1      39.192  20.494  25.845  1.00  0.00     0.116 C 
BRANCH   2   3
ATOM      3  N   UNL A   1      40.128  19.376  25.841  1.00  0.00    -0.352 N 
ATOM      4  O   UNL A   1      42.146  18.356  25.914  1.00  0.00    -0.269 OA
ATOM      5  C   UNL A   1      41.487  19.378  26.069  1.00  0.00     0.251 C 
ATOM      6  H   UNL A   1      39.734  18.495  25.647  1.00  0.00     0.163 HD
BRANCH   5   7
ATOM      7  C   UNL A   1      42.145  20.640  26.465  1.00  0.00     0.039 A 
ATOM      8  C   UNL A   1      42.306  20.939  27.814  1.00  0.00     0.014 A 
ATOM      9  C   UNL A   1      42.520  21.568  25.490  1.00  0.00     0.014 A 
ATOM     10  C   UNL A   1      42.593  22.238  28.191  1.00  0.00     0.010 A 
ATOM     11  C   UNL A   1      42.971  22.835  25.878  1.00  0.00     0.010 A 
ATOM     12  C   UNL A   1      42.963  23.197  27.233  1.00  0.00    -0.014 A 
BRANCH  12  13
ATOM     13  C   UNL A   1      43.391  24.535  27.721  1.00  0.00     0.031 A 
ATOM     14  C   UNL A   1      44.831  24.967  27.697  1.00  0.00     0.074 A 
ATOM     15  C   UNL A   1      42.428  25.400  28.097  1.00  0.00     0.049 A 
ATOM     16  N   UNL A   1      45.341  26.129  28.024  1.00  0.00    -0.248 NA
ATOM     17  C   UNL A   1      45.829  23.979  27.266  1.00  0.00     0.031 C 
ATOM     18  C   UNL A   1      40.999  25.077  28.179  1.00  0.00     0.029 A 
ATOM     19  N   UNL A   1      42.483  26.729  28.422  1.00  0.00    -0.354 N 
ATOM     20  C   UNL A   1      46.715  26.002  27.871  1.00  0.00     0.074 A 
ATOM     21  C   UNL A   1      46.965  24.645  27.433  1.00  0.00     0.031 C 
ATOM     22  C   UNL A   1      40.307  26.195  28.426  1.00  0.00     0.029 A 
ATOM     23  C   UNL A   1      41.245  27.292  28.618  1.00  0.00     0.049 A 
ATOM     24  H   UNL A   1      43.326  27.230  28.509  1.00  0.00     0.167 HD
ATOM     25  C   UNL A   1      47.676  26.936  28.076  1.00  0.00     0.037 A 
ATOM     26  C   UNL A   1      40.899  28.553  28.932  1.00  0.00     0.037 A 
ATOM     27  C   UNL A   1      47.414  28.293  28.488  1.00  0.00     0.049 A 
ATOM     28  C   UNL A   1      41.982  29.571  29.116  1.00  0.00     0.074 A 
ATOM     29  C   UNL A   1      48.317  29.313  28.732  1.00  0.00     0.029 A 
ATOM     30  N   UNL A   1      46.149  28.822  28.703  1.00  0.00    -0.354 N 
ATOM     31  N   UNL A   1      43.278  29.425  28.988  1.00  0.00    -0.248 NA
ATOM     32  C   UNL A   1      41.558  30.921  29.502  1.00  0.00     0.031 C 
ATOM     33  C   UNL A   1      47.601  30.451  29.120  1.00  0.00     0.029 A 
ATOM     34  C   UNL A   1      46.249  30.152  29.081  1.00  0.00     0.049 A 
ATOM     35  H   UNL A   1      45.305  28.326  28.603  1.00  0.00     0.167 HD
ATOM     36  C   UNL A   1      43.828  30.660  29.291  1.00  0.00     0.074 A 
ATOM     37  C   UNL A   1      42.720  31.555  29.562  1.00  0.00     0.031 C 
ATOM     38  C   UNL A   1      45.134  31.017  29.359  1.00  0.00     0.037 A 
BRANCH  25  39
ATOM     39  C   UNL A   1      49.107  26.526  27.877  1.00  0.00     0.064 A 
ATOM     40  C   UNL A   1      49.675  26.431  26.599  1.00  0.00     0.173 A 
ATOM     41  C   UNL A   1      49.938  26.286  28.983  1.00  0.00     0.173 A 
ATOM     42  F   UNL A   1      48.921  26.637  25.509  1.00  0.00    -0.203 F 
ATOM     43  C   UNL A   1      51.018  26.100  26.434  1.00  0.00     0.198 A 
ATOM     44  C   UNL A   1      51.286  25.979  28.816  1.00  0.00     0.198 A 
ATOM     45  F   UNL A   1      49.445  26.368  30.229  1.00  0.00    -0.203 F 
ATOM     46  F   UNL A   1      51.532  25.986  25.201  1.00  0.00    -0.200 F 
ATOM     47  C   UNL A   1      51.824  25.882  27.543  1.00  0.00     0.200 A 
ATOM     48  F   UNL A   1      52.065  25.779  29.889  1.00  0.00    -0.200 F 
ATOM     49  F   UNL A   1      53.120  25.575  27.382  1.00  0.00    -0.200 F 
ENDBRANCH  25  39
BRANCH  26  50
ATOM     50  C   UNL A   1      39.465  28.898  29.108  1.00  0.00     0.064 A 
ATOM     51  C   UNL A   1      38.845  28.803  30.362  1.00  0.00     0.173 A 
ATOM     52  C   UNL A   1      38.696  29.365  28.032  1.00  0.00     0.173 A 
ATOM     53  F   UNL A   1      39.535  28.347  31.418  1.00  0.00    -0.203 F 
ATOM     54  C   UNL A   1      37.506  29.151  30.527  1.00  0.00     0.198 A 
ATOM     55  C   UNL A   1      37.369  29.746  28.207  1.00  0.00     0.198 A 
ATOM     56  F   UNL A   1      39.247  29.484  26.815  1.00  0.00    -0.203 F 
ATOM     57  F   UNL A   1      36.927  29.018  31.728  1.00  0.00    -0.200 F 
ATOM     58  C   UNL A   1      36.772  29.632  29.452  1.00  0.00     0.200 A 
ATOM     59  F   UNL A   1      36.673  30.232  27.170  1.00  0.00    -0.200 F 
ATOM     60  F   UNL A   1      35.491  29.984  29.617  1.00  0.00    -0.200 F 
ENDBRANCH  26  50
BRANCH  38  61
ATOM     61  C   UNL A   1      45.417  32.436  29.749  1.00  0.00     0.064 A 
ATOM     62  C   UNL A   1      45.593  32.801  31.092  1.00  0.00     0.173 A 
ATOM     63  C   UNL A   1      45.509  33.439  28.773  1.00  0.00     0.173 A 
ATOM     64  F   UNL A   1      45.493  31.878  32.060  1.00  0.00    -0.203 F 
ATOM     65  C   UNL A   1      45.817  34.127  31.447  1.00  0.00     0.198 A 
ATOM     66  C   UNL A   1      45.761  34.760  29.130  1.00  0.00     0.198 A 
ATOM     67  F   UNL A   1      45.352  33.137  27.475  1.00  0.00    -0.203 F 
ATOM     68  F   UNL A   1      45.926  34.463  32.739  1.00  0.00    -0.200 F 
ATOM     69  C   UNL A   1      45.905  35.104  30.466  1.00  0.00     0.200 A 
ATOM     70  F   UNL A   1      45.850  35.704  28.183  1.00  0.00    -0.200 F 
ATOM     71  F   UNL A   1      46.114  36.382  30.811  1.00  0.00    -0.200 F 
ENDBRANCH  38  61
ENDBRANCH  12  13
ENDBRANCH   5   7
ENDBRANCH   2   3
ENDBRANCH   1   2
BRANCH   1  72
ATOM     72  C   UNL A   1      37.270  21.512  24.527  1.00  0.00     0.023 C 
BRANCH  72  73
ATOM     73  C   UNL A   1      37.298  22.712  25.475  1.00  0.00     0.116 C 
BRANCH  73  74
ATOM     74  N   UNL A   1      36.207  22.609  26.419  1.00  0.00    -0.356 N 
ATOM     75  C   UNL A   1      34.886  22.909  26.277  1.00  0.00     0.226 C 
ATOM     76  H   UNL A   1      36.460  22.267  27.307  1.00  0.00     0.163 HD
ATOM     77  O   UNL A   1      34.272  23.121  27.324  1.00  0.00    -0.275 OA
BRANCH  75  78
ATOM     78  C   UNL A   1      34.209  22.909  24.904  1.00  0.00     0.122 C 
ATOM     79  C   UNL A   1      33.258  24.108  24.702  1.00  0.00     0.122 C 
ATOM     80  C   UNL A   1      33.207  21.734  24.935  1.00  0.00     0.132 C 
ATOM     81  C   UNL A   1      31.885  23.419  24.585  1.00  0.00     0.132 C 
ATOM     82  C   UNL A   1      32.673  21.431  23.538  1.00  0.00     0.035 C 
ATOM     83  O   UNL A   1      32.041  22.346  25.546  1.00  0.00    -0.373 OA
ATOM     84  C   UNL A   1      31.662  22.557  23.341  1.00  0.00     0.035 C 
BRANCH  79  85
ATOM     85  C   UNL A   1      33.524  25.032  23.509  1.00  0.00     0.229 C 
ATOM     86  O   UNL A   1      34.438  24.887  22.709  1.00  0.00    -0.274 OA
ATOM     87  N   UNL A   1      32.612  26.066  23.370  1.00  0.00    -0.339 N 
ATOM     88  C   UNL A   1      32.117  26.445  22.045  1.00  0.00     0.141 C 
ATOM     89  C   UNL A   1      32.778  27.203  24.249  1.00  0.00     0.141 C 
ATOM     90  C   UNL A   1      30.808  27.274  22.141  1.00  0.00     0.138 C 
ATOM     91  C   UNL A   1      31.484  28.002  24.417  1.00  0.00     0.138 C 
ATOM     92  N   UNL A   1      30.982  28.389  23.091  1.00  0.00    -0.368 N 
BRANCH  92  93
ATOM     93  C   UNL A   1      30.206  29.535  23.034  1.00  0.00     0.038 A 
ATOM     94  C   UNL A   1      30.087  30.341  24.180  1.00  0.00     0.026 A 
ATOM     95  C   UNL A   1      29.518  29.933  21.883  1.00  0.00     0.046 A 
ATOM     96  C   UNL A   1      29.317  31.507  24.183  1.00  0.00     0.004 A 
ATOM     97  C   UNL A   1      28.736  31.093  21.889  1.00  0.00     0.043 A 
ATOM     98  C   UNL A   1      28.635  31.883  23.031  1.00  0.00     0.020 A 
ATOM     99  Cl  UNL A   1      27.874  31.546  20.469  1.00  0.00    -0.084 Cl
ENDBRANCH  92  93
ENDBRANCH  79  85
ENDBRANCH  75  78
ENDBRANCH  73  74
ENDBRANCH  72  73
ENDBRANCH   1  72
TORSDOF 13
ENDMDL
