MODEL 1
REMARK VINA RESULT:     -12.1      0.000      0.000
REMARK SMILES N#C[C@@H]1CN(C(=O)N[C@@H](Cc2cnc[nH]2)C(=O)NCCCCNC(=O)c2ccc(-c3c4nc(c(-c5c(F)c(F)c(F)c(F)c5F)c5ccc([nH]5)c(-c5c(F)c(F)c(F)c(F)c5F)c5nc(c(-c6c(F)c(F)c(F)c(F)c6F)c6ccc3[nH]6)C=C5)C=C4)cc2)CCO1
REMARK SMILES IDX 20 1 19 2 18 3 16 4 17 5 9 7 8 8 6 9 7 10 5 12 3 13 4 14
REMARK SMILES IDX 91 15 90 16 89 17 2 18 1 19 10 20 11 21 12 22 15 23 13 24
REMARK SMILES IDX 14 25 21 27 22 28 23 29 24 30 25 32 26 33 27 34 88 35 28 36
REMARK SMILES IDX 87 37 29 38 30 39 31 40 81 41 32 42 86 43 80 44 82 45 33 46
REMARK SMILES IDX 85 47 79 48 78 49 34 51 66 52 46 53 65 54 47 55 50 56 64 57
REMARK SMILES IDX 83 58 48 59 49 60 63 62 84 63 51 64 35 65 36 66 44 67 37 68
REMARK SMILES IDX 38 69 42 70 45 71 39 72 40 73 43 74 41 75 67 76 68 77 76 78
REMARK SMILES IDX 69 79 70 80 74 81 77 82 71 83 72 84 75 85 73 86 52 87 53 88
REMARK SMILES IDX 61 89 54 90 55 91 59 92 62 93 56 94 57 95 60 96 58 97
REMARK H PARENT 18 6 8 11 15 26 23 31 82 50 50 61
REMARK Flexibility Score: inf
ROOT
ATOM      1  C   UNL A   1      36.656  21.001  25.426  1.00  0.00     0.023 C 
ENDROOT
BRANCH   1   2
ATOM      2  C   UNL A   1      36.490  22.499  25.599  1.00  0.00     0.116 C 
BRANCH   2   3
ATOM      3  N   UNL A   1      35.611  22.871  26.679  1.00  0.00    -0.354 N 
ATOM      4  C   UNL A   1      34.360  22.413  26.936  1.00  0.00     0.243 C 
ATOM      5  O   UNL A   1      33.959  22.489  28.104  1.00  0.00    -0.273 OA
ATOM      6  H   UNL A   1      35.962  23.541  27.308  1.00  0.00     0.163 HD
BRANCH   4   7
ATOM      7  C   UNL A   1      33.480  21.721  25.877  1.00  0.00     0.179 C 
BRANCH   7   8
ATOM      8  N   UNL A   1      32.966  20.390  26.221  1.00  0.00    -0.326 N 
ATOM      9  C   UNL A   1      32.956  19.152  25.712  1.00  0.00     0.318 C 
ATOM     10  O   UNL A   1      32.385  18.316  26.421  1.00  0.00    -0.249 OA
ATOM     11  H   UNL A   1      32.489  20.415  27.082  1.00  0.00     0.166 HD
BRANCH   9  12
ATOM     12  N   UNL A   1      33.513  18.803  24.525  1.00  0.00    -0.319 N 
ATOM     13  C   UNL A   1      34.399  16.682  23.725  1.00  0.00     0.240 C 
ATOM     14  C   UNL A   1      34.734  18.069  24.240  1.00  0.00     0.169 C 
ATOM     15  O   UNL A   1      33.762  16.902  22.418  1.00  0.00    -0.360 OA
ATOM     16  C   UNL A   1      32.534  17.664  22.541  1.00  0.00     0.183 C 
ATOM     17  C   UNL A   1      32.728  18.999  23.290  1.00  0.00     0.150 C 
BRANCH  13  18
ATOM     18  C   UNL A   1      33.494  15.765  24.532  1.00  0.00     0.096 C 
ATOM     19  N   UNL A   1      32.744  15.003  25.201  1.00  0.00    -0.195 NA
ENDBRANCH  13  18
ENDBRANCH   9  12
ENDBRANCH   7   8
BRANCH   7  20
ATOM     20  C   UNL A   1      32.451  22.618  25.168  1.00  0.00     0.090 C 
BRANCH  20  21
ATOM     21  C   UNL A   1      32.927  23.374  23.976  1.00  0.00     0.037 A 
ATOM     22  C   UNL A   1      33.031  23.050  22.639  1.00  0.00     0.134 A 
ATOM     23  N   UNL A   1      33.446  24.646  24.061  1.00  0.00    -0.348 N 
ATOM     24  N   UNL A   1      33.477  24.122  21.913  1.00  0.00    -0.245 NA
ATOM     25  C   UNL A   1      33.743  25.057  22.794  1.00  0.00     0.196 A 
ATOM     26  H   UNL A   1      33.579  25.165  24.886  1.00  0.00     0.167 HD
ENDBRANCH  20  21
ENDBRANCH   7  20
ENDBRANCH   4   7
ENDBRANCH   2   3
ENDBRANCH   1   2
BRANCH   1  27
ATOM     27  C   UNL A   1      38.019  20.566  24.906  1.00  0.00     0.023 C 
BRANCH  27  28
ATOM     28  C   UNL A   1      39.153  20.610  25.924  1.00  0.00     0.116 C 
BRANCH  28  29
ATOM     29  N   UNL A   1      40.016  19.436  25.904  1.00  0.00    -0.352 N 
ATOM     30  C   UNL A   1      41.377  19.361  26.090  1.00  0.00     0.251 C 
ATOM     31  H   UNL A   1      39.564  18.579  25.734  1.00  0.00     0.163 HD
ATOM     32  O   UNL A   1      41.978  18.300  25.968  1.00  0.00    -0.269 OA
BRANCH  30  33
ATOM     33  C   UNL A   1      42.122  20.596  26.403  1.00  0.00     0.039 A 
ATOM     34  C   UNL A   1      42.597  21.381  25.352  1.00  0.00     0.014 A 
ATOM     35  C   UNL A   1      42.272  21.011  27.728  1.00  0.00     0.014 A 
ATOM     36  C   UNL A   1      43.144  22.635  25.627  1.00  0.00     0.010 A 
ATOM     37  C   UNL A   1      42.729  22.296  27.992  1.00  0.00     0.010 A 
ATOM     38  C   UNL A   1      43.165  23.123  26.944  1.00  0.00    -0.014 A 
BRANCH  38  39
ATOM     39  C   UNL A   1      43.625  24.501  27.249  1.00  0.00     0.031 A 
ATOM     40  C   UNL A   1      42.643  25.531  27.731  1.00  0.00     0.074 A 
ATOM     41  C   UNL A   1      44.903  24.849  27.003  1.00  0.00     0.049 A 
ATOM     42  N   UNL A   1      42.828  26.805  27.968  1.00  0.00    -0.248 NA
ATOM     43  C   UNL A   1      41.258  25.077  27.934  1.00  0.00     0.031 C 
ATOM     44  C   UNL A   1      45.932  23.962  26.458  1.00  0.00     0.029 A 
ATOM     45  N   UNL A   1      45.549  26.049  27.160  1.00  0.00    -0.354 N 
ATOM     46  C   UNL A   1      41.582  27.306  28.320  1.00  0.00     0.074 A 
ATOM     47  C   UNL A   1      40.639  26.214  28.211  1.00  0.00     0.031 C 
ATOM     48  C   UNL A   1      47.084  24.642  26.344  1.00  0.00     0.029 A 
ATOM     49  C   UNL A   1      46.867  26.020  26.775  1.00  0.00     0.049 A 
ATOM     50  H   UNL A   1      45.109  26.855  27.515  1.00  0.00     0.167 HD
ATOM     51  C   UNL A   1      41.258  28.558  28.721  1.00  0.00     0.037 A 
ATOM     52  C   UNL A   1      47.795  26.996  26.765  1.00  0.00     0.037 A 
ATOM     53  C   UNL A   1      42.208  29.628  28.870  1.00  0.00     0.049 A 
ATOM     54  C   UNL A   1      47.423  28.368  27.259  1.00  0.00     0.074 A 
ATOM     55  C   UNL A   1      42.000  30.903  29.365  1.00  0.00     0.029 A 
ATOM     56  N   UNL A   1      43.549  29.547  28.522  1.00  0.00    -0.354 N 
ATOM     57  N   UNL A   1      46.262  28.807  27.682  1.00  0.00    -0.248 NA
ATOM     58  C   UNL A   1      48.492  29.375  27.288  1.00  0.00     0.031 C 
ATOM     59  C   UNL A   1      43.205  31.609  29.274  1.00  0.00     0.029 A 
ATOM     60  C   UNL A   1      44.175  30.758  28.768  1.00  0.00     0.049 A 
ATOM     61  H   UNL A   1      43.990  28.748  28.154  1.00  0.00     0.167 HD
ATOM     62  C   UNL A   1      46.464  30.132  28.044  1.00  0.00     0.074 A 
ATOM     63  C   UNL A   1      47.865  30.420  27.809  1.00  0.00     0.031 C 
ATOM     64  C   UNL A   1      45.569  31.029  28.527  1.00  0.00     0.037 A 
BRANCH  51  65
ATOM     65  C   UNL A   1      39.816  28.832  29.032  1.00  0.00     0.064 A 
ATOM     66  C   UNL A   1      39.286  28.634  30.316  1.00  0.00     0.173 A 
ATOM     67  C   UNL A   1      38.955  29.315  28.035  1.00  0.00     0.173 A 
ATOM     68  F   UNL A   1      40.063  28.162  31.301  1.00  0.00    -0.203 F 
ATOM     69  C   UNL A   1      37.939  28.872  30.580  1.00  0.00     0.198 A 
ATOM     70  C   UNL A   1      37.616  29.583  28.311  1.00  0.00     0.198 A 
ATOM     71  F   UNL A   1      39.410  29.528  26.791  1.00  0.00    -0.203 F 
ATOM     72  F   UNL A   1      37.443  28.617  31.798  1.00  0.00    -0.200 F 
ATOM     73  C   UNL A   1      37.108  29.351  29.580  1.00  0.00     0.200 A 
ATOM     74  F   UNL A   1      36.817  30.058  27.347  1.00  0.00    -0.200 F 
ATOM     75  F   UNL A   1      35.813  29.581  29.837  1.00  0.00    -0.200 F 
ENDBRANCH  51  65
BRANCH  52  76
ATOM     76  C   UNL A   1      49.172  26.699  26.296  1.00  0.00     0.064 A 
ATOM     77  C   UNL A   1      49.545  26.926  24.964  1.00  0.00     0.173 A 
ATOM     78  C   UNL A   1      50.148  26.198  27.170  1.00  0.00     0.173 A 
ATOM     79  F   UNL A   1      48.641  27.385  24.085  1.00  0.00    -0.203 F 
ATOM     80  C   UNL A   1      50.836  26.649  24.520  1.00  0.00     0.198 A 
ATOM     81  C   UNL A   1      51.445  25.946  26.732  1.00  0.00     0.198 A 
ATOM     82  F   UNL A   1      49.843  25.970  28.457  1.00  0.00    -0.203 F 
ATOM     83  F   UNL A   1      51.155  26.839  23.232  1.00  0.00    -0.200 F 
ATOM     84  C   UNL A   1      51.787  26.166  25.406  1.00  0.00     0.200 A 
ATOM     85  F   UNL A   1      52.365  25.492  27.594  1.00  0.00    -0.200 F 
ATOM     86  F   UNL A   1      53.031  25.907  24.980  1.00  0.00    -0.200 F 
ENDBRANCH  52  76
BRANCH  64  87
ATOM     87  C   UNL A   1      46.082  32.401  28.855  1.00  0.00     0.064 A 
ATOM     88  C   UNL A   1      46.617  32.703  30.116  1.00  0.00     0.173 A 
ATOM     89  C   UNL A   1      46.078  33.412  27.883  1.00  0.00     0.173 A 
ATOM     90  F   UNL A   1      46.629  31.774  31.084  1.00  0.00    -0.203 F 
ATOM     91  C   UNL A   1      47.108  33.974  30.398  1.00  0.00     0.198 A 
ATOM     92  C   UNL A   1      46.596  34.673  28.159  1.00  0.00     0.198 A 
ATOM     93  F   UNL A   1      45.584  33.171  26.659  1.00  0.00    -0.203 F 
ATOM     94  F   UNL A   1      47.575  34.254  31.623  1.00  0.00    -0.200 F 
ATOM     95  C   UNL A   1      47.105  34.956  29.418  1.00  0.00     0.200 A 
ATOM     96  F   UNL A   1      46.605  35.616  27.206  1.00  0.00    -0.200 F 
ATOM     97  F   UNL A   1      47.586  36.176  29.688  1.00  0.00    -0.200 F 
ENDBRANCH  64  87
ENDBRANCH  38  39
ENDBRANCH  30  33
ENDBRANCH  28  29
ENDBRANCH  27  28
ENDBRANCH   1  27
TORSDOF 16
ENDMDL
MODEL 2
REMARK VINA RESULT:     -11.8      6.089     10.202
REMARK SMILES N#C[C@@H]1CN(C(=O)N[C@@H](Cc2cnc[nH]2)C(=O)NCCCCNC(=O)c2ccc(-c3c4nc(c(-c5c(F)c(F)c(F)c(F)c5F)c5ccc([nH]5)c(-c5c(F)c(F)c(F)c(F)c5F)c5nc(c(-c6c(F)c(F)c(F)c(F)c6F)c6ccc3[nH]6)C=C5)C=C4)cc2)CCO1
REMARK SMILES IDX 20 1 19 2 18 3 16 4 17 5 9 7 8 8 6 9 7 10 5 12 3 13 4 14
REMARK SMILES IDX 91 15 90 16 89 17 2 18 1 19 10 20 11 21 12 22 15 23 13 24
REMARK SMILES IDX 14 25 21 27 22 28 23 29 24 30 25 32 26 33 27 34 88 35 28 36
REMARK SMILES IDX 87 37 29 38 30 39 31 40 81 41 32 42 86 43 80 44 82 45 33 46
REMARK SMILES IDX 85 47 79 48 78 49 34 51 66 52 46 53 65 54 47 55 50 56 64 57
REMARK SMILES IDX 83 58 48 59 49 60 63 62 84 63 51 64 35 65 36 66 44 67 37 68
REMARK SMILES IDX 38 69 42 70 45 71 39 72 40 73 43 74 41 75 67 76 68 77 76 78
REMARK SMILES IDX 69 79 70 80 74 81 77 82 71 83 72 84 75 85 73 86 52 87 53 88
REMARK SMILES IDX 61 89 54 90 55 91 59 92 62 93 56 94 57 95 60 96 58 97
REMARK H PARENT 18 6 8 11 15 26 23 31 82 50 50 61
REMARK Flexibility Score: inf
ROOT
ATOM      1  C   UNL A   1      31.312  31.372  25.791  1.00  0.00     0.023 C 
ENDROOT
BRANCH   1   2
ATOM      2  C   UNL A   1      31.457  29.871  25.630  1.00  0.00     0.116 C 
BRANCH   2   3
ATOM      3  N   UNL A   1      32.547  29.476  24.773  1.00  0.00    -0.354 N 
ATOM      4  C   UNL A   1      32.488  29.041  23.490  1.00  0.00     0.243 C 
ATOM      5  O   UNL A   1      33.502  29.186  22.796  1.00  0.00    -0.273 OA
ATOM      6  H   UNL A   1      33.446  29.529  25.169  1.00  0.00     0.163 HD
BRANCH   4   7
ATOM      7  C   UNL A   1      31.204  28.483  22.846  1.00  0.00     0.179 C 
BRANCH   7   8
ATOM      8  N   UNL A   1      30.366  27.626  23.693  1.00  0.00    -0.326 N 
ATOM      9  C   UNL A   1      30.424  26.423  24.280  1.00  0.00     0.318 C 
ATOM     10  O   UNL A   1      29.425  26.135  24.946  1.00  0.00    -0.249 OA
ATOM     11  H   UNL A   1      29.508  28.066  23.889  1.00  0.00     0.166 HD
BRANCH   9  12
ATOM     12  N   UNL A   1      31.471  25.566  24.176  1.00  0.00    -0.319 N 
ATOM     13  C   UNL A   1      32.455  24.027  25.784  1.00  0.00     0.240 C 
ATOM     14  C   UNL A   1      32.601  25.354  25.063  1.00  0.00     0.169 C 
ATOM     15  O   UNL A   1      32.584  23.005  24.735  1.00  0.00    -0.360 OA
ATOM     16  C   UNL A   1      31.531  23.117  23.745  1.00  0.00     0.183 C 
ATOM     17  C   UNL A   1      31.434  24.528  23.127  1.00  0.00     0.150 C 
BRANCH  13  18
ATOM     18  C   UNL A   1      31.193  23.722  26.575  1.00  0.00     0.096 C 
ATOM     19  N   UNL A   1      30.147  23.469  27.231  1.00  0.00    -0.195 NA
ENDBRANCH  13  18
ENDBRANCH   9  12
ENDBRANCH   7   8
BRANCH   7  20
ATOM     20  C   UNL A   1      30.402  29.469  21.979  1.00  0.00     0.090 C 
BRANCH  20  21
ATOM     21  C   UNL A   1      29.203  30.093  22.605  1.00  0.00     0.037 A 
ATOM     22  C   UNL A   1      27.934  29.625  22.872  1.00  0.00     0.134 A 
ATOM     23  N   UNL A   1      29.175  31.409  23.008  1.00  0.00    -0.348 N 
ATOM     24  N   UNL A   1      27.195  30.574  23.527  1.00  0.00    -0.245 NA
ATOM     25  C   UNL A   1      27.955  31.643  23.572  1.00  0.00     0.196 A 
ATOM     26  H   UNL A   1      29.903  32.062  22.907  1.00  0.00     0.167 HD
ENDBRANCH  20  21
ENDBRANCH   7  20
ENDBRANCH   4   7
ENDBRANCH   2   3
ENDBRANCH   1   2
BRANCH   1  27
ATOM     27  C   UNL A   1      31.621  31.896  27.186  1.00  0.00     0.023 C 
BRANCH  27  28
ATOM     28  C   UNL A   1      32.806  32.849  27.281  1.00  0.00     0.116 C 
BRANCH  28  29
ATOM     29  N   UNL A   1      32.447  34.211  27.655  1.00  0.00    -0.352 N 
ATOM     30  C   UNL A   1      33.009  35.020  28.614  1.00  0.00     0.251 C 
ATOM     31  H   UNL A   1      31.700  34.607  27.151  1.00  0.00     0.163 HD
ATOM     32  O   UNL A   1      32.544  36.126  28.865  1.00  0.00    -0.269 OA
BRANCH  30  33
ATOM     33  C   UNL A   1      34.168  34.521  29.377  1.00  0.00     0.039 A 
ATOM     34  C   UNL A   1      33.948  33.883  30.599  1.00  0.00     0.014 A 
ATOM     35  C   UNL A   1      35.456  34.611  28.843  1.00  0.00     0.014 A 
ATOM     36  C   UNL A   1      35.011  33.249  31.243  1.00  0.00     0.010 A 
ATOM     37  C   UNL A   1      36.492  33.901  29.437  1.00  0.00     0.010 A 
ATOM     38  C   UNL A   1      36.279  33.210  30.640  1.00  0.00    -0.014 A 
BRANCH  38  39
ATOM     39  C   UNL A   1      37.396  32.439  31.241  1.00  0.00     0.031 A 
ATOM     40  C   UNL A   1      37.909  32.800  32.607  1.00  0.00     0.074 A 
ATOM     41  C   UNL A   1      38.009  31.479  30.522  1.00  0.00     0.049 A 
ATOM     42  N   UNL A   1      38.927  32.307  33.266  1.00  0.00    -0.248 NA
ATOM     43  C   UNL A   1      37.210  33.889  33.307  1.00  0.00     0.031 C 
ATOM     44  C   UNL A   1      37.657  31.090  29.155  1.00  0.00     0.029 A 
ATOM     45  N   UNL A   1      39.071  30.667  30.833  1.00  0.00    -0.354 N 
ATOM     46  C   UNL A   1      39.004  33.043  34.441  1.00  0.00     0.074 A 
ATOM     47  C   UNL A   1      37.968  34.051  34.380  1.00  0.00     0.031 C 
ATOM     48  C   UNL A   1      38.475  30.105  28.752  1.00  0.00     0.029 A 
ATOM     49  C   UNL A   1      39.429  29.814  29.818  1.00  0.00     0.049 A 
ATOM     50  H   UNL A   1      39.532  30.695  31.703  1.00  0.00     0.167 HD
ATOM     51  C   UNL A   1      39.847  32.877  35.487  1.00  0.00     0.037 A 
ATOM     52  C   UNL A   1      40.419  28.904  29.753  1.00  0.00     0.037 A 
ATOM     53  C   UNL A   1      40.846  31.844  35.562  1.00  0.00     0.049 A 
ATOM     54  C   UNL A   1      41.314  28.705  30.946  1.00  0.00     0.074 A 
ATOM     55  C   UNL A   1      41.682  31.527  36.618  1.00  0.00     0.029 A 
ATOM     56  N   UNL A   1      41.145  30.960  34.535  1.00  0.00    -0.354 N 
ATOM     57  N   UNL A   1      41.316  29.342  32.092  1.00  0.00    -0.248 NA
ATOM     58  C   UNL A   1      42.334  27.653  30.842  1.00  0.00     0.031 C 
ATOM     59  C   UNL A   1      42.519  30.482  36.214  1.00  0.00     0.029 A 
ATOM     60  C   UNL A   1      42.171  30.114  34.924  1.00  0.00     0.049 A 
ATOM     61  H   UNL A   1      40.696  30.938  33.660  1.00  0.00     0.167 HD
ATOM     62  C   UNL A   1      42.321  28.758  32.852  1.00  0.00     0.074 A 
ATOM     63  C   UNL A   1      42.895  27.702  32.042  1.00  0.00     0.031 C 
ATOM     64  C   UNL A   1      42.732  29.069  34.106  1.00  0.00     0.037 A 
BRANCH  51  65
ATOM     65  C   UNL A   1      39.717  33.832  36.638  1.00  0.00     0.064 A 
ATOM     66  C   UNL A   1      40.391  35.063  36.655  1.00  0.00     0.173 A 
ATOM     67  C   UNL A   1      38.896  33.519  37.730  1.00  0.00     0.173 A 
ATOM     68  F   UNL A   1      41.199  35.405  35.641  1.00  0.00    -0.203 F 
ATOM     69  C   UNL A   1      40.276  35.928  37.741  1.00  0.00     0.198 A 
ATOM     70  C   UNL A   1      38.758  34.400  38.800  1.00  0.00     0.198 A 
ATOM     71  F   UNL A   1      38.225  32.358  37.763  1.00  0.00    -0.203 F 
ATOM     72  F   UNL A   1      40.977  37.069  37.763  1.00  0.00    -0.200 F 
ATOM     73  C   UNL A   1      39.456  35.598  38.809  1.00  0.00     0.200 A 
ATOM     74  F   UNL A   1      37.955  34.086  39.826  1.00  0.00    -0.200 F 
ATOM     75  F   UNL A   1      39.346  36.432  39.853  1.00  0.00    -0.200 F 
ENDBRANCH  51  65
BRANCH  52  76
ATOM     76  C   UNL A   1      40.594  28.094  28.521  1.00  0.00     0.064 A 
ATOM     77  C   UNL A   1      41.406  28.544  27.471  1.00  0.00     0.173 A 
ATOM     78  C   UNL A   1      39.969  26.846  28.374  1.00  0.00     0.173 A 
ATOM     79  F   UNL A   1      42.008  29.740  27.557  1.00  0.00    -0.203 F 
ATOM     80  C   UNL A   1      41.573  27.786  26.314  1.00  0.00     0.198 A 
ATOM     81  C   UNL A   1      40.158  26.078  27.228  1.00  0.00     0.198 A 
ATOM     82  F   UNL A   1      39.188  26.367  29.354  1.00  0.00    -0.203 F 
ATOM     83  F   UNL A   1      42.324  28.258  25.308  1.00  0.00    -0.200 F 
ATOM     84  C   UNL A   1      40.955  26.551  26.196  1.00  0.00     0.200 A 
ATOM     85  F   UNL A   1      39.570  24.879  27.124  1.00  0.00    -0.200 F 
ATOM     86  F   UNL A   1      41.123  25.819  25.086  1.00  0.00    -0.200 F 
ENDBRANCH  52  76
BRANCH  64  87
ATOM     87  C   UNL A   1      43.841  28.243  34.690  1.00  0.00     0.064 A 
ATOM     88  C   UNL A   1      45.179  28.657  34.620  1.00  0.00     0.173 A 
ATOM     89  C   UNL A   1      43.556  27.048  35.366  1.00  0.00     0.173 A 
ATOM     90  F   UNL A   1      45.504  29.787  33.972  1.00  0.00    -0.203 F 
ATOM     91  C   UNL A   1      46.194  27.891  35.186  1.00  0.00     0.198 A 
ATOM     92  C   UNL A   1      44.570  26.299  35.954  1.00  0.00     0.198 A 
ATOM     93  F   UNL A   1      42.291  26.612  35.466  1.00  0.00    -0.203 F 
ATOM     94  F   UNL A   1      47.471  28.282  35.070  1.00  0.00    -0.200 F 
ATOM     95  C   UNL A   1      45.889  26.717  35.859  1.00  0.00     0.200 A 
ATOM     96  F   UNL A   1      44.271  25.172  36.616  1.00  0.00    -0.200 F 
ATOM     97  F   UNL A   1      46.866  25.985  36.410  1.00  0.00    -0.200 F 
ENDBRANCH  64  87
ENDBRANCH  38  39
ENDBRANCH  30  33
ENDBRANCH  28  29
ENDBRANCH  27  28
ENDBRANCH   1  27
TORSDOF 16
ENDMDL
MODEL 3
REMARK VINA RESULT:     -11.8      1.132      3.855
REMARK SMILES N#C[C@@H]1CN(C(=O)N[C@@H](Cc2cnc[nH]2)C(=O)NCCCCNC(=O)c2ccc(-c3c4nc(c(-c5c(F)c(F)c(F)c(F)c5F)c5ccc([nH]5)c(-c5c(F)c(F)c(F)c(F)c5F)c5nc(c(-c6c(F)c(F)c(F)c(F)c6F)c6ccc3[nH]6)C=C5)C=C4)cc2)CCO1
REMARK SMILES IDX 20 1 19 2 18 3 16 4 17 5 9 7 8 8 6 9 7 10 5 12 3 13 4 14
REMARK SMILES IDX 91 15 90 16 89 17 2 18 1 19 10 20 11 21 12 22 15 23 13 24
REMARK SMILES IDX 14 25 21 27 22 28 23 29 24 30 25 32 26 33 27 34 88 35 28 36
REMARK SMILES IDX 87 37 29 38 30 39 31 40 81 41 32 42 86 43 80 44 82 45 33 46
REMARK SMILES IDX 85 47 79 48 78 49 34 51 66 52 46 53 65 54 47 55 50 56 64 57
REMARK SMILES IDX 83 58 48 59 49 60 63 62 84 63 51 64 35 65 36 66 44 67 37 68
REMARK SMILES IDX 38 69 42 70 45 71 39 72 40 73 43 74 41 75 67 76 68 77 76 78
REMARK SMILES IDX 69 79 70 80 74 81 77 82 71 83 72 84 75 85 73 86 52 87 53 88
REMARK SMILES IDX 61 89 54 90 55 91 59 92 62 93 56 94 57 95 60 96 58 97
REMARK H PARENT 18 6 8 11 15 26 23 31 82 50 50 61
REMARK Flexibility Score: inf
ROOT
ATOM      1  C   UNL A   1      36.766  19.940  24.967  1.00  0.00     0.023 C 
ENDROOT
BRANCH   1   2
ATOM      2  C   UNL A   1      35.454  20.679  24.790  1.00  0.00     0.116 C 
BRANCH   2   3
ATOM      3  N   UNL A   1      34.440  20.314  25.748  1.00  0.00    -0.354 N 
ATOM      4  C   UNL A   1      33.181  19.871  25.507  1.00  0.00     0.243 C 
ATOM      5  O   UNL A   1      32.640  19.196  26.392  1.00  0.00    -0.273 OA
ATOM      6  H   UNL A   1      34.694  20.398  26.695  1.00  0.00     0.163 HD
BRANCH   4   7
ATOM      7  C   UNL A   1      32.455  20.079  24.164  1.00  0.00     0.179 C 
BRANCH   7   8
ATOM      8  N   UNL A   1      32.610  21.395  23.533  1.00  0.00    -0.326 N 
ATOM      9  C   UNL A   1      32.572  22.689  23.878  1.00  0.00     0.318 C 
ATOM     10  O   UNL A   1      32.800  23.469  22.948  1.00  0.00    -0.249 OA
ATOM     11  H   UNL A   1      32.799  21.298  22.572  1.00  0.00     0.166 HD
BRANCH   9  12
ATOM     12  N   UNL A   1      32.311  23.144  25.130  1.00  0.00    -0.319 N 
ATOM     13  C   UNL A   1      32.781  25.281  26.194  1.00  0.00     0.240 C 
ATOM     14  C   UNL A   1      33.175  23.820  26.081  1.00  0.00     0.169 C 
ATOM     15  O   UNL A   1      31.448  25.272  26.815  1.00  0.00    -0.360 OA
ATOM     16  C   UNL A   1      30.475  24.588  25.985  1.00  0.00     0.183 C 
ATOM     17  C   UNL A   1      30.912  23.159  25.600  1.00  0.00     0.150 C 
BRANCH  13  18
ATOM     18  C   UNL A   1      32.706  26.151  24.950  1.00  0.00     0.096 C 
ATOM     19  N   UNL A   1      32.644  26.873  23.918  1.00  0.00    -0.195 NA
ENDBRANCH  13  18
ENDBRANCH   9  12
ENDBRANCH   7   8
BRANCH   7  20
ATOM     20  C   UNL A   1      32.526  18.905  23.172  1.00  0.00     0.090 C 
BRANCH  20  21
ATOM     21  C   UNL A   1      33.049  17.613  23.697  1.00  0.00     0.037 A 
ATOM     22  C   UNL A   1      34.222  16.920  23.484  1.00  0.00     0.134 A 
ATOM     23  N   UNL A   1      32.319  16.800  24.534  1.00  0.00    -0.348 N 
ATOM     24  N   UNL A   1      34.265  15.789  24.257  1.00  0.00    -0.245 NA
ATOM     25  C   UNL A   1      33.100  15.729  24.857  1.00  0.00     0.196 A 
ATOM     26  H   UNL A   1      31.400  16.963  24.844  1.00  0.00     0.167 HD
ENDBRANCH  20  21
ENDBRANCH   7  20
ENDBRANCH   4   7
ENDBRANCH   2   3
ENDBRANCH   1   2
BRANCH   1  27
ATOM     27  C   UNL A   1      38.007  20.816  24.883  1.00  0.00     0.023 C 
BRANCH  27  28
ATOM     28  C   UNL A   1      38.993  20.668  26.036  1.00  0.00     0.116 C 
BRANCH  28  29
ATOM     29  N   UNL A   1      39.864  19.505  25.930  1.00  0.00    -0.352 N 
ATOM     30  C   UNL A   1      41.233  19.436  26.045  1.00  0.00     0.251 C 
ATOM     31  H   UNL A   1      39.410  18.650  25.752  1.00  0.00     0.163 HD
ATOM     32  O   UNL A   1      41.835  18.385  25.854  1.00  0.00    -0.269 OA
BRANCH  30  33
ATOM     33  C   UNL A   1      41.983  20.665  26.364  1.00  0.00     0.039 A 
ATOM     34  C   UNL A   1      42.352  21.519  25.324  1.00  0.00     0.014 A 
ATOM     35  C   UNL A   1      42.243  21.007  27.693  1.00  0.00     0.014 A 
ATOM     36  C   UNL A   1      42.901  22.767  25.623  1.00  0.00     0.010 A 
ATOM     37  C   UNL A   1      42.701  22.284  27.991  1.00  0.00     0.010 A 
ATOM     38  C   UNL A   1      43.031  23.178  26.960  1.00  0.00    -0.014 A 
BRANCH  38  39
ATOM     39  C   UNL A   1      43.494  24.545  27.306  1.00  0.00     0.031 A 
ATOM     40  C   UNL A   1      42.512  25.569  27.800  1.00  0.00     0.074 A 
ATOM     41  C   UNL A   1      44.777  24.892  27.084  1.00  0.00     0.049 A 
ATOM     42  N   UNL A   1      42.701  26.836  28.071  1.00  0.00    -0.248 NA
ATOM     43  C   UNL A   1      41.122  25.119  27.975  1.00  0.00     0.031 C 
ATOM     44  C   UNL A   1      45.808  24.013  26.530  1.00  0.00     0.029 A 
ATOM     45  N   UNL A   1      45.428  26.085  27.278  1.00  0.00    -0.354 N 
ATOM     46  C   UNL A   1      41.454  27.336  28.420  1.00  0.00     0.074 A 
ATOM     47  C   UNL A   1      40.506  26.252  28.272  1.00  0.00     0.031 C 
ATOM     48  C   UNL A   1      46.965  24.689  26.446  1.00  0.00     0.029 A 
ATOM     49  C   UNL A   1      46.751  26.057  26.909  1.00  0.00     0.049 A 
ATOM     50  H   UNL A   1      44.988  26.884  27.648  1.00  0.00     0.167 HD
ATOM     51  C   UNL A   1      41.132  28.579  28.848  1.00  0.00     0.037 A 
ATOM     52  C   UNL A   1      47.684  27.028  26.935  1.00  0.00     0.037 A 
ATOM     53  C   UNL A   1      42.086  29.640  29.036  1.00  0.00     0.049 A 
ATOM     54  C   UNL A   1      47.313  28.389  27.458  1.00  0.00     0.074 A 
ATOM     55  C   UNL A   1      41.879  30.903  29.560  1.00  0.00     0.029 A 
ATOM     56  N   UNL A   1      43.430  29.559  28.702  1.00  0.00    -0.354 N 
ATOM     57  N   UNL A   1      46.150  28.824  27.878  1.00  0.00    -0.248 NA
ATOM     58  C   UNL A   1      48.387  29.388  27.525  1.00  0.00     0.031 C 
ATOM     59  C   UNL A   1      43.088  31.604  29.501  1.00  0.00     0.029 A 
ATOM     60  C   UNL A   1      44.060  30.760  28.985  1.00  0.00     0.049 A 
ATOM     61  H   UNL A   1      43.871  28.767  28.320  1.00  0.00     0.167 HD
ATOM     62  C   UNL A   1      46.354  30.138  28.275  1.00  0.00     0.074 A 
ATOM     63  C   UNL A   1      47.759  30.424  28.064  1.00  0.00     0.031 C 
ATOM     64  C   UNL A   1      45.459  31.029  28.769  1.00  0.00     0.037 A 
BRANCH  51  65
ATOM     65  C   UNL A   1      39.687  28.854  29.148  1.00  0.00     0.064 A 
ATOM     66  C   UNL A   1      38.801  29.310  28.160  1.00  0.00     0.173 A 
ATOM     67  C   UNL A   1      39.178  28.643  30.437  1.00  0.00     0.173 A 
ATOM     68  F   UNL A   1      39.240  29.540  26.913  1.00  0.00    -0.203 F 
ATOM     69  C   UNL A   1      37.469  29.581  28.462  1.00  0.00     0.198 A 
ATOM     70  C   UNL A   1      37.838  28.884  30.728  1.00  0.00     0.198 A 
ATOM     71  F   UNL A   1      39.980  28.202  31.419  1.00  0.00    -0.203 F 
ATOM     72  F   UNL A   1      36.657  30.074  27.516  1.00  0.00    -0.200 F 
ATOM     73  C   UNL A   1      36.987  29.363  29.743  1.00  0.00     0.200 A 
ATOM     74  F   UNL A   1      37.371  28.661  31.964  1.00  0.00    -0.200 F 
ATOM     75  F   UNL A   1      35.705  29.623  30.031  1.00  0.00    -0.200 F 
ENDBRANCH  51  65
BRANCH  52  76
ATOM     76  C   UNL A   1      49.065  26.734  26.476  1.00  0.00     0.064 A 
ATOM     77  C   UNL A   1      50.033  26.252  27.367  1.00  0.00     0.173 A 
ATOM     78  C   UNL A   1      49.442  26.912  25.136  1.00  0.00     0.173 A 
ATOM     79  F   UNL A   1      49.726  26.085  28.662  1.00  0.00    -0.203 F 
ATOM     80  C   UNL A   1      51.331  25.974  26.940  1.00  0.00     0.198 A 
ATOM     81  C   UNL A   1      50.731  26.609  24.705  1.00  0.00     0.198 A 
ATOM     82  F   UNL A   1      48.549  27.365  24.242  1.00  0.00    -0.203 F 
ATOM     83  F   UNL A   1      52.248  25.551  27.821  1.00  0.00    -0.200 F 
ATOM     84  C   UNL A   1      51.676  26.147  25.609  1.00  0.00     0.200 A 
ATOM     85  F   UNL A   1      51.058  26.765  23.415  1.00  0.00    -0.200 F 
ATOM     86  F   UNL A   1      52.922  25.872  25.197  1.00  0.00    -0.200 F 
ENDBRANCH  52  76
BRANCH  64  87
ATOM     87  C   UNL A   1      45.974  32.389  29.137  1.00  0.00     0.064 A 
ATOM     88  C   UNL A   1      45.952  33.454  28.224  1.00  0.00     0.173 A 
ATOM     89  C   UNL A   1      46.455  32.641  30.430  1.00  0.00     0.173 A 
ATOM     90  F   UNL A   1      45.515  33.260  26.971  1.00  0.00    -0.203 F 
ATOM     91  C   UNL A   1      46.414  34.716  28.588  1.00  0.00     0.198 A 
ATOM     92  C   UNL A   1      46.890  33.910  30.799  1.00  0.00     0.198 A 
ATOM     93  F   UNL A   1      46.491  31.657  31.342  1.00  0.00    -0.203 F 
ATOM     94  F   UNL A   1      46.425  35.709  27.687  1.00  0.00    -0.200 F 
ATOM     95  C   UNL A   1      46.875  34.945  29.876  1.00  0.00     0.200 A 
ATOM     96  F   UNL A   1      47.321  34.133  32.048  1.00  0.00    -0.200 F 
ATOM     97  F   UNL A   1      47.311  36.162  30.226  1.00  0.00    -0.200 F 
ENDBRANCH  64  87
ENDBRANCH  38  39
ENDBRANCH  30  33
ENDBRANCH  28  29
ENDBRANCH  27  28
ENDBRANCH   1  27
TORSDOF 16
ENDMDL
