MODEL 1
REMARK VINA RESULT:     -13.0      0.000      0.000
REMARK SMILES Cc1ccc(OC(F)(F)F)cc1C(=O)NCCCCNC(=O)c1ccc(-c2c3nc(c(-c4c(F)c(F)c(F)c(F)c4F)c4ccc([nH]4)c(-c4c(F)c(F)c(F)c(F)c4F)c4nc(c(-c5c(F)c(F)c(F)c(F)c5F)c5ccc2[nH]5)C=C4)C=C3)cc1
REMARK SMILES IDX 17 1 16 2 15 3 13 4 14 5 12 7 1 8 2 9 3 10 4 11 11 12 5 13
REMARK SMILES IDX 6 14 7 15 8 16 9 17 10 18 18 19 19 20 20 21 21 22 22 24
REMARK SMILES IDX 23 25 24 26 85 27 25 28 84 29 26 30 27 31 28 32 78 33 29 34
REMARK SMILES IDX 83 35 77 36 79 37 30 38 82 39 76 40 75 41 31 43 63 44 43 45
REMARK SMILES IDX 62 46 44 47 47 48 61 49 80 50 45 51 46 52 60 54 81 55 48 56
REMARK SMILES IDX 32 57 33 58 41 59 34 60 35 61 39 62 42 63 36 64 37 65 40 66
REMARK SMILES IDX 38 67 64 68 65 69 73 70 66 71 67 72 71 73 74 74 68 75 69 76
REMARK SMILES IDX 72 77 70 78 49 79 50 80 58 81 51 82 52 83 56 84 59 85 53 86
REMARK SMILES IDX 54 87 57 88 55 89
REMARK H PARENT 15 6 20 23 79 42 47 53
REMARK Flexibility Score: inf
ROOT
ATOM      1  C   UNL A   1      32.152  30.029  26.482  1.00  0.00     0.023 C 
ENDROOT
BRANCH   1   2
ATOM      2  C   UNL A   1      32.662  28.581  26.560  1.00  0.00     0.116 C 
BRANCH   2   3
ATOM      3  N   UNL A   1      32.966  28.084  25.237  1.00  0.00    -0.352 N 
ATOM      4  C   UNL A   1      32.257  27.739  24.122  1.00  0.00     0.251 C 
ATOM      5  O   UNL A   1      32.957  27.243  23.230  1.00  0.00    -0.269 OA
ATOM      6  H   UNL A   1      33.934  27.963  25.107  1.00  0.00     0.163 HD
BRANCH   4   7
ATOM      7  C   UNL A   1      30.794  27.953  23.823  1.00  0.00     0.046 A 
ATOM      8  C   UNL A   1      29.735  25.607  24.191  1.00  0.00     0.045 C 
ATOM      9  C   UNL A   1      29.697  27.067  23.871  1.00  0.00    -0.038 A 
ATOM     10  C   UNL A   1      28.418  27.536  23.489  1.00  0.00     0.008 A 
ATOM     11  C   UNL A   1      28.226  28.810  22.966  1.00  0.00     0.047 A 
ATOM     12  C   UNL A   1      30.553  29.255  23.294  1.00  0.00     0.061 A 
ATOM     13  C   UNL A   1      29.305  29.666  22.824  1.00  0.00     0.130 A 
BRANCH  13  14
ATOM     14  O   UNL A   1      29.013  30.853  22.218  1.00  0.00    -0.406 OA
BRANCH  14  15
ATOM     15  C   UNL A   1      28.593  31.923  23.050  1.00  0.00     0.573 C 
ATOM     16  F   UNL A   1      27.266  31.848  23.285  1.00  0.00    -0.132 F 
ATOM     17  F   UNL A   1      29.264  31.941  24.220  1.00  0.00    -0.132 F 
ATOM     18  F   UNL A   1      28.841  33.087  22.408  1.00  0.00    -0.132 F 
ENDBRANCH  14  15
ENDBRANCH  13  14
ENDBRANCH   4   7
ENDBRANCH   2   3
ENDBRANCH   1   2
BRANCH   1  19
ATOM     19  C   UNL A   1      33.000  31.053  27.239  1.00  0.00     0.023 C 
BRANCH  19  20
ATOM     20  C   UNL A   1      34.371  30.529  27.620  1.00  0.00     0.116 C 
BRANCH  20  21
ATOM     21  N   UNL A   1      35.142  31.410  28.494  1.00  0.00    -0.352 N 
ATOM     22  C   UNL A   1      36.327  31.161  29.167  1.00  0.00     0.251 C 
ATOM     23  H   UNL A   1      34.763  32.310  28.625  1.00  0.00     0.163 HD
ATOM     24  O   UNL A   1      36.795  32.006  29.924  1.00  0.00    -0.269 OA
BRANCH  22  25
ATOM     25  C   UNL A   1      37.109  29.942  28.844  1.00  0.00     0.039 A 
ATOM     26  C   UNL A   1      37.213  28.956  29.834  1.00  0.00     0.014 A 
ATOM     27  C   UNL A   1      37.958  29.918  27.744  1.00  0.00     0.014 A 
ATOM     28  C   UNL A   1      38.352  28.158  29.876  1.00  0.00     0.010 A 
ATOM     29  C   UNL A   1      39.149  29.234  27.861  1.00  0.00     0.010 A 
ATOM     30  C   UNL A   1      39.378  28.419  28.974  1.00  0.00    -0.014 A 
BRANCH  30  31
ATOM     31  C   UNL A   1      40.767  28.032  29.208  1.00  0.00     0.031 A 
ATOM     32  C   UNL A   1      41.301  26.775  28.646  1.00  0.00     0.074 A 
ATOM     33  C   UNL A   1      41.595  28.916  29.811  1.00  0.00     0.049 A 
ATOM     34  N   UNL A   1      42.390  26.204  29.038  1.00  0.00    -0.248 NA
ATOM     35  C   UNL A   1      40.603  26.022  27.613  1.00  0.00     0.031 C 
ATOM     36  C   UNL A   1      43.055  28.892  29.833  1.00  0.00     0.029 A 
ATOM     37  N   UNL A   1      41.252  29.949  30.704  1.00  0.00    -0.354 N 
ATOM     38  C   UNL A   1      42.689  25.200  28.141  1.00  0.00     0.074 A 
ATOM     39  C   UNL A   1      41.498  25.071  27.337  1.00  0.00     0.031 C 
ATOM     40  C   UNL A   1      43.485  29.622  30.874  1.00  0.00     0.029 A 
ATOM     41  C   UNL A   1      42.313  30.009  31.638  1.00  0.00     0.049 A 
ATOM     42  H   UNL A   1      40.444  30.510  30.682  1.00  0.00     0.167 HD
ATOM     43  C   UNL A   1      43.965  24.712  28.107  1.00  0.00     0.037 A 
ATOM     44  C   UNL A   1      42.116  29.717  32.956  1.00  0.00     0.037 A 
ATOM     45  C   UNL A   1      44.745  25.235  29.235  1.00  0.00     0.049 A 
ATOM     46  C   UNL A   1      42.937  28.552  33.459  1.00  0.00     0.074 A 
ATOM     47  C   UNL A   1      45.698  26.235  29.342  1.00  0.00     0.029 A 
ATOM     48  N   UNL A   1      44.364  24.916  30.537  1.00  0.00    -0.354 N 
ATOM     49  N   UNL A   1      43.507  27.677  32.679  1.00  0.00    -0.248 NA
ATOM     50  C   UNL A   1      43.144  28.257  34.874  1.00  0.00     0.031 C 
ATOM     51  C   UNL A   1      45.838  26.564  30.715  1.00  0.00     0.029 A 
ATOM     52  C   UNL A   1      44.990  25.748  31.444  1.00  0.00     0.049 A 
ATOM     53  H   UNL A   1      43.736  24.197  30.776  1.00  0.00     0.167 HD
ATOM     54  C   UNL A   1      44.108  26.709  33.439  1.00  0.00     0.074 A 
ATOM     55  C   UNL A   1      43.874  27.130  34.808  1.00  0.00     0.031 C 
ATOM     56  C   UNL A   1      44.728  25.633  32.872  1.00  0.00     0.037 A 
BRANCH  43  57
ATOM     57  C   UNL A   1      44.603  24.013  26.912  1.00  0.00     0.064 A 
ATOM     58  C   UNL A   1      44.320  22.652  26.644  1.00  0.00     0.173 A 
ATOM     59  C   UNL A   1      45.565  24.572  26.049  1.00  0.00     0.173 A 
ATOM     60  F   UNL A   1      43.343  21.999  27.286  1.00  0.00    -0.203 F 
ATOM     61  C   UNL A   1      45.029  21.899  25.698  1.00  0.00     0.198 A 
ATOM     62  C   UNL A   1      46.300  23.815  25.129  1.00  0.00     0.198 A 
ATOM     63  F   UNL A   1      45.799  25.884  26.003  1.00  0.00    -0.203 F 
ATOM     64  F   UNL A   1      44.726  20.606  25.515  1.00  0.00    -0.200 F 
ATOM     65  C   UNL A   1      46.044  22.472  24.965  1.00  0.00     0.200 A 
ATOM     66  F   UNL A   1      47.257  24.407  24.399  1.00  0.00    -0.200 F 
ATOM     67  F   UNL A   1      46.750  21.748  24.087  1.00  0.00    -0.200 F 
ENDBRANCH  43  57
BRANCH  44  68
ATOM     68  C   UNL A   1      40.755  30.073  33.437  1.00  0.00     0.064 A 
ATOM     69  C   UNL A   1      40.479  31.427  33.708  1.00  0.00     0.173 A 
ATOM     70  C   UNL A   1      39.666  29.212  33.266  1.00  0.00     0.173 A 
ATOM     71  F   UNL A   1      41.488  32.297  33.876  1.00  0.00    -0.203 F 
ATOM     72  C   UNL A   1      39.175  31.919  33.691  1.00  0.00     0.198 A 
ATOM     73  C   UNL A   1      38.359  29.707  33.261  1.00  0.00     0.198 A 
ATOM     74  F   UNL A   1      39.863  27.918  32.978  1.00  0.00    -0.203 F 
ATOM     75  F   UNL A   1      38.955  33.234  33.841  1.00  0.00    -0.200 F 
ATOM     76  C   UNL A   1      38.118  31.062  33.440  1.00  0.00     0.200 A 
ATOM     77  F   UNL A   1      37.338  28.885  32.981  1.00  0.00    -0.200 F 
ATOM     78  F   UNL A   1      36.874  31.546  33.324  1.00  0.00    -0.200 F 
ENDBRANCH  44  68
BRANCH  56  79
ATOM     79  C   UNL A   1      45.218  24.408  33.605  1.00  0.00     0.064 A 
ATOM     80  C   UNL A   1      44.430  23.270  33.844  1.00  0.00     0.173 A 
ATOM     81  C   UNL A   1      46.584  24.291  33.961  1.00  0.00     0.173 A 
ATOM     82  F   UNL A   1      43.151  23.214  33.451  1.00  0.00    -0.203 F 
ATOM     83  C   UNL A   1      44.955  22.122  34.444  1.00  0.00     0.198 A 
ATOM     84  C   UNL A   1      47.116  23.124  34.506  1.00  0.00     0.198 A 
ATOM     85  F   UNL A   1      47.447  25.299  33.763  1.00  0.00    -0.203 F 
ATOM     86  F   UNL A   1      44.153  21.076  34.687  1.00  0.00    -0.200 F 
ATOM     87  C   UNL A   1      46.298  22.044  34.764  1.00  0.00     0.200 A 
ATOM     88  F   UNL A   1      48.430  23.047  34.762  1.00  0.00    -0.200 F 
ATOM     89  F   UNL A   1      46.805  20.924  35.294  1.00  0.00    -0.200 F 
ENDBRANCH  56  79
ENDBRANCH  30  31
ENDBRANCH  22  25
ENDBRANCH  20  21
ENDBRANCH  19  20
ENDBRANCH   1  19
TORSDOF 13
ENDMDL
MODEL 2
REMARK VINA RESULT:     -12.9      5.229     11.171
REMARK SMILES Cc1ccc(OC(F)(F)F)cc1C(=O)NCCCCNC(=O)c1ccc(-c2c3nc(c(-c4c(F)c(F)c(F)c(F)c4F)c4ccc([nH]4)c(-c4c(F)c(F)c(F)c(F)c4F)c4nc(c(-c5c(F)c(F)c(F)c(F)c5F)c5ccc2[nH]5)C=C4)C=C3)cc1
REMARK SMILES IDX 17 1 16 2 15 3 13 4 14 5 12 7 1 8 2 9 3 10 4 11 11 12 5 13
REMARK SMILES IDX 6 14 7 15 8 16 9 17 10 18 18 19 19 20 20 21 21 22 22 24
REMARK SMILES IDX 23 25 24 26 85 27 25 28 84 29 26 30 27 31 28 32 78 33 29 34
REMARK SMILES IDX 83 35 77 36 79 37 30 38 82 39 76 40 75 41 31 43 63 44 43 45
REMARK SMILES IDX 62 46 44 47 47 48 61 49 80 50 45 51 46 52 60 54 81 55 48 56
REMARK SMILES IDX 32 57 33 58 41 59 34 60 35 61 39 62 42 63 36 64 37 65 40 66
REMARK SMILES IDX 38 67 64 68 65 69 73 70 66 71 67 72 71 73 74 74 68 75 69 76
REMARK SMILES IDX 72 77 70 78 49 79 50 80 58 81 51 82 52 83 56 84 59 85 53 86
REMARK SMILES IDX 54 87 57 88 55 89
REMARK H PARENT 15 6 20 23 79 42 47 53
REMARK Flexibility Score: inf
ROOT
ATOM      1  C   UNL A   1      37.234  21.759  24.893  1.00  0.00     0.023 C 
ENDROOT
BRANCH   1   2
ATOM      2  C   UNL A   1      36.469  22.880  25.616  1.00  0.00     0.116 C 
BRANCH   2   3
ATOM      3  N   UNL A   1      35.545  22.319  26.575  1.00  0.00    -0.352 N 
ATOM      4  C   UNL A   1      34.370  21.625  26.529  1.00  0.00     0.251 C 
ATOM      5  O   UNL A   1      33.864  21.443  27.644  1.00  0.00    -0.269 OA
ATOM      6  H   UNL A   1      35.839  22.479  27.501  1.00  0.00     0.163 HD
BRANCH   4   7
ATOM      7  C   UNL A   1      33.679  21.005  25.340  1.00  0.00     0.046 A 
ATOM      8  C   UNL A   1      33.295  23.012  23.730  1.00  0.00     0.045 C 
ATOM      9  C   UNL A   1      33.235  21.571  24.126  1.00  0.00    -0.038 A 
ATOM     10  C   UNL A   1      32.567  20.748  23.188  1.00  0.00     0.008 A 
ATOM     11  C   UNL A   1      32.239  19.427  23.470  1.00  0.00     0.047 A 
ATOM     12  C   UNL A   1      33.334  19.644  25.585  1.00  0.00     0.061 A 
ATOM     13  C   UNL A   1      32.583  18.877  24.693  1.00  0.00     0.130 A 
BRANCH  13  14
ATOM     14  O   UNL A   1      32.131  17.606  24.893  1.00  0.00    -0.406 OA
BRANCH  14  15
ATOM     15  C   UNL A   1      33.101  16.571  24.951  1.00  0.00     0.573 C 
ATOM     16  F   UNL A   1      34.019  16.725  23.974  1.00  0.00    -0.132 F 
ATOM     17  F   UNL A   1      33.715  16.528  26.152  1.00  0.00    -0.132 F 
ATOM     18  F   UNL A   1      32.477  15.387  24.760  1.00  0.00    -0.132 F 
ENDBRANCH  14  15
ENDBRANCH  13  14
ENDBRANCH   4   7
ENDBRANCH   2   3
ENDBRANCH   1   2
BRANCH   1  19
ATOM     19  C   UNL A   1      38.650  21.506  25.412  1.00  0.00     0.023 C 
BRANCH  19  20
ATOM     20  C   UNL A   1      39.082  22.495  26.477  1.00  0.00     0.116 C 
BRANCH  20  21
ATOM     21  N   UNL A   1      40.513  22.785  26.499  1.00  0.00    -0.352 N 
ATOM     22  C   UNL A   1      41.162  24.009  26.494  1.00  0.00     0.251 C 
ATOM     23  H   UNL A   1      41.103  21.996  26.520  1.00  0.00     0.163 HD
ATOM     24  O   UNL A   1      42.387  24.058  26.440  1.00  0.00    -0.269 OA
BRANCH  22  25
ATOM     25  C   UNL A   1      40.381  25.251  26.717  1.00  0.00     0.039 A 
ATOM     26  C   UNL A   1      40.800  26.410  26.051  1.00  0.00     0.014 A 
ATOM     27  C   UNL A   1      39.481  25.340  27.773  1.00  0.00     0.014 A 
ATOM     28  C   UNL A   1      40.569  27.649  26.641  1.00  0.00     0.010 A 
ATOM     29  C   UNL A   1      39.376  26.545  28.433  1.00  0.00     0.010 A 
ATOM     30  C   UNL A   1      39.995  27.684  27.907  1.00  0.00    -0.014 A 
BRANCH  30  31
ATOM     31  C   UNL A   1      40.148  28.810  28.825  1.00  0.00     0.031 A 
ATOM     32  C   UNL A   1      39.103  29.849  28.922  1.00  0.00     0.074 A 
ATOM     33  C   UNL A   1      41.184  28.801  29.694  1.00  0.00     0.049 A 
ATOM     34  N   UNL A   1      39.275  31.011  29.455  1.00  0.00    -0.248 NA
ATOM     35  C   UNL A   1      37.771  29.671  28.361  1.00  0.00     0.031 C 
ATOM     36  C   UNL A   1      41.338  29.612  30.900  1.00  0.00     0.029 A 
ATOM     37  N   UNL A   1      42.427  28.156  29.551  1.00  0.00    -0.354 N 
ATOM     38  C   UNL A   1      38.038  31.608  29.577  1.00  0.00     0.074 A 
ATOM     39  C   UNL A   1      37.159  30.775  28.794  1.00  0.00     0.031 C 
ATOM     40  C   UNL A   1      42.639  29.665  31.224  1.00  0.00     0.029 A 
ATOM     41  C   UNL A   1      43.373  29.019  30.151  1.00  0.00     0.049 A 
ATOM     42  H   UNL A   1      42.600  27.287  29.123  1.00  0.00     0.167 HD
ATOM     43  C   UNL A   1      37.900  32.654  30.447  1.00  0.00     0.037 A 
ATOM     44  C   UNL A   1      44.356  29.615  29.416  1.00  0.00     0.037 A 
ATOM     45  C   UNL A   1      39.212  33.085  30.945  1.00  0.00     0.049 A 
ATOM     46  C   UNL A   1      44.310  31.126  29.433  1.00  0.00     0.074 A 
ATOM     47  C   UNL A   1      39.886  32.874  32.137  1.00  0.00     0.029 A 
ATOM     48  N   UNL A   1      40.149  33.596  30.050  1.00  0.00    -0.354 N 
ATOM     49  N   UNL A   1      43.264  31.814  29.797  1.00  0.00    -0.248 NA
ATOM     50  C   UNL A   1      45.416  31.977  29.003  1.00  0.00     0.031 C 
ATOM     51  C   UNL A   1      41.251  33.198  31.934  1.00  0.00     0.029 A 
ATOM     52  C   UNL A   1      41.403  33.629  30.627  1.00  0.00     0.049 A 
ATOM     53  H   UNL A   1      39.944  33.893  29.134  1.00  0.00     0.167 HD
ATOM     54  C   UNL A   1      43.514  33.151  29.629  1.00  0.00     0.074 A 
ATOM     55  C   UNL A   1      44.884  33.203  29.151  1.00  0.00     0.031 C 
ATOM     56  C   UNL A   1      42.561  34.096  29.876  1.00  0.00     0.037 A 
BRANCH  43  57
ATOM     57  C   UNL A   1      36.586  33.093  31.084  1.00  0.00     0.064 A 
ATOM     58  C   UNL A   1      35.656  33.864  30.346  1.00  0.00     0.173 A 
ATOM     59  C   UNL A   1      36.212  32.885  32.426  1.00  0.00     0.173 A 
ATOM     60  F   UNL A   1      35.791  34.053  29.028  1.00  0.00    -0.203 F 
ATOM     61  C   UNL A   1      34.539  34.474  30.932  1.00  0.00     0.198 A 
ATOM     62  C   UNL A   1      35.118  33.523  33.022  1.00  0.00     0.198 A 
ATOM     63  F   UNL A   1      36.842  32.011  33.210  1.00  0.00    -0.203 F 
ATOM     64  F   UNL A   1      33.713  35.214  30.178  1.00  0.00    -0.200 F 
ATOM     65  C   UNL A   1      34.289  34.333  32.279  1.00  0.00     0.200 A 
ATOM     66  F   UNL A   1      34.875  33.336  34.328  1.00  0.00    -0.200 F 
ATOM     67  F   UNL A   1      33.244  34.944  32.851  1.00  0.00    -0.200 F 
ENDBRANCH  43  57
BRANCH  44  68
ATOM     68  C   UNL A   1      44.811  28.789  28.267  1.00  0.00     0.064 A 
ATOM     69  C   UNL A   1      45.672  27.705  28.526  1.00  0.00     0.173 A 
ATOM     70  C   UNL A   1      44.138  28.801  27.041  1.00  0.00     0.173 A 
ATOM     71  F   UNL A   1      46.338  27.643  29.691  1.00  0.00    -0.203 F 
ATOM     72  C   UNL A   1      45.764  26.625  27.651  1.00  0.00     0.198 A 
ATOM     73  C   UNL A   1      44.242  27.721  26.159  1.00  0.00     0.198 A 
ATOM     74  F   UNL A   1      43.284  29.791  26.745  1.00  0.00    -0.203 F 
ATOM     75  F   UNL A   1      46.506  25.558  27.982  1.00  0.00    -0.200 F 
ATOM     76  C   UNL A   1      45.027  26.622  26.480  1.00  0.00     0.200 A 
ATOM     77  F   UNL A   1      43.500  27.700  25.043  1.00  0.00    -0.200 F 
ATOM     78  F   UNL A   1      45.035  25.545  25.683  1.00  0.00    -0.200 F 
ENDBRANCH  44  68
BRANCH  56  79
ATOM     79  C   UNL A   1      42.652  35.558  29.513  1.00  0.00     0.064 A 
ATOM     80  C   UNL A   1      43.461  36.485  30.189  1.00  0.00     0.173 A 
ATOM     81  C   UNL A   1      42.021  36.040  28.340  1.00  0.00     0.173 A 
ATOM     82  F   UNL A   1      44.199  36.123  31.247  1.00  0.00    -0.203 F 
ATOM     83  C   UNL A   1      43.586  37.809  29.758  1.00  0.00     0.198 A 
ATOM     84  C   UNL A   1      42.194  37.345  27.881  1.00  0.00     0.198 A 
ATOM     85  F   UNL A   1      41.239  35.248  27.591  1.00  0.00    -0.203 F 
ATOM     86  F   UNL A   1      44.341  38.666  30.461  1.00  0.00    -0.200 F 
ATOM     87  C   UNL A   1      42.964  38.235  28.599  1.00  0.00     0.200 A 
ATOM     88  F   UNL A   1      41.625  37.726  26.729  1.00  0.00    -0.200 F 
ATOM     89  F   UNL A   1      43.126  39.491  28.165  1.00  0.00    -0.200 F 
ENDBRANCH  56  79
ENDBRANCH  30  31
ENDBRANCH  22  25
ENDBRANCH  20  21
ENDBRANCH  19  20
ENDBRANCH   1  19
TORSDOF 13
ENDMDL
MODEL 3
REMARK VINA RESULT:     -12.5      1.383      2.219
REMARK SMILES Cc1ccc(OC(F)(F)F)cc1C(=O)NCCCCNC(=O)c1ccc(-c2c3nc(c(-c4c(F)c(F)c(F)c(F)c4F)c4ccc([nH]4)c(-c4c(F)c(F)c(F)c(F)c4F)c4nc(c(-c5c(F)c(F)c(F)c(F)c5F)c5ccc2[nH]5)C=C4)C=C3)cc1
REMARK SMILES IDX 17 1 16 2 15 3 13 4 14 5 12 7 1 8 2 9 3 10 4 11 11 12 5 13
REMARK SMILES IDX 6 14 7 15 8 16 9 17 10 18 18 19 19 20 20 21 21 22 22 24
REMARK SMILES IDX 23 25 24 26 85 27 25 28 84 29 26 30 27 31 28 32 78 33 29 34
REMARK SMILES IDX 83 35 77 36 79 37 30 38 82 39 76 40 75 41 31 43 63 44 43 45
REMARK SMILES IDX 62 46 44 47 47 48 61 49 80 50 45 51 46 52 60 54 81 55 48 56
REMARK SMILES IDX 32 57 33 58 41 59 34 60 35 61 39 62 42 63 36 64 37 65 40 66
REMARK SMILES IDX 38 67 64 68 65 69 73 70 66 71 67 72 71 73 74 74 68 75 69 76
REMARK SMILES IDX 72 77 70 78 49 79 50 80 58 81 51 82 52 83 56 84 59 85 53 86
REMARK SMILES IDX 54 87 57 88 55 89
REMARK H PARENT 15 6 20 23 79 42 47 53
REMARK Flexibility Score: inf
ROOT
ATOM      1  C   UNL A   1      31.571  30.644  26.302  1.00  0.00     0.023 C 
ENDROOT
BRANCH   1   2
ATOM      2  C   UNL A   1      32.292  29.337  25.932  1.00  0.00     0.116 C 
BRANCH   2   3
ATOM      3  N   UNL A   1      32.449  29.239  24.499  1.00  0.00    -0.352 N 
ATOM      4  C   UNL A   1      31.640  28.986  23.429  1.00  0.00     0.251 C 
ATOM      5  O   UNL A   1      32.256  28.891  22.359  1.00  0.00    -0.269 OA
ATOM      6  H   UNL A   1      33.381  29.395  24.223  1.00  0.00     0.163 HD
BRANCH   4   7
ATOM      7  C   UNL A   1      30.135  28.892  23.378  1.00  0.00     0.046 A 
ATOM      8  C   UNL A   1      29.665  26.345  23.623  1.00  0.00     0.045 C 
ATOM      9  C   UNL A   1      29.271  27.782  23.485  1.00  0.00    -0.038 A 
ATOM     10  C   UNL A   1      27.876  27.982  23.355  1.00  0.00     0.008 A 
ATOM     11  C   UNL A   1      27.337  29.219  23.019  1.00  0.00     0.047 A 
ATOM     12  C   UNL A   1      29.543  30.145  23.046  1.00  0.00     0.061 A 
ATOM     13  C   UNL A   1      28.174  30.303  22.819  1.00  0.00     0.130 A 
BRANCH  13  14
ATOM     14  O   UNL A   1      27.544  31.440  22.406  1.00  0.00    -0.406 OA
BRANCH  14  15
ATOM     15  C   UNL A   1      28.262  32.306  21.541  1.00  0.00     0.573 C 
ATOM     16  F   UNL A   1      29.107  33.087  22.245  1.00  0.00    -0.132 F 
ATOM     17  F   UNL A   1      28.948  31.620  20.603  1.00  0.00    -0.132 F 
ATOM     18  F   UNL A   1      27.377  33.108  20.907  1.00  0.00    -0.132 F 
ENDBRANCH  14  15
ENDBRANCH  13  14
ENDBRANCH   4   7
ENDBRANCH   2   3
ENDBRANCH   1   2
BRANCH   1  19
ATOM     19  C   UNL A   1      32.398  31.622  27.138  1.00  0.00     0.023 C 
BRANCH  19  20
ATOM     20  C   UNL A   1      33.816  31.144  27.388  1.00  0.00     0.116 C 
BRANCH  20  21
ATOM     21  N   UNL A   1      34.595  31.988  28.291  1.00  0.00    -0.352 N 
ATOM     22  C   UNL A   1      35.688  31.658  29.076  1.00  0.00     0.251 C 
ATOM     23  H   UNL A   1      34.300  32.926  28.351  1.00  0.00     0.163 HD
ATOM     24  O   UNL A   1      36.174  32.489  29.837  1.00  0.00    -0.269 OA
BRANCH  22  25
ATOM     25  C   UNL A   1      36.366  30.353  28.875  1.00  0.00     0.039 A 
ATOM     26  C   UNL A   1      36.667  29.595  30.013  1.00  0.00     0.014 A 
ATOM     27  C   UNL A   1      36.959  30.046  27.656  1.00  0.00     0.014 A 
ATOM     28  C   UNL A   1      37.777  28.757  29.993  1.00  0.00     0.010 A 
ATOM     29  C   UNL A   1      38.138  29.333  27.671  1.00  0.00     0.010 A 
ATOM     30  C   UNL A   1      38.590  28.760  28.864  1.00  0.00    -0.014 A 
BRANCH  30  31
ATOM     31  C   UNL A   1      39.991  28.348  28.886  1.00  0.00     0.031 A 
ATOM     32  C   UNL A   1      40.372  26.961  28.552  1.00  0.00     0.074 A 
ATOM     33  C   UNL A   1      40.943  29.294  29.061  1.00  0.00     0.049 A 
ATOM     34  N   UNL A   1      41.513  26.429  28.832  1.00  0.00    -0.248 NA
ATOM     35  C   UNL A   1      39.453  26.031  27.911  1.00  0.00     0.031 C 
ATOM     36  C   UNL A   1      42.371  29.179  28.777  1.00  0.00     0.029 A 
ATOM     37  N   UNL A   1      40.820  30.530  29.721  1.00  0.00    -0.354 N 
ATOM     38  C   UNL A   1      41.593  25.223  28.169  1.00  0.00     0.074 A 
ATOM     39  C   UNL A   1      40.252  24.984  27.696  1.00  0.00     0.031 C 
ATOM     40  C   UNL A   1      43.030  30.107  29.487  1.00  0.00     0.029 A 
ATOM     41  C   UNL A   1      42.063  30.742  30.363  1.00  0.00     0.049 A 
ATOM     42  H   UNL A   1      40.034  31.123  29.734  1.00  0.00     0.167 HD
ATOM     43  C   UNL A   1      42.825  24.657  27.987  1.00  0.00     0.037 A 
ATOM     44  C   UNL A   1      42.160  30.787  31.723  1.00  0.00     0.037 A 
ATOM     45  C   UNL A   1      43.842  25.382  28.758  1.00  0.00     0.049 A 
ATOM     46  C   UNL A   1      43.059  29.724  32.313  1.00  0.00     0.074 A 
ATOM     47  C   UNL A   1      44.806  26.313  28.409  1.00  0.00     0.029 A 
ATOM     48  N   UNL A   1      43.757  25.409  30.148  1.00  0.00    -0.354 N 
ATOM     49  N   UNL A   1      43.430  28.652  31.671  1.00  0.00    -0.248 NA
ATOM     50  C   UNL A   1      43.572  29.762  33.680  1.00  0.00     0.031 C 
ATOM     51  C   UNL A   1      45.252  26.950  29.594  1.00  0.00     0.029 A 
ATOM     52  C   UNL A   1      44.578  26.390  30.666  1.00  0.00     0.049 A 
ATOM     53  H   UNL A   1      43.189  24.811  30.686  1.00  0.00     0.167 HD
ATOM     54  C   UNL A   1      44.174  27.856  32.501  1.00  0.00     0.074 A 
ATOM     55  C   UNL A   1      44.256  28.606  33.742  1.00  0.00     0.031 C 
ATOM     56  C   UNL A   1      44.640  26.637  32.100  1.00  0.00     0.037 A 
BRANCH  43  57
ATOM     57  C   UNL A   1      43.172  23.652  26.894  1.00  0.00     0.064 A 
ATOM     58  C   UNL A   1      42.828  22.286  27.042  1.00  0.00     0.173 A 
ATOM     59  C   UNL A   1      43.917  23.926  25.732  1.00  0.00     0.173 A 
ATOM     60  F   UNL A   1      42.018  21.870  28.023  1.00  0.00    -0.203 F 
ATOM     61  C   UNL A   1      43.301  21.285  26.184  1.00  0.00     0.198 A 
ATOM     62  C   UNL A   1      44.421  22.924  24.893  1.00  0.00     0.198 A 
ATOM     63  F   UNL A   1      44.143  25.171  25.311  1.00  0.00    -0.203 F 
ATOM     64  F   UNL A   1      42.958  20.008  26.399  1.00  0.00    -0.200 F 
ATOM     65  C   UNL A   1      44.128  21.601  25.128  1.00  0.00     0.200 A 
ATOM     66  F   UNL A   1      45.192  23.263  23.849  1.00  0.00    -0.200 F 
ATOM     67  F   UNL A   1      44.612  20.644  24.327  1.00  0.00    -0.200 F 
ENDBRANCH  43  57
BRANCH  44  68
ATOM     68  C   UNL A   1      40.945  31.337  32.380  1.00  0.00     0.064 A 
ATOM     69  C   UNL A   1      39.983  30.432  32.866  1.00  0.00     0.173 A 
ATOM     70  C   UNL A   1      40.902  32.649  32.864  1.00  0.00     0.173 A 
ATOM     71  F   UNL A   1      39.983  29.160  32.438  1.00  0.00    -0.203 F 
ATOM     72  C   UNL A   1      39.094  30.791  33.878  1.00  0.00     0.198 A 
ATOM     73  C   UNL A   1      40.002  33.009  33.871  1.00  0.00     0.198 A 
ATOM     74  F   UNL A   1      41.808  33.552  32.460  1.00  0.00    -0.203 F 
ATOM     75  F   UNL A   1      38.267  29.873  34.398  1.00  0.00    -0.200 F 
ATOM     76  C   UNL A   1      39.124  32.073  34.399  1.00  0.00     0.200 A 
ATOM     77  F   UNL A   1      40.055  34.239  34.402  1.00  0.00    -0.200 F 
ATOM     78  F   UNL A   1      38.342  32.394  35.438  1.00  0.00    -0.200 F 
ENDBRANCH  44  68
BRANCH  56  79
ATOM     79  C   UNL A   1      45.266  25.593  32.992  1.00  0.00     0.064 A 
ATOM     80  C   UNL A   1      46.645  25.335  33.048  1.00  0.00     0.173 A 
ATOM     81  C   UNL A   1      44.478  24.915  33.954  1.00  0.00     0.173 A 
ATOM     82  F   UNL A   1      47.509  25.997  32.268  1.00  0.00    -0.203 F 
ATOM     83  C   UNL A   1      47.190  24.425  33.958  1.00  0.00     0.198 A 
ATOM     84  C   UNL A   1      45.032  24.051  34.898  1.00  0.00     0.198 A 
ATOM     85  F   UNL A   1      43.150  25.092  34.021  1.00  0.00    -0.203 F 
ATOM     86  F   UNL A   1      48.508  24.183  33.946  1.00  0.00    -0.200 F 
ATOM     87  C   UNL A   1      46.387  23.793  34.890  1.00  0.00     0.200 A 
ATOM     88  F   UNL A   1      44.246  23.488  35.827  1.00  0.00    -0.200 F 
ATOM     89  F   UNL A   1      46.920  22.959  35.792  1.00  0.00    -0.200 F 
ENDBRANCH  56  79
ENDBRANCH  30  31
ENDBRANCH  22  25
ENDBRANCH  20  21
ENDBRANCH  19  20
ENDBRANCH   1  19
TORSDOF 13
ENDMDL
