MODEL 1
REMARK VINA RESULT:     -13.0      0.000      0.000
REMARK SMILES COc1ccc(-c2noc(CC(=O)NCCCCNC(=O)c3ccc(-c4c5nc(c(-c6c(F)c(F)c(F)c(F)c6F)c6ccc([nH]6)c(-c6c(F)c(F)c(F)c(F)c6F)c6nc(c(-c7c(F)c(F)c(F)c(F)c7F)c7ccc4[nH]7)C=C6)C=C5)cc3)c2-c2ccc(OC)cc2)cc1
REMARK SMILES IDX 16 1 15 2 14 3 12 4 13 5 11 7 10 8 7 9 8 10 85 11 9 12 6 13
REMARK SMILES IDX 3 14 4 15 95 16 5 17 94 18 2 19 1 20 86 21 87 22 93 23 88 24
REMARK SMILES IDX 92 25 89 26 90 27 91 28 17 29 18 30 19 31 20 32 21 34 22 35
REMARK SMILES IDX 23 36 84 37 24 38 83 39 25 40 26 41 27 42 77 43 28 44 82 45
REMARK SMILES IDX 76 46 78 47 29 48 81 49 75 50 74 51 30 53 62 54 42 55 61 56
REMARK SMILES IDX 43 57 46 58 60 59 79 60 44 61 45 62 59 64 80 65 47 66 31 67
REMARK SMILES IDX 32 68 40 69 33 70 34 71 38 72 41 73 35 74 36 75 39 76 37 77
REMARK SMILES IDX 63 78 64 79 72 80 65 81 66 82 70 83 73 84 67 85 68 86 71 87
REMARK SMILES IDX 69 88 48 89 49 90 57 91 50 92 51 93 55 94 58 95 52 96 53 97
REMARK SMILES IDX 56 98 54 99
REMARK H PARENT 14 6 19 33 78 52 46 63
REMARK Flexibility Score: inf
ROOT
ATOM      1  C   UNL A   1      31.562  29.123  23.944  1.00  0.00     0.023 C 
ENDROOT
BRANCH   1   2
ATOM      2  C   UNL A   1      31.014  27.886  23.232  1.00  0.00     0.116 C 
BRANCH   2   3
ATOM      3  N   UNL A   1      31.884  27.473  22.152  1.00  0.00    -0.356 N 
ATOM      4  C   UNL A   1      33.004  26.690  22.207  1.00  0.00     0.227 C 
ATOM      5  O   UNL A   1      33.638  26.514  21.164  1.00  0.00    -0.275 OA
ATOM      6  H   UNL A   1      31.637  27.799  21.256  1.00  0.00     0.163 HD
BRANCH   4   7
ATOM      7  C   UNL A   1      33.386  25.982  23.493  1.00  0.00     0.179 C 
BRANCH   7   8
ATOM      8  C   UNL A   1      32.896  24.583  23.537  1.00  0.00     0.154 A 
ATOM      9  C   UNL A   1      32.399  22.428  23.693  1.00  0.00     0.122 A 
ATOM     10  N   UNL A   1      31.334  23.020  23.136  1.00  0.00    -0.079 NA
ATOM     11  C   UNL A   1      33.426  23.380  23.956  1.00  0.00     0.053 A 
ATOM     12  O   UNL A   1      31.637  24.366  23.063  1.00  0.00    -0.360 OA
BRANCH   9  13
ATOM     13  C   UNL A   1      32.437  20.998  23.963  1.00  0.00     0.005 A 
ATOM     14  C   UNL A   1      32.672  18.254  24.495  1.00  0.00     0.118 A 
ATOM     15  C   UNL A   1      32.400  18.702  23.200  1.00  0.00     0.047 A 
ATOM     16  C   UNL A   1      32.842  19.180  25.524  1.00  0.00     0.047 A 
ATOM     17  C   UNL A   1      32.267  20.068  22.934  1.00  0.00     0.014 A 
ATOM     18  C   UNL A   1      32.723  20.547  25.258  1.00  0.00     0.014 A 
BRANCH  14  19
ATOM     19  O   UNL A   1      32.793  16.899  24.638  1.00  0.00    -0.497 OA
ATOM     20  C   UNL A   1      34.052  16.454  25.132  1.00  0.00     0.278 C 
ENDBRANCH  14  19
ENDBRANCH   9  13
BRANCH  11  21
ATOM     21  C   UNL A   1      34.780  23.179  24.436  1.00  0.00    -0.012 A 
ATOM     22  C   UNL A   1      35.155  23.703  25.681  1.00  0.00     0.013 A 
ATOM     23  C   UNL A   1      35.722  22.473  23.684  1.00  0.00     0.013 A 
ATOM     24  C   UNL A   1      36.441  23.491  26.177  1.00  0.00     0.047 A 
ATOM     25  C   UNL A   1      37.016  22.270  24.182  1.00  0.00     0.047 A 
ATOM     26  C   UNL A   1      37.377  22.771  25.434  1.00  0.00     0.118 A 
BRANCH  26  27
ATOM     27  O   UNL A   1      38.593  22.632  26.041  1.00  0.00    -0.497 OA
ATOM     28  C   UNL A   1      39.233  21.368  25.923  1.00  0.00     0.278 C 
ENDBRANCH  26  27
ENDBRANCH  11  21
ENDBRANCH   7   8
ENDBRANCH   4   7
ENDBRANCH   2   3
ENDBRANCH   1   2
BRANCH   1  29
ATOM     29  C   UNL A   1      31.773  28.940  25.449  1.00  0.00     0.023 C 
BRANCH  29  30
ATOM     30  C   UNL A   1      32.970  29.686  26.028  1.00  0.00     0.116 C 
BRANCH  30  31
ATOM     31  N   UNL A   1      32.642  31.025  26.500  1.00  0.00    -0.352 N 
ATOM     32  C   UNL A   1      33.366  31.842  27.335  1.00  0.00     0.251 C 
ATOM     33  H   UNL A   1      31.789  31.394  26.176  1.00  0.00     0.163 HD
ATOM     34  O   UNL A   1      32.904  32.909  27.724  1.00  0.00    -0.269 OA
BRANCH  32  35
ATOM     35  C   UNL A   1      34.695  31.397  27.803  1.00  0.00     0.039 A 
ATOM     36  C   UNL A   1      35.723  32.337  27.901  1.00  0.00     0.014 A 
ATOM     37  C   UNL A   1      34.901  30.074  28.203  1.00  0.00     0.014 A 
ATOM     38  C   UNL A   1      36.932  31.974  28.496  1.00  0.00     0.010 A 
ATOM     39  C   UNL A   1      36.084  29.729  28.850  1.00  0.00     0.010 A 
ATOM     40  C   UNL A   1      37.100  30.683  29.023  1.00  0.00    -0.014 A 
BRANCH  40  41
ATOM     41  C   UNL A   1      38.299  30.328  29.822  1.00  0.00     0.031 A 
ATOM     42  C   UNL A   1      39.316  29.366  29.283  1.00  0.00     0.074 A 
ATOM     43  C   UNL A   1      38.419  30.809  31.075  1.00  0.00     0.049 A 
ATOM     44  N   UNL A   1      40.372  28.863  29.872  1.00  0.00    -0.248 NA
ATOM     45  C   UNL A   1      39.108  28.888  27.907  1.00  0.00     0.031 C 
ATOM     46  C   UNL A   1      37.469  31.713  31.728  1.00  0.00     0.029 A 
ATOM     47  N   UNL A   1      39.380  30.590  32.031  1.00  0.00    -0.354 N 
ATOM     48  C   UNL A   1      40.948  28.005  28.945  1.00  0.00     0.074 A 
ATOM     49  C   UNL A   1      40.102  28.020  27.772  1.00  0.00     0.031 C 
ATOM     50  C   UNL A   1      37.901  31.981  32.971  1.00  0.00     0.029 A 
ATOM     51  C   UNL A   1      39.133  31.239  33.217  1.00  0.00     0.049 A 
ATOM     52  H   UNL A   1      40.171  30.023  31.882  1.00  0.00     0.167 HD
ATOM     53  C   UNL A   1      42.089  27.287  29.060  1.00  0.00     0.037 A 
ATOM     54  C   UNL A   1      39.814  31.223  34.379  1.00  0.00     0.037 A 
ATOM     55  C   UNL A   1      42.939  27.291  30.223  1.00  0.00     0.049 A 
ATOM     56  C   UNL A   1      41.065  30.395  34.485  1.00  0.00     0.074 A 
ATOM     57  C   UNL A   1      44.153  26.653  30.405  1.00  0.00     0.029 A 
ATOM     58  N   UNL A   1      42.657  27.960  31.404  1.00  0.00    -0.354 N 
ATOM     59  N   UNL A   1      41.639  29.644  33.577  1.00  0.00    -0.248 NA
ATOM     60  C   UNL A   1      41.761  30.411  35.780  1.00  0.00     0.031 C 
ATOM     61  C   UNL A   1      44.587  26.900  31.712  1.00  0.00     0.029 A 
ATOM     62  C   UNL A   1      43.663  27.727  32.331  1.00  0.00     0.049 A 
ATOM     63  H   UNL A   1      41.862  28.519  31.562  1.00  0.00     0.167 HD
ATOM     64  C   UNL A   1      42.769  29.112  34.183  1.00  0.00     0.074 A 
ATOM     65  C   UNL A   1      42.811  29.642  35.529  1.00  0.00     0.031 C 
ATOM     66  C   UNL A   1      43.687  28.258  33.669  1.00  0.00     0.037 A 
BRANCH  53  67
ATOM     67  C   UNL A   1      42.498  26.439  27.893  1.00  0.00     0.064 A 
ATOM     68  C   UNL A   1      42.015  25.131  27.733  1.00  0.00     0.173 A 
ATOM     69  C   UNL A   1      43.339  26.955  26.897  1.00  0.00     0.173 A 
ATOM     70  F   UNL A   1      41.216  24.589  28.664  1.00  0.00    -0.203 F 
ATOM     71  C   UNL A   1      42.374  24.366  26.628  1.00  0.00     0.198 A 
ATOM     72  C   UNL A   1      43.676  26.195  25.779  1.00  0.00     0.198 A 
ATOM     73  F   UNL A   1      43.825  28.202  26.999  1.00  0.00    -0.203 F 
ATOM     74  F   UNL A   1      41.930  23.106  26.514  1.00  0.00    -0.200 F 
ATOM     75  C   UNL A   1      43.197  24.900  25.648  1.00  0.00     0.200 A 
ATOM     76  F   UNL A   1      44.463  26.718  24.828  1.00  0.00    -0.200 F 
ATOM     77  F   UNL A   1      43.534  24.165  24.580  1.00  0.00    -0.200 F 
ENDBRANCH  53  67
BRANCH  54  78
ATOM     78  C   UNL A   1      39.330  32.020  35.535  1.00  0.00     0.064 A 
ATOM     79  C   UNL A   1      38.463  31.457  36.482  1.00  0.00     0.173 A 
ATOM     80  C   UNL A   1      39.712  33.357  35.712  1.00  0.00     0.173 A 
ATOM     81  F   UNL A   1      38.052  30.189  36.342  1.00  0.00    -0.203 F 
ATOM     82  C   UNL A   1      37.981  32.209  37.552  1.00  0.00     0.198 A 
ATOM     83  C   UNL A   1      39.251  34.100  36.797  1.00  0.00     0.198 A 
ATOM     84  F   UNL A   1      40.541  33.941  34.834  1.00  0.00    -0.203 F 
ATOM     85  F   UNL A   1      37.118  31.659  38.417  1.00  0.00    -0.200 F 
ATOM     86  C   UNL A   1      38.379  33.528  37.712  1.00  0.00     0.200 A 
ATOM     87  F   UNL A   1      39.647  35.371  36.954  1.00  0.00    -0.200 F 
ATOM     88  F   UNL A   1      37.917  34.248  38.742  1.00  0.00    -0.200 F 
ENDBRANCH  54  78
BRANCH  66  89
ATOM     89  C   UNL A   1      44.820  27.851  34.564  1.00  0.00     0.064 A 
ATOM     90  C   UNL A   1      44.745  26.696  35.356  1.00  0.00     0.173 A 
ATOM     91  C   UNL A   1      46.004  28.600  34.601  1.00  0.00     0.173 A 
ATOM     92  F   UNL A   1      43.626  25.957  35.369  1.00  0.00    -0.203 F 
ATOM     93  C   UNL A   1      45.811  26.318  36.169  1.00  0.00     0.198 A 
ATOM     94  C   UNL A   1      47.077  28.204  35.394  1.00  0.00     0.198 A 
ATOM     95  F   UNL A   1      46.126  29.711  33.857  1.00  0.00    -0.203 F 
ATOM     96  F   UNL A   1      45.703  25.234  36.950  1.00  0.00    -0.200 F 
ATOM     97  C   UNL A   1      46.978  27.068  36.182  1.00  0.00     0.200 A 
ATOM     98  F   UNL A   1      48.209  28.922  35.396  1.00  0.00    -0.200 F 
ATOM     99  F   UNL A   1      48.005  26.697  36.958  1.00  0.00    -0.200 F 
ENDBRANCH  66  89
ENDBRANCH  40  41
ENDBRANCH  32  35
ENDBRANCH  30  31
ENDBRANCH  29  30
ENDBRANCH   1  29
TORSDOF 16
ENDMDL
MODEL 2
REMARK VINA RESULT:     -13.0      0.370      7.096
REMARK SMILES COc1ccc(-c2noc(CC(=O)NCCCCNC(=O)c3ccc(-c4c5nc(c(-c6c(F)c(F)c(F)c(F)c6F)c6ccc([nH]6)c(-c6c(F)c(F)c(F)c(F)c6F)c6nc(c(-c7c(F)c(F)c(F)c(F)c7F)c7ccc4[nH]7)C=C6)C=C5)cc3)c2-c2ccc(OC)cc2)cc1
REMARK SMILES IDX 16 1 15 2 14 3 12 4 13 5 11 7 10 8 7 9 8 10 85 11 9 12 6 13
REMARK SMILES IDX 3 14 4 15 95 16 5 17 94 18 2 19 1 20 86 21 87 22 93 23 88 24
REMARK SMILES IDX 92 25 89 26 90 27 91 28 17 29 18 30 19 31 20 32 21 34 22 35
REMARK SMILES IDX 23 36 84 37 24 38 83 39 25 40 26 41 27 42 77 43 28 44 82 45
REMARK SMILES IDX 76 46 78 47 29 48 81 49 75 50 74 51 30 53 62 54 42 55 61 56
REMARK SMILES IDX 43 57 46 58 60 59 79 60 44 61 45 62 59 64 80 65 47 66 31 67
REMARK SMILES IDX 32 68 40 69 33 70 34 71 38 72 41 73 35 74 36 75 39 76 37 77
REMARK SMILES IDX 63 78 64 79 72 80 65 81 66 82 70 83 73 84 67 85 68 86 71 87
REMARK SMILES IDX 69 88 48 89 49 90 57 91 50 92 51 93 55 94 58 95 52 96 53 97
REMARK SMILES IDX 56 98 54 99
REMARK H PARENT 14 6 19 33 78 52 46 63
REMARK Flexibility Score: inf
ROOT
ATOM      1  C   UNL A   1      31.266  28.993  23.939  1.00  0.00     0.023 C 
ENDROOT
BRANCH   1   2
ATOM      2  C   UNL A   1      30.827  27.700  23.253  1.00  0.00     0.116 C 
BRANCH   2   3
ATOM      3  N   UNL A   1      31.724  27.347  22.172  1.00  0.00    -0.356 N 
ATOM      4  C   UNL A   1      32.896  26.646  22.227  1.00  0.00     0.227 C 
ATOM      5  O   UNL A   1      33.540  26.514  21.184  1.00  0.00    -0.275 OA
ATOM      6  H   UNL A   1      31.453  27.654  21.276  1.00  0.00     0.163 HD
BRANCH   4   7
ATOM      7  C   UNL A   1      33.328  25.968  23.513  1.00  0.00     0.179 C 
BRANCH   7   8
ATOM      8  C   UNL A   1      32.892  24.552  23.582  1.00  0.00     0.154 A 
ATOM      9  C   UNL A   1      32.479  22.382  23.774  1.00  0.00     0.122 A 
ATOM     10  N   UNL A   1      31.385  22.925  23.222  1.00  0.00    -0.079 NA
ATOM     11  C   UNL A   1      33.473  23.376  24.011  1.00  0.00     0.053 A 
ATOM     12  O   UNL A   1      31.637  24.281  23.128  1.00  0.00    -0.360 OA
BRANCH   9  13
ATOM     13  C   UNL A   1      32.575  20.959  24.062  1.00  0.00     0.005 A 
ATOM     14  C   UNL A   1      32.599  18.208  24.610  1.00  0.00     0.118 A 
ATOM     15  C   UNL A   1      32.825  19.134  25.631  1.00  0.00     0.047 A 
ATOM     16  C   UNL A   1      32.346  18.658  23.315  1.00  0.00     0.047 A 
ATOM     17  C   UNL A   1      32.829  20.505  25.360  1.00  0.00     0.014 A 
ATOM     18  C   UNL A   1      32.335  20.028  23.043  1.00  0.00     0.014 A 
BRANCH  14  19
ATOM     19  O   UNL A   1      32.606  16.894  24.992  1.00  0.00    -0.497 OA
ATOM     20  C   UNL A   1      33.874  16.389  25.397  1.00  0.00     0.278 C 
ENDBRANCH  14  19
ENDBRANCH   9  13
BRANCH  11  21
ATOM     21  C   UNL A   1      34.838  23.233  24.476  1.00  0.00    -0.012 A 
ATOM     22  C   UNL A   1      35.187  23.709  25.747  1.00  0.00     0.013 A 
ATOM     23  C   UNL A   1      35.818  22.629  23.684  1.00  0.00     0.013 A 
ATOM     24  C   UNL A   1      36.487  23.550  26.228  1.00  0.00     0.047 A 
ATOM     25  C   UNL A   1      37.126  22.480  24.167  1.00  0.00     0.047 A 
ATOM     26  C   UNL A   1      37.461  22.932  25.444  1.00  0.00     0.118 A 
BRANCH  26  27
ATOM     27  O   UNL A   1      38.687  22.835  26.040  1.00  0.00    -0.497 OA
ATOM     28  C   UNL A   1      39.313  21.558  26.027  1.00  0.00     0.278 C 
ENDBRANCH  26  27
ENDBRANCH  11  21
ENDBRANCH   7   8
ENDBRANCH   4   7
ENDBRANCH   2   3
ENDBRANCH   1   2
BRANCH   1  29
ATOM     29  C   UNL A   1      31.718  28.813  25.390  1.00  0.00     0.023 C 
BRANCH  29  30
ATOM     30  C   UNL A   1      32.952  29.616  25.786  1.00  0.00     0.116 C 
BRANCH  30  31
ATOM     31  N   UNL A   1      32.635  30.923  26.348  1.00  0.00    -0.352 N 
ATOM     32  C   UNL A   1      33.351  31.661  27.259  1.00  0.00     0.251 C 
ATOM     33  H   UNL A   1      31.798  31.331  26.030  1.00  0.00     0.163 HD
ATOM     34  O   UNL A   1      32.897  32.706  27.714  1.00  0.00    -0.269 OA
BRANCH  32  35
ATOM     35  C   UNL A   1      34.658  31.157  27.726  1.00  0.00     0.039 A 
ATOM     36  C   UNL A   1      35.689  32.071  27.953  1.00  0.00     0.014 A 
ATOM     37  C   UNL A   1      34.839  29.799  28.001  1.00  0.00     0.014 A 
ATOM     38  C   UNL A   1      36.873  31.637  28.550  1.00  0.00     0.010 A 
ATOM     39  C   UNL A   1      35.995  29.379  28.652  1.00  0.00     0.010 A 
ATOM     40  C   UNL A   1      37.012  30.299  28.954  1.00  0.00    -0.014 A 
BRANCH  40  41
ATOM     41  C   UNL A   1      38.179  29.853  29.755  1.00  0.00     0.031 A 
ATOM     42  C   UNL A   1      38.404  30.392  31.137  1.00  0.00     0.074 A 
ATOM     43  C   UNL A   1      39.085  29.030  29.193  1.00  0.00     0.049 A 
ATOM     44  N   UNL A   1      39.415  30.197  31.946  1.00  0.00    -0.248 NA
ATOM     45  C   UNL A   1      37.367  31.287  31.674  1.00  0.00     0.031 C 
ATOM     46  C   UNL A   1      39.001  28.479  27.838  1.00  0.00     0.029 A 
ATOM     47  N   UNL A   1      40.264  28.526  29.683  1.00  0.00    -0.354 N 
ATOM     48  C   UNL A   1      39.141  30.948  33.080  1.00  0.00     0.074 A 
ATOM     49  C   UNL A   1      37.893  31.638  32.839  1.00  0.00     0.031 C 
ATOM     50  C   UNL A   1      40.075  27.706  27.611  1.00  0.00     0.029 A 
ATOM     51  C   UNL A   1      40.941  27.737  28.784  1.00  0.00     0.049 A 
ATOM     52  H   UNL A   1      40.594  28.712  30.592  1.00  0.00     0.167 HD
ATOM     53  C   UNL A   1      39.859  31.036  34.224  1.00  0.00     0.037 A 
ATOM     54  C   UNL A   1      42.135  27.122  28.890  1.00  0.00     0.037 A 
ATOM     55  C   UNL A   1      41.091  30.330  34.467  1.00  0.00     0.049 A 
ATOM     56  C   UNL A   1      42.922  27.259  30.163  1.00  0.00     0.074 A 
ATOM     57  C   UNL A   1      41.853  30.299  35.622  1.00  0.00     0.029 A 
ATOM     58  N   UNL A   1      41.745  29.539  33.535  1.00  0.00    -0.354 N 
ATOM     59  N   UNL A   1      42.618  27.914  31.257  1.00  0.00    -0.248 NA
ATOM     60  C   UNL A   1      44.220  26.571  30.215  1.00  0.00     0.031 C 
ATOM     61  C   UNL A   1      42.991  29.523  35.376  1.00  0.00     0.029 A 
ATOM     62  C   UNL A   1      42.918  29.038  34.080  1.00  0.00     0.049 A 
ATOM     63  H   UNL A   1      41.425  29.359  32.621  1.00  0.00     0.167 HD
ATOM     64  C   UNL A   1      43.675  27.706  32.131  1.00  0.00     0.074 A 
ATOM     65  C   UNL A   1      44.620  26.847  31.449  1.00  0.00     0.031 C 
ATOM     66  C   UNL A   1      43.850  28.188  33.385  1.00  0.00     0.037 A 
BRANCH  53  67
ATOM     67  C   UNL A   1      39.328  31.921  35.312  1.00  0.00     0.064 A 
ATOM     68  C   UNL A   1      38.505  31.416  36.329  1.00  0.00     0.173 A 
ATOM     69  C   UNL A   1      39.688  33.275  35.369  1.00  0.00     0.173 A 
ATOM     70  F   UNL A   1      38.124  30.130  36.314  1.00  0.00    -0.203 F 
ATOM     71  C   UNL A   1      38.046  32.239  37.353  1.00  0.00     0.198 A 
ATOM     72  C   UNL A   1      39.248  34.090  36.409  1.00  0.00     0.198 A 
ATOM     73  F   UNL A   1      40.478  33.806  34.423  1.00  0.00    -0.203 F 
ATOM     74  F   UNL A   1      37.230  31.745  38.294  1.00  0.00    -0.200 F 
ATOM     75  C   UNL A   1      38.424  33.573  37.397  1.00  0.00     0.200 A 
ATOM     76  F   UNL A   1      39.623  35.376  36.455  1.00  0.00    -0.200 F 
ATOM     77  F   UNL A   1      37.988  34.362  38.389  1.00  0.00    -0.200 F 
ENDBRANCH  53  67
BRANCH  54  78
ATOM     78  C   UNL A   1      42.657  26.316  27.756  1.00  0.00     0.064 A 
ATOM     79  C   UNL A   1      42.326  24.960  27.626  1.00  0.00     0.173 A 
ATOM     80  C   UNL A   1      43.503  26.878  26.789  1.00  0.00     0.173 A 
ATOM     81  F   UNL A   1      41.539  24.374  28.539  1.00  0.00    -0.203 F 
ATOM     82  C   UNL A   1      42.838  24.192  26.582  1.00  0.00     0.198 A 
ATOM     83  C   UNL A   1      43.993  26.115  25.731  1.00  0.00     0.198 A 
ATOM     84  F   UNL A   1      43.849  28.172  26.868  1.00  0.00    -0.203 F 
ATOM     85  F   UNL A   1      42.541  22.887  26.508  1.00  0.00    -0.200 F 
ATOM     86  C   UNL A   1      43.666  24.771  25.633  1.00  0.00     0.200 A 
ATOM     87  F   UNL A   1      44.784  26.681  24.809  1.00  0.00    -0.200 F 
ATOM     88  F   UNL A   1      44.155  24.031  24.629  1.00  0.00    -0.200 F 
ENDBRANCH  54  78
BRANCH  66  89
ATOM     89  C   UNL A   1      45.104  27.788  34.105  1.00  0.00     0.064 A 
ATOM     90  C   UNL A   1      46.259  28.582  34.052  1.00  0.00     0.173 A 
ATOM     91  C   UNL A   1      45.139  26.623  34.884  1.00  0.00     0.173 A 
ATOM     92  F   UNL A   1      46.280  29.695  33.305  1.00  0.00    -0.203 F 
ATOM     93  C   UNL A   1      47.412  28.210  34.739  1.00  0.00     0.198 A 
ATOM     94  C   UNL A   1      46.284  26.270  35.591  1.00  0.00     0.198 A 
ATOM     95  F   UNL A   1      44.057  25.833  34.970  1.00  0.00    -0.203 F 
ATOM     96  F   UNL A   1      48.518  28.961  34.641  1.00  0.00    -0.200 F 
ATOM     97  C   UNL A   1      47.422  27.060  35.513  1.00  0.00     0.200 A 
ATOM     98  F   UNL A   1      46.289  25.164  36.348  1.00  0.00    -0.200 F 
ATOM     99  F   UNL A   1      48.530  26.709  36.180  1.00  0.00    -0.200 F 
ENDBRANCH  66  89
ENDBRANCH  40  41
ENDBRANCH  32  35
ENDBRANCH  30  31
ENDBRANCH  29  30
ENDBRANCH   1  29
TORSDOF 16
ENDMDL
MODEL 3
REMARK VINA RESULT:     -12.7      0.566      7.172
REMARK SMILES COc1ccc(-c2noc(CC(=O)NCCCCNC(=O)c3ccc(-c4c5nc(c(-c6c(F)c(F)c(F)c(F)c6F)c6ccc([nH]6)c(-c6c(F)c(F)c(F)c(F)c6F)c6nc(c(-c7c(F)c(F)c(F)c(F)c7F)c7ccc4[nH]7)C=C6)C=C5)cc3)c2-c2ccc(OC)cc2)cc1
REMARK SMILES IDX 16 1 15 2 14 3 12 4 13 5 11 7 10 8 7 9 8 10 85 11 9 12 6 13
REMARK SMILES IDX 3 14 4 15 95 16 5 17 94 18 2 19 1 20 86 21 87 22 93 23 88 24
REMARK SMILES IDX 92 25 89 26 90 27 91 28 17 29 18 30 19 31 20 32 21 34 22 35
REMARK SMILES IDX 23 36 84 37 24 38 83 39 25 40 26 41 27 42 77 43 28 44 82 45
REMARK SMILES IDX 76 46 78 47 29 48 81 49 75 50 74 51 30 53 62 54 42 55 61 56
REMARK SMILES IDX 43 57 46 58 60 59 79 60 44 61 45 62 59 64 80 65 47 66 31 67
REMARK SMILES IDX 32 68 40 69 33 70 34 71 38 72 41 73 35 74 36 75 39 76 37 77
REMARK SMILES IDX 63 78 64 79 72 80 65 81 66 82 70 83 73 84 67 85 68 86 71 87
REMARK SMILES IDX 69 88 48 89 49 90 57 91 50 92 51 93 55 94 58 95 52 96 53 97
REMARK SMILES IDX 56 98 54 99
REMARK H PARENT 14 6 19 33 78 52 46 63
REMARK Flexibility Score: inf
ROOT
ATOM      1  C   UNL A   1      31.730  29.033  23.801  1.00  0.00     0.023 C 
ENDROOT
BRANCH   1   2
ATOM      2  C   UNL A   1      31.035  27.877  23.082  1.00  0.00     0.116 C 
BRANCH   2   3
ATOM      3  N   UNL A   1      31.870  27.332  22.032  1.00  0.00    -0.356 N 
ATOM      4  C   UNL A   1      32.914  26.456  22.138  1.00  0.00     0.227 C 
ATOM      5  O   UNL A   1      33.536  26.170  21.112  1.00  0.00    -0.275 OA
ATOM      6  H   UNL A   1      31.658  27.633  21.119  1.00  0.00     0.163 HD
BRANCH   4   7
ATOM      7  C   UNL A   1      33.223  25.782  23.462  1.00  0.00     0.179 C 
BRANCH   7   8
ATOM      8  C   UNL A   1      32.750  24.377  23.507  1.00  0.00     0.154 A 
ATOM      9  C   UNL A   1      32.282  22.215  23.654  1.00  0.00     0.122 A 
ATOM     10  N   UNL A   1      31.186  22.804  23.156  1.00  0.00    -0.079 NA
ATOM     11  C   UNL A   1      33.311  23.174  23.884  1.00  0.00     0.053 A 
ATOM     12  O   UNL A   1      31.473  24.154  23.089  1.00  0.00    -0.360 OA
BRANCH   9  13
ATOM     13  C   UNL A   1      32.347  20.782  23.901  1.00  0.00     0.005 A 
ATOM     14  C   UNL A   1      32.632  18.036  24.395  1.00  0.00     0.118 A 
ATOM     15  C   UNL A   1      32.410  18.501  23.097  1.00  0.00     0.047 A 
ATOM     16  C   UNL A   1      32.727  18.946  25.447  1.00  0.00     0.047 A 
ATOM     17  C   UNL A   1      32.252  19.868  22.848  1.00  0.00     0.014 A 
ATOM     18  C   UNL A   1      32.583  20.314  25.200  1.00  0.00     0.014 A 
BRANCH  14  19
ATOM     19  O   UNL A   1      32.784  16.682  24.519  1.00  0.00    -0.497 OA
ATOM     20  C   UNL A   1      33.726  16.268  25.503  1.00  0.00     0.278 C 
ENDBRANCH  14  19
ENDBRANCH   9  13
BRANCH  11  21
ATOM     21  C   UNL A   1      34.687  22.981  24.297  1.00  0.00    -0.012 A 
ATOM     22  C   UNL A   1      35.007  23.001  25.660  1.00  0.00     0.013 A 
ATOM     23  C   UNL A   1      35.706  22.773  23.363  1.00  0.00     0.013 A 
ATOM     24  C   UNL A   1      36.319  22.782  26.081  1.00  0.00     0.047 A 
ATOM     25  C   UNL A   1      37.024  22.562  23.789  1.00  0.00     0.047 A 
ATOM     26  C   UNL A   1      37.333  22.558  25.150  1.00  0.00     0.118 A 
BRANCH  26  27
ATOM     27  O   UNL A   1      38.567  22.350  25.699  1.00  0.00    -0.497 OA
ATOM     28  C   UNL A   1      39.064  23.357  26.571  1.00  0.00     0.278 C 
ENDBRANCH  26  27
ENDBRANCH  11  21
ENDBRANCH   7   8
ENDBRANCH   4   7
ENDBRANCH   2   3
ENDBRANCH   1   2
BRANCH   1  29
ATOM     29  C   UNL A   1      31.883  28.833  25.310  1.00  0.00     0.023 C 
BRANCH  29  30
ATOM     30  C   UNL A   1      33.094  29.519  25.934  1.00  0.00     0.116 C 
BRANCH  30  31
ATOM     31  N   UNL A   1      32.796  30.838  26.473  1.00  0.00    -0.352 N 
ATOM     32  C   UNL A   1      33.531  31.589  27.360  1.00  0.00     0.251 C 
ATOM     33  H   UNL A   1      31.957  31.247  26.160  1.00  0.00     0.163 HD
ATOM     34  O   UNL A   1      33.092  32.646  27.800  1.00  0.00    -0.269 OA
BRANCH  32  35
ATOM     35  C   UNL A   1      34.841  31.084  27.818  1.00  0.00     0.039 A 
ATOM     36  C   UNL A   1      35.875  31.997  28.037  1.00  0.00     0.014 A 
ATOM     37  C   UNL A   1      35.022  29.725  28.091  1.00  0.00     0.014 A 
ATOM     38  C   UNL A   1      37.062  31.561  28.626  1.00  0.00     0.010 A 
ATOM     39  C   UNL A   1      36.182  29.304  28.734  1.00  0.00     0.010 A 
ATOM     40  C   UNL A   1      37.202  30.223  29.028  1.00  0.00    -0.014 A 
BRANCH  40  41
ATOM     41  C   UNL A   1      38.374  29.777  29.821  1.00  0.00     0.031 A 
ATOM     42  C   UNL A   1      38.636  30.351  31.183  1.00  0.00     0.074 A 
ATOM     43  C   UNL A   1      39.252  28.917  29.269  1.00  0.00     0.049 A 
ATOM     44  N   UNL A   1      39.658  30.158  31.979  1.00  0.00    -0.248 NA
ATOM     45  C   UNL A   1      37.628  31.283  31.711  1.00  0.00     0.031 C 
ATOM     46  C   UNL A   1      39.133  28.330  27.932  1.00  0.00     0.029 A 
ATOM     47  N   UNL A   1      40.430  28.404  29.752  1.00  0.00    -0.354 N 
ATOM     48  C   UNL A   1      39.420  30.947  33.095  1.00  0.00     0.074 A 
ATOM     49  C   UNL A   1      38.183  31.657  32.856  1.00  0.00     0.031 C 
ATOM     50  C   UNL A   1      40.186  27.527  27.709  1.00  0.00     0.029 A 
ATOM     51  C   UNL A   1      41.074  27.574  28.865  1.00  0.00     0.049 A 
ATOM     52  H   UNL A   1      40.781  28.609  30.649  1.00  0.00     0.167 HD
ATOM     53  C   UNL A   1      40.162  31.053  34.223  1.00  0.00     0.037 A 
ATOM     54  C   UNL A   1      42.256  26.937  28.967  1.00  0.00     0.037 A 
ATOM     55  C   UNL A   1      41.383  30.329  34.464  1.00  0.00     0.049 A 
ATOM     56  C   UNL A   1      43.069  27.094  30.221  1.00  0.00     0.074 A 
ATOM     57  C   UNL A   1      42.165  30.315  35.606  1.00  0.00     0.029 A 
ATOM     58  N   UNL A   1      42.002  29.497  33.544  1.00  0.00    -0.354 N 
ATOM     59  N   UNL A   1      42.799  27.787  31.301  1.00  0.00    -0.248 NA
ATOM     60  C   UNL A   1      44.353  26.381  30.271  1.00  0.00     0.031 C 
ATOM     61  C   UNL A   1      43.282  29.509  35.363  1.00  0.00     0.029 A 
ATOM     62  C   UNL A   1      43.175  28.987  34.083  1.00  0.00     0.049 A 
ATOM     63  H   UNL A   1      41.662  29.298  32.643  1.00  0.00     0.167 HD
ATOM     64  C   UNL A   1      43.868  27.583  32.162  1.00  0.00     0.074 A 
ATOM     65  C   UNL A   1      44.782  26.684  31.488  1.00  0.00     0.031 C 
ATOM     66  C   UNL A   1      44.076  28.097  33.398  1.00  0.00     0.037 A 
BRANCH  53  67
ATOM     67  C   UNL A   1      39.669  31.981  35.294  1.00  0.00     0.064 A 
ATOM     68  C   UNL A   1      40.065  33.326  35.335  1.00  0.00     0.173 A 
ATOM     69  C   UNL A   1      38.753  31.534  36.257  1.00  0.00     0.173 A 
ATOM     70  F   UNL A   1      40.947  33.798  34.442  1.00  0.00    -0.203 F 
ATOM     71  C   UNL A   1      39.574  34.186  36.314  1.00  0.00     0.198 A 
ATOM     72  C   UNL A   1      38.245  32.404  37.219  1.00  0.00     0.198 A 
ATOM     73  F   UNL A   1      38.339  30.258  36.258  1.00  0.00    -0.203 F 
ATOM     74  F   UNL A   1      39.994  35.458  36.357  1.00  0.00    -0.200 F 
ATOM     75  C   UNL A   1      38.659  33.727  37.250  1.00  0.00     0.200 A 
ATOM     76  F   UNL A   1      37.352  31.961  38.116  1.00  0.00    -0.200 F 
ATOM     77  F   UNL A   1      38.181  34.559  38.185  1.00  0.00    -0.200 F 
ENDBRANCH  53  67
BRANCH  54  78
ATOM     78  C   UNL A   1      42.740  26.088  27.849  1.00  0.00     0.064 A 
ATOM     79  C   UNL A   1      43.591  26.612  26.866  1.00  0.00     0.173 A 
ATOM     80  C   UNL A   1      42.357  24.744  27.732  1.00  0.00     0.173 A 
ATOM     81  F   UNL A   1      43.965  27.898  26.923  1.00  0.00    -0.203 F 
ATOM     82  C   UNL A   1      44.024  25.829  25.797  1.00  0.00     0.198 A 
ATOM     83  C   UNL A   1      42.813  23.955  26.678  1.00  0.00     0.198 A 
ATOM     84  F   UNL A   1      41.546  24.195  28.648  1.00  0.00    -0.203 F 
ATOM     85  F   UNL A   1      44.800  26.369  24.847  1.00  0.00    -0.200 F 
ATOM     86  C   UNL A   1      43.639  24.500  25.707  1.00  0.00     0.200 A 
ATOM     87  F   UNL A   1      42.448  22.667  26.601  1.00  0.00    -0.200 F 
ATOM     88  F   UNL A   1      44.058  23.748  24.681  1.00  0.00    -0.200 F 
ENDBRANCH  54  78
BRANCH  66  89
ATOM     89  C   UNL A   1      45.334  27.692  34.106  1.00  0.00     0.064 A 
ATOM     90  C   UNL A   1      45.393  26.522  34.877  1.00  0.00     0.173 A 
ATOM     91  C   UNL A   1      46.501  28.459  33.983  1.00  0.00     0.173 A 
ATOM     92  F   UNL A   1      44.297  25.765  35.040  1.00  0.00    -0.203 F 
ATOM     93  C   UNL A   1      46.572  26.145  35.515  1.00  0.00     0.198 A 
ATOM     94  C   UNL A   1      47.684  28.065  34.600  1.00  0.00     0.198 A 
ATOM     95  F   UNL A   1      46.497  29.585  33.252  1.00  0.00    -0.203 F 
ATOM     96  F   UNL A   1      46.595  25.045  36.281  1.00  0.00    -0.200 F 
ATOM     97  C   UNL A   1      47.718  26.913  35.370  1.00  0.00     0.200 A 
ATOM     98  F   UNL A   1      48.795  28.801  34.450  1.00  0.00    -0.200 F 
ATOM     99  F   UNL A   1      48.853  26.545  35.979  1.00  0.00    -0.200 F 
ENDBRANCH  66  89
ENDBRANCH  40  41
ENDBRANCH  32  35
ENDBRANCH  30  31
ENDBRANCH  29  30
ENDBRANCH   1  29
TORSDOF 16
ENDMDL
