MODEL 1
REMARK VINA RESULT:     -13.2      0.000      0.000
REMARK SMILES Cc1ccc(Nc2c(F)cccc2Cl)c(CC(=O)NCCCCNC(=O)c2ccc(-c3c4nc(c(-c5c(F)c(F)c(F)c(F)c5F)c5ccc([nH]5)c(-c5c(F)c(F)c(F)c(F)c5F)c5nc(c(-c6c(F)c(F)c(F)c(F)c6F)c6ccc3[nH]6)C=C5)C=C4)cc2)c1
REMARK SMILES IDX 21 1 20 2 19 3 17 4 18 5 16 7 15 8 1 9 2 10 3 11 90 12 4 13
REMARK SMILES IDX 5 14 6 15 7 17 8 18 13 19 9 20 10 21 12 22 14 23 11 24 22 25
REMARK SMILES IDX 23 26 24 27 25 28 26 30 27 31 28 32 89 33 29 34 88 35 30 36
REMARK SMILES IDX 31 37 32 38 82 39 33 40 87 41 81 42 83 43 34 44 86 45 80 46
REMARK SMILES IDX 79 47 35 49 67 50 47 51 66 52 48 53 51 54 65 55 84 56 49 57
REMARK SMILES IDX 50 58 64 60 85 61 52 62 36 63 37 64 45 65 38 66 39 67 43 68
REMARK SMILES IDX 46 69 40 70 41 71 44 72 42 73 68 74 69 75 77 76 70 77 71 78
REMARK SMILES IDX 75 79 78 80 72 81 73 82 76 83 74 84 53 85 54 86 62 87 55 88
REMARK SMILES IDX 56 89 60 90 63 91 57 92 58 93 61 94 59 95
REMARK H PARENT 19 6 6 16 24 29 83 48 51 59
REMARK Flexibility Score: inf
ROOT
ATOM      1  C   UNL A   1      32.885  28.559  27.096  1.00  0.00     0.023 C 
ENDROOT
BRANCH   1   2
ATOM      2  C   UNL A   1      31.712  27.963  26.298  1.00  0.00     0.116 C 
BRANCH   2   3
ATOM      3  N   UNL A   1      31.334  26.629  26.730  1.00  0.00    -0.356 N 
ATOM      4  C   UNL A   1      31.992  25.444  26.591  1.00  0.00     0.224 C 
ATOM      5  O   UNL A   1      31.416  24.412  26.947  1.00  0.00    -0.275 OA
ATOM      6  H   UNL A   1      30.468  26.572  27.197  1.00  0.00     0.163 HD
BRANCH   4   7
ATOM      7  C   UNL A   1      33.388  25.377  26.001  1.00  0.00     0.137 C 
BRANCH   7   8
ATOM      8  C   UNL A   1      33.430  24.804  24.603  1.00  0.00    -0.015 A 
ATOM      9  C   UNL A   1      32.041  25.883  21.207  1.00  0.00     0.044 C 
ATOM     10  C   UNL A   1      32.743  25.093  22.269  1.00  0.00    -0.051 A 
ATOM     11  C   UNL A   1      33.220  23.815  21.991  1.00  0.00     0.005 A 
ATOM     12  C   UNL A   1      32.887  25.594  23.564  1.00  0.00     0.009 A 
ATOM     13  C   UNL A   1      33.813  23.047  22.998  1.00  0.00     0.026 A 
ATOM     14  C   UNL A   1      33.915  23.506  24.323  1.00  0.00     0.042 A 
BRANCH  14  15
ATOM     15  N   UNL A   1      34.486  22.699  25.330  1.00  0.00    -0.352 N 
ATOM     16  H   UNL A   1      33.894  22.494  26.090  1.00  0.00     0.167 HD
BRANCH  15  17
ATOM     17  C   UNL A   1      35.785  22.141  25.409  1.00  0.00     0.094 A 
ATOM     18  C   UNL A   1      36.916  22.916  25.709  1.00  0.00     0.148 A 
ATOM     19  C   UNL A   1      36.002  20.787  25.089  1.00  0.00     0.067 A 
ATOM     20  F   UNL A   1      36.782  24.208  26.044  1.00  0.00    -0.205 F 
ATOM     21  C   UNL A   1      38.205  22.382  25.687  1.00  0.00     0.041 A 
ATOM     22  C   UNL A   1      37.293  20.245  25.059  1.00  0.00     0.023 A 
ATOM     23  Cl  UNL A   1      34.682  19.748  24.664  1.00  0.00    -0.082 Cl
ATOM     24  C   UNL A   1      38.396  21.045  25.354  1.00  0.00     0.005 A 
ENDBRANCH  15  17
ENDBRANCH  14  15
ENDBRANCH   7   8
ENDBRANCH   4   7
ENDBRANCH   2   3
ENDBRANCH   1   2
BRANCH   1  25
ATOM     25  C   UNL A   1      32.729  30.020  27.519  1.00  0.00     0.023 C 
BRANCH  25  26
ATOM     26  C   UNL A   1      33.874  30.915  27.074  1.00  0.00     0.116 C 
BRANCH  26  27
ATOM     27  N   UNL A   1      34.433  31.759  28.124  1.00  0.00    -0.352 N 
ATOM     28  C   UNL A   1      35.460  31.485  29.016  1.00  0.00     0.251 C 
ATOM     29  H   UNL A   1      34.022  32.649  28.213  1.00  0.00     0.163 HD
ATOM     30  O   UNL A   1      35.754  32.284  29.887  1.00  0.00    -0.269 OA
BRANCH  28  31
ATOM     31  C   UNL A   1      36.295  30.275  28.805  1.00  0.00     0.039 A 
ATOM     32  C   UNL A   1      36.542  29.456  29.913  1.00  0.00     0.014 A 
ATOM     33  C   UNL A   1      37.010  30.090  27.625  1.00  0.00     0.014 A 
ATOM     34  C   UNL A   1      37.686  28.663  29.930  1.00  0.00     0.010 A 
ATOM     35  C   UNL A   1      38.197  29.389  27.677  1.00  0.00     0.010 A 
ATOM     36  C   UNL A   1      38.575  28.751  28.863  1.00  0.00    -0.014 A 
BRANCH  36  37
ATOM     37  C   UNL A   1      39.974  28.351  28.952  1.00  0.00     0.031 A 
ATOM     38  C   UNL A   1      40.382  26.966  28.652  1.00  0.00     0.074 A 
ATOM     39  C   UNL A   1      40.911  29.297  29.197  1.00  0.00     0.049 A 
ATOM     40  N   UNL A   1      41.561  26.504  28.895  1.00  0.00    -0.248 NA
ATOM     41  C   UNL A   1      39.470  25.956  28.120  1.00  0.00     0.031 C 
ATOM     42  C   UNL A   1      42.358  29.198  29.008  1.00  0.00     0.029 A 
ATOM     43  N   UNL A   1      40.742  30.496  29.915  1.00  0.00    -0.354 N 
ATOM     44  C   UNL A   1      41.657  25.277  28.293  1.00  0.00     0.074 A 
ATOM     45  C   UNL A   1      40.304  24.922  27.952  1.00  0.00     0.031 C 
ATOM     46  C   UNL A   1      42.961  30.064  29.837  1.00  0.00     0.029 A 
ATOM     47  C   UNL A   1      41.927  30.629  30.683  1.00  0.00     0.049 A 
ATOM     48  H   UNL A   1      39.970  31.106  29.891  1.00  0.00     0.167 HD
ATOM     49  C   UNL A   1      42.897  24.772  28.048  1.00  0.00     0.037 A 
ATOM     50  C   UNL A   1      41.888  30.532  32.045  1.00  0.00     0.037 A 
ATOM     51  C   UNL A   1      43.914  25.455  28.848  1.00  0.00     0.049 A 
ATOM     52  C   UNL A   1      42.704  29.393  32.629  1.00  0.00     0.074 A 
ATOM     53  C   UNL A   1      44.968  26.317  28.603  1.00  0.00     0.029 A 
ATOM     54  N   UNL A   1      43.760  25.430  30.225  1.00  0.00    -0.354 N 
ATOM     55  N   UNL A   1      43.357  28.511  31.925  1.00  0.00    -0.248 NA
ATOM     56  C   UNL A   1      42.752  29.107  34.064  1.00  0.00     0.031 C 
ATOM     57  C   UNL A   1      45.397  26.855  29.859  1.00  0.00     0.029 A 
ATOM     58  C   UNL A   1      44.630  26.290  30.861  1.00  0.00     0.049 A 
ATOM     59  H   UNL A   1      43.106  24.864  30.695  1.00  0.00     0.167 HD
ATOM     60  C   UNL A   1      43.849  27.540  32.758  1.00  0.00     0.074 A 
ATOM     61  C   UNL A   1      43.443  27.955  34.088  1.00  0.00     0.031 C 
ATOM     62  C   UNL A   1      44.514  26.439  32.304  1.00  0.00     0.037 A 
BRANCH  49  63
ATOM     63  C   UNL A   1      43.210  23.722  27.005  1.00  0.00     0.064 A 
ATOM     64  C   UNL A   1      42.817  22.382  27.206  1.00  0.00     0.173 A 
ATOM     65  C   UNL A   1      44.002  23.938  25.855  1.00  0.00     0.173 A 
ATOM     66  F   UNL A   1      42.085  22.026  28.272  1.00  0.00    -0.203 F 
ATOM     67  C   UNL A   1      43.186  21.353  26.330  1.00  0.00     0.198 A 
ATOM     68  C   UNL A   1      44.317  22.922  24.950  1.00  0.00     0.198 A 
ATOM     69  F   UNL A   1      44.566  25.120  25.587  1.00  0.00    -0.203 F 
ATOM     70  F   UNL A   1      42.835  20.089  26.604  1.00  0.00    -0.200 F 
ATOM     71  C   UNL A   1      43.922  21.626  25.194  1.00  0.00     0.200 A 
ATOM     72  F   UNL A   1      45.040  23.209  23.858  1.00  0.00    -0.200 F 
ATOM     73  F   UNL A   1      44.271  20.643  24.353  1.00  0.00    -0.200 F 
ENDBRANCH  49  63
BRANCH  50  74
ATOM     74  C   UNL A   1      40.620  31.059  32.620  1.00  0.00     0.064 A 
ATOM     75  C   UNL A   1      40.425  32.456  32.647  1.00  0.00     0.173 A 
ATOM     76  C   UNL A   1      39.495  30.247  32.792  1.00  0.00     0.173 A 
ATOM     77  F   UNL A   1      41.470  33.283  32.485  1.00  0.00    -0.203 F 
ATOM     78  C   UNL A   1      39.148  33.008  32.714  1.00  0.00     0.198 A 
ATOM     79  C   UNL A   1      38.219  30.806  32.884  1.00  0.00     0.198 A 
ATOM     80  F   UNL A   1      39.607  28.912  32.751  1.00  0.00    -0.203 F 
ATOM     81  F   UNL A   1      38.987  34.335  32.609  1.00  0.00    -0.200 F 
ATOM     82  C   UNL A   1      38.044  32.179  32.807  1.00  0.00     0.200 A 
ATOM     83  F   UNL A   1      37.147  30.002  32.943  1.00  0.00    -0.200 F 
ATOM     84  F   UNL A   1      36.809  32.700  32.774  1.00  0.00    -0.200 F 
ENDBRANCH  50  74
BRANCH  62  85
ATOM     85  C   UNL A   1      45.071  25.384  33.219  1.00  0.00     0.064 A 
ATOM     86  C   UNL A   1      46.449  25.140  33.329  1.00  0.00     0.173 A 
ATOM     87  C   UNL A   1      44.227  24.514  33.941  1.00  0.00     0.173 A 
ATOM     88  F   UNL A   1      47.333  25.872  32.633  1.00  0.00    -0.203 F 
ATOM     89  C   UNL A   1      46.952  24.129  34.150  1.00  0.00     0.198 A 
ATOM     90  C   UNL A   1      44.730  23.471  34.718  1.00  0.00     0.198 A 
ATOM     91  F   UNL A   1      42.895  24.670  33.940  1.00  0.00    -0.203 F 
ATOM     92  F   UNL A   1      48.277  23.970  34.273  1.00  0.00    -0.200 F 
ATOM     93  C   UNL A   1      46.093  23.287  34.834  1.00  0.00     0.200 A 
ATOM     94  F   UNL A   1      43.883  22.653  35.360  1.00  0.00    -0.200 F 
ATOM     95  F   UNL A   1      46.577  22.306  35.607  1.00  0.00    -0.200 F 
ENDBRANCH  62  85
ENDBRANCH  36  37
ENDBRANCH  28  31
ENDBRANCH  26  27
ENDBRANCH  25  26
ENDBRANCH   1  25
TORSDOF 14
ENDMDL
MODEL 2
REMARK VINA RESULT:     -13.1      1.876      3.274
REMARK SMILES Cc1ccc(Nc2c(F)cccc2Cl)c(CC(=O)NCCCCNC(=O)c2ccc(-c3c4nc(c(-c5c(F)c(F)c(F)c(F)c5F)c5ccc([nH]5)c(-c5c(F)c(F)c(F)c(F)c5F)c5nc(c(-c6c(F)c(F)c(F)c(F)c6F)c6ccc3[nH]6)C=C5)C=C4)cc2)c1
REMARK SMILES IDX 21 1 20 2 19 3 17 4 18 5 16 7 15 8 1 9 2 10 3 11 90 12 4 13
REMARK SMILES IDX 5 14 6 15 7 17 8 18 13 19 9 20 10 21 12 22 14 23 11 24 22 25
REMARK SMILES IDX 23 26 24 27 25 28 26 30 27 31 28 32 89 33 29 34 88 35 30 36
REMARK SMILES IDX 31 37 32 38 82 39 33 40 87 41 81 42 83 43 34 44 86 45 80 46
REMARK SMILES IDX 79 47 35 49 67 50 47 51 66 52 48 53 51 54 65 55 84 56 49 57
REMARK SMILES IDX 50 58 64 60 85 61 52 62 36 63 37 64 45 65 38 66 39 67 43 68
REMARK SMILES IDX 46 69 40 70 41 71 44 72 42 73 68 74 69 75 77 76 70 77 71 78
REMARK SMILES IDX 75 79 78 80 72 81 73 82 76 83 74 84 53 85 54 86 62 87 55 88
REMARK SMILES IDX 56 89 60 90 63 91 57 92 58 93 61 94 59 95
REMARK H PARENT 19 6 6 16 24 29 83 48 51 59
REMARK Flexibility Score: inf
ROOT
ATOM      1  C   UNL A   1      31.780  29.407  27.186  1.00  0.00     0.023 C 
ENDROOT
BRANCH   1   2
ATOM      2  C   UNL A   1      32.443  28.022  27.114  1.00  0.00     0.116 C 
BRANCH   2   3
ATOM      3  N   UNL A   1      31.492  26.926  27.054  1.00  0.00    -0.356 N 
ATOM      4  C   UNL A   1      31.645  25.659  26.575  1.00  0.00     0.224 C 
ATOM      5  O   UNL A   1      30.651  24.929  26.529  1.00  0.00    -0.275 OA
ATOM      6  H   UNL A   1      30.598  27.129  27.415  1.00  0.00     0.163 HD
BRANCH   4   7
ATOM      7  C   UNL A   1      32.991  25.151  26.092  1.00  0.00     0.137 C 
BRANCH   7   8
ATOM      8  C   UNL A   1      32.903  24.265  24.871  1.00  0.00    -0.015 A 
ATOM      9  C   UNL A   1      33.179  20.502  24.248  1.00  0.00     0.044 C 
ATOM     10  C   UNL A   1      33.007  21.971  24.015  1.00  0.00    -0.051 A 
ATOM     11  C   UNL A   1      32.972  22.475  22.717  1.00  0.00     0.005 A 
ATOM     12  C   UNL A   1      32.932  22.868  25.083  1.00  0.00     0.009 A 
ATOM     13  C   UNL A   1      32.882  23.853  22.496  1.00  0.00     0.026 A 
ATOM     14  C   UNL A   1      32.866  24.778  23.554  1.00  0.00     0.042 A 
BRANCH  14  15
ATOM     15  N   UNL A   1      32.811  26.167  23.304  1.00  0.00    -0.352 N 
ATOM     16  H   UNL A   1      33.662  26.578  23.031  1.00  0.00     0.167 HD
BRANCH  15  17
ATOM     17  C   UNL A   1      31.711  27.054  23.390  1.00  0.00     0.094 A 
ATOM     18  C   UNL A   1      30.382  26.605  23.335  1.00  0.00     0.148 A 
ATOM     19  C   UNL A   1      31.916  28.446  23.437  1.00  0.00     0.067 A 
ATOM     20  F   UNL A   1      30.110  25.291  23.310  1.00  0.00    -0.205 F 
ATOM     21  C   UNL A   1      29.303  27.491  23.319  1.00  0.00     0.041 A 
ATOM     22  C   UNL A   1      30.840  29.341  23.416  1.00  0.00     0.023 A 
ATOM     23  Cl  UNL A   1      33.516  29.110  23.468  1.00  0.00    -0.082 Cl
ATOM     24  C   UNL A   1      29.532  28.863  23.351  1.00  0.00     0.005 A 
ENDBRANCH  15  17
ENDBRANCH  14  15
ENDBRANCH   7   8
ENDBRANCH   4   7
ENDBRANCH   2   3
ENDBRANCH   1   2
BRANCH   1  25
ATOM     25  C   UNL A   1      32.728  30.605  27.097  1.00  0.00     0.023 C 
BRANCH  25  26
ATOM     26  C   UNL A   1      34.173  30.272  27.432  1.00  0.00     0.116 C 
BRANCH  26  27
ATOM     27  N   UNL A   1      34.824  31.216  28.333  1.00  0.00    -0.352 N 
ATOM     28  C   UNL A   1      35.960  31.044  29.111  1.00  0.00     0.251 C 
ATOM     29  H   UNL A   1      34.396  32.100  28.398  1.00  0.00     0.163 HD
ATOM     30  O   UNL A   1      36.328  31.922  29.871  1.00  0.00    -0.269 OA
BRANCH  28  31
ATOM     31  C   UNL A   1      36.805  29.842  28.898  1.00  0.00     0.039 A 
ATOM     32  C   UNL A   1      37.021  28.999  29.995  1.00  0.00     0.014 A 
ATOM     33  C   UNL A   1      37.557  29.686  27.736  1.00  0.00     0.014 A 
ATOM     34  C   UNL A   1      38.167  28.209  30.028  1.00  0.00     0.010 A 
ATOM     35  C   UNL A   1      38.744  28.988  27.809  1.00  0.00     0.010 A 
ATOM     36  C   UNL A   1      39.088  28.324  28.991  1.00  0.00    -0.014 A 
BRANCH  36  37
ATOM     37  C   UNL A   1      40.485  27.926  29.113  1.00  0.00     0.031 A 
ATOM     38  C   UNL A   1      40.930  26.593  28.666  1.00  0.00     0.074 A 
ATOM     39  C   UNL A   1      41.391  28.840  29.533  1.00  0.00     0.049 A 
ATOM     40  N   UNL A   1      42.100  26.113  28.920  1.00  0.00    -0.248 NA
ATOM     41  C   UNL A   1      40.067  25.653  27.956  1.00  0.00     0.031 C 
ATOM     42  C   UNL A   1      42.848  28.776  29.421  1.00  0.00     0.029 A 
ATOM     43  N   UNL A   1      41.162  29.937  30.385  1.00  0.00    -0.354 N 
ATOM     44  C   UNL A   1      42.250  24.973  28.175  1.00  0.00     0.074 A 
ATOM     45  C   UNL A   1      40.925  24.655  27.710  1.00  0.00     0.031 C 
ATOM     46  C   UNL A   1      43.388  29.535  30.387  1.00  0.00     0.029 A 
ATOM     47  C   UNL A   1      42.297  29.980  31.234  1.00  0.00     0.049 A 
ATOM     48  H   UNL A   1      40.384  30.540  30.391  1.00  0.00     0.167 HD
ATOM     49  C   UNL A   1      43.509  24.512  27.943  1.00  0.00     0.037 A 
ATOM     50  C   UNL A   1      42.179  29.711  32.567  1.00  0.00     0.037 A 
ATOM     51  C   UNL A   1      44.467  25.095  28.884  1.00  0.00     0.049 A 
ATOM     52  C   UNL A   1      42.976  28.513  33.052  1.00  0.00     0.074 A 
ATOM     53  C   UNL A   1      45.520  25.990  28.814  1.00  0.00     0.029 A 
ATOM     54  N   UNL A   1      44.232  24.894  30.235  1.00  0.00    -0.354 N 
ATOM     55  N   UNL A   1      43.683  27.732  32.283  1.00  0.00    -0.248 NA
ATOM     56  C   UNL A   1      42.943  28.047  34.440  1.00  0.00     0.031 C 
ATOM     57  C   UNL A   1      45.867  26.366  30.152  1.00  0.00     0.029 A 
ATOM     58  C   UNL A   1      45.049  25.673  31.026  1.00  0.00     0.049 A 
ATOM     59  H   UNL A   1      43.560  24.269  30.589  1.00  0.00     0.167 HD
ATOM     60  C   UNL A   1      44.139  26.667  33.015  1.00  0.00     0.074 A 
ATOM     61  C   UNL A   1      43.648  26.906  34.360  1.00  0.00     0.031 C 
ATOM     62  C   UNL A   1      44.846  25.637  32.466  1.00  0.00     0.037 A 
BRANCH  49  63
ATOM     63  C   UNL A   1      43.900  23.606  26.798  1.00  0.00     0.064 A 
ATOM     64  C   UNL A   1      43.457  22.266  26.768  1.00  0.00     0.173 A 
ATOM     65  C   UNL A   1      44.807  23.949  25.770  1.00  0.00     0.173 A 
ATOM     66  F   UNL A   1      42.615  21.794  27.699  1.00  0.00    -0.203 F 
ATOM     67  C   UNL A   1      43.886  21.356  25.795  1.00  0.00     0.198 A 
ATOM     68  C   UNL A   1      45.186  23.057  24.764  1.00  0.00     0.198 A 
ATOM     69  F   UNL A   1      45.423  25.135  25.726  1.00  0.00    -0.203 F 
ATOM     70  F   UNL A   1      43.481  20.080  25.853  1.00  0.00    -0.200 F 
ATOM     71  C   UNL A   1      44.738  21.755  24.784  1.00  0.00     0.200 A 
ATOM     72  F   UNL A   1      46.020  23.465  23.798  1.00  0.00    -0.200 F 
ATOM     73  F   UNL A   1      45.146  20.886  23.849  1.00  0.00    -0.200 F 
ENDBRANCH  49  63
BRANCH  50  74
ATOM     74  C   UNL A   1      40.872  30.151  33.127  1.00  0.00     0.064 A 
ATOM     75  C   UNL A   1      40.631  31.534  33.263  1.00  0.00     0.173 A 
ATOM     76  C   UNL A   1      39.766  29.296  33.178  1.00  0.00     0.173 A 
ATOM     77  F   UNL A   1      41.657  32.400  33.220  1.00  0.00    -0.203 F 
ATOM     78  C   UNL A   1      39.337  32.043  33.318  1.00  0.00     0.198 A 
ATOM     79  C   UNL A   1      38.471  29.809  33.258  1.00  0.00     0.198 A 
ATOM     80  F   UNL A   1      39.922  27.973  33.029  1.00  0.00    -0.203 F 
ATOM     81  F   UNL A   1      39.139  33.369  33.319  1.00  0.00    -0.200 F 
ATOM     82  C   UNL A   1      38.256  31.179  33.289  1.00  0.00     0.200 A 
ATOM     83  F   UNL A   1      37.423  28.974  33.199  1.00  0.00    -0.200 F 
ATOM     84  F   UNL A   1      37.008  31.666  33.245  1.00  0.00    -0.200 F 
ENDBRANCH  50  74
BRANCH  62  85
ATOM     85  C   UNL A   1      45.363  24.479  33.273  1.00  0.00     0.064 A 
ATOM     86  C   UNL A   1      44.581  23.343  33.537  1.00  0.00     0.173 A 
ATOM     87  C   UNL A   1      46.630  24.517  33.893  1.00  0.00     0.173 A 
ATOM     88  F   UNL A   1      43.336  23.238  33.046  1.00  0.00    -0.203 F 
ATOM     89  C   UNL A   1      45.056  22.292  34.324  1.00  0.00     0.198 A 
ATOM     90  C   UNL A   1      47.081  23.491  34.721  1.00  0.00     0.198 A 
ATOM     91  F   UNL A   1      47.478  25.536  33.687  1.00  0.00    -0.203 F 
ATOM     92  F   UNL A   1      44.300  21.199  34.501  1.00  0.00    -0.200 F 
ATOM     93  C   UNL A   1      46.300  22.371  34.925  1.00  0.00     0.200 A 
ATOM     94  F   UNL A   1      48.280  23.591  35.311  1.00  0.00    -0.200 F 
ATOM     95  F   UNL A   1      46.746  21.369  35.695  1.00  0.00    -0.200 F 
ENDBRANCH  62  85
ENDBRANCH  36  37
ENDBRANCH  28  31
ENDBRANCH  26  27
ENDBRANCH  25  26
ENDBRANCH   1  25
TORSDOF 14
ENDMDL
MODEL 3
REMARK VINA RESULT:     -13.1      1.024      1.574
REMARK SMILES Cc1ccc(Nc2c(F)cccc2Cl)c(CC(=O)NCCCCNC(=O)c2ccc(-c3c4nc(c(-c5c(F)c(F)c(F)c(F)c5F)c5ccc([nH]5)c(-c5c(F)c(F)c(F)c(F)c5F)c5nc(c(-c6c(F)c(F)c(F)c(F)c6F)c6ccc3[nH]6)C=C5)C=C4)cc2)c1
REMARK SMILES IDX 21 1 20 2 19 3 17 4 18 5 16 7 15 8 1 9 2 10 3 11 90 12 4 13
REMARK SMILES IDX 5 14 6 15 7 17 8 18 13 19 9 20 10 21 12 22 14 23 11 24 22 25
REMARK SMILES IDX 23 26 24 27 25 28 26 30 27 31 28 32 89 33 29 34 88 35 30 36
REMARK SMILES IDX 31 37 32 38 82 39 33 40 87 41 81 42 83 43 34 44 86 45 80 46
REMARK SMILES IDX 79 47 35 49 67 50 47 51 66 52 48 53 51 54 65 55 84 56 49 57
REMARK SMILES IDX 50 58 64 60 85 61 52 62 36 63 37 64 45 65 38 66 39 67 43 68
REMARK SMILES IDX 46 69 40 70 41 71 44 72 42 73 68 74 69 75 77 76 70 77 71 78
REMARK SMILES IDX 75 79 78 80 72 81 73 82 76 83 74 84 53 85 54 86 62 87 55 88
REMARK SMILES IDX 56 89 60 90 63 91 57 92 58 93 61 94 59 95
REMARK H PARENT 19 6 6 16 24 29 83 48 51 59
REMARK Flexibility Score: inf
ROOT
ATOM      1  C   UNL A   1      31.850  29.186  26.634  1.00  0.00     0.023 C 
ENDROOT
BRANCH   1   2
ATOM      2  C   UNL A   1      32.471  27.829  27.006  1.00  0.00     0.116 C 
BRANCH   2   3
ATOM      3  N   UNL A   1      31.523  26.728  26.973  1.00  0.00    -0.356 N 
ATOM      4  C   UNL A   1      31.697  25.434  26.584  1.00  0.00     0.224 C 
ATOM      5  O   UNL A   1      30.706  24.700  26.540  1.00  0.00    -0.275 OA
ATOM      6  H   UNL A   1      30.614  26.952  27.280  1.00  0.00     0.163 HD
BRANCH   4   7
ATOM      7  C   UNL A   1      33.063  24.900  26.195  1.00  0.00     0.137 C 
BRANCH   7   8
ATOM      8  C   UNL A   1      33.172  24.514  24.738  1.00  0.00    -0.015 A 
ATOM      9  C   UNL A   1      31.802  25.939  21.465  1.00  0.00     0.044 C 
ATOM     10  C   UNL A   1      32.525  25.061  22.439  1.00  0.00    -0.051 A 
ATOM     11  C   UNL A   1      33.085  23.858  22.017  1.00  0.00     0.005 A 
ATOM     12  C   UNL A   1      32.608  25.399  23.791  1.00  0.00     0.009 A 
ATOM     13  C   UNL A   1      33.699  23.002  22.936  1.00  0.00     0.026 A 
ATOM     14  C   UNL A   1      33.741  23.293  24.311  1.00  0.00     0.042 A 
BRANCH  14  15
ATOM     15  N   UNL A   1      34.336  22.396  25.225  1.00  0.00    -0.352 N 
ATOM     16  H   UNL A   1      33.875  22.313  26.091  1.00  0.00     0.167 HD
BRANCH  15  17
ATOM     17  C   UNL A   1      35.498  21.600  25.080  1.00  0.00     0.094 A 
ATOM     18  C   UNL A   1      35.433  20.217  24.849  1.00  0.00     0.148 A 
ATOM     19  C   UNL A   1      36.777  22.161  25.261  1.00  0.00     0.067 A 
ATOM     20  F   UNL A   1      34.249  19.619  24.646  1.00  0.00    -0.205 F 
ATOM     21  C   UNL A   1      36.579  19.421  24.806  1.00  0.00     0.041 A 
ATOM     22  C   UNL A   1      37.930  21.368  25.225  1.00  0.00     0.023 A 
ATOM     23  Cl  UNL A   1      36.970  23.851  25.591  1.00  0.00    -0.082 Cl
ATOM     24  C   UNL A   1      37.831  19.996  25.003  1.00  0.00     0.005 A 
ENDBRANCH  15  17
ENDBRANCH  14  15
ENDBRANCH   7   8
ENDBRANCH   4   7
ENDBRANCH   2   3
ENDBRANCH   1   2
BRANCH   1  25
ATOM     25  C   UNL A   1      32.483  30.411  27.296  1.00  0.00     0.023 C 
BRANCH  25  26
ATOM     26  C   UNL A   1      34.002  30.379  27.326  1.00  0.00     0.116 C 
BRANCH  26  27
ATOM     27  N   UNL A   1      34.614  31.311  28.266  1.00  0.00    -0.352 N 
ATOM     28  C   UNL A   1      35.699  31.119  29.110  1.00  0.00     0.251 C 
ATOM     29  H   UNL A   1      34.199  32.202  28.308  1.00  0.00     0.163 HD
ATOM     30  O   UNL A   1      36.036  31.989  29.893  1.00  0.00    -0.269 OA
BRANCH  28  31
ATOM     31  C   UNL A   1      36.535  29.902  28.946  1.00  0.00     0.039 A 
ATOM     32  C   UNL A   1      36.806  29.143  30.090  1.00  0.00     0.014 A 
ATOM     33  C   UNL A   1      37.228  29.658  27.764  1.00  0.00     0.014 A 
ATOM     34  C   UNL A   1      37.953  28.355  30.126  1.00  0.00     0.010 A 
ATOM     35  C   UNL A   1      38.419  28.965  27.829  1.00  0.00     0.010 A 
ATOM     36  C   UNL A   1      38.822  28.391  29.039  1.00  0.00    -0.014 A 
BRANCH  36  37
ATOM     37  C   UNL A   1      40.223  28.000  29.121  1.00  0.00     0.031 A 
ATOM     38  C   UNL A   1      40.658  26.658  28.693  1.00  0.00     0.074 A 
ATOM     39  C   UNL A   1      41.141  28.927  29.484  1.00  0.00     0.049 A 
ATOM     40  N   UNL A   1      41.838  26.187  28.917  1.00  0.00    -0.248 NA
ATOM     41  C   UNL A   1      39.773  25.696  28.039  1.00  0.00     0.031 C 
ATOM     42  C   UNL A   1      42.593  28.865  29.321  1.00  0.00     0.029 A 
ATOM     43  N   UNL A   1      40.938  30.045  30.315  1.00  0.00    -0.354 N 
ATOM     44  C   UNL A   1      41.965  25.029  28.197  1.00  0.00     0.074 A 
ATOM     45  C   UNL A   1      40.626  24.695  27.788  1.00  0.00     0.031 C 
ATOM     46  C   UNL A   1      43.164  29.650  30.248  1.00  0.00     0.029 A 
ATOM     47  C   UNL A   1      42.103  30.113  31.122  1.00  0.00     0.049 A 
ATOM     48  H   UNL A   1      40.159  30.646  30.334  1.00  0.00     0.167 HD
ATOM     49  C   UNL A   1      43.218  24.566  27.932  1.00  0.00     0.037 A 
ATOM     50  C   UNL A   1      42.033  29.879  32.465  1.00  0.00     0.037 A 
ATOM     51  C   UNL A   1      44.206  25.176  28.822  1.00  0.00     0.049 A 
ATOM     52  C   UNL A   1      42.852  28.696  32.951  1.00  0.00     0.074 A 
ATOM     53  C   UNL A   1      45.253  26.071  28.692  1.00  0.00     0.029 A 
ATOM     54  N   UNL A   1      44.020  25.009  30.185  1.00  0.00    -0.354 N 
ATOM     55  N   UNL A   1      43.534  27.897  32.178  1.00  0.00    -0.248 NA
ATOM     56  C   UNL A   1      42.870  28.266  34.351  1.00  0.00     0.031 C 
ATOM     57  C   UNL A   1      45.645  26.484  30.006  1.00  0.00     0.029 A 
ATOM     58  C   UNL A   1      44.862  25.811  30.927  1.00  0.00     0.049 A 
ATOM     59  H   UNL A   1      43.364  24.391  30.579  1.00  0.00     0.167 HD
ATOM     60  C   UNL A   1      44.020  26.853  32.920  1.00  0.00     0.074 A 
ATOM     61  C   UNL A   1      43.577  27.125  34.275  1.00  0.00     0.031 C 
ATOM     62  C   UNL A   1      44.711  25.812  32.373  1.00  0.00     0.037 A 
BRANCH  49  63
ATOM     63  C   UNL A   1      43.570  23.632  26.797  1.00  0.00     0.064 A 
ATOM     64  C   UNL A   1      43.225  22.265  26.868  1.00  0.00     0.173 A 
ATOM     65  C   UNL A   1      44.356  23.983  25.676  1.00  0.00     0.173 A 
ATOM     66  F   UNL A   1      42.504  21.784  27.891  1.00  0.00    -0.203 F 
ATOM     67  C   UNL A   1      43.631  21.337  25.900  1.00  0.00     0.198 A 
ATOM     68  C   UNL A   1      44.709  23.069  24.681  1.00  0.00     0.198 A 
ATOM     69  F   UNL A   1      44.878  25.205  25.524  1.00  0.00    -0.203 F 
ATOM     70  F   UNL A   1      43.326  20.042  26.052  1.00  0.00    -0.200 F 
ATOM     71  C   UNL A   1      44.360  21.742  24.800  1.00  0.00     0.200 A 
ATOM     72  F   UNL A   1      45.423  23.483  23.625  1.00  0.00    -0.200 F 
ATOM     73  F   UNL A   1      44.745  20.856  23.871  1.00  0.00    -0.200 F 
ENDBRANCH  49  63
BRANCH  50  74
ATOM     74  C   UNL A   1      40.746  30.330  33.060  1.00  0.00     0.064 A 
ATOM     75  C   UNL A   1      40.501  31.715  33.161  1.00  0.00     0.173 A 
ATOM     76  C   UNL A   1      39.648  29.471  33.180  1.00  0.00     0.173 A 
ATOM     77  F   UNL A   1      41.518  32.585  33.052  1.00  0.00    -0.203 F 
ATOM     78  C   UNL A   1      39.206  32.218  33.249  1.00  0.00     0.198 A 
ATOM     79  C   UNL A   1      38.353  29.979  33.293  1.00  0.00     0.198 A 
ATOM     80  F   UNL A   1      39.807  28.144  33.067  1.00  0.00    -0.203 F 
ATOM     81  F   UNL A   1      39.000  33.542  33.215  1.00  0.00    -0.200 F 
ATOM     82  C   UNL A   1      38.131  31.348  33.289  1.00  0.00     0.200 A 
ATOM     83  F   UNL A   1      37.310  29.137  33.300  1.00  0.00    -0.200 F 
ATOM     84  F   UNL A   1      36.879  31.827  33.276  1.00  0.00    -0.200 F 
ENDBRANCH  50  74
BRANCH  62  85
ATOM     85  C   UNL A   1      45.261  24.676  33.191  1.00  0.00     0.064 A 
ATOM     86  C   UNL A   1      44.491  23.549  33.519  1.00  0.00     0.173 A 
ATOM     87  C   UNL A   1      46.552  24.731  33.757  1.00  0.00     0.173 A 
ATOM     88  F   UNL A   1      43.227  23.430  33.082  1.00  0.00    -0.203 F 
ATOM     89  C   UNL A   1      44.998  22.520  34.315  1.00  0.00     0.198 A 
ATOM     90  C   UNL A   1      47.036  23.728  34.595  1.00  0.00     0.198 A 
ATOM     91  F   UNL A   1      47.391  25.743  33.489  1.00  0.00    -0.203 F 
ATOM     92  F   UNL A   1      44.250  21.433  34.553  1.00  0.00    -0.200 F 
ATOM     93  C   UNL A   1      46.265  22.615  34.862  1.00  0.00     0.200 A 
ATOM     94  F   UNL A   1      48.259  23.844  35.132  1.00  0.00    -0.200 F 
ATOM     95  F   UNL A   1      46.743  21.635  35.641  1.00  0.00    -0.200 F 
ENDBRANCH  62  85
ENDBRANCH  36  37
ENDBRANCH  28  31
ENDBRANCH  26  27
ENDBRANCH  25  26
ENDBRANCH   1  25
TORSDOF 14
ENDMDL
