MODEL 1
REMARK VINA RESULT:     -12.9      0.000      0.000
REMARK SMILES NS(=O)(=O)c1ccc(N2N=C(C(=O)NCCCCNC(=O)c3ccc(-c4c5nc(c(-c6c(F)c(F)c(F)c(F)c6F)c6ccc([nH]6)c(-c6c(F)c(F)c(F)c(F)c6F)c6nc(c(-c7c(F)c(F)c(F)c(F)c7F)c7ccc4[nH]7)C=C6)C=C5)cc3)C[C@H]2c2cccs2)cc1
REMARK SMILES IDX 16 1 15 2 14 3 12 4 13 5 11 7 9 8 10 9 86 10 85 11 8 12 5 13
REMARK SMILES IDX 6 14 93 15 7 16 92 17 2 18 3 19 4 20 1 21 87 24 88 25 91 26
REMARK SMILES IDX 89 27 90 28 17 29 18 30 19 31 20 32 21 34 22 35 23 36 84 37
REMARK SMILES IDX 24 38 83 39 25 40 26 41 27 42 77 43 28 44 82 45 76 46 78 47
REMARK SMILES IDX 29 48 81 49 75 50 74 51 30 53 62 54 42 55 61 56 43 57 46 58
REMARK SMILES IDX 60 59 79 60 44 61 45 62 59 64 80 65 47 66 31 67 32 68 40 69
REMARK SMILES IDX 33 70 34 71 38 72 41 73 35 74 36 75 39 76 37 77 63 78 64 79
REMARK SMILES IDX 72 80 65 81 66 82 70 83 73 84 67 85 68 86 71 87 69 88 48 89
REMARK SMILES IDX 49 90 57 91 50 92 51 93 55 94 58 95 52 96 53 97 56 98 54 99
REMARK H PARENT 14 6 1 22 1 23 19 33 78 52 46 63
REMARK Flexibility Score: inf
ROOT
ATOM      1  C   UNL A   1      32.420  27.199  26.371  1.00  0.00     0.023 C 
ENDROOT
BRANCH   1   2
ATOM      2  C   UNL A   1      31.353  26.150  26.654  1.00  0.00     0.116 C 
BRANCH   2   3
ATOM      3  N   UNL A   1      30.543  25.889  25.482  1.00  0.00    -0.351 N 
ATOM      4  C   UNL A   1      30.717  25.149  24.341  1.00  0.00     0.267 C 
ATOM      5  O   UNL A   1      29.839  25.228  23.483  1.00  0.00    -0.268 OA
ATOM      6  H   UNL A   1      29.671  26.346  25.512  1.00  0.00     0.163 HD
BRANCH   4   7
ATOM      7  C   UNL A   1      31.890  24.212  24.098  1.00  0.00     0.128 C 
ATOM      8  N   UNL A   1      33.033  22.418  24.204  1.00  0.00    -0.256 N 
ATOM      9  N   UNL A   1      31.798  22.948  24.384  1.00  0.00    -0.171 NA
ATOM     10  C   UNL A   1      34.011  23.346  23.642  1.00  0.00     0.154 C 
ATOM     11  C   UNL A   1      33.201  24.641  23.526  1.00  0.00     0.097 C 
BRANCH   8  12
ATOM     12  C   UNL A   1      33.220  21.044  24.194  1.00  0.00     0.060 A 
ATOM     13  C   UNL A   1      33.671  18.274  24.170  1.00  0.00     0.082 A 
ATOM     14  C   UNL A   1      32.601  18.810  23.447  1.00  0.00     0.024 A 
ATOM     15  C   UNL A   1      34.506  19.103  24.914  1.00  0.00     0.024 A 
ATOM     16  C   UNL A   1      32.373  20.191  23.474  1.00  0.00     0.029 A 
ATOM     17  C   UNL A   1      34.276  20.478  24.919  1.00  0.00     0.029 A 
BRANCH  13  18
ATOM     18  S   UNL A   1      33.933  16.530  24.115  1.00  0.00     0.238 S 
ATOM     19  O   UNL A   1      34.954  16.194  25.080  1.00  0.00    -0.207 OA
ATOM     20  O   UNL A   1      33.990  16.114  22.734  1.00  0.00    -0.207 OA
BRANCH  18  21
ATOM     21  N   UNL A   1      32.512  15.866  24.727  1.00  0.00    -0.225 NA
ATOM     22  H   UNL A   1      32.727  15.301  25.549  1.00  0.00     0.137 HD
ATOM     23  H   UNL A   1      32.078  15.278  24.015  1.00  0.00     0.137 HD
ENDBRANCH  18  21
ENDBRANCH  13  18
ENDBRANCH   8  12
BRANCH  10  24
ATOM     24  C   UNL A   1      35.321  23.499  24.396  1.00  0.00     0.030 A 
ATOM     25  C   UNL A   1      35.499  24.103  25.631  1.00  0.00     0.017 A 
ATOM     26  S   UNL A   1      36.831  22.982  23.756  1.00  0.00    -0.147 S 
ATOM     27  C   UNL A   1      36.857  24.095  26.061  1.00  0.00     0.012 A 
ATOM     28  C   UNL A   1      37.680  23.471  25.153  1.00  0.00     0.065 A 
ENDBRANCH  10  24
ENDBRANCH   4   7
ENDBRANCH   2   3
ENDBRANCH   1   2
BRANCH   1  29
ATOM     29  C   UNL A   1      31.894  28.469  25.711  1.00  0.00     0.023 C 
BRANCH  29  30
ATOM     30  C   UNL A   1      32.902  29.609  25.613  1.00  0.00     0.116 C 
BRANCH  30  31
ATOM     31  N   UNL A   1      32.409  30.867  26.161  1.00  0.00    -0.352 N 
ATOM     32  C   UNL A   1      32.999  31.678  27.100  1.00  0.00     0.251 C 
ATOM     33  H   UNL A   1      31.542  31.176  25.811  1.00  0.00     0.163 HD
ATOM     34  O   UNL A   1      32.415  32.661  27.541  1.00  0.00    -0.269 OA
BRANCH  32  35
ATOM     35  C   UNL A   1      34.338  31.317  27.602  1.00  0.00     0.039 A 
ATOM     36  C   UNL A   1      35.299  32.319  27.753  1.00  0.00     0.014 A 
ATOM     37  C   UNL A   1      34.602  30.006  28.005  1.00  0.00     0.014 A 
ATOM     38  C   UNL A   1      36.503  32.021  28.390  1.00  0.00     0.010 A 
ATOM     39  C   UNL A   1      35.769  29.731  28.707  1.00  0.00     0.010 A 
ATOM     40  C   UNL A   1      36.727  30.736  28.914  1.00  0.00    -0.014 A 
BRANCH  40  41
ATOM     41  C   UNL A   1      37.951  30.412  29.688  1.00  0.00     0.031 A 
ATOM     42  C   UNL A   1      38.949  29.440  29.124  1.00  0.00     0.074 A 
ATOM     43  C   UNL A   1      38.109  30.906  30.932  1.00  0.00     0.049 A 
ATOM     44  N   UNL A   1      40.000  28.909  29.694  1.00  0.00    -0.248 NA
ATOM     45  C   UNL A   1      38.714  28.975  27.747  1.00  0.00     0.031 C 
ATOM     46  C   UNL A   1      37.184  31.817  31.609  1.00  0.00     0.029 A 
ATOM     47  N   UNL A   1      39.096  30.687  31.863  1.00  0.00    -0.354 N 
ATOM     48  C   UNL A   1      40.528  28.026  28.762  1.00  0.00     0.074 A 
ATOM     49  C   UNL A   1      39.665  28.063  27.603  1.00  0.00     0.031 C 
ATOM     50  C   UNL A   1      37.648  32.083  32.841  1.00  0.00     0.029 A 
ATOM     51  C   UNL A   1      38.879  31.329  33.059  1.00  0.00     0.049 A 
ATOM     52  H   UNL A   1      39.884  30.124  31.690  1.00  0.00     0.167 HD
ATOM     53  C   UNL A   1      41.643  27.266  28.861  1.00  0.00     0.037 A 
ATOM     54  C   UNL A   1      39.583  31.296  34.207  1.00  0.00     0.037 A 
ATOM     55  C   UNL A   1      42.529  27.276  29.993  1.00  0.00     0.049 A 
ATOM     56  C   UNL A   1      40.832  30.456  34.277  1.00  0.00     0.074 A 
ATOM     57  C   UNL A   1      43.736  26.618  30.146  1.00  0.00     0.029 A 
ATOM     58  N   UNL A   1      42.304  27.982  31.165  1.00  0.00    -0.354 N 
ATOM     59  N   UNL A   1      41.369  29.695  33.355  1.00  0.00    -0.248 NA
ATOM     60  C   UNL A   1      41.577  30.475  35.544  1.00  0.00     0.031 C 
ATOM     61  C   UNL A   1      44.220  26.886  31.429  1.00  0.00     0.029 A 
ATOM     62  C   UNL A   1      43.339  27.754  32.056  1.00  0.00     0.049 A 
ATOM     63  H   UNL A   1      41.524  28.558  31.338  1.00  0.00     0.167 HD
ATOM     64  C   UNL A   1      42.529  29.176  33.917  1.00  0.00     0.074 A 
ATOM     65  C   UNL A   1      42.624  29.716  35.255  1.00  0.00     0.031 C 
ATOM     66  C   UNL A   1      43.433  28.325  33.374  1.00  0.00     0.037 A 
BRANCH  53  67
ATOM     67  C   UNL A   1      41.983  26.360  27.715  1.00  0.00     0.064 A 
ATOM     68  C   UNL A   1      42.977  26.692  26.784  1.00  0.00     0.173 A 
ATOM     69  C   UNL A   1      41.362  25.108  27.598  1.00  0.00     0.173 A 
ATOM     70  F   UNL A   1      43.592  27.883  26.848  1.00  0.00    -0.203 F 
ATOM     71  C   UNL A   1      43.329  25.808  25.768  1.00  0.00     0.198 A 
ATOM     72  C   UNL A   1      41.735  24.215  26.597  1.00  0.00     0.198 A 
ATOM     73  F   UNL A   1      40.408  24.741  28.466  1.00  0.00    -0.203 F 
ATOM     74  F   UNL A   1      44.260  26.158  24.870  1.00  0.00    -0.200 F 
ATOM     75  C   UNL A   1      42.716  24.567  25.681  1.00  0.00     0.200 A 
ATOM     76  F   UNL A   1      41.151  23.011  26.524  1.00  0.00    -0.200 F 
ATOM     77  F   UNL A   1      43.070  23.709  24.716  1.00  0.00    -0.200 F 
ENDBRANCH  53  67
BRANCH  54  78
ATOM     78  C   UNL A   1      39.135  32.077  35.391  1.00  0.00     0.064 A 
ATOM     79  C   UNL A   1      39.508  33.419  35.554  1.00  0.00     0.173 A 
ATOM     80  C   UNL A   1      38.366  31.488  36.406  1.00  0.00     0.173 A 
ATOM     81  F   UNL A   1      40.261  34.021  34.622  1.00  0.00    -0.203 F 
ATOM     82  C   UNL A   1      39.162  34.130  36.702  1.00  0.00     0.198 A 
ATOM     83  C   UNL A   1      37.993  32.210  37.538  1.00  0.00     0.198 A 
ATOM     84  F   UNL A   1      37.976  30.209  36.298  1.00  0.00    -0.203 F 
ATOM     85  F   UNL A   1      39.588  35.391  36.859  1.00  0.00    -0.200 F 
ATOM     86  C   UNL A   1      38.402  33.525  37.692  1.00  0.00     0.200 A 
ATOM     87  F   UNL A   1      37.246  31.626  38.486  1.00  0.00    -0.200 F 
ATOM     88  F   UNL A   1      38.076  34.206  38.799  1.00  0.00    -0.200 F 
ENDBRANCH  54  78
BRANCH  66  89
ATOM     89  C   UNL A   1      44.633  27.968  34.198  1.00  0.00     0.064 A 
ATOM     90  C   UNL A   1      45.792  28.755  34.192  1.00  0.00     0.173 A 
ATOM     91  C   UNL A   1      44.595  26.856  35.054  1.00  0.00     0.173 A 
ATOM     92  F   UNL A   1      45.881  29.821  33.381  1.00  0.00    -0.203 F 
ATOM     93  C   UNL A   1      46.879  28.432  35.000  1.00  0.00     0.198 A 
ATOM     94  C   UNL A   1      45.672  26.554  35.883  1.00  0.00     0.198 A 
ATOM     95  F   UNL A   1      43.506  26.076  35.102  1.00  0.00    -0.203 F 
ATOM     96  F   UNL A   1      47.993  29.176  34.950  1.00  0.00    -0.200 F 
ATOM     97  C   UNL A   1      46.814  27.338  35.851  1.00  0.00     0.200 A 
ATOM     98  F   UNL A   1      45.601  25.505  36.715  1.00  0.00    -0.200 F 
ATOM     99  F   UNL A   1      47.856  27.038  36.638  1.00  0.00    -0.200 F 
ENDBRANCH  66  89
ENDBRANCH  40  41
ENDBRANCH  32  35
ENDBRANCH  30  31
ENDBRANCH  29  30
ENDBRANCH   1  29
TORSDOF 15
ENDMDL
MODEL 2
REMARK VINA RESULT:     -12.8      2.697      7.652
REMARK SMILES NS(=O)(=O)c1ccc(N2N=C(C(=O)NCCCCNC(=O)c3ccc(-c4c5nc(c(-c6c(F)c(F)c(F)c(F)c6F)c6ccc([nH]6)c(-c6c(F)c(F)c(F)c(F)c6F)c6nc(c(-c7c(F)c(F)c(F)c(F)c7F)c7ccc4[nH]7)C=C6)C=C5)cc3)C[C@H]2c2cccs2)cc1
REMARK SMILES IDX 16 1 15 2 14 3 12 4 13 5 11 7 9 8 10 9 86 10 85 11 8 12 5 13
REMARK SMILES IDX 6 14 93 15 7 16 92 17 2 18 3 19 4 20 1 21 87 24 88 25 91 26
REMARK SMILES IDX 89 27 90 28 17 29 18 30 19 31 20 32 21 34 22 35 23 36 84 37
REMARK SMILES IDX 24 38 83 39 25 40 26 41 27 42 77 43 28 44 82 45 76 46 78 47
REMARK SMILES IDX 29 48 81 49 75 50 74 51 30 53 62 54 42 55 61 56 43 57 46 58
REMARK SMILES IDX 60 59 79 60 44 61 45 62 59 64 80 65 47 66 31 67 32 68 40 69
REMARK SMILES IDX 33 70 34 71 38 72 41 73 35 74 36 75 39 76 37 77 63 78 64 79
REMARK SMILES IDX 72 80 65 81 66 82 70 83 73 84 67 85 68 86 71 87 69 88 48 89
REMARK SMILES IDX 49 90 57 91 50 92 51 93 55 94 58 95 52 96 53 97 56 98 54 99
REMARK H PARENT 14 6 1 22 1 23 19 33 78 52 46 63
REMARK Flexibility Score: inf
ROOT
ATOM      1  C   UNL A   1      31.262  27.646  26.572  1.00  0.00     0.023 C 
ENDROOT
BRANCH   1   2
ATOM      2  C   UNL A   1      31.374  26.162  26.246  1.00  0.00     0.116 C 
BRANCH   2   3
ATOM      3  N   UNL A   1      30.567  25.812  25.095  1.00  0.00    -0.351 N 
ATOM      4  C   UNL A   1      30.743  24.982  24.017  1.00  0.00     0.267 C 
ATOM      5  O   UNL A   1      29.868  24.995  23.153  1.00  0.00    -0.268 OA
ATOM      6  H   UNL A   1      29.697  26.272  25.086  1.00  0.00     0.163 HD
BRANCH   4   7
ATOM      7  C   UNL A   1      31.914  24.025  23.854  1.00  0.00     0.128 C 
ATOM      8  N   UNL A   1      33.030  22.223  24.064  1.00  0.00    -0.256 N 
ATOM      9  N   UNL A   1      31.794  22.772  24.175  1.00  0.00    -0.171 NA
ATOM     10  C   UNL A   1      34.042  23.123  23.515  1.00  0.00     0.154 C 
ATOM     11  C   UNL A   1      33.252  24.422  23.325  1.00  0.00     0.097 C 
BRANCH   8  12
ATOM     12  C   UNL A   1      33.200  20.848  24.105  1.00  0.00     0.060 A 
ATOM     13  C   UNL A   1      33.618  18.074  24.182  1.00  0.00     0.082 A 
ATOM     14  C   UNL A   1      32.537  18.594  23.464  1.00  0.00     0.024 A 
ATOM     15  C   UNL A   1      34.481  18.922  24.873  1.00  0.00     0.024 A 
ATOM     16  C   UNL A   1      32.326  19.977  23.441  1.00  0.00     0.029 A 
ATOM     17  C   UNL A   1      34.267  20.298  24.827  1.00  0.00     0.029 A 
BRANCH  13  18
ATOM     18  S   UNL A   1      33.858  16.326  24.192  1.00  0.00     0.238 S 
ATOM     19  O   UNL A   1      34.308  15.922  22.881  1.00  0.00    -0.207 OA
ATOM     20  O   UNL A   1      32.737  15.709  24.862  1.00  0.00    -0.207 OA
BRANCH  18  21
ATOM     21  N   UNL A   1      35.179  16.082  25.207  1.00  0.00    -0.225 NA
ATOM     22  H   UNL A   1      34.934  16.363  26.157  1.00  0.00     0.137 HD
ATOM     23  H   UNL A   1      35.966  16.642  24.880  1.00  0.00     0.137 HD
ENDBRANCH  18  21
ENDBRANCH  13  18
ENDBRANCH   8  12
BRANCH  10  24
ATOM     24  C   UNL A   1      35.321  23.286  24.320  1.00  0.00     0.030 A 
ATOM     25  C   UNL A   1      35.453  23.923  25.544  1.00  0.00     0.017 A 
ATOM     26  S   UNL A   1      36.851  22.737  23.758  1.00  0.00    -0.147 S 
ATOM     27  C   UNL A   1      36.791  23.915  26.030  1.00  0.00     0.012 A 
ATOM     28  C   UNL A   1      37.645  23.258  25.175  1.00  0.00     0.065 A 
ENDBRANCH  10  24
ENDBRANCH   4   7
ENDBRANCH   2   3
ENDBRANCH   1   2
BRANCH   1  29
ATOM     29  C   UNL A   1      32.159  28.108  27.716  1.00  0.00     0.023 C 
BRANCH  29  30
ATOM     30  C   UNL A   1      33.475  28.747  27.286  1.00  0.00     0.116 C 
BRANCH  30  31
ATOM     31  N   UNL A   1      33.538  30.179  27.553  1.00  0.00    -0.352 N 
ATOM     32  C   UNL A   1      34.581  30.903  28.080  1.00  0.00     0.251 C 
ATOM     33  H   UNL A   1      32.730  30.693  27.326  1.00  0.00     0.163 HD
ATOM     34  O   UNL A   1      34.451  32.093  28.343  1.00  0.00    -0.269 OA
BRANCH  32  35
ATOM     35  C   UNL A   1      35.850  30.209  28.363  1.00  0.00     0.039 A 
ATOM     36  C   UNL A   1      36.854  30.209  27.394  1.00  0.00     0.014 A 
ATOM     37  C   UNL A   1      36.069  29.642  29.620  1.00  0.00     0.014 A 
ATOM     38  C   UNL A   1      38.117  29.711  27.717  1.00  0.00     0.010 A 
ATOM     39  C   UNL A   1      37.347  29.218  29.964  1.00  0.00     0.010 A 
ATOM     40  C   UNL A   1      38.385  29.256  29.019  1.00  0.00    -0.014 A 
BRANCH  40  41
ATOM     41  C   UNL A   1      39.743  28.816  29.427  1.00  0.00     0.031 A 
ATOM     42  C   UNL A   1      40.599  29.729  30.260  1.00  0.00     0.074 A 
ATOM     43  C   UNL A   1      40.240  27.652  28.962  1.00  0.00     0.049 A 
ATOM     44  N   UNL A   1      41.856  29.604  30.597  1.00  0.00    -0.248 NA
ATOM     45  C   UNL A   1      39.965  30.964  30.750  1.00  0.00     0.031 C 
ATOM     46  C   UNL A   1      39.525  26.706  28.102  1.00  0.00     0.029 A 
ATOM     47  N   UNL A   1      41.478  27.080  29.125  1.00  0.00    -0.354 N 
ATOM     48  C   UNL A   1      42.172  30.756  31.305  1.00  0.00     0.074 A 
ATOM     49  C   UNL A   1      40.987  31.585  31.321  1.00  0.00     0.031 C 
ATOM     50  C   UNL A   1      40.332  25.670  27.820  1.00  0.00     0.029 A 
ATOM     51  C   UNL A   1      41.635  25.898  28.439  1.00  0.00     0.049 A 
ATOM     52  H   UNL A   1      42.186  27.477  29.681  1.00  0.00     0.167 HD
ATOM     53  C   UNL A   1      43.342  31.082  31.902  1.00  0.00     0.037 A 
ATOM     54  C   UNL A   1      42.713  25.102  28.309  1.00  0.00     0.037 A 
ATOM     55  C   UNL A   1      44.498  30.228  31.932  1.00  0.00     0.049 A 
ATOM     56  C   UNL A   1      43.994  25.483  29.005  1.00  0.00     0.074 A 
ATOM     57  C   UNL A   1      45.695  30.426  32.597  1.00  0.00     0.029 A 
ATOM     58  N   UNL A   1      44.600  29.014  31.272  1.00  0.00    -0.354 N 
ATOM     59  N   UNL A   1      44.252  26.533  29.746  1.00  0.00    -0.248 NA
ATOM     60  C   UNL A   1      45.133  24.567  28.851  1.00  0.00     0.031 C 
ATOM     61  C   UNL A   1      46.541  29.355  32.300  1.00  0.00     0.029 A 
ATOM     62  C   UNL A   1      45.851  28.464  31.492  1.00  0.00     0.049 A 
ATOM     63  H   UNL A   1      43.889  28.605  30.726  1.00  0.00     0.167 HD
ATOM     64  C   UNL A   1      45.564  26.384  30.175  1.00  0.00     0.074 A 
ATOM     65  C   UNL A   1      46.048  25.139  29.620  1.00  0.00     0.031 C 
ATOM     66  C   UNL A   1      46.305  27.207  30.956  1.00  0.00     0.037 A 
BRANCH  53  67
ATOM     67  C   UNL A   1      43.438  32.415  32.583  1.00  0.00     0.064 A 
ATOM     68  C   UNL A   1      43.084  32.581  33.929  1.00  0.00     0.173 A 
ATOM     69  C   UNL A   1      43.971  33.518  31.900  1.00  0.00     0.173 A 
ATOM     70  F   UNL A   1      42.560  31.558  34.622  1.00  0.00    -0.203 F 
ATOM     71  C   UNL A   1      43.247  33.810  34.564  1.00  0.00     0.198 A 
ATOM     72  C   UNL A   1      44.158  34.738  32.546  1.00  0.00     0.198 A 
ATOM     73  F   UNL A   1      44.329  33.410  30.612  1.00  0.00    -0.203 F 
ATOM     74  F   UNL A   1      42.873  33.955  35.843  1.00  0.00    -0.200 F 
ATOM     75  C   UNL A   1      43.793  34.882  33.876  1.00  0.00     0.200 A 
ATOM     76  F   UNL A   1      44.698  35.769  31.883  1.00  0.00    -0.200 F 
ATOM     77  F   UNL A   1      43.969  36.058  34.495  1.00  0.00    -0.200 F 
ENDBRANCH  53  67
BRANCH  54  78
ATOM     78  C   UNL A   1      42.643  23.863  27.489  1.00  0.00     0.064 A 
ATOM     79  C   UNL A   1      42.254  22.642  28.058  1.00  0.00     0.173 A 
ATOM     80  C   UNL A   1      43.007  23.862  26.134  1.00  0.00     0.173 A 
ATOM     81  F   UNL A   1      41.917  22.587  29.356  1.00  0.00    -0.203 F 
ATOM     82  C   UNL A   1      42.267  21.462  27.316  1.00  0.00     0.198 A 
ATOM     83  C   UNL A   1      42.988  22.687  25.384  1.00  0.00     0.198 A 
ATOM     84  F   UNL A   1      43.381  25.004  25.538  1.00  0.00    -0.203 F 
ATOM     85  F   UNL A   1      41.953  20.300  27.904  1.00  0.00    -0.200 F 
ATOM     86  C   UNL A   1      42.632  21.487  25.978  1.00  0.00     0.200 A 
ATOM     87  F   UNL A   1      43.328  22.718  24.088  1.00  0.00    -0.200 F 
ATOM     88  F   UNL A   1      42.653  20.352  25.267  1.00  0.00    -0.200 F 
ENDBRANCH  54  78
BRANCH  66  89
ATOM     89  C   UNL A   1      47.694  26.767  31.308  1.00  0.00     0.064 A 
ATOM     90  C   UNL A   1      47.948  25.939  32.410  1.00  0.00     0.173 A 
ATOM     91  C   UNL A   1      48.777  27.129  30.491  1.00  0.00     0.173 A 
ATOM     92  F   UNL A   1      46.948  25.577  33.228  1.00  0.00    -0.203 F 
ATOM     93  C   UNL A   1      49.240  25.503  32.692  1.00  0.00     0.198 A 
ATOM     94  C   UNL A   1      50.062  26.667  30.760  1.00  0.00     0.198 A 
ATOM     95  F   UNL A   1      48.584  27.913  29.421  1.00  0.00    -0.203 F 
ATOM     96  F   UNL A   1      49.467  24.745  33.774  1.00  0.00    -0.200 F 
ATOM     97  C   UNL A   1      50.294  25.859  31.862  1.00  0.00     0.200 A 
ATOM     98  F   UNL A   1      51.075  26.999  29.948  1.00  0.00    -0.200 F 
ATOM     99  F   UNL A   1      51.533  25.426  32.129  1.00  0.00    -0.200 F 
ENDBRANCH  66  89
ENDBRANCH  40  41
ENDBRANCH  32  35
ENDBRANCH  30  31
ENDBRANCH  29  30
ENDBRANCH   1  29
TORSDOF 15
ENDMDL
MODEL 3
REMARK VINA RESULT:     -12.7      3.779      7.788
REMARK SMILES NS(=O)(=O)c1ccc(N2N=C(C(=O)NCCCCNC(=O)c3ccc(-c4c5nc(c(-c6c(F)c(F)c(F)c(F)c6F)c6ccc([nH]6)c(-c6c(F)c(F)c(F)c(F)c6F)c6nc(c(-c7c(F)c(F)c(F)c(F)c7F)c7ccc4[nH]7)C=C6)C=C5)cc3)C[C@H]2c2cccs2)cc1
REMARK SMILES IDX 16 1 15 2 14 3 12 4 13 5 11 7 9 8 10 9 86 10 85 11 8 12 5 13
REMARK SMILES IDX 6 14 93 15 7 16 92 17 2 18 3 19 4 20 1 21 87 24 88 25 91 26
REMARK SMILES IDX 89 27 90 28 17 29 18 30 19 31 20 32 21 34 22 35 23 36 84 37
REMARK SMILES IDX 24 38 83 39 25 40 26 41 27 42 77 43 28 44 82 45 76 46 78 47
REMARK SMILES IDX 29 48 81 49 75 50 74 51 30 53 62 54 42 55 61 56 43 57 46 58
REMARK SMILES IDX 60 59 79 60 44 61 45 62 59 64 80 65 47 66 31 67 32 68 40 69
REMARK SMILES IDX 33 70 34 71 38 72 41 73 35 74 36 75 39 76 37 77 63 78 64 79
REMARK SMILES IDX 72 80 65 81 66 82 70 83 73 84 67 85 68 86 71 87 69 88 48 89
REMARK SMILES IDX 49 90 57 91 50 92 51 93 55 94 58 95 52 96 53 97 56 98 54 99
REMARK H PARENT 14 6 1 22 1 23 19 33 78 52 46 63
REMARK Flexibility Score: inf
ROOT
ATOM      1  C   UNL A   1      35.471  22.945  23.352  1.00  0.00     0.023 C 
ENDROOT
BRANCH   1   2
ATOM      2  C   UNL A   1      34.091  23.502  23.027  1.00  0.00     0.116 C 
BRANCH   2   3
ATOM      3  N   UNL A   1      33.047  22.742  23.682  1.00  0.00    -0.351 N 
ATOM      4  C   UNL A   1      32.025  23.057  24.541  1.00  0.00     0.267 C 
ATOM      5  O   UNL A   1      31.363  22.123  24.990  1.00  0.00    -0.268 OA
ATOM      6  H   UNL A   1      33.078  21.783  23.460  1.00  0.00     0.163 HD
BRANCH   4   7
ATOM      7  C   UNL A   1      31.636  24.476  24.925  1.00  0.00     0.128 C 
ATOM      8  N   UNL A   1      31.065  26.509  24.641  1.00  0.00    -0.256 N 
ATOM      9  N   UNL A   1      31.171  25.300  24.034  1.00  0.00    -0.171 NA
ATOM     10  C   UNL A   1      31.360  26.493  26.071  1.00  0.00     0.154 C 
ATOM     11  C   UNL A   1      31.744  25.029  26.308  1.00  0.00     0.097 C 
BRANCH   8  12
ATOM     12  C   UNL A   1      30.375  27.547  24.034  1.00  0.00     0.060 A 
ATOM     13  C   UNL A   1      29.010  29.696  22.854  1.00  0.00     0.082 A 
ATOM     14  C   UNL A   1      28.366  28.465  23.008  1.00  0.00     0.024 A 
ATOM     15  C   UNL A   1      30.330  29.860  23.268  1.00  0.00     0.024 A 
ATOM     16  C   UNL A   1      29.057  27.393  23.585  1.00  0.00     0.029 A 
ATOM     17  C   UNL A   1      31.000  28.788  23.854  1.00  0.00     0.029 A 
BRANCH  13  18
ATOM     18  S   UNL A   1      28.112  31.029  22.124  1.00  0.00     0.238 S 
ATOM     19  O   UNL A   1      27.134  31.494  23.079  1.00  0.00    -0.207 OA
ATOM     20  O   UNL A   1      27.774  30.670  20.767  1.00  0.00    -0.207 OA
BRANCH  18  21
ATOM     21  N   UNL A   1      29.233  32.278  21.994  1.00  0.00    -0.225 NA
ATOM     22  H   UNL A   1      28.743  33.170  21.938  1.00  0.00     0.137 HD
ATOM     23  H   UNL A   1      29.793  32.144  21.152  1.00  0.00     0.137 HD
ENDBRANCH  18  21
ENDBRANCH  13  18
ENDBRANCH   8  12
BRANCH  10  24
ATOM     24  C   UNL A   1      32.390  27.493  26.569  1.00  0.00     0.030 A 
ATOM     25  C   UNL A   1      32.165  28.548  27.439  1.00  0.00     0.017 A 
ATOM     26  S   UNL A   1      34.025  27.490  26.037  1.00  0.00    -0.147 S 
ATOM     27  C   UNL A   1      33.339  29.312  27.698  1.00  0.00     0.012 A 
ATOM     28  C   UNL A   1      34.434  28.812  27.034  1.00  0.00     0.065 A 
ENDBRANCH  10  24
ENDBRANCH   4   7
ENDBRANCH   2   3
ENDBRANCH   1   2
BRANCH   1  29
ATOM     29  C   UNL A   1      35.790  22.883  24.842  1.00  0.00     0.023 C 
BRANCH  29  30
ATOM     30  C   UNL A   1      37.046  23.635  25.265  1.00  0.00     0.116 C 
BRANCH  30  31
ATOM     31  N   UNL A   1      38.189  22.764  25.512  1.00  0.00    -0.352 N 
ATOM     32  C   UNL A   1      39.360  23.058  26.168  1.00  0.00     0.251 C 
ATOM     33  H   UNL A   1      38.110  21.846  25.164  1.00  0.00     0.163 HD
ATOM     34  O   UNL A   1      40.279  22.248  26.210  1.00  0.00    -0.269 OA
BRANCH  32  35
ATOM     35  C   UNL A   1      39.508  24.389  26.786  1.00  0.00     0.039 A 
ATOM     36  C   UNL A   1      39.062  24.582  28.094  1.00  0.00     0.014 A 
ATOM     37  C   UNL A   1      40.169  25.408  26.097  1.00  0.00     0.014 A 
ATOM     38  C   UNL A   1      39.356  25.779  28.747  1.00  0.00     0.010 A 
ATOM     39  C   UNL A   1      40.526  26.568  26.774  1.00  0.00     0.010 A 
ATOM     40  C   UNL A   1      40.131  26.761  28.107  1.00  0.00    -0.014 A 
BRANCH  40  41
ATOM     41  C   UNL A   1      40.550  28.002  28.807  1.00  0.00     0.031 A 
ATOM     42  C   UNL A   1      41.938  28.099  29.376  1.00  0.00     0.074 A 
ATOM     43  C   UNL A   1      39.655  28.988  29.019  1.00  0.00     0.049 A 
ATOM     44  N   UNL A   1      42.453  29.024  30.145  1.00  0.00    -0.248 NA
ATOM     45  C   UNL A   1      42.857  26.992  29.070  1.00  0.00     0.031 C 
ATOM     46  C   UNL A   1      38.264  28.986  28.561  1.00  0.00     0.029 A 
ATOM     47  N   UNL A   1      39.776  30.173  29.702  1.00  0.00    -0.354 N 
ATOM     48  C   UNL A   1      43.740  28.592  30.441  1.00  0.00     0.074 A 
ATOM     49  C   UNL A   1      43.917  27.309  29.800  1.00  0.00     0.031 C 
ATOM     50  C   UNL A   1      37.664  30.116  28.969  1.00  0.00     0.029 A 
ATOM     51  C   UNL A   1      38.612  30.902  29.755  1.00  0.00     0.049 A 
ATOM     52  H   UNL A   1      40.618  30.474  30.115  1.00  0.00     0.167 HD
ATOM     53  C   UNL A   1      44.690  29.222  31.169  1.00  0.00     0.037 A 
ATOM     54  C   UNL A   1      38.336  32.061  30.383  1.00  0.00     0.037 A 
ATOM     55  C   UNL A   1      44.528  30.525  31.755  1.00  0.00     0.049 A 
ATOM     56  C   UNL A   1      39.424  32.747  31.167  1.00  0.00     0.074 A 
ATOM     57  C   UNL A   1      45.467  31.289  32.424  1.00  0.00     0.029 A 
ATOM     58  N   UNL A   1      43.350  31.256  31.740  1.00  0.00    -0.354 N 
ATOM     59  N   UNL A   1      40.664  32.372  31.364  1.00  0.00    -0.248 NA
ATOM     60  C   UNL A   1      39.077  34.022  31.812  1.00  0.00     0.031 C 
ATOM     61  C   UNL A   1      44.845  32.463  32.858  1.00  0.00     0.029 A 
ATOM     62  C   UNL A   1      43.533  32.452  32.413  1.00  0.00     0.049 A 
ATOM     63  H   UNL A   1      42.510  30.966  31.316  1.00  0.00     0.167 HD
ATOM     64  C   UNL A   1      41.252  33.377  32.120  1.00  0.00     0.074 A 
ATOM     65  C   UNL A   1      40.238  34.384  32.339  1.00  0.00     0.031 C 
ATOM     66  C   UNL A   1      42.519  33.458  32.594  1.00  0.00     0.037 A 
BRANCH  53  67
ATOM     67  C   UNL A   1      46.002  28.523  31.371  1.00  0.00     0.064 A 
ATOM     68  C   UNL A   1      46.216  27.655  32.450  1.00  0.00     0.173 A 
ATOM     69  C   UNL A   1      47.028  28.663  30.423  1.00  0.00     0.173 A 
ATOM     70  F   UNL A   1      45.269  27.497  33.388  1.00  0.00    -0.203 F 
ATOM     71  C   UNL A   1      47.416  26.961  32.582  1.00  0.00     0.198 A 
ATOM     72  C   UNL A   1      48.216  27.946  30.544  1.00  0.00     0.198 A 
ATOM     73  F   UNL A   1      46.871  29.478  29.370  1.00  0.00    -0.203 F 
ATOM     74  F   UNL A   1      47.610  26.160  33.639  1.00  0.00    -0.200 F 
ATOM     75  C   UNL A   1      48.409  27.099  31.625  1.00  0.00     0.200 A 
ATOM     76  F   UNL A   1      49.168  28.070  29.611  1.00  0.00    -0.200 F 
ATOM     77  F   UNL A   1      49.554  26.414  31.743  1.00  0.00    -0.200 F 
ENDBRANCH  53  67
BRANCH  54  78
ATOM     78  C   UNL A   1      36.975  32.657  30.305  1.00  0.00     0.064 A 
ATOM     79  C   UNL A   1      36.605  33.473  29.227  1.00  0.00     0.173 A 
ATOM     80  C   UNL A   1      36.033  32.463  31.327  1.00  0.00     0.173 A 
ATOM     81  F   UNL A   1      37.478  33.708  28.236  1.00  0.00    -0.203 F 
ATOM     82  C   UNL A   1      35.362  34.102  29.191  1.00  0.00     0.198 A 
ATOM     83  C   UNL A   1      34.778  33.066  31.274  1.00  0.00     0.198 A 
ATOM     84  F   UNL A   1      36.332  31.685  32.378  1.00  0.00    -0.203 F 
ATOM     85  F   UNL A   1      35.061  34.929  28.180  1.00  0.00    -0.200 F 
ATOM     86  C   UNL A   1      34.448  33.895  30.214  1.00  0.00     0.200 A 
ATOM     87  F   UNL A   1      33.892  32.851  32.257  1.00  0.00    -0.200 F 
ATOM     88  F   UNL A   1      33.256  34.506  30.183  1.00  0.00    -0.200 F 
ENDBRANCH  54  78
BRANCH  66  89
ATOM     89  C   UNL A   1      42.901  34.697  33.347  1.00  0.00     0.064 A 
ATOM     90  C   UNL A   1      42.868  34.749  34.747  1.00  0.00     0.173 A 
ATOM     91  C   UNL A   1      43.366  35.827  32.655  1.00  0.00     0.173 A 
ATOM     92  F   UNL A   1      42.418  33.699  35.451  1.00  0.00    -0.203 F 
ATOM     93  C   UNL A   1      43.270  35.895  35.428  1.00  0.00     0.198 A 
ATOM     94  C   UNL A   1      43.796  36.959  33.341  1.00  0.00     0.198 A 
ATOM     95  F   UNL A   1      43.425  35.823  31.316  1.00  0.00    -0.203 F 
ATOM     96  F   UNL A   1      43.193  35.937  36.766  1.00  0.00    -0.200 F 
ATOM     97  C   UNL A   1      43.743  36.994  34.726  1.00  0.00     0.200 A 
ATOM     98  F   UNL A   1      44.267  38.013  32.661  1.00  0.00    -0.200 F 
ATOM     99  F   UNL A   1      44.143  38.089  35.385  1.00  0.00    -0.200 F 
ENDBRANCH  66  89
ENDBRANCH  40  41
ENDBRANCH  32  35
ENDBRANCH  30  31
ENDBRANCH  29  30
ENDBRANCH   1  29
TORSDOF 15
ENDMDL
