MODEL 1
REMARK VINA RESULT:     -14.3      0.000      0.000
REMARK SMILES Cc1cccc(-c2ccccc2C(=O)N2CC[C@H](O)C[C@@H]2C(=O)NCCCCNC(=O)c2ccc(-c3c4nc(c(-c5c(F)c(F)c(F)c(F)c5F)c5ccc([nH]5)c(-c5c(F)c(F)c(F)c(F)c5F)c5nc(c(-c6c(F)c(F)c(F)c(F)c6F)c6ccc3[nH]6)C=C5)C=C4)cc2)c1
REMARK SMILES IDX 26 1 25 2 24 3 22 4 23 5 21 7 15 8 16 9 17 10 20 11 18 12
REMARK SMILES IDX 13 13 14 14 12 15 7 16 8 17 9 18 11 19 10 20 6 21 1 22 2 23
REMARK SMILES IDX 3 24 95 25 4 26 5 27 19 28 27 30 28 31 29 32 30 33 31 35
REMARK SMILES IDX 32 36 33 37 94 38 34 39 93 40 35 41 36 42 37 43 87 44 38 45
REMARK SMILES IDX 92 46 86 47 88 48 39 49 91 50 85 51 84 52 40 54 72 55 52 56
REMARK SMILES IDX 71 57 53 58 56 59 70 60 89 61 54 62 55 63 69 65 90 66 57 67
REMARK SMILES IDX 41 68 42 69 50 70 43 71 44 72 48 73 51 74 45 75 46 76 49 77
REMARK SMILES IDX 47 78 73 79 74 80 82 81 75 82 76 83 80 84 83 85 77 86 78 87
REMARK SMILES IDX 81 88 79 89 58 90 59 91 67 92 60 93 61 94 65 95 68 96 62 97
REMARK SMILES IDX 63 98 66 99 64 100
REMARK H PARENT 24 6 19 29 29 34 88 53 56 64
REMARK Flexibility Score: inf
ROOT
ATOM      1  C   UNL A   1      37.403  22.145  24.670  1.00  0.00     0.023 C 
ENDROOT
BRANCH   1   2
ATOM      2  C   UNL A   1      36.923  23.541  25.097  1.00  0.00     0.116 C 
BRANCH   2   3
ATOM      3  N   UNL A   1      35.685  23.535  25.865  1.00  0.00    -0.354 N 
ATOM      4  C   UNL A   1      34.394  23.788  25.507  1.00  0.00     0.242 C 
ATOM      5  O   UNL A   1      33.547  23.702  26.405  1.00  0.00    -0.273 OA
ATOM      6  H   UNL A   1      35.803  23.308  26.816  1.00  0.00     0.163 HD
BRANCH   4   7
ATOM      7  C   UNL A   1      34.009  24.266  24.087  1.00  0.00     0.177 C 
ATOM      8  N   UNL A   1      32.832  25.149  24.170  1.00  0.00    -0.326 N 
ATOM      9  C   UNL A   1      31.540  24.502  24.409  1.00  0.00     0.123 C 
ATOM     10  C   UNL A   1      31.259  23.437  23.357  1.00  0.00     0.053 C 
ATOM     11  C   UNL A   1      33.766  23.092  23.121  1.00  0.00     0.067 C 
ATOM     12  C   UNL A   1      32.392  22.426  23.243  1.00  0.00     0.118 C 
BRANCH   8  13
ATOM     13  C   UNL A   1      33.051  26.521  24.048  1.00  0.00     0.255 C 
ATOM     14  O   UNL A   1      33.519  26.990  23.011  1.00  0.00    -0.269 OA
BRANCH  13  15
ATOM     15  C   UNL A   1      32.914  27.438  25.227  1.00  0.00     0.047 A 
ATOM     16  C   UNL A   1      31.888  28.410  25.271  1.00  0.00    -0.006 A 
ATOM     17  C   UNL A   1      32.006  29.459  26.209  1.00  0.00     0.009 A 
ATOM     18  C   UNL A   1      33.089  29.542  27.083  1.00  0.00     0.001 A 
ATOM     19  C   UNL A   1      33.994  27.527  26.130  1.00  0.00     0.014 A 
ATOM     20  C   UNL A   1      34.076  28.565  27.056  1.00  0.00     0.001 A 
BRANCH  16  21
ATOM     21  C   UNL A   1      30.702  28.397  24.395  1.00  0.00    -0.017 A 
ATOM     22  C   UNL A   1      29.121  30.555  21.665  1.00  0.00     0.044 C 
ATOM     23  C   UNL A   1      29.367  29.427  22.623  1.00  0.00    -0.051 A 
ATOM     24  C   UNL A   1      28.494  28.335  22.652  1.00  0.00     0.003 A 
ATOM     25  C   UNL A   1      30.465  29.450  23.496  1.00  0.00     0.012 A 
ATOM     26  C   UNL A   1      28.710  27.284  23.541  1.00  0.00     0.001 A 
ATOM     27  C   UNL A   1      29.807  27.315  24.405  1.00  0.00     0.009 A 
ENDBRANCH  16  21
ENDBRANCH  13  15
ENDBRANCH   8  13
BRANCH  12  28
ATOM     28  O   UNL A   1      32.322  21.497  24.321  1.00  0.00    -0.393 OA
ATOM     29  H   UNL A   1      31.645  20.829  24.129  1.00  0.00     0.210 HD
ENDBRANCH  12  28
ENDBRANCH   4   7
ENDBRANCH   2   3
ENDBRANCH   1   2
BRANCH   1  30
ATOM     30  C   UNL A   1      38.617  21.579  25.411  1.00  0.00     0.023 C 
BRANCH  30  31
ATOM     31  C   UNL A   1      39.129  22.483  26.521  1.00  0.00     0.116 C 
BRANCH  31  32
ATOM     32  N   UNL A   1      40.563  22.745  26.478  1.00  0.00    -0.352 N 
ATOM     33  C   UNL A   1      41.231  23.962  26.503  1.00  0.00     0.251 C 
ATOM     34  H   UNL A   1      41.138  21.949  26.423  1.00  0.00     0.163 HD
ATOM     35  O   UNL A   1      42.445  24.008  26.398  1.00  0.00    -0.269 OA
BRANCH  33  36
ATOM     36  C   UNL A   1      40.460  25.195  26.797  1.00  0.00     0.039 A 
ATOM     37  C   UNL A   1      40.796  26.360  26.098  1.00  0.00     0.014 A 
ATOM     38  C   UNL A   1      39.607  25.255  27.894  1.00  0.00     0.014 A 
ATOM     39  C   UNL A   1      40.502  27.599  26.663  1.00  0.00     0.010 A 
ATOM     40  C   UNL A   1      39.410  26.475  28.510  1.00  0.00     0.010 A 
ATOM     41  C   UNL A   1      39.927  27.640  27.933  1.00  0.00    -0.014 A 
BRANCH  41  42
ATOM     42  C   UNL A   1      39.970  28.817  28.795  1.00  0.00     0.031 A 
ATOM     43  C   UNL A   1      38.928  29.857  28.725  1.00  0.00     0.074 A 
ATOM     44  C   UNL A   1      40.913  28.890  29.762  1.00  0.00     0.049 A 
ATOM     45  N   UNL A   1      39.079  31.058  29.175  1.00  0.00    -0.248 NA
ATOM     46  C   UNL A   1      37.623  29.629  28.115  1.00  0.00     0.031 C 
ATOM     47  C   UNL A   1      40.951  29.801  30.905  1.00  0.00     0.029 A 
ATOM     48  N   UNL A   1      42.174  28.270  29.774  1.00  0.00    -0.354 N 
ATOM     49  C   UNL A   1      37.849  31.664  29.166  1.00  0.00     0.074 A 
ATOM     50  C   UNL A   1      36.983  30.753  28.451  1.00  0.00     0.031 C 
ATOM     51  C   UNL A   1      42.225  29.930  31.310  1.00  0.00     0.029 A 
ATOM     52  C   UNL A   1      43.050  29.226  30.346  1.00  0.00     0.049 A 
ATOM     53  H   UNL A   1      42.400  27.367  29.455  1.00  0.00     0.167 HD
ATOM     54  C   UNL A   1      37.660  32.819  29.867  1.00  0.00     0.037 A 
ATOM     55  C   UNL A   1      44.057  29.782  29.611  1.00  0.00     0.037 A 
ATOM     56  C   UNL A   1      38.888  33.293  30.498  1.00  0.00     0.049 A 
ATOM     57  C   UNL A   1      44.002  31.292  29.489  1.00  0.00     0.074 A 
ATOM     58  C   UNL A   1      39.408  33.237  31.781  1.00  0.00     0.029 A 
ATOM     59  N   UNL A   1      39.934  33.694  29.685  1.00  0.00    -0.354 N 
ATOM     60  N   UNL A   1      43.019  32.034  29.917  1.00  0.00    -0.248 NA
ATOM     61  C   UNL A   1      45.004  32.066  28.755  1.00  0.00     0.031 C 
ATOM     62  C   UNL A   1      40.775  33.633  31.729  1.00  0.00     0.029 A 
ATOM     63  C   UNL A   1      41.084  33.922  30.413  1.00  0.00     0.049 A 
ATOM     64  H   UNL A   1      39.866  33.802  28.710  1.00  0.00     0.167 HD
ATOM     65  C   UNL A   1      43.203  33.321  29.484  1.00  0.00     0.074 A 
ATOM     66  C   UNL A   1      44.456  33.292  28.757  1.00  0.00     0.031 C 
ATOM     67  C   UNL A   1      42.291  34.310  29.709  1.00  0.00     0.037 A 
BRANCH  54  68
ATOM     68  C   UNL A   1      36.291  33.377  30.157  1.00  0.00     0.064 A 
ATOM     69  C   UNL A   1      35.501  33.938  29.134  1.00  0.00     0.173 A 
ATOM     70  C   UNL A   1      35.728  33.430  31.445  1.00  0.00     0.173 A 
ATOM     71  F   UNL A   1      35.865  33.868  27.848  1.00  0.00    -0.203 F 
ATOM     72  C   UNL A   1      34.306  34.611  29.398  1.00  0.00     0.198 A 
ATOM     73  C   UNL A   1      34.565  34.156  31.719  1.00  0.00     0.198 A 
ATOM     74  F   UNL A   1      36.273  32.752  32.466  1.00  0.00    -0.203 F 
ATOM     75  F   UNL A   1      33.600  35.134  28.386  1.00  0.00    -0.200 F 
ATOM     76  C   UNL A   1      33.861  34.759  30.696  1.00  0.00     0.200 A 
ATOM     77  F   UNL A   1      34.137  34.274  32.984  1.00  0.00    -0.200 F 
ATOM     78  F   UNL A   1      32.749  35.460  30.956  1.00  0.00    -0.200 F 
ENDBRANCH  54  68
BRANCH  55  79
ATOM     79  C   UNL A   1      44.572  28.873  28.550  1.00  0.00     0.064 A 
ATOM     80  C   UNL A   1      45.384  27.783  28.923  1.00  0.00     0.173 A 
ATOM     81  C   UNL A   1      44.007  28.848  27.270  1.00  0.00     0.173 A 
ATOM     82  F   UNL A   1      45.947  27.750  30.142  1.00  0.00    -0.203 F 
ATOM     83  C   UNL A   1      45.522  26.668  28.100  1.00  0.00     0.198 A 
ATOM     84  C   UNL A   1      44.171  27.742  26.437  1.00  0.00     0.198 A 
ATOM     85  F   UNL A   1      43.203  29.840  26.861  1.00  0.00    -0.203 F 
ATOM     86  F   UNL A   1      46.195  25.594  28.536  1.00  0.00    -0.200 F 
ATOM     87  C   UNL A   1      44.896  26.640  26.866  1.00  0.00     0.200 A 
ATOM     88  F   UNL A   1      43.539  27.702  25.256  1.00  0.00    -0.200 F 
ATOM     89  F   UNL A   1      44.949  25.536  26.109  1.00  0.00    -0.200 F 
ENDBRANCH  55  79
BRANCH  67  90
ATOM     90  C   UNL A   1      42.465  35.730  29.252  1.00  0.00     0.064 A 
ATOM     91  C   UNL A   1      41.904  36.214  28.059  1.00  0.00     0.173 A 
ATOM     92  C   UNL A   1      43.300  36.629  29.951  1.00  0.00     0.173 A 
ATOM     93  F   UNL A   1      41.159  35.417  27.278  1.00  0.00    -0.203 F 
ATOM     94  C   UNL A   1      42.114  37.526  27.628  1.00  0.00     0.198 A 
ATOM     95  C   UNL A   1      43.551  37.919  29.492  1.00  0.00     0.198 A 
ATOM     96  F   UNL A   1      43.877  36.289  31.112  1.00  0.00    -0.203 F 
ATOM     97  F   UNL A   1      41.511  37.963  26.515  1.00  0.00    -0.200 F 
ATOM     98  C   UNL A   1      42.944  38.374  28.339  1.00  0.00     0.200 A 
ATOM     99  F   UNL A   1      44.379  38.720  30.179  1.00  0.00    -0.200 F 
ATOM    100  F   UNL A   1      43.158  39.627  27.915  1.00  0.00    -0.200 F 
ENDBRANCH  67  90
ENDBRANCH  41  42
ENDBRANCH  33  36
ENDBRANCH  31  32
ENDBRANCH  30  31
ENDBRANCH   1  30
TORSDOF 15
ENDMDL
MODEL 2
REMARK VINA RESULT:     -14.3      3.679      9.984
REMARK SMILES Cc1cccc(-c2ccccc2C(=O)N2CC[C@H](O)C[C@@H]2C(=O)NCCCCNC(=O)c2ccc(-c3c4nc(c(-c5c(F)c(F)c(F)c(F)c5F)c5ccc([nH]5)c(-c5c(F)c(F)c(F)c(F)c5F)c5nc(c(-c6c(F)c(F)c(F)c(F)c6F)c6ccc3[nH]6)C=C5)C=C4)cc2)c1
REMARK SMILES IDX 26 1 25 2 24 3 22 4 23 5 21 7 15 8 16 9 17 10 20 11 18 12
REMARK SMILES IDX 13 13 14 14 12 15 7 16 8 17 9 18 11 19 10 20 6 21 1 22 2 23
REMARK SMILES IDX 3 24 95 25 4 26 5 27 19 28 27 30 28 31 29 32 30 33 31 35
REMARK SMILES IDX 32 36 33 37 94 38 34 39 93 40 35 41 36 42 37 43 87 44 38 45
REMARK SMILES IDX 92 46 86 47 88 48 39 49 91 50 85 51 84 52 40 54 72 55 52 56
REMARK SMILES IDX 71 57 53 58 56 59 70 60 89 61 54 62 55 63 69 65 90 66 57 67
REMARK SMILES IDX 41 68 42 69 50 70 43 71 44 72 48 73 51 74 45 75 46 76 49 77
REMARK SMILES IDX 47 78 73 79 74 80 82 81 75 82 76 83 80 84 83 85 77 86 78 87
REMARK SMILES IDX 81 88 79 89 58 90 59 91 67 92 60 93 61 94 65 95 68 96 62 97
REMARK SMILES IDX 63 98 66 99 64 100
REMARK H PARENT 24 6 19 29 29 34 88 53 56 64
REMARK Flexibility Score: inf
ROOT
ATOM      1  C   UNL A   1      32.233  29.332  27.211  1.00  0.00     0.023 C 
ENDROOT
BRANCH   1   2
ATOM      2  C   UNL A   1      33.329  28.260  27.101  1.00  0.00     0.116 C 
BRANCH   2   3
ATOM      3  N   UNL A   1      33.633  27.859  25.734  1.00  0.00    -0.354 N 
ATOM      4  C   UNL A   1      33.187  26.820  24.972  1.00  0.00     0.242 C 
ATOM      5  O   UNL A   1      33.641  26.744  23.824  1.00  0.00    -0.273 OA
ATOM      6  H   UNL A   1      34.279  28.446  25.277  1.00  0.00     0.163 HD
BRANCH   4   7
ATOM      7  C   UNL A   1      32.252  25.724  25.537  1.00  0.00     0.177 C 
ATOM      8  N   UNL A   1      32.557  24.437  24.887  1.00  0.00    -0.326 N 
ATOM      9  C   UNL A   1      32.085  24.269  23.511  1.00  0.00     0.123 C 
ATOM     10  C   UNL A   1      30.583  24.503  23.414  1.00  0.00     0.053 C 
ATOM     11  C   UNL A   1      30.765  26.092  25.390  1.00  0.00     0.067 C 
ATOM     12  C   UNL A   1      30.171  25.848  23.999  1.00  0.00     0.118 C 
BRANCH   8  13
ATOM     13  C   UNL A   1      33.293  23.508  25.620  1.00  0.00     0.255 C 
ATOM     14  O   UNL A   1      32.854  23.055  26.677  1.00  0.00    -0.269 OA
BRANCH  13  15
ATOM     15  C   UNL A   1      34.711  23.178  25.258  1.00  0.00     0.047 A 
ATOM     16  C   UNL A   1      35.070  21.870  24.858  1.00  0.00    -0.006 A 
ATOM     17  C   UNL A   1      36.439  21.525  24.868  1.00  0.00     0.009 A 
ATOM     18  C   UNL A   1      37.423  22.438  25.244  1.00  0.00     0.001 A 
ATOM     19  C   UNL A   1      35.720  24.096  25.619  1.00  0.00     0.014 A 
ATOM     20  C   UNL A   1      37.065  23.731  25.603  1.00  0.00     0.001 A 
BRANCH  16  21
ATOM     21  C   UNL A   1      34.101  20.843  24.435  1.00  0.00    -0.017 A 
ATOM     22  C   UNL A   1      33.072  17.291  25.400  1.00  0.00     0.044 C 
ATOM     23  C   UNL A   1      33.111  18.624  24.713  1.00  0.00    -0.051 A 
ATOM     24  C   UNL A   1      32.193  18.911  23.698  1.00  0.00     0.003 A 
ATOM     25  C   UNL A   1      34.059  19.592  25.073  1.00  0.00     0.012 A 
ATOM     26  C   UNL A   1      32.223  20.144  23.049  1.00  0.00     0.001 A 
ATOM     27  C   UNL A   1      33.169  21.103  23.417  1.00  0.00     0.009 A 
ENDBRANCH  16  21
ENDBRANCH  13  15
ENDBRANCH   8  13
BRANCH  12  28
ATOM     28  O   UNL A   1      30.476  26.890  23.077  1.00  0.00    -0.393 OA
ATOM     29  H   UNL A   1      29.946  27.674  23.288  1.00  0.00     0.210 HD
ENDBRANCH  12  28
ENDBRANCH   4   7
ENDBRANCH   2   3
ENDBRANCH   1   2
BRANCH   1  30
ATOM     30  C   UNL A   1      32.701  30.786  27.316  1.00  0.00     0.023 C 
BRANCH  30  31
ATOM     31  C   UNL A   1      34.212  30.935  27.400  1.00  0.00     0.116 C 
BRANCH  31  32
ATOM     32  N   UNL A   1      34.688  31.629  28.591  1.00  0.00    -0.352 N 
ATOM     33  C   UNL A   1      35.660  31.238  29.501  1.00  0.00     0.251 C 
ATOM     34  H   UNL A   1      34.261  32.496  28.775  1.00  0.00     0.163 HD
ATOM     35  O   UNL A   1      35.899  31.915  30.487  1.00  0.00    -0.269 OA
BRANCH  33  36
ATOM     36  C   UNL A   1      36.500  30.055  29.187  1.00  0.00     0.039 A 
ATOM     37  C   UNL A   1      36.782  29.159  30.224  1.00  0.00     0.014 A 
ATOM     38  C   UNL A   1      37.182  29.969  27.979  1.00  0.00     0.014 A 
ATOM     39  C   UNL A   1      37.926  28.368  30.144  1.00  0.00     0.010 A 
ATOM     40  C   UNL A   1      38.372  29.271  27.941  1.00  0.00     0.010 A 
ATOM     41  C   UNL A   1      38.783  28.532  29.056  1.00  0.00    -0.014 A 
BRANCH  41  42
ATOM     42  C   UNL A   1      40.179  28.108  29.064  1.00  0.00     0.031 A 
ATOM     43  C   UNL A   1      40.582  26.785  28.551  1.00  0.00     0.074 A 
ATOM     44  C   UNL A   1      41.134  28.993  29.432  1.00  0.00     0.049 A 
ATOM     45  N   UNL A   1      41.700  26.210  28.845  1.00  0.00    -0.248 NA
ATOM     46  C   UNL A   1      39.735  25.988  27.672  1.00  0.00     0.031 C 
ATOM     47  C   UNL A   1      42.577  28.886  29.224  1.00  0.00     0.029 A 
ATOM     48  N   UNL A   1      40.989  30.101  30.283  1.00  0.00    -0.354 N 
ATOM     49  C   UNL A   1      41.844  25.129  28.013  1.00  0.00     0.074 A 
ATOM     50  C   UNL A   1      40.572  25.002  27.334  1.00  0.00     0.031 C 
ATOM     51  C   UNL A   1      43.201  29.644  30.140  1.00  0.00     0.029 A 
ATOM     52  C   UNL A   1      42.181  30.135  31.050  1.00  0.00     0.049 A 
ATOM     53  H   UNL A   1      40.226  30.719  30.337  1.00  0.00     0.167 HD
ATOM     54  C   UNL A   1      43.061  24.525  27.894  1.00  0.00     0.037 A 
ATOM     55  C   UNL A   1      42.154  29.921  32.398  1.00  0.00     0.037 A 
ATOM     56  C   UNL A   1      44.062  25.116  28.777  1.00  0.00     0.049 A 
ATOM     57  C   UNL A   1      42.991  28.752  32.877  1.00  0.00     0.074 A 
ATOM     58  C   UNL A   1      45.099  26.020  28.607  1.00  0.00     0.029 A 
ATOM     59  N   UNL A   1      43.887  24.998  30.144  1.00  0.00    -0.354 N 
ATOM     60  N   UNL A   1      43.599  27.905  32.093  1.00  0.00    -0.248 NA
ATOM     61  C   UNL A   1      43.100  28.379  34.289  1.00  0.00     0.031 C 
ATOM     62  C   UNL A   1      45.558  26.424  29.893  1.00  0.00     0.029 A 
ATOM     63  C   UNL A   1      44.794  25.770  30.841  1.00  0.00     0.049 A 
ATOM     64  H   UNL A   1      43.200  24.435  30.567  1.00  0.00     0.167 HD
ATOM     65  C   UNL A   1      44.104  26.877  32.845  1.00  0.00     0.074 A 
ATOM     66  C   UNL A   1      43.765  27.215  34.213  1.00  0.00     0.031 C 
ATOM     67  C   UNL A   1      44.723  25.795  32.290  1.00  0.00     0.037 A 
BRANCH  54  68
ATOM     68  C   UNL A   1      43.377  23.546  26.795  1.00  0.00     0.064 A 
ATOM     69  C   UNL A   1      43.009  22.189  26.900  1.00  0.00     0.173 A 
ATOM     70  C   UNL A   1      44.090  23.883  25.631  1.00  0.00     0.173 A 
ATOM     71  F   UNL A   1      42.242  21.746  27.903  1.00  0.00    -0.203 F 
ATOM     72  C   UNL A   1      43.433  21.228  25.979  1.00  0.00     0.198 A 
ATOM     73  C   UNL A   1      44.567  22.915  24.742  1.00  0.00     0.198 A 
ATOM     74  F   UNL A   1      44.316  25.165  25.306  1.00  0.00    -0.203 F 
ATOM     75  F   UNL A   1      43.061  19.949  26.134  1.00  0.00    -0.200 F 
ATOM     76  C   UNL A   1      44.249  21.584  24.925  1.00  0.00     0.200 A 
ATOM     77  F   UNL A   1      45.345  23.281  23.713  1.00  0.00    -0.200 F 
ATOM     78  F   UNL A   1      44.709  20.652  24.079  1.00  0.00    -0.200 F 
ENDBRANCH  54  68
BRANCH  55  79
ATOM     79  C   UNL A   1      40.876  30.352  33.029  1.00  0.00     0.064 A 
ATOM     80  C   UNL A   1      40.606  31.731  33.148  1.00  0.00     0.173 A 
ATOM     81  C   UNL A   1      39.801  29.469  33.182  1.00  0.00     0.173 A 
ATOM     82  F   UNL A   1      41.599  32.624  33.003  1.00  0.00    -0.203 F 
ATOM     83  C   UNL A   1      39.305  32.204  33.290  1.00  0.00     0.198 A 
ATOM     84  C   UNL A   1      38.502  29.947  33.353  1.00  0.00     0.198 A 
ATOM     85  F   UNL A   1      39.982  28.146  33.055  1.00  0.00    -0.203 F 
ATOM     86  F   UNL A   1      39.067  33.523  33.270  1.00  0.00    -0.200 F 
ATOM     87  C   UNL A   1      38.251  31.311  33.370  1.00  0.00     0.200 A 
ATOM     88  F   UNL A   1      37.479  29.082  33.399  1.00  0.00    -0.200 F 
ATOM     89  F   UNL A   1      36.990  31.760  33.415  1.00  0.00    -0.200 F 
ENDBRANCH  55  79
BRANCH  67  90
ATOM     90  C   UNL A   1      45.292  24.655  33.085  1.00  0.00     0.064 A 
ATOM     91  C   UNL A   1      44.537  23.523  33.428  1.00  0.00     0.173 A 
ATOM     92  C   UNL A   1      46.595  24.716  33.625  1.00  0.00     0.173 A 
ATOM     93  F   UNL A   1      43.261  23.403  33.033  1.00  0.00    -0.203 F 
ATOM     94  C   UNL A   1      45.071  22.493  34.207  1.00  0.00     0.198 A 
ATOM     95  C   UNL A   1      47.107  23.714  34.445  1.00  0.00     0.198 A 
ATOM     96  F   UNL A   1      47.419  25.739  33.353  1.00  0.00    -0.203 F 
ATOM     97  F   UNL A   1      44.335  21.403  34.460  1.00  0.00    -0.200 F 
ATOM     98  C   UNL A   1      46.351  22.593  34.722  1.00  0.00     0.200 A 
ATOM     99  F   UNL A   1      48.340  23.838  34.958  1.00  0.00    -0.200 F 
ATOM    100  F   UNL A   1      46.855  21.613  35.483  1.00  0.00    -0.200 F 
ENDBRANCH  67  90
ENDBRANCH  41  42
ENDBRANCH  33  36
ENDBRANCH  31  32
ENDBRANCH  30  31
ENDBRANCH   1  30
TORSDOF 15
ENDMDL
MODEL 3
REMARK VINA RESULT:     -14.2      1.644      2.794
REMARK SMILES Cc1cccc(-c2ccccc2C(=O)N2CC[C@H](O)C[C@@H]2C(=O)NCCCCNC(=O)c2ccc(-c3c4nc(c(-c5c(F)c(F)c(F)c(F)c5F)c5ccc([nH]5)c(-c5c(F)c(F)c(F)c(F)c5F)c5nc(c(-c6c(F)c(F)c(F)c(F)c6F)c6ccc3[nH]6)C=C5)C=C4)cc2)c1
REMARK SMILES IDX 26 1 25 2 24 3 22 4 23 5 21 7 15 8 16 9 17 10 20 11 18 12
REMARK SMILES IDX 13 13 14 14 12 15 7 16 8 17 9 18 11 19 10 20 6 21 1 22 2 23
REMARK SMILES IDX 3 24 95 25 4 26 5 27 19 28 27 30 28 31 29 32 30 33 31 35
REMARK SMILES IDX 32 36 33 37 94 38 34 39 93 40 35 41 36 42 37 43 87 44 38 45
REMARK SMILES IDX 92 46 86 47 88 48 39 49 91 50 85 51 84 52 40 54 72 55 52 56
REMARK SMILES IDX 71 57 53 58 56 59 70 60 89 61 54 62 55 63 69 65 90 66 57 67
REMARK SMILES IDX 41 68 42 69 50 70 43 71 44 72 48 73 51 74 45 75 46 76 49 77
REMARK SMILES IDX 47 78 73 79 74 80 82 81 75 82 76 83 80 84 83 85 77 86 78 87
REMARK SMILES IDX 81 88 79 89 58 90 59 91 67 92 60 93 61 94 65 95 68 96 62 97
REMARK SMILES IDX 63 98 66 99 64 100
REMARK H PARENT 24 6 19 29 29 34 88 53 56 64
REMARK Flexibility Score: inf
ROOT
ATOM      1  C   UNL A   1      36.924  20.874  25.219  1.00  0.00     0.023 C 
ENDROOT
BRANCH   1   2
ATOM      2  C   UNL A   1      35.391  20.829  25.128  1.00  0.00     0.116 C 
BRANCH   2   3
ATOM      3  N   UNL A   1      34.712  21.155  26.374  1.00  0.00    -0.354 N 
ATOM      4  C   UNL A   1      33.592  21.889  26.633  1.00  0.00     0.242 C 
ATOM      5  O   UNL A   1      33.260  21.986  27.821  1.00  0.00    -0.273 OA
ATOM      6  H   UNL A   1      35.140  20.777  27.177  1.00  0.00     0.163 HD
BRANCH   4   7
ATOM      7  C   UNL A   1      32.833  22.655  25.525  1.00  0.00     0.177 C 
ATOM      8  N   UNL A   1      33.032  24.104  25.707  1.00  0.00    -0.326 N 
ATOM      9  C   UNL A   1      32.284  24.739  26.794  1.00  0.00     0.123 C 
ATOM     10  C   UNL A   1      30.789  24.482  26.654  1.00  0.00     0.053 C 
ATOM     11  C   UNL A   1      31.337  22.293  25.482  1.00  0.00     0.067 C 
ATOM     12  C   UNL A   1      30.470  22.997  26.530  1.00  0.00     0.118 C 
BRANCH   8  13
ATOM     13  C   UNL A   1      33.936  24.738  24.855  1.00  0.00     0.255 C 
ATOM     14  O   UNL A   1      35.121  24.851  25.170  1.00  0.00    -0.269 OA
BRANCH  13  15
ATOM     15  C   UNL A   1      33.469  25.469  23.632  1.00  0.00     0.047 A 
ATOM     16  C   UNL A   1      32.793  26.707  23.743  1.00  0.00    -0.006 A 
ATOM     17  C   UNL A   1      32.076  27.176  22.621  1.00  0.00     0.009 A 
ATOM     18  C   UNL A   1      32.036  26.459  21.425  1.00  0.00     0.001 A 
ATOM     19  C   UNL A   1      33.432  24.765  22.409  1.00  0.00     0.014 A 
ATOM     20  C   UNL A   1      32.729  25.262  21.312  1.00  0.00     0.001 A 
BRANCH  16  21
ATOM     21  C   UNL A   1      32.789  27.537  24.962  1.00  0.00    -0.017 A 
ATOM     22  C   UNL A   1      35.284  29.383  27.191  1.00  0.00     0.044 C 
ATOM     23  C   UNL A   1      33.996  28.860  26.627  1.00  0.00    -0.051 A 
ATOM     24  C   UNL A   1      32.782  29.199  27.232  1.00  0.00     0.003 A 
ATOM     25  C   UNL A   1      33.990  28.030  25.496  1.00  0.00     0.012 A 
ATOM     26  C   UNL A   1      31.580  28.714  26.719  1.00  0.00     0.001 A 
ATOM     27  C   UNL A   1      31.584  27.891  25.591  1.00  0.00     0.009 A 
ENDBRANCH  16  21
ENDBRANCH  13  15
ENDBRANCH   8  13
BRANCH  12  28
ATOM     28  O   UNL A   1      30.540  22.379  27.812  1.00  0.00    -0.393 OA
ATOM     29  H   UNL A   1      29.939  22.834  28.423  1.00  0.00     0.210 HD
ENDBRANCH  12  28
ENDBRANCH   4   7
ENDBRANCH   2   3
ENDBRANCH   1   2
BRANCH   1  30
ATOM     30  C   UNL A   1      37.600  22.184  24.806  1.00  0.00     0.023 C 
BRANCH  30  31
ATOM     31  C   UNL A   1      38.113  23.001  25.982  1.00  0.00     0.116 C 
BRANCH  31  32
ATOM     32  N   UNL A   1      39.542  22.865  26.238  1.00  0.00    -0.352 N 
ATOM     33  C   UNL A   1      40.442  23.816  26.698  1.00  0.00     0.251 C 
ATOM     34  H   UNL A   1      39.921  21.974  26.061  1.00  0.00     0.163 HD
ATOM     35  O   UNL A   1      41.628  23.551  26.802  1.00  0.00    -0.269 OA
BRANCH  33  36
ATOM     36  C   UNL A   1      39.921  25.115  27.189  1.00  0.00     0.039 A 
ATOM     37  C   UNL A   1      40.255  26.268  26.469  1.00  0.00     0.014 A 
ATOM     38  C   UNL A   1      39.336  25.216  28.446  1.00  0.00     0.014 A 
ATOM     39  C   UNL A   1      40.254  27.500  27.122  1.00  0.00     0.010 A 
ATOM     40  C   UNL A   1      39.437  26.413  29.127  1.00  0.00     0.010 A 
ATOM     41  C   UNL A   1      39.971  27.537  28.487  1.00  0.00    -0.014 A 
BRANCH  41  42
ATOM     42  C   UNL A   1      40.351  28.647  29.354  1.00  0.00     0.031 A 
ATOM     43  C   UNL A   1      39.385  29.700  29.721  1.00  0.00     0.074 A 
ATOM     44  C   UNL A   1      41.573  28.642  29.933  1.00  0.00     0.049 A 
ATOM     45  N   UNL A   1      39.724  30.863  30.166  1.00  0.00    -0.248 NA
ATOM     46  C   UNL A   1      37.943  29.528  29.591  1.00  0.00     0.031 C 
ATOM     47  C   UNL A   1      42.037  29.466  31.047  1.00  0.00     0.029 A 
ATOM     48  N   UNL A   1      42.737  28.010  29.464  1.00  0.00    -0.354 N 
ATOM     49  C   UNL A   1      38.589  31.480  30.627  1.00  0.00     0.074 A 
ATOM     50  C   UNL A   1      37.498  30.631  30.201  1.00  0.00     0.031 C 
ATOM     51  C   UNL A   1      43.375  29.554  30.990  1.00  0.00     0.029 A 
ATOM     52  C   UNL A   1      43.790  28.914  29.755  1.00  0.00     0.049 A 
ATOM     53  H   UNL A   1      42.807  27.131  29.028  1.00  0.00     0.167 HD
ATOM     54  C   UNL A   1      38.694  32.582  31.423  1.00  0.00     0.037 A 
ATOM     55  C   UNL A   1      44.496  29.513  28.752  1.00  0.00     0.037 A 
ATOM     56  C   UNL A   1      40.081  32.998  31.615  1.00  0.00     0.049 A 
ATOM     57  C   UNL A   1      44.453  31.029  28.755  1.00  0.00     0.074 A 
ATOM     58  C   UNL A   1      41.013  32.844  32.629  1.00  0.00     0.029 A 
ATOM     59  N   UNL A   1      40.792  33.447  30.516  1.00  0.00    -0.354 N 
ATOM     60  N   UNL A   1      43.707  31.747  29.548  1.00  0.00    -0.248 NA
ATOM     61  C   UNL A   1      45.163  31.845  27.770  1.00  0.00     0.031 C 
ATOM     62  C   UNL A   1      42.289  33.230  32.128  1.00  0.00     0.029 A 
ATOM     63  C   UNL A   1      42.130  33.611  30.810  1.00  0.00     0.049 A 
ATOM     64  H   UNL A   1      40.392  33.627  29.635  1.00  0.00     0.167 HD
ATOM     65  C   UNL A   1      43.772  33.060  29.162  1.00  0.00     0.074 A 
ATOM     66  C   UNL A   1      44.693  33.073  28.043  1.00  0.00     0.031 C 
ATOM     67  C   UNL A   1      43.030  34.039  29.755  1.00  0.00     0.037 A 
BRANCH  54  68
ATOM     68  C   UNL A   1      37.532  33.130  32.209  1.00  0.00     0.064 A 
ATOM     69  C   UNL A   1      36.529  33.900  31.585  1.00  0.00     0.173 A 
ATOM     70  C   UNL A   1      37.384  32.968  33.598  1.00  0.00     0.173 A 
ATOM     71  F   UNL A   1      36.487  34.053  30.256  1.00  0.00    -0.203 F 
ATOM     72  C   UNL A   1      35.534  34.559  32.312  1.00  0.00     0.198 A 
ATOM     73  C   UNL A   1      36.428  33.675  34.332  1.00  0.00     0.198 A 
ATOM     74  F   UNL A   1      38.142  32.094  34.276  1.00  0.00    -0.203 F 
ATOM     75  F   UNL A   1      34.611  35.286  31.666  1.00  0.00    -0.200 F 
ATOM     76  C   UNL A   1      35.511  34.483  33.689  1.00  0.00     0.200 A 
ATOM     77  F   UNL A   1      36.408  33.576  35.669  1.00  0.00    -0.200 F 
ATOM     78  F   UNL A   1      34.596  35.167  34.390  1.00  0.00    -0.200 F 
ENDBRANCH  54  68
BRANCH  55  79
ATOM     79  C   UNL A   1      44.579  28.679  27.522  1.00  0.00     0.064 A 
ATOM     80  C   UNL A   1      45.401  27.533  27.529  1.00  0.00     0.173 A 
ATOM     81  C   UNL A   1      43.625  28.782  26.502  1.00  0.00     0.173 A 
ATOM     82  F   UNL A   1      46.328  27.379  28.488  1.00  0.00    -0.203 F 
ATOM     83  C   UNL A   1      45.194  26.488  26.634  1.00  0.00     0.198 A 
ATOM     84  C   UNL A   1      43.440  27.744  25.589  1.00  0.00     0.198 A 
ATOM     85  F   UNL A   1      42.794  29.832  26.451  1.00  0.00    -0.203 F 
ATOM     86  F   UNL A   1      45.906  25.358  26.749  1.00  0.00    -0.200 F 
ATOM     87  C   UNL A   1      44.197  26.586  25.678  1.00  0.00     0.200 A 
ATOM     88  F   UNL A   1      42.455  27.826  24.684  1.00  0.00    -0.200 F 
ATOM     89  F   UNL A   1      43.932  25.548  24.874  1.00  0.00    -0.200 F 
ENDBRANCH  55  79
BRANCH  67  90
ATOM     90  C   UNL A   1      43.082  35.486  29.359  1.00  0.00     0.064 A 
ATOM     91  C   UNL A   1      43.688  36.467  30.160  1.00  0.00     0.173 A 
ATOM     92  C   UNL A   1      42.422  35.954  28.202  1.00  0.00     0.173 A 
ATOM     93  F   UNL A   1      44.274  36.138  31.322  1.00  0.00    -0.203 F 
ATOM     94  C   UNL A   1      43.687  37.816  29.797  1.00  0.00     0.198 A 
ATOM     95  C   UNL A   1      42.376  37.306  27.869  1.00  0.00     0.198 A 
ATOM     96  F   UNL A   1      41.823  35.112  27.348  1.00  0.00    -0.203 F 
ATOM     97  F   UNL A   1      44.328  38.709  30.561  1.00  0.00    -0.200 F 
ATOM     98  C   UNL A   1      43.024  38.235  28.657  1.00  0.00     0.200 A 
ATOM     99  F   UNL A   1      41.707  37.699  26.775  1.00  0.00    -0.200 F 
ATOM    100  F   UNL A   1      43.009  39.531  28.319  1.00  0.00    -0.200 F 
ENDBRANCH  67  90
ENDBRANCH  41  42
ENDBRANCH  33  36
ENDBRANCH  31  32
ENDBRANCH  30  31
ENDBRANCH   1  30
TORSDOF 15
ENDMDL
