MODEL 1
REMARK VINA RESULT:     -12.5      0.000      0.000
REMARK SMILES CC1(C)[C@H](C(=O)NCCCCNC(=O)c2ccc(-c3c4nc(c(-c5c(F)c(F)c(F)c(F)c5F)c5ccc([nH]5)c(-c5c(F)c(F)c(F)c(F)c5F)c5nc(c(-c6c(F)c(F)c(F)c(F)c6F)c6ccc3[nH]6)C=C5)C=C4)cc2)[C@@H]1C(=O)Nc1ccon1
REMARK SMILES IDX 9 1 8 2 7 3 5 4 6 5 4 7 1 8 2 9 3 10 78 11 79 12 80 13 81 14
REMARK SMILES IDX 82 16 83 17 86 18 84 19 85 20 10 21 11 22 12 23 13 24 14 26
REMARK SMILES IDX 15 27 16 28 77 29 17 30 76 31 18 32 19 33 20 34 70 35 21 36
REMARK SMILES IDX 75 37 69 38 71 39 22 40 74 41 68 42 67 43 23 45 55 46 35 47
REMARK SMILES IDX 54 48 36 49 39 50 53 51 72 52 37 53 38 54 52 56 73 57 40 58
REMARK SMILES IDX 24 59 25 60 33 61 26 62 27 63 31 64 34 65 28 66 29 67 32 68
REMARK SMILES IDX 30 69 56 70 57 71 65 72 58 73 59 74 63 75 66 76 60 77 61 78
REMARK SMILES IDX 64 79 62 80 41 81 42 82 50 83 43 84 44 85 48 86 51 87 45 88
REMARK SMILES IDX 46 89 49 90 47 91
REMARK H PARENT 7 6 81 15 12 25 71 44 39 55
REMARK Flexibility Score: inf
ROOT
ATOM      1  C   UNL A   1      32.361  30.072  26.882  1.00  0.00     0.023 C 
ENDROOT
BRANCH   1   2
ATOM      2  C   UNL A   1      33.475  29.726  25.900  1.00  0.00     0.116 C 
BRANCH   2   3
ATOM      3  N   UNL A   1      32.996  29.697  24.537  1.00  0.00    -0.356 N 
ATOM      4  C   UNL A   1      32.048  28.987  23.862  1.00  0.00     0.224 C 
ATOM      5  O   UNL A   1      31.959  29.238  22.659  1.00  0.00    -0.275 OA
ATOM      6  H   UNL A   1      33.464  30.342  23.959  1.00  0.00     0.163 HD
BRANCH   4   7
ATOM      7  C   UNL A   1      31.077  27.997  24.398  1.00  0.00     0.098 C 
ATOM      8  C   UNL A   1      29.049  26.518  23.853  1.00  0.00     0.013 C 
ATOM      9  C   UNL A   1      30.550  26.724  23.772  1.00  0.00    -0.011 C 
ATOM     10  C   UNL A   1      31.108  26.230  22.462  1.00  0.00     0.013 C 
ATOM     11  C   UNL A   1      31.328  26.701  25.112  1.00  0.00     0.098 C 
BRANCH  11  12
ATOM     12  C   UNL A   1      32.626  26.023  25.298  1.00  0.00     0.230 C 
ATOM     13  O   UNL A   1      33.657  26.595  24.952  1.00  0.00    -0.274 OA
ATOM     14  N   UNL A   1      32.704  24.769  25.836  1.00  0.00    -0.308 N 
ATOM     15  H   UNL A   1      33.623  24.444  25.975  1.00  0.00     0.171 HD
BRANCH  14  16
ATOM     16  C   UNL A   1      31.728  23.882  26.219  1.00  0.00     0.175 A 
ATOM     17  C   UNL A   1      31.204  22.748  25.564  1.00  0.00     0.092 A 
ATOM     18  N   UNL A   1      31.134  24.055  27.407  1.00  0.00    -0.062 NA
ATOM     19  C   UNL A   1      30.195  22.312  26.383  1.00  0.00     0.233 A 
ATOM     20  O   UNL A   1      30.149  23.090  27.489  1.00  0.00    -0.363 OA
ENDBRANCH  14  16
ENDBRANCH  11  12
ENDBRANCH   4   7
ENDBRANCH   2   3
ENDBRANCH   1   2
BRANCH   1  21
ATOM     21  C   UNL A   1      31.979  31.550  26.900  1.00  0.00     0.023 C 
BRANCH  21  22
ATOM     22  C   UNL A   1      33.036  32.483  27.482  1.00  0.00     0.116 C 
BRANCH  22  23
ATOM     23  N   UNL A   1      32.560  33.848  27.671  1.00  0.00    -0.352 N 
ATOM     24  C   UNL A   1      33.019  34.812  28.537  1.00  0.00     0.251 C 
ATOM     25  H   UNL A   1      31.806  34.117  27.097  1.00  0.00     0.163 HD
ATOM     26  O   UNL A   1      32.437  35.884  28.656  1.00  0.00    -0.269 OA
BRANCH  24  27
ATOM     27  C   UNL A   1      34.206  34.517  29.359  1.00  0.00     0.039 A 
ATOM     28  C   UNL A   1      34.025  34.059  30.666  1.00  0.00     0.014 A 
ATOM     29  C   UNL A   1      35.483  34.607  28.800  1.00  0.00     0.014 A 
ATOM     30  C   UNL A   1      35.125  33.587  31.383  1.00  0.00     0.010 A 
ATOM     31  C   UNL A   1      36.566  34.078  29.491  1.00  0.00     0.010 A 
ATOM     32  C   UNL A   1      36.391  33.541  30.777  1.00  0.00    -0.014 A 
BRANCH  32  33
ATOM     33  C   UNL A   1      37.543  32.884  31.441  1.00  0.00     0.031 A 
ATOM     34  C   UNL A   1      38.202  31.699  30.801  1.00  0.00     0.074 A 
ATOM     35  C   UNL A   1      37.917  33.291  32.669  1.00  0.00     0.049 A 
ATOM     36  N   UNL A   1      39.128  30.909  31.282  1.00  0.00    -0.248 NA
ATOM     37  C   UNL A   1      37.742  31.340  29.451  1.00  0.00     0.031 C 
ATOM     38  C   UNL A   1      37.318  34.402  33.412  1.00  0.00     0.029 A 
ATOM     39  N   UNL A   1      38.875  32.801  33.521  1.00  0.00    -0.354 N 
ATOM     40  C   UNL A   1      39.347  29.950  30.304  1.00  0.00     0.074 A 
ATOM     41  C   UNL A   1      38.430  30.231  29.220  1.00  0.00     0.031 C 
ATOM     42  C   UNL A   1      37.931  34.516  34.601  1.00  0.00     0.029 A 
ATOM     43  C   UNL A   1      38.932  33.463  34.723  1.00  0.00     0.049 A 
ATOM     44  H   UNL A   1      39.465  32.047  33.292  1.00  0.00     0.167 HD
ATOM     45  C   UNL A   1      40.247  28.939  30.304  1.00  0.00     0.037 A 
ATOM     46  C   UNL A   1      39.693  33.232  35.810  1.00  0.00     0.037 A 
ATOM     47  C   UNL A   1      41.174  28.681  31.373  1.00  0.00     0.049 A 
ATOM     48  C   UNL A   1      40.665  32.085  35.795  1.00  0.00     0.074 A 
ATOM     49  C   UNL A   1      42.182  27.735  31.431  1.00  0.00     0.029 A 
ATOM     50  N   UNL A   1      41.202  29.372  32.575  1.00  0.00    -0.354 N 
ATOM     51  N   UNL A   1      40.913  31.225  34.837  1.00  0.00    -0.248 NA
ATOM     52  C   UNL A   1      41.457  31.872  37.014  1.00  0.00     0.031 C 
ATOM     53  C   UNL A   1      42.793  27.825  32.687  1.00  0.00     0.029 A 
ATOM     54  C   UNL A   1      42.191  28.852  33.395  1.00  0.00     0.049 A 
ATOM     55  H   UNL A   1      40.609  30.121  32.811  1.00  0.00     0.167 HD
ATOM     56  C   UNL A   1      41.898  30.380  35.329  1.00  0.00     0.074 A 
ATOM     57  C   UNL A   1      42.213  30.839  36.666  1.00  0.00     0.031 C 
ATOM     58  C   UNL A   1      42.485  29.319  34.726  1.00  0.00     0.037 A 
BRANCH  45  59
ATOM     59  C   UNL A   1      40.272  28.037  29.107  1.00  0.00     0.064 A 
ATOM     60  C   UNL A   1      39.537  26.843  29.074  1.00  0.00     0.173 A 
ATOM     61  C   UNL A   1      41.014  28.385  27.969  1.00  0.00     0.173 A 
ATOM     62  F   UNL A   1      38.822  26.460  30.143  1.00  0.00    -0.203 F 
ATOM     63  C   UNL A   1      39.566  26.015  27.955  1.00  0.00     0.198 A 
ATOM     64  C   UNL A   1      41.020  27.568  26.841  1.00  0.00     0.198 A 
ATOM     65  F   UNL A   1      41.731  29.519  27.949  1.00  0.00    -0.203 F 
ATOM     66  F   UNL A   1      38.893  24.857  27.962  1.00  0.00    -0.200 F 
ATOM     67  C   UNL A   1      40.302  26.382  26.837  1.00  0.00     0.200 A 
ATOM     68  F   UNL A   1      41.723  27.928  25.759  1.00  0.00    -0.200 F 
ATOM     69  F   UNL A   1      40.326  25.587  25.759  1.00  0.00    -0.200 F 
ENDBRANCH  45  59
BRANCH  46  70
ATOM     70  C   UNL A   1      39.569  34.111  37.000  1.00  0.00     0.064 A 
ATOM     71  C   UNL A   1      38.781  33.728  38.093  1.00  0.00     0.173 A 
ATOM     72  C   UNL A   1      40.238  35.341  37.074  1.00  0.00     0.173 A 
ATOM     73  F   UNL A   1      38.105  32.570  38.057  1.00  0.00    -0.203 F 
ATOM     74  C   UNL A   1      38.657  34.547  39.213  1.00  0.00     0.198 A 
ATOM     75  C   UNL A   1      40.133  36.149  38.205  1.00  0.00     0.198 A 
ATOM     76  F   UNL A   1      41.007  35.750  36.054  1.00  0.00    -0.203 F 
ATOM     77  F   UNL A   1      37.871  34.173  40.231  1.00  0.00    -0.200 F 
ATOM     78  C   UNL A   1      39.338  35.754  39.271  1.00  0.00     0.200 A 
ATOM     79  F   UNL A   1      40.801  37.309  38.261  1.00  0.00    -0.200 F 
ATOM     80  F   UNL A   1      39.224  36.539  40.350  1.00  0.00    -0.200 F 
ENDBRANCH  46  70
BRANCH  58  81
ATOM     81  C   UNL A   1      43.535  28.584  35.504  1.00  0.00     0.064 A 
ATOM     82  C   UNL A   1      43.196  27.548  36.386  1.00  0.00     0.173 A 
ATOM     83  C   UNL A   1      44.894  28.882  35.325  1.00  0.00     0.173 A 
ATOM     84  F   UNL A   1      41.909  27.241  36.603  1.00  0.00    -0.203 F 
ATOM     85  C   UNL A   1      44.182  26.844  37.071  1.00  0.00     0.198 A 
ATOM     86  C   UNL A   1      45.877  28.159  35.994  1.00  0.00     0.198 A 
ATOM     87  F   UNL A   1      45.267  29.862  34.489  1.00  0.00    -0.203 F 
ATOM     88  F   UNL A   1      43.837  25.880  37.935  1.00  0.00    -0.200 F 
ATOM     89  C   UNL A   1      45.521  27.145  36.868  1.00  0.00     0.200 A 
ATOM     90  F   UNL A   1      47.171  28.444  35.790  1.00  0.00    -0.200 F 
ATOM     91  F   UNL A   1      46.470  26.458  37.521  1.00  0.00    -0.200 F 
ENDBRANCH  58  81
ENDBRANCH  32  33
ENDBRANCH  24  27
ENDBRANCH  22  23
ENDBRANCH  21  22
ENDBRANCH   1  21
TORSDOF 13
ENDMDL
MODEL 2
REMARK VINA RESULT:     -12.5      0.160      1.990
REMARK SMILES CC1(C)[C@H](C(=O)NCCCCNC(=O)c2ccc(-c3c4nc(c(-c5c(F)c(F)c(F)c(F)c5F)c5ccc([nH]5)c(-c5c(F)c(F)c(F)c(F)c5F)c5nc(c(-c6c(F)c(F)c(F)c(F)c6F)c6ccc3[nH]6)C=C5)C=C4)cc2)[C@@H]1C(=O)Nc1ccon1
REMARK SMILES IDX 9 1 8 2 7 3 5 4 6 5 4 7 1 8 2 9 3 10 78 11 79 12 80 13 81 14
REMARK SMILES IDX 82 16 83 17 86 18 84 19 85 20 10 21 11 22 12 23 13 24 14 26
REMARK SMILES IDX 15 27 16 28 77 29 17 30 76 31 18 32 19 33 20 34 70 35 21 36
REMARK SMILES IDX 75 37 69 38 71 39 22 40 74 41 68 42 67 43 23 45 55 46 35 47
REMARK SMILES IDX 54 48 36 49 39 50 53 51 72 52 37 53 38 54 52 56 73 57 40 58
REMARK SMILES IDX 24 59 25 60 33 61 26 62 27 63 31 64 34 65 28 66 29 67 32 68
REMARK SMILES IDX 30 69 56 70 57 71 65 72 58 73 59 74 63 75 66 76 60 77 61 78
REMARK SMILES IDX 64 79 62 80 41 81 42 82 50 83 43 84 44 85 48 86 51 87 45 88
REMARK SMILES IDX 46 89 49 90 47 91
REMARK H PARENT 7 6 81 15 12 25 71 44 39 55
REMARK Flexibility Score: inf
ROOT
ATOM      1  C   UNL A   1      32.535  30.042  26.999  1.00  0.00     0.023 C 
ENDROOT
BRANCH   1   2
ATOM      2  C   UNL A   1      33.556  29.578  25.965  1.00  0.00     0.116 C 
BRANCH   2   3
ATOM      3  N   UNL A   1      33.027  29.652  24.622  1.00  0.00    -0.356 N 
ATOM      4  C   UNL A   1      32.041  29.009  23.936  1.00  0.00     0.224 C 
ATOM      5  O   UNL A   1      31.913  29.345  22.757  1.00  0.00    -0.275 OA
ATOM      6  H   UNL A   1      33.487  30.327  24.073  1.00  0.00     0.163 HD
BRANCH   4   7
ATOM      7  C   UNL A   1      31.069  28.002  24.438  1.00  0.00     0.098 C 
ATOM      8  C   UNL A   1      29.021  26.566  23.853  1.00  0.00     0.013 C 
ATOM      9  C   UNL A   1      30.523  26.764  23.760  1.00  0.00    -0.011 C 
ATOM     10  C   UNL A   1      31.058  26.329  22.420  1.00  0.00     0.013 C 
ATOM     11  C   UNL A   1      31.320  26.671  25.086  1.00  0.00     0.098 C 
BRANCH  11  12
ATOM     12  C   UNL A   1      32.615  25.975  25.220  1.00  0.00     0.230 C 
ATOM     13  O   UNL A   1      33.638  26.532  24.830  1.00  0.00    -0.274 OA
ATOM     14  N   UNL A   1      32.698  24.721  25.758  1.00  0.00    -0.308 N 
ATOM     15  H   UNL A   1      33.618  24.384  25.860  1.00  0.00     0.171 HD
BRANCH  14  16
ATOM     16  C   UNL A   1      31.726  23.849  26.184  1.00  0.00     0.175 A 
ATOM     17  C   UNL A   1      31.002  22.862  25.483  1.00  0.00     0.092 A 
ATOM     18  N   UNL A   1      31.358  23.877  27.471  1.00  0.00    -0.062 NA
ATOM     19  C   UNL A   1      30.111  22.371  26.402  1.00  0.00     0.233 A 
ATOM     20  O   UNL A   1      30.320  22.974  27.594  1.00  0.00    -0.363 OA
ENDBRANCH  14  16
ENDBRANCH  11  12
ENDBRANCH   4   7
ENDBRANCH   2   3
ENDBRANCH   1   2
BRANCH   1  21
ATOM     21  C   UNL A   1      32.150  31.515  26.881  1.00  0.00     0.023 C 
BRANCH  21  22
ATOM     22  C   UNL A   1      33.212  32.501  27.361  1.00  0.00     0.116 C 
BRANCH  22  23
ATOM     23  N   UNL A   1      32.686  33.836  27.615  1.00  0.00    -0.352 N 
ATOM     24  C   UNL A   1      33.088  34.759  28.552  1.00  0.00     0.251 C 
ATOM     25  H   UNL A   1      31.940  34.115  27.036  1.00  0.00     0.163 HD
ATOM     26  O   UNL A   1      32.467  35.803  28.717  1.00  0.00    -0.269 OA
BRANCH  24  27
ATOM     27  C   UNL A   1      34.259  34.452  29.391  1.00  0.00     0.039 A 
ATOM     28  C   UNL A   1      34.059  33.851  30.636  1.00  0.00     0.014 A 
ATOM     29  C   UNL A   1      35.548  34.676  28.900  1.00  0.00     0.014 A 
ATOM     30  C   UNL A   1      35.160  33.374  31.348  1.00  0.00     0.010 A 
ATOM     31  C   UNL A   1      36.636  34.143  29.580  1.00  0.00     0.010 A 
ATOM     32  C   UNL A   1      36.448  33.467  30.796  1.00  0.00    -0.014 A 
BRANCH  32  33
ATOM     33  C   UNL A   1      37.614  32.814  31.440  1.00  0.00     0.031 A 
ATOM     34  C   UNL A   1      38.264  31.630  30.791  1.00  0.00     0.074 A 
ATOM     35  C   UNL A   1      38.010  33.225  32.660  1.00  0.00     0.049 A 
ATOM     36  N   UNL A   1      39.200  30.843  31.256  1.00  0.00    -0.248 NA
ATOM     37  C   UNL A   1      37.779  31.265  29.451  1.00  0.00     0.031 C 
ATOM     38  C   UNL A   1      37.423  34.337  33.412  1.00  0.00     0.029 A 
ATOM     39  N   UNL A   1      38.986  32.740  33.495  1.00  0.00    -0.354 N 
ATOM     40  C   UNL A   1      39.404  29.882  30.276  1.00  0.00     0.074 A 
ATOM     41  C   UNL A   1      38.465  30.157  29.209  1.00  0.00     0.031 C 
ATOM     42  C   UNL A   1      38.057  34.456  34.589  1.00  0.00     0.029 A 
ATOM     43  C   UNL A   1      39.064  33.406  34.694  1.00  0.00     0.049 A 
ATOM     44  H   UNL A   1      39.573  31.987  33.257  1.00  0.00     0.167 HD
ATOM     45  C   UNL A   1      40.306  28.873  30.263  1.00  0.00     0.037 A 
ATOM     46  C   UNL A   1      39.846  33.179  35.767  1.00  0.00     0.037 A 
ATOM     47  C   UNL A   1      41.254  28.620  31.314  1.00  0.00     0.049 A 
ATOM     48  C   UNL A   1      40.821  32.034  35.736  1.00  0.00     0.074 A 
ATOM     49  C   UNL A   1      42.265  27.677  31.356  1.00  0.00     0.029 A 
ATOM     50  N   UNL A   1      41.303  29.314  32.514  1.00  0.00    -0.354 N 
ATOM     51  N   UNL A   1      41.052  31.173  34.776  1.00  0.00    -0.248 NA
ATOM     52  C   UNL A   1      41.636  31.827  36.940  1.00  0.00     0.031 C 
ATOM     53  C   UNL A   1      42.899  27.772  32.600  1.00  0.00     0.029 A 
ATOM     54  C   UNL A   1      42.308  28.799  33.316  1.00  0.00     0.049 A 
ATOM     55  H   UNL A   1      40.712  30.063  32.759  1.00  0.00     0.167 HD
ATOM     56  C   UNL A   1      42.048  30.332  35.251  1.00  0.00     0.074 A 
ATOM     57  C   UNL A   1      42.387  30.795  36.581  1.00  0.00     0.031 C 
ATOM     58  C   UNL A   1      42.627  29.270  34.640  1.00  0.00     0.037 A 
BRANCH  45  59
ATOM     59  C   UNL A   1      40.310  27.968  29.067  1.00  0.00     0.064 A 
ATOM     60  C   UNL A   1      41.059  28.274  27.921  1.00  0.00     0.173 A 
ATOM     61  C   UNL A   1      39.584  26.768  29.079  1.00  0.00     0.173 A 
ATOM     62  F   UNL A   1      41.760  29.416  27.856  1.00  0.00    -0.203 F 
ATOM     63  C   UNL A   1      41.057  27.425  26.818  1.00  0.00     0.198 A 
ATOM     64  C   UNL A   1      39.606  25.909  27.984  1.00  0.00     0.198 A 
ATOM     65  F   UNL A   1      38.856  26.429  30.153  1.00  0.00    -0.203 F 
ATOM     66  F   UNL A   1      41.743  27.758  25.715  1.00  0.00    -0.200 F 
ATOM     67  C   UNL A   1      40.336  26.240  26.853  1.00  0.00     0.200 A 
ATOM     68  F   UNL A   1      38.917  24.761  28.022  1.00  0.00    -0.200 F 
ATOM     69  F   UNL A   1      40.339  25.421  25.792  1.00  0.00    -0.200 F 
ENDBRANCH  45  59
BRANCH  46  70
ATOM     70  C   UNL A   1      39.743  34.061  36.956  1.00  0.00     0.064 A 
ATOM     71  C   UNL A   1      40.442  35.274  37.009  1.00  0.00     0.173 A 
ATOM     72  C   UNL A   1      38.943  33.718  38.055  1.00  0.00     0.173 A 
ATOM     73  F   UNL A   1      41.237  35.633  35.991  1.00  0.00    -0.203 F 
ATOM     74  C   UNL A   1      40.352  36.108  38.122  1.00  0.00     0.198 A 
ATOM     75  C   UNL A   1      38.835  34.563  39.158  1.00  0.00     0.198 A 
ATOM     76  F   UNL A   1      38.253  32.568  38.050  1.00  0.00    -0.203 F 
ATOM     77  F   UNL A   1      41.057  37.246  38.163  1.00  0.00    -0.200 F 
ATOM     78  C   UNL A   1      39.545  35.754  39.193  1.00  0.00     0.200 A 
ATOM     79  F   UNL A   1      38.046  34.223  40.186  1.00  0.00    -0.200 F 
ATOM     80  F   UNL A   1      39.454  36.558  40.261  1.00  0.00    -0.200 F 
ENDBRANCH  46  70
BRANCH  58  81
ATOM     81  C   UNL A   1      43.693  28.540  35.400  1.00  0.00     0.064 A 
ATOM     82  C   UNL A   1      45.047  28.874  35.255  1.00  0.00     0.173 A 
ATOM     83  C   UNL A   1      43.354  27.535  36.317  1.00  0.00     0.173 A 
ATOM     84  F   UNL A   1      45.420  29.816  34.376  1.00  0.00    -0.203 F 
ATOM     85  C   UNL A   1      46.026  28.219  35.997  1.00  0.00     0.198 A 
ATOM     86  C   UNL A   1      44.334  26.899  37.074  1.00  0.00     0.198 A 
ATOM     87  F   UNL A   1      42.072  27.183  36.492  1.00  0.00    -0.203 F 
ATOM     88  F   UNL A   1      47.318  28.530  35.821  1.00  0.00    -0.200 F 
ATOM     89  C   UNL A   1      45.668  27.238  36.911  1.00  0.00     0.200 A 
ATOM     90  F   UNL A   1      43.986  25.958  37.963  1.00  0.00    -0.200 F 
ATOM     91  F   UNL A   1      46.612  26.615  37.631  1.00  0.00    -0.200 F 
ENDBRANCH  58  81
ENDBRANCH  32  33
ENDBRANCH  24  27
ENDBRANCH  22  23
ENDBRANCH  21  22
ENDBRANCH   1  21
TORSDOF 13
ENDMDL
MODEL 3
REMARK VINA RESULT:     -12.4      0.553      7.538
REMARK SMILES CC1(C)[C@H](C(=O)NCCCCNC(=O)c2ccc(-c3c4nc(c(-c5c(F)c(F)c(F)c(F)c5F)c5ccc([nH]5)c(-c5c(F)c(F)c(F)c(F)c5F)c5nc(c(-c6c(F)c(F)c(F)c(F)c6F)c6ccc3[nH]6)C=C5)C=C4)cc2)[C@@H]1C(=O)Nc1ccon1
REMARK SMILES IDX 9 1 8 2 7 3 5 4 6 5 4 7 1 8 2 9 3 10 78 11 79 12 80 13 81 14
REMARK SMILES IDX 82 16 83 17 86 18 84 19 85 20 10 21 11 22 12 23 13 24 14 26
REMARK SMILES IDX 15 27 16 28 77 29 17 30 76 31 18 32 19 33 20 34 70 35 21 36
REMARK SMILES IDX 75 37 69 38 71 39 22 40 74 41 68 42 67 43 23 45 55 46 35 47
REMARK SMILES IDX 54 48 36 49 39 50 53 51 72 52 37 53 38 54 52 56 73 57 40 58
REMARK SMILES IDX 24 59 25 60 33 61 26 62 27 63 31 64 34 65 28 66 29 67 32 68
REMARK SMILES IDX 30 69 56 70 57 71 65 72 58 73 59 74 63 75 66 76 60 77 61 78
REMARK SMILES IDX 64 79 62 80 41 81 42 82 50 83 43 84 44 85 48 86 51 87 45 88
REMARK SMILES IDX 46 89 49 90 47 91
REMARK H PARENT 7 6 81 15 12 25 71 44 39 55
REMARK Flexibility Score: inf
ROOT
ATOM      1  C   UNL A   1      31.994  30.410  26.878  1.00  0.00     0.023 C 
ENDROOT
BRANCH   1   2
ATOM      2  C   UNL A   1      33.182  29.940  26.044  1.00  0.00     0.116 C 
BRANCH   2   3
ATOM      3  N   UNL A   1      32.832  29.800  24.649  1.00  0.00    -0.356 N 
ATOM      4  C   UNL A   1      31.998  28.989  23.940  1.00  0.00     0.224 C 
ATOM      5  O   UNL A   1      32.003  29.164  22.720  1.00  0.00    -0.275 OA
ATOM      6  H   UNL A   1      33.309  30.441  24.075  1.00  0.00     0.163 HD
BRANCH   4   7
ATOM      7  C   UNL A   1      31.046  27.966  24.450  1.00  0.00     0.098 C 
ATOM      8  C   UNL A   1      29.122  26.378  23.837  1.00  0.00     0.013 C 
ATOM      9  C   UNL A   1      30.614  26.654  23.831  1.00  0.00    -0.011 C 
ATOM     10  C   UNL A   1      31.266  26.156  22.566  1.00  0.00     0.013 C 
ATOM     11  C   UNL A   1      31.318  26.701  25.211  1.00  0.00     0.098 C 
BRANCH  11  12
ATOM     12  C   UNL A   1      32.636  26.092  25.484  1.00  0.00     0.230 C 
ATOM     13  O   UNL A   1      33.655  26.733  25.242  1.00  0.00    -0.274 OA
ATOM     14  N   UNL A   1      32.743  24.826  25.989  1.00  0.00    -0.308 N 
ATOM     15  H   UNL A   1      33.666  24.549  26.194  1.00  0.00     0.171 HD
BRANCH  14  16
ATOM     16  C   UNL A   1      31.793  23.873  26.263  1.00  0.00     0.175 A 
ATOM     17  C   UNL A   1      31.121  22.971  25.413  1.00  0.00     0.092 A 
ATOM     18  N   UNL A   1      31.395  23.710  27.531  1.00  0.00    -0.062 NA
ATOM     19  C   UNL A   1      30.226  22.328  26.230  1.00  0.00     0.233 A 
ATOM     20  O   UNL A   1      30.387  22.766  27.499  1.00  0.00    -0.363 OA
ENDBRANCH  14  16
ENDBRANCH  11  12
ENDBRANCH   4   7
ENDBRANCH   2   3
ENDBRANCH   1   2
BRANCH   1  21
ATOM     21  C   UNL A   1      31.755  31.917  26.832  1.00  0.00     0.023 C 
BRANCH  21  22
ATOM     22  C   UNL A   1      32.913  32.771  27.339  1.00  0.00     0.116 C 
BRANCH  22  23
ATOM     23  N   UNL A   1      32.527  34.143  27.647  1.00  0.00    -0.352 N 
ATOM     24  C   UNL A   1      33.022  34.983  28.616  1.00  0.00     0.251 C 
ATOM     25  H   UNL A   1      31.814  34.519  27.083  1.00  0.00     0.163 HD
ATOM     26  O   UNL A   1      32.512  36.078  28.825  1.00  0.00    -0.269 OA
BRANCH  24  27
ATOM     27  C   UNL A   1      34.157  34.525  29.437  1.00  0.00     0.039 A 
ATOM     28  C   UNL A   1      33.900  33.949  30.683  1.00  0.00     0.014 A 
ATOM     29  C   UNL A   1      35.456  34.585  28.928  1.00  0.00     0.014 A 
ATOM     30  C   UNL A   1      34.940  33.332  31.378  1.00  0.00     0.010 A 
ATOM     31  C   UNL A   1      36.477  33.914  29.591  1.00  0.00     0.010 A 
ATOM     32  C   UNL A   1      36.222  33.262  30.808  1.00  0.00    -0.014 A 
BRANCH  32  33
ATOM     33  C   UNL A   1      37.304  32.463  31.432  1.00  0.00     0.031 A 
ATOM     34  C   UNL A   1      37.825  32.835  32.787  1.00  0.00     0.074 A 
ATOM     35  C   UNL A   1      37.884  31.473  30.727  1.00  0.00     0.049 A 
ATOM     36  N   UNL A   1      38.850  32.348  33.440  1.00  0.00    -0.248 NA
ATOM     37  C   UNL A   1      37.118  33.915  33.491  1.00  0.00     0.031 C 
ATOM     38  C   UNL A   1      37.494  31.050  29.380  1.00  0.00     0.029 A 
ATOM     39  N   UNL A   1      38.944  30.657  31.035  1.00  0.00    -0.354 N 
ATOM     40  C   UNL A   1      38.920  33.074  34.621  1.00  0.00     0.074 A 
ATOM     41  C   UNL A   1      37.863  34.061  34.577  1.00  0.00     0.031 C 
ATOM     42  C   UNL A   1      38.293  30.047  28.984  1.00  0.00     0.029 A 
ATOM     43  C   UNL A   1      39.278  29.785  30.028  1.00  0.00     0.049 A 
ATOM     44  H   UNL A   1      39.419  30.692  31.897  1.00  0.00     0.167 HD
ATOM     45  C   UNL A   1      39.780  32.916  35.655  1.00  0.00     0.037 A 
ATOM     46  C   UNL A   1      40.280  28.889  29.947  1.00  0.00     0.037 A 
ATOM     47  C   UNL A   1      40.811  31.915  35.704  1.00  0.00     0.049 A 
ATOM     48  C   UNL A   1      41.237  28.752  31.099  1.00  0.00     0.074 A 
ATOM     49  C   UNL A   1      41.677  31.619  36.742  1.00  0.00     0.029 A 
ATOM     50  N   UNL A   1      41.120  31.051  34.665  1.00  0.00    -0.354 N 
ATOM     51  N   UNL A   1      41.253  29.397  32.240  1.00  0.00    -0.248 NA
ATOM     52  C   UNL A   1      42.319  27.770  30.948  1.00  0.00     0.031 C 
ATOM     53  C   UNL A   1      42.538  30.602  36.316  1.00  0.00     0.029 A 
ATOM     54  C   UNL A   1      42.185  30.240  35.026  1.00  0.00     0.049 A 
ATOM     55  H   UNL A   1      40.653  31.017  33.799  1.00  0.00     0.167 HD
ATOM     56  C   UNL A   1      42.332  28.890  32.949  1.00  0.00     0.074 A 
ATOM     57  C   UNL A   1      42.940  27.873  32.115  1.00  0.00     0.031 C 
ATOM     58  C   UNL A   1      42.780  29.238  34.179  1.00  0.00     0.037 A 
BRANCH  45  59
ATOM     59  C   UNL A   1      39.634  33.847  36.821  1.00  0.00     0.064 A 
ATOM     60  C   UNL A   1      38.867  33.500  37.943  1.00  0.00     0.173 A 
ATOM     61  C   UNL A   1      40.292  35.085  36.830  1.00  0.00     0.173 A 
ATOM     62  F   UNL A   1      38.208  32.333  37.977  1.00  0.00    -0.203 F 
ATOM     63  C   UNL A   1      38.742  34.373  39.021  1.00  0.00     0.198 A 
ATOM     64  C   UNL A   1      40.186  35.944  37.921  1.00  0.00     0.198 A 
ATOM     65  F   UNL A   1      41.041  35.461  35.782  1.00  0.00    -0.203 F 
ATOM     66  F   UNL A   1      37.967  34.041  40.064  1.00  0.00    -0.200 F 
ATOM     67  C   UNL A   1      39.407  35.590  39.012  1.00  0.00     0.200 A 
ATOM     68  F   UNL A   1      40.836  37.115  37.915  1.00  0.00    -0.200 F 
ATOM     69  F   UNL A   1      39.289  36.427  40.052  1.00  0.00    -0.200 F 
ENDBRANCH  45  59
BRANCH  46  70
ATOM     70  C   UNL A   1      40.423  28.047  28.733  1.00  0.00     0.064 A 
ATOM     71  C   UNL A   1      41.189  28.486  27.645  1.00  0.00     0.173 A 
ATOM     72  C   UNL A   1      39.809  26.791  28.636  1.00  0.00     0.173 A 
ATOM     73  F   UNL A   1      41.778  29.690  27.683  1.00  0.00    -0.203 F 
ATOM     74  C   UNL A   1      41.328  27.703  26.501  1.00  0.00     0.198 A 
ATOM     75  C   UNL A   1      39.967  25.998  27.501  1.00  0.00     0.198 A 
ATOM     76  F   UNL A   1      39.067  26.326  29.653  1.00  0.00    -0.203 F 
ATOM     77  F   UNL A   1      42.039  28.159  25.461  1.00  0.00    -0.200 F 
ATOM     78  C   UNL A   1      40.722  26.458  26.432  1.00  0.00     0.200 A 
ATOM     79  F   UNL A   1      39.388  24.791  27.443  1.00  0.00    -0.200 F 
ATOM     80  F   UNL A   1      40.859  25.702  25.334  1.00  0.00    -0.200 F 
ENDBRANCH  46  70
BRANCH  58  81
ATOM     81  C   UNL A   1      43.980  28.509  34.703  1.00  0.00     0.064 A 
ATOM     82  C   UNL A   1      45.274  29.021  34.534  1.00  0.00     0.173 A 
ATOM     83  C   UNL A   1      43.830  27.317  35.426  1.00  0.00     0.173 A 
ATOM     84  F   UNL A   1      45.468  30.148  33.833  1.00  0.00    -0.203 F 
ATOM     85  C   UNL A   1      46.378  28.358  35.061  1.00  0.00     0.198 A 
ATOM     86  C   UNL A   1      44.935  26.669  35.973  1.00  0.00     0.198 A 
ATOM     87  F   UNL A   1      42.612  26.790  35.617  1.00  0.00    -0.203 F 
ATOM     88  F   UNL A   1      47.610  28.846  34.860  1.00  0.00    -0.200 F 
ATOM     89  C   UNL A   1      46.207  27.188  35.787  1.00  0.00     0.200 A 
ATOM     90  F   UNL A   1      44.767  25.544  36.681  1.00  0.00    -0.200 F 
ATOM     91  F   UNL A   1      47.271  26.556  36.303  1.00  0.00    -0.200 F 
ENDBRANCH  58  81
ENDBRANCH  32  33
ENDBRANCH  24  27
ENDBRANCH  22  23
ENDBRANCH  21  22
ENDBRANCH   1  21
TORSDOF 13
ENDMDL
