MODEL 1
REMARK VINA RESULT:     -12.9      0.000      0.000
REMARK SMILES CC[NH+]1CC[NH+]([C@@H]2CC(=O)N(c3ccc(C(=O)NCCCCNC(=O)c4ccc(-c5c6nc(c(-c7c(F)c(F)c(F)c(F)c7F)c7ccc([nH]7)c(-c7c(F)c(F)c(F)c(F)c7F)c7nc(c(-c8c(F)c(F)c(F)c(F)c8F)c8ccc5[nH]8)C=C7)C=C6)cc4)cc3)C2=O)CC1
REMARK SMILES IDX 20 1 19 2 18 3 16 4 17 5 15 7 12 8 13 9 90 10 14 11 89 12
REMARK SMILES IDX 11 13 7 14 8 15 91 16 9 17 92 18 10 19 6 20 3 21 4 22 94 23
REMARK SMILES IDX 5 25 93 26 2 28 1 29 21 30 22 31 23 32 24 33 25 35 26 36
REMARK SMILES IDX 27 37 88 38 28 39 87 40 29 41 30 42 31 43 81 44 32 45 86 46
REMARK SMILES IDX 80 47 82 48 33 49 85 50 79 51 78 52 34 54 66 55 46 56 65 57
REMARK SMILES IDX 47 58 50 59 64 60 83 61 48 62 49 63 63 65 84 66 51 67 35 68
REMARK SMILES IDX 36 69 44 70 37 71 38 72 42 73 45 74 39 75 40 76 43 77 41 78
REMARK SMILES IDX 67 79 68 80 76 81 69 82 70 83 74 84 77 85 71 86 72 87 75 88
REMARK SMILES IDX 73 89 52 90 53 91 61 92 54 93 55 94 59 95 62 96 56 97 57 98
REMARK SMILES IDX 60 99 58 100
REMARK H PARENT 18 6 3 24 6 27 23 34 82 53 50 64
REMARK Flexibility Score: inf
ROOT
ATOM      1  C   UNL A   1      37.317  21.333  24.748  1.00  0.00     0.023 C 
ENDROOT
BRANCH   1   2
ATOM      2  C   UNL A   1      36.088  21.445  25.656  1.00  0.00     0.116 C 
BRANCH   2   3
ATOM      3  N   UNL A   1      35.001  20.631  25.151  1.00  0.00    -0.352 N 
ATOM      4  C   UNL A   1      33.745  20.953  24.701  1.00  0.00     0.251 C 
ATOM      5  O   UNL A   1      33.040  20.028  24.292  1.00  0.00    -0.269 OA
ATOM      6  H   UNL A   1      35.202  19.666  25.126  1.00  0.00     0.163 HD
BRANCH   4   7
ATOM      7  C   UNL A   1      33.213  22.348  24.651  1.00  0.00     0.039 A 
ATOM      8  C   UNL A   1      32.255  24.988  24.391  1.00  0.00     0.052 A 
ATOM      9  C   UNL A   1      32.645  24.267  23.258  1.00  0.00     0.027 A 
ATOM     10  C   UNL A   1      32.320  24.382  25.641  1.00  0.00     0.027 A 
ATOM     11  C   UNL A   1      33.150  22.968  23.394  1.00  0.00     0.016 A 
ATOM     12  C   UNL A   1      32.742  23.059  25.755  1.00  0.00     0.016 A 
BRANCH   8  13
ATOM     13  N   UNL A   1      31.763  26.297  24.290  1.00  0.00    -0.245 N 
ATOM     14  C   UNL A   1      30.291  28.098  23.995  1.00  0.00     0.285 C 
ATOM     15  C   UNL A   1      31.676  28.630  24.342  1.00  0.00     0.176 C 
ATOM     16  C   UNL A   1      30.435  26.585  24.101  1.00  0.00     0.292 C 
ATOM     17  C   UNL A   1      32.532  27.413  24.490  1.00  0.00     0.240 C 
ATOM     18  O   UNL A   1      29.506  25.788  24.052  1.00  0.00    -0.267 OA
ATOM     19  O   UNL A   1      33.730  27.470  24.735  1.00  0.00    -0.274 OA
BRANCH  14  20
ATOM     20  N   UNL A   1      29.651  28.473  22.723  1.00  0.00    -0.315 N 
ATOM     21  N   UNL A   1      28.182  31.086  22.386  1.00  0.00    -0.326 N 
ATOM     22  C   UNL A   1      27.571  29.924  23.068  1.00  0.00     0.324 C 
ATOM     23  C   UNL A   1      29.654  30.990  22.434  1.00  0.00     0.324 C 
ATOM     24  H   UNL A   1      27.910  31.933  22.883  1.00  0.00     0.348 HD
ATOM     25  C   UNL A   1      28.185  28.538  22.753  1.00  0.00     0.325 C 
ATOM     26  C   UNL A   1      30.216  29.622  22.004  1.00  0.00     0.325 C 
ATOM     27  H   UNL A   1      29.905  27.660  22.161  1.00  0.00     0.349 HD
BRANCH  21  28
ATOM     28  C   UNL A   1      27.678  31.230  21.013  1.00  0.00     0.259 C 
ATOM     29  C   UNL A   1      28.023  32.599  20.433  1.00  0.00     0.071 C 
ENDBRANCH  21  28
ENDBRANCH  14  20
ENDBRANCH   8  13
ENDBRANCH   4   7
ENDBRANCH   2   3
ENDBRANCH   1   2
BRANCH   1  30
ATOM     30  C   UNL A   1      38.159  20.080  24.984  1.00  0.00     0.023 C 
BRANCH  30  31
ATOM     31  C   UNL A   1      39.327  20.279  25.939  1.00  0.00     0.116 C 
BRANCH  31  32
ATOM     32  N   UNL A   1      40.261  19.164  25.949  1.00  0.00    -0.352 N 
ATOM     33  C   UNL A   1      41.625  19.203  26.127  1.00  0.00     0.251 C 
ATOM     34  H   UNL A   1      39.869  18.272  25.811  1.00  0.00     0.163 HD
ATOM     35  O   UNL A   1      42.302  18.193  26.011  1.00  0.00    -0.269 OA
BRANCH  33  36
ATOM     36  C   UNL A   1      42.263  20.503  26.413  1.00  0.00     0.039 A 
ATOM     37  C   UNL A   1      42.772  21.247  25.347  1.00  0.00     0.014 A 
ATOM     38  C   UNL A   1      42.305  21.005  27.716  1.00  0.00     0.014 A 
ATOM     39  C   UNL A   1      43.265  22.531  25.581  1.00  0.00     0.010 A 
ATOM     40  C   UNL A   1      42.730  22.309  27.936  1.00  0.00     0.010 A 
ATOM     41  C   UNL A   1      43.213  23.084  26.870  1.00  0.00    -0.014 A 
BRANCH  41  42
ATOM     42  C   UNL A   1      43.658  24.475  27.126  1.00  0.00     0.031 A 
ATOM     43  C   UNL A   1      42.679  25.493  27.636  1.00  0.00     0.074 A 
ATOM     44  C   UNL A   1      44.924  24.831  26.834  1.00  0.00     0.049 A 
ATOM     45  N   UNL A   1      42.854  26.771  27.853  1.00  0.00    -0.248 NA
ATOM     46  C   UNL A   1      41.315  25.017  27.912  1.00  0.00     0.031 C 
ATOM     47  C   UNL A   1      45.949  23.943  26.285  1.00  0.00     0.029 A 
ATOM     48  N   UNL A   1      45.560  26.042  26.948  1.00  0.00    -0.354 N 
ATOM     49  C   UNL A   1      41.623  27.252  28.277  1.00  0.00     0.074 A 
ATOM     50  C   UNL A   1      40.696  26.143  28.237  1.00  0.00     0.031 C 
ATOM     51  C   UNL A   1      47.090  24.633  26.127  1.00  0.00     0.029 A 
ATOM     52  C   UNL A   1      46.869  26.017  26.532  1.00  0.00     0.049 A 
ATOM     53  H   UNL A   1      45.120  26.852  27.296  1.00  0.00     0.167 HD
ATOM     54  C   UNL A   1      41.302  28.502  28.687  1.00  0.00     0.037 A 
ATOM     55  C   UNL A   1      47.782  27.005  26.479  1.00  0.00     0.037 A 
ATOM     56  C   UNL A   1      42.234  29.596  28.752  1.00  0.00     0.049 A 
ATOM     57  C   UNL A   1      47.400  28.382  26.947  1.00  0.00     0.074 A 
ATOM     58  C   UNL A   1      42.022  30.885  29.207  1.00  0.00     0.029 A 
ATOM     59  N   UNL A   1      43.560  29.526  28.351  1.00  0.00    -0.354 N 
ATOM     60  N   UNL A   1      46.251  28.810  27.411  1.00  0.00    -0.248 NA
ATOM     61  C   UNL A   1      48.444  29.415  26.890  1.00  0.00     0.031 C 
ATOM     62  C   UNL A   1      43.209  31.607  29.048  1.00  0.00     0.029 A 
ATOM     63  C   UNL A   1      44.174  30.755  28.534  1.00  0.00     0.049 A 
ATOM     64  H   UNL A   1      44.000  28.722  27.990  1.00  0.00     0.167 HD
ATOM     65  C   UNL A   1      46.441  30.148  27.729  1.00  0.00     0.074 A 
ATOM     66  C   UNL A   1      47.821  30.458  27.418  1.00  0.00     0.031 C 
ATOM     67  C   UNL A   1      45.552  31.039  28.231  1.00  0.00     0.037 A 
BRANCH  54  68
ATOM     68  C   UNL A   1      39.884  28.751  29.108  1.00  0.00     0.064 A 
ATOM     69  C   UNL A   1      38.915  29.195  28.195  1.00  0.00     0.173 A 
ATOM     70  C   UNL A   1      39.478  28.504  30.428  1.00  0.00     0.173 A 
ATOM     71  F   UNL A   1      39.256  29.457  26.924  1.00  0.00    -0.203 F 
ATOM     72  C   UNL A   1      37.598  29.404  28.593  1.00  0.00     0.198 A 
ATOM     73  C   UNL A   1      38.154  28.689  30.816  1.00  0.00     0.198 A 
ATOM     74  F   UNL A   1      40.363  28.076  31.339  1.00  0.00    -0.203 F 
ATOM     75  F   UNL A   1      36.700  29.870  27.713  1.00  0.00    -0.200 F 
ATOM     76  C   UNL A   1      37.216  29.144  29.900  1.00  0.00     0.200 A 
ATOM     77  F   UNL A   1      37.783  28.426  32.077  1.00  0.00    -0.200 F 
ATOM     78  F   UNL A   1      35.946  29.338  30.280  1.00  0.00    -0.200 F 
ENDBRANCH  54  68
BRANCH  55  79
ATOM     79  C   UNL A   1      49.157  26.724  25.989  1.00  0.00     0.064 A 
ATOM     80  C   UNL A   1      50.142  26.230  26.854  1.00  0.00     0.173 A 
ATOM     81  C   UNL A   1      49.518  26.956  24.653  1.00  0.00     0.173 A 
ATOM     82  F   UNL A   1      49.849  26.011  28.144  1.00  0.00    -0.203 F 
ATOM     83  C   UNL A   1      51.442  26.003  26.411  1.00  0.00     0.198 A 
ATOM     84  C   UNL A   1      50.812  26.703  24.204  1.00  0.00     0.198 A 
ATOM     85  F   UNL A   1      48.610  27.423  23.784  1.00  0.00    -0.203 F 
ATOM     86  F   UNL A   1      52.377  25.578  27.271  1.00  0.00    -0.200 F 
ATOM     87  C   UNL A   1      51.776  26.235  25.085  1.00  0.00     0.200 A 
ATOM     88  F   UNL A   1      51.127  26.916  22.919  1.00  0.00    -0.200 F 
ATOM     89  F   UNL A   1      53.027  26.018  24.658  1.00  0.00    -0.200 F 
ENDBRANCH  55  79
BRANCH  67  90
ATOM     90  C   UNL A   1      46.055  32.425  28.512  1.00  0.00     0.064 A 
ATOM     91  C   UNL A   1      46.590  32.773  29.760  1.00  0.00     0.173 A 
ATOM     92  C   UNL A   1      46.038  33.402  27.505  1.00  0.00     0.173 A 
ATOM     93  F   UNL A   1      46.614  31.878  30.759  1.00  0.00    -0.203 F 
ATOM     94  C   UNL A   1      47.068  34.059  29.998  1.00  0.00     0.198 A 
ATOM     95  C   UNL A   1      46.544  34.678  27.738  1.00  0.00     0.198 A 
ATOM     96  F   UNL A   1      45.542  33.115  26.292  1.00  0.00    -0.203 F 
ATOM     97  F   UNL A   1      47.534  34.384  31.211  1.00  0.00    -0.200 F 
ATOM     98  C   UNL A   1      47.052  35.007  28.985  1.00  0.00     0.200 A 
ATOM     99  F   UNL A   1      46.538  35.589  26.755  1.00  0.00    -0.200 F 
ATOM    100  F   UNL A   1      47.519  36.242  29.214  1.00  0.00    -0.200 F 
ENDBRANCH  67  90
ENDBRANCH  41  42
ENDBRANCH  33  36
ENDBRANCH  31  32
ENDBRANCH  30  31
ENDBRANCH   1  30
TORSDOF 14
ENDMDL
MODEL 2
REMARK VINA RESULT:     -12.9      0.637      7.225
REMARK SMILES CC[NH+]1CC[NH+]([C@@H]2CC(=O)N(c3ccc(C(=O)NCCCCNC(=O)c4ccc(-c5c6nc(c(-c7c(F)c(F)c(F)c(F)c7F)c7ccc([nH]7)c(-c7c(F)c(F)c(F)c(F)c7F)c7nc(c(-c8c(F)c(F)c(F)c(F)c8F)c8ccc5[nH]8)C=C7)C=C6)cc4)cc3)C2=O)CC1
REMARK SMILES IDX 20 1 19 2 18 3 16 4 17 5 15 7 12 8 13 9 90 10 14 11 89 12
REMARK SMILES IDX 11 13 7 14 8 15 91 16 9 17 92 18 10 19 6 20 3 21 4 22 94 23
REMARK SMILES IDX 5 25 93 26 2 28 1 29 21 30 22 31 23 32 24 33 25 35 26 36
REMARK SMILES IDX 27 37 88 38 28 39 87 40 29 41 30 42 31 43 81 44 32 45 86 46
REMARK SMILES IDX 80 47 82 48 33 49 85 50 79 51 78 52 34 54 66 55 46 56 65 57
REMARK SMILES IDX 47 58 50 59 64 60 83 61 48 62 49 63 63 65 84 66 51 67 35 68
REMARK SMILES IDX 36 69 44 70 37 71 38 72 42 73 45 74 39 75 40 76 43 77 41 78
REMARK SMILES IDX 67 79 68 80 76 81 69 82 70 83 74 84 77 85 71 86 72 87 75 88
REMARK SMILES IDX 73 89 52 90 53 91 61 92 54 93 55 94 59 95 62 96 56 97 57 98
REMARK SMILES IDX 60 99 58 100
REMARK H PARENT 18 6 3 24 6 27 23 34 82 53 50 64
REMARK Flexibility Score: inf
ROOT
ATOM      1  C   UNL A   1      37.024  21.131  24.762  1.00  0.00     0.023 C 
ENDROOT
BRANCH   1   2
ATOM      2  C   UNL A   1      35.811  21.063  25.696  1.00  0.00     0.116 C 
BRANCH   2   3
ATOM      3  N   UNL A   1      34.743  20.290  25.096  1.00  0.00    -0.352 N 
ATOM      4  C   UNL A   1      33.521  20.652  24.588  1.00  0.00     0.251 C 
ATOM      5  O   UNL A   1      32.827  19.758  24.101  1.00  0.00    -0.269 OA
ATOM      6  H   UNL A   1      34.930  19.324  25.042  1.00  0.00     0.163 HD
BRANCH   4   7
ATOM      7  C   UNL A   1      33.014  22.057  24.566  1.00  0.00     0.039 A 
ATOM      8  C   UNL A   1      32.112  24.721  24.361  1.00  0.00     0.052 A 
ATOM      9  C   UNL A   1      32.544  24.037  23.221  1.00  0.00     0.027 A 
ATOM     10  C   UNL A   1      32.107  24.069  25.589  1.00  0.00     0.027 A 
ATOM     11  C   UNL A   1      33.021  22.725  23.332  1.00  0.00     0.016 A 
ATOM     12  C   UNL A   1      32.502  22.736  25.673  1.00  0.00     0.016 A 
BRANCH   8  13
ATOM     13  N   UNL A   1      31.646  26.043  24.286  1.00  0.00    -0.245 N 
ATOM     14  C   UNL A   1      30.210  27.878  24.027  1.00  0.00     0.285 C 
ATOM     15  C   UNL A   1      31.606  28.375  24.386  1.00  0.00     0.176 C 
ATOM     16  C   UNL A   1      30.324  26.360  24.103  1.00  0.00     0.292 C 
ATOM     17  C   UNL A   1      32.437  27.138  24.509  1.00  0.00     0.240 C 
ATOM     18  O   UNL A   1      29.379  25.584  24.036  1.00  0.00    -0.267 OA
ATOM     19  O   UNL A   1      33.636  27.167  24.756  1.00  0.00    -0.274 OA
BRANCH  14  20
ATOM     20  N   UNL A   1      29.580  28.291  22.762  1.00  0.00    -0.315 N 
ATOM     21  N   UNL A   1      28.302  31.003  22.431  1.00  0.00    -0.326 N 
ATOM     22  C   UNL A   1      27.618  29.894  23.130  1.00  0.00     0.324 C 
ATOM     23  C   UNL A   1      29.762  30.800  22.456  1.00  0.00     0.324 C 
ATOM     24  H   UNL A   1      28.100  31.871  22.926  1.00  0.00     0.348 HD
ATOM     25  C   UNL A   1      28.123  28.464  22.815  1.00  0.00     0.325 C 
ATOM     26  C   UNL A   1      30.216  29.391  22.027  1.00  0.00     0.325 C 
ATOM     27  H   UNL A   1      29.765  27.459  22.202  1.00  0.00     0.349 HD
BRANCH  21  28
ATOM     28  C   UNL A   1      27.787  31.177  21.064  1.00  0.00     0.259 C 
ATOM     29  C   UNL A   1      27.938  32.619  20.590  1.00  0.00     0.071 C 
ENDBRANCH  21  28
ENDBRANCH  14  20
ENDBRANCH   8  13
ENDBRANCH   4   7
ENDBRANCH   2   3
ENDBRANCH   1   2
BRANCH   1  30
ATOM     30  C   UNL A   1      38.013  19.979  24.934  1.00  0.00     0.023 C 
BRANCH  30  31
ATOM     31  C   UNL A   1      39.184  20.289  25.855  1.00  0.00     0.116 C 
BRANCH  31  32
ATOM     32  N   UNL A   1      40.176  19.226  25.905  1.00  0.00    -0.352 N 
ATOM     33  C   UNL A   1      41.529  19.341  26.129  1.00  0.00     0.251 C 
ATOM     34  H   UNL A   1      39.838  18.314  25.759  1.00  0.00     0.163 HD
ATOM     35  O   UNL A   1      42.264  18.369  26.043  1.00  0.00    -0.269 OA
BRANCH  33  36
ATOM     36  C   UNL A   1      42.085  20.676  26.428  1.00  0.00     0.039 A 
ATOM     37  C   UNL A   1      42.365  21.537  25.365  1.00  0.00     0.014 A 
ATOM     38  C   UNL A   1      42.273  21.089  27.749  1.00  0.00     0.014 A 
ATOM     39  C   UNL A   1      42.771  22.844  25.632  1.00  0.00     0.010 A 
ATOM     40  C   UNL A   1      42.609  22.411  28.013  1.00  0.00     0.010 A 
ATOM     41  C   UNL A   1      42.860  23.301  26.957  1.00  0.00    -0.014 A 
BRANCH  41  42
ATOM     42  C   UNL A   1      43.214  24.708  27.260  1.00  0.00     0.031 A 
ATOM     43  C   UNL A   1      44.616  25.194  27.031  1.00  0.00     0.074 A 
ATOM     44  C   UNL A   1      42.289  25.523  27.804  1.00  0.00     0.049 A 
ATOM     45  N   UNL A   1      45.140  26.363  27.299  1.00  0.00    -0.248 NA
ATOM     46  C   UNL A   1      45.563  24.230  26.448  1.00  0.00     0.031 C 
ATOM     47  C   UNL A   1      40.911  25.147  28.120  1.00  0.00     0.029 A 
ATOM     48  N   UNL A   1      42.376  26.834  28.198  1.00  0.00    -0.354 N 
ATOM     49  C   UNL A   1      46.475  26.269  26.932  1.00  0.00     0.074 A 
ATOM     50  C   UNL A   1      46.696  24.916  26.471  1.00  0.00     0.031 C 
ATOM     51  C   UNL A   1      40.275  26.209  28.643  1.00  0.00     0.029 A 
ATOM     52  C   UNL A   1      41.208  27.328  28.728  1.00  0.00     0.049 A 
ATOM     53  H   UNL A   1      43.197  27.372  28.109  1.00  0.00     0.167 HD
ATOM     54  C   UNL A   1      47.425  27.233  26.953  1.00  0.00     0.037 A 
ATOM     55  C   UNL A   1      40.928  28.545  29.230  1.00  0.00     0.037 A 
ATOM     56  C   UNL A   1      47.194  28.587  27.386  1.00  0.00     0.049 A 
ATOM     57  C   UNL A   1      42.001  29.600  29.236  1.00  0.00     0.074 A 
ATOM     58  C   UNL A   1      48.076  29.653  27.392  1.00  0.00     0.029 A 
ATOM     59  N   UNL A   1      45.990  29.058  27.887  1.00  0.00    -0.354 N 
ATOM     60  N   UNL A   1      43.242  29.521  28.822  1.00  0.00    -0.248 NA
ATOM     61  C   UNL A   1      41.632  30.917  29.773  1.00  0.00     0.031 C 
ATOM     62  C   UNL A   1      47.416  30.762  27.932  1.00  0.00     0.029 A 
ATOM     63  C   UNL A   1      46.110  30.398  28.221  1.00  0.00     0.049 A 
ATOM     64  H   UNL A   1      45.172  28.521  27.992  1.00  0.00     0.167 HD
ATOM     65  C   UNL A   1      43.792  30.779  29.019  1.00  0.00     0.074 A 
ATOM     66  C   UNL A   1      42.745  31.609  29.578  1.00  0.00     0.031 C 
ATOM     67  C   UNL A   1      45.052  31.209  28.763  1.00  0.00     0.037 A 
BRANCH  54  68
ATOM     68  C   UNL A   1      48.801  26.863  26.485  1.00  0.00     0.064 A 
ATOM     69  C   UNL A   1      49.759  26.339  27.366  1.00  0.00     0.173 A 
ATOM     70  C   UNL A   1      49.153  26.992  25.133  1.00  0.00     0.173 A 
ATOM     71  F   UNL A   1      49.475  26.208  28.671  1.00  0.00    -0.203 F 
ATOM     72  C   UNL A   1      51.026  25.981  26.916  1.00  0.00     0.198 A 
ATOM     73  C   UNL A   1      50.413  26.607  24.681  1.00  0.00     0.198 A 
ATOM     74  F   UNL A   1      48.274  27.484  24.248  1.00  0.00    -0.203 F 
ATOM     75  F   UNL A   1      51.940  25.524  27.785  1.00  0.00    -0.200 F 
ATOM     76  C   UNL A   1      51.351  26.108  25.574  1.00  0.00     0.200 A 
ATOM     77  F   UNL A   1      50.721  26.719  23.382  1.00  0.00    -0.200 F 
ATOM     78  F   UNL A   1      52.568  25.754  25.141  1.00  0.00    -0.200 F 
ENDBRANCH  54  68
BRANCH  55  79
ATOM     79  C   UNL A   1      39.567  28.844  29.747  1.00  0.00     0.064 A 
ATOM     80  C   UNL A   1      38.584  29.389  28.910  1.00  0.00     0.173 A 
ATOM     81  C   UNL A   1      39.226  28.606  31.087  1.00  0.00     0.173 A 
ATOM     82  F   UNL A   1      38.871  29.651  27.626  1.00  0.00    -0.203 F 
ATOM     83  C   UNL A   1      37.320  29.709  29.397  1.00  0.00     0.198 A 
ATOM     84  C   UNL A   1      37.952  28.901  31.567  1.00  0.00     0.198 A 
ATOM     85  F   UNL A   1      40.129  28.081  31.926  1.00  0.00    -0.203 F 
ATOM     86  F   UNL A   1      36.415  30.275  28.587  1.00  0.00    -0.200 F 
ATOM     87  C   UNL A   1      37.002  29.461  30.724  1.00  0.00     0.200 A 
ATOM     88  F   UNL A   1      37.645  28.649  32.846  1.00  0.00    -0.200 F 
ATOM     89  F   UNL A   1      35.786  29.770  31.194  1.00  0.00    -0.200 F 
ENDBRANCH  55  79
BRANCH  67  90
ATOM     90  C   UNL A   1      45.356  32.650  29.048  1.00  0.00     0.064 A 
ATOM     91  C   UNL A   1      45.859  33.063  30.290  1.00  0.00     0.173 A 
ATOM     92  C   UNL A   1      45.180  33.622  28.052  1.00  0.00     0.173 A 
ATOM     93  F   UNL A   1      46.031  32.174  31.279  1.00  0.00    -0.203 F 
ATOM     94  C   UNL A   1      46.153  34.403  30.531  1.00  0.00     0.198 A 
ATOM     95  C   UNL A   1      45.501  34.956  28.288  1.00  0.00     0.198 A 
ATOM     96  F   UNL A   1      44.706  33.276  26.845  1.00  0.00    -0.203 F 
ATOM     97  F   UNL A   1      46.591  34.783  31.739  1.00  0.00    -0.200 F 
ATOM     98  C   UNL A   1      45.981  35.345  29.529  1.00  0.00     0.200 A 
ATOM     99  F   UNL A   1      45.346  35.863  27.314  1.00  0.00    -0.200 F 
ATOM    100  F   UNL A   1      46.271  36.633  29.761  1.00  0.00    -0.200 F 
ENDBRANCH  67  90
ENDBRANCH  41  42
ENDBRANCH  33  36
ENDBRANCH  31  32
ENDBRANCH  30  31
ENDBRANCH   1  30
TORSDOF 14
ENDMDL
MODEL 3
REMARK VINA RESULT:     -12.8      1.547      2.670
REMARK SMILES CC[NH+]1CC[NH+]([C@@H]2CC(=O)N(c3ccc(C(=O)NCCCCNC(=O)c4ccc(-c5c6nc(c(-c7c(F)c(F)c(F)c(F)c7F)c7ccc([nH]7)c(-c7c(F)c(F)c(F)c(F)c7F)c7nc(c(-c8c(F)c(F)c(F)c(F)c8F)c8ccc5[nH]8)C=C7)C=C6)cc4)cc3)C2=O)CC1
REMARK SMILES IDX 20 1 19 2 18 3 16 4 17 5 15 7 12 8 13 9 90 10 14 11 89 12
REMARK SMILES IDX 11 13 7 14 8 15 91 16 9 17 92 18 10 19 6 20 3 21 4 22 94 23
REMARK SMILES IDX 5 25 93 26 2 28 1 29 21 30 22 31 23 32 24 33 25 35 26 36
REMARK SMILES IDX 27 37 88 38 28 39 87 40 29 41 30 42 31 43 81 44 32 45 86 46
REMARK SMILES IDX 80 47 82 48 33 49 85 50 79 51 78 52 34 54 66 55 46 56 65 57
REMARK SMILES IDX 47 58 50 59 64 60 83 61 48 62 49 63 63 65 84 66 51 67 35 68
REMARK SMILES IDX 36 69 44 70 37 71 38 72 42 73 45 74 39 75 40 76 43 77 41 78
REMARK SMILES IDX 67 79 68 80 76 81 69 82 70 83 74 84 77 85 71 86 72 87 75 88
REMARK SMILES IDX 73 89 52 90 53 91 61 92 54 93 55 94 59 95 62 96 56 97 57 98
REMARK SMILES IDX 60 99 58 100
REMARK H PARENT 18 6 3 24 6 27 23 34 82 53 50 64
REMARK Flexibility Score: inf
ROOT
ATOM      1  C   UNL A   1      37.066  19.458  24.987  1.00  0.00     0.023 C 
ENDROOT
BRANCH   1   2
ATOM      2  C   UNL A   1      35.904  20.442  25.157  1.00  0.00     0.116 C 
BRANCH   2   3
ATOM      3  N   UNL A   1      34.645  19.735  25.280  1.00  0.00    -0.352 N 
ATOM      4  C   UNL A   1      33.348  20.176  25.358  1.00  0.00     0.251 C 
ATOM      5  O   UNL A   1      32.466  19.319  25.423  1.00  0.00    -0.269 OA
ATOM      6  H   UNL A   1      34.739  18.755  25.315  1.00  0.00     0.163 HD
BRANCH   4   7
ATOM      7  C   UNL A   1      32.959  21.618  25.332  1.00  0.00     0.039 A 
ATOM      8  C   UNL A   1      32.158  24.315  25.125  1.00  0.00     0.052 A 
ATOM      9  C   UNL A   1      31.739  23.383  24.171  1.00  0.00     0.027 A 
ATOM     10  C   UNL A   1      32.951  23.894  26.188  1.00  0.00     0.027 A 
ATOM     11  C   UNL A   1      32.164  22.051  24.259  1.00  0.00     0.016 A 
ATOM     12  C   UNL A   1      33.297  22.551  26.313  1.00  0.00     0.016 A 
BRANCH   8  13
ATOM     13  N   UNL A   1      31.765  25.659  25.054  1.00  0.00    -0.245 N 
ATOM     14  C   UNL A   1      31.703  27.924  24.450  1.00  0.00     0.285 C 
ATOM     15  C   UNL A   1      30.535  27.617  25.381  1.00  0.00     0.176 C 
ATOM     16  C   UNL A   1      32.359  26.569  24.217  1.00  0.00     0.292 C 
ATOM     17  C   UNL A   1      30.679  26.167  25.716  1.00  0.00     0.240 C 
ATOM     18  O   UNL A   1      33.244  26.352  23.398  1.00  0.00    -0.267 OA
ATOM     19  O   UNL A   1      29.922  25.585  26.482  1.00  0.00    -0.274 OA
BRANCH  14  20
ATOM     20  N   UNL A   1      32.706  28.932  24.829  1.00  0.00    -0.315 N 
ATOM     21  N   UNL A   1      33.045  29.849  27.682  1.00  0.00    -0.326 N 
ATOM     22  C   UNL A   1      31.954  30.354  26.821  1.00  0.00     0.324 C 
ATOM     23  C   UNL A   1      33.513  28.537  27.198  1.00  0.00     0.324 C 
ATOM     24  H   UNL A   1      32.680  29.719  28.625  1.00  0.00     0.348 HD
ATOM     25  C   UNL A   1      32.162  30.215  25.292  1.00  0.00     0.325 C 
ATOM     26  C   UNL A   1      33.811  28.486  25.687  1.00  0.00     0.325 C 
ATOM     27  H   UNL A   1      33.131  29.097  23.916  1.00  0.00     0.349 HD
BRANCH  21  28
ATOM     28  C   UNL A   1      34.139  30.825  27.792  1.00  0.00     0.259 C 
ATOM     29  C   UNL A   1      33.608  32.253  27.868  1.00  0.00     0.071 C 
ENDBRANCH  21  28
ENDBRANCH  14  20
ENDBRANCH   8  13
ENDBRANCH   4   7
ENDBRANCH   2   3
ENDBRANCH   1   2
BRANCH   1  30
ATOM     30  C   UNL A   1      38.409  20.120  24.684  1.00  0.00     0.023 C 
BRANCH  30  31
ATOM     31  C   UNL A   1      39.370  20.157  25.863  1.00  0.00     0.116 C 
BRANCH  31  32
ATOM     32  N   UNL A   1      40.299  19.038  25.887  1.00  0.00    -0.352 N 
ATOM     33  C   UNL A   1      41.659  19.070  26.091  1.00  0.00     0.251 C 
ATOM     34  H   UNL A   1      39.906  18.149  25.739  1.00  0.00     0.163 HD
ATOM     35  O   UNL A   1      42.334  18.058  25.984  1.00  0.00    -0.269 OA
BRANCH  33  36
ATOM     36  C   UNL A   1      42.298  20.367  26.393  1.00  0.00     0.039 A 
ATOM     37  C   UNL A   1      42.798  21.128  25.336  1.00  0.00     0.014 A 
ATOM     38  C   UNL A   1      42.348  20.847  27.704  1.00  0.00     0.014 A 
ATOM     39  C   UNL A   1      43.290  22.409  25.587  1.00  0.00     0.010 A 
ATOM     40  C   UNL A   1      42.774  22.148  27.942  1.00  0.00     0.010 A 
ATOM     41  C   UNL A   1      43.247  22.941  26.886  1.00  0.00    -0.014 A 
BRANCH  41  42
ATOM     42  C   UNL A   1      43.693  24.328  27.161  1.00  0.00     0.031 A 
ATOM     43  C   UNL A   1      42.711  25.343  27.674  1.00  0.00     0.074 A 
ATOM     44  C   UNL A   1      44.961  24.686  26.884  1.00  0.00     0.049 A 
ATOM     45  N   UNL A   1      42.886  26.618  27.907  1.00  0.00    -0.248 NA
ATOM     46  C   UNL A   1      41.343  24.866  27.933  1.00  0.00     0.031 C 
ATOM     47  C   UNL A   1      45.989  23.802  26.334  1.00  0.00     0.029 A 
ATOM     48  N   UNL A   1      45.598  25.894  27.017  1.00  0.00    -0.354 N 
ATOM     49  C   UNL A   1      41.652  27.096  28.325  1.00  0.00     0.074 A 
ATOM     50  C   UNL A   1      40.724  25.989  28.265  1.00  0.00     0.031 C 
ATOM     51  C   UNL A   1      47.133  24.491  26.193  1.00  0.00     0.029 A 
ATOM     52  C   UNL A   1      46.911  25.872  26.612  1.00  0.00     0.049 A 
ATOM     53  H   UNL A   1      45.156  26.701  27.370  1.00  0.00     0.167 HD
ATOM     54  C   UNL A   1      41.329  28.342  28.746  1.00  0.00     0.037 A 
ATOM     55  C   UNL A   1      47.826  26.858  26.578  1.00  0.00     0.037 A 
ATOM     56  C   UNL A   1      42.263  29.433  28.832  1.00  0.00     0.049 A 
ATOM     57  C   UNL A   1      47.442  28.231  27.058  1.00  0.00     0.074 A 
ATOM     58  C   UNL A   1      42.048  30.718  29.300  1.00  0.00     0.029 A 
ATOM     59  N   UNL A   1      43.592  29.365  28.442  1.00  0.00    -0.354 N 
ATOM     60  N   UNL A   1      46.290  28.656  27.517  1.00  0.00    -0.248 NA
ATOM     61  C   UNL A   1      48.489  29.262  27.022  1.00  0.00     0.031 C 
ATOM     62  C   UNL A   1      43.239  31.439  29.159  1.00  0.00     0.029 A 
ATOM     63  C   UNL A   1      44.206  30.591  28.644  1.00  0.00     0.049 A 
ATOM     64  H   UNL A   1      44.034  28.565  28.075  1.00  0.00     0.167 HD
ATOM     65  C   UNL A   1      46.479  29.989  27.851  1.00  0.00     0.074 A 
ATOM     66  C   UNL A   1      47.862  30.301  27.556  1.00  0.00     0.031 C 
ATOM     67  C   UNL A   1      45.588  30.876  28.356  1.00  0.00     0.037 A 
BRANCH  54  68
ATOM     68  C   UNL A   1      39.909  28.588  29.158  1.00  0.00     0.064 A 
ATOM     69  C   UNL A   1      39.483  28.387  30.481  1.00  0.00     0.173 A 
ATOM     70  C   UNL A   1      38.971  29.072  28.234  1.00  0.00     0.173 A 
ATOM     71  F   UNL A   1      40.339  27.914  31.400  1.00  0.00    -0.203 F 
ATOM     72  C   UNL A   1      38.167  28.638  30.856  1.00  0.00     0.198 A 
ATOM     73  C   UNL A   1      37.661  29.348  28.619  1.00  0.00     0.198 A 
ATOM     74  F   UNL A   1      39.326  29.285  26.959  1.00  0.00    -0.203 F 
ATOM     75  F   UNL A   1      37.773  28.397  32.115  1.00  0.00    -0.200 F 
ATOM     76  C   UNL A   1      37.259  29.125  29.929  1.00  0.00     0.200 A 
ATOM     77  F   UNL A   1      36.787  29.830  27.725  1.00  0.00    -0.200 F 
ATOM     78  F   UNL A   1      35.994  29.375  30.294  1.00  0.00    -0.200 F 
ENDBRANCH  54  68
BRANCH  55  79
ATOM     79  C   UNL A   1      49.204  26.580  26.096  1.00  0.00     0.064 A 
ATOM     80  C   UNL A   1      49.585  26.896  24.785  1.00  0.00     0.173 A 
ATOM     81  C   UNL A   1      50.162  25.980  26.928  1.00  0.00     0.173 A 
ATOM     82  F   UNL A   1      48.697  27.453  23.948  1.00  0.00    -0.203 F 
ATOM     83  C   UNL A   1      50.862  26.602  24.314  1.00  0.00     0.198 A 
ATOM     84  C   UNL A   1      51.448  25.711  26.464  1.00  0.00     0.198 A 
ATOM     85  F   UNL A   1      49.849  25.664  28.192  1.00  0.00    -0.203 F 
ATOM     86  F   UNL A   1      51.183  26.869  23.042  1.00  0.00    -0.200 F 
ATOM     87  C   UNL A   1      51.794  26.013  25.155  1.00  0.00     0.200 A 
ATOM     88  F   UNL A   1      52.350  25.154  27.284  1.00  0.00    -0.200 F 
ATOM     89  F   UNL A   1      53.023  25.728  24.703  1.00  0.00    -0.200 F 
ENDBRANCH  55  79
BRANCH  67  90
ATOM     90  C   UNL A   1      46.090  32.258  28.656  1.00  0.00     0.064 A 
ATOM     91  C   UNL A   1      46.632  32.586  29.907  1.00  0.00     0.173 A 
ATOM     92  C   UNL A   1      46.065  33.251  27.667  1.00  0.00     0.173 A 
ATOM     93  F   UNL A   1      46.664  31.674  30.890  1.00  0.00    -0.203 F 
ATOM     94  C   UNL A   1      47.110  33.869  30.163  1.00  0.00     0.198 A 
ATOM     95  C   UNL A   1      46.570  34.524  27.918  1.00  0.00     0.198 A 
ATOM     96  F   UNL A   1      45.562  32.985  26.452  1.00  0.00    -0.203 F 
ATOM     97  F   UNL A   1      47.584  34.174  31.378  1.00  0.00    -0.200 F 
ATOM     98  C   UNL A   1      47.086  34.833  29.167  1.00  0.00     0.200 A 
ATOM     99  F   UNL A   1      46.557  35.452  26.950  1.00  0.00    -0.200 F 
ATOM    100  F   UNL A   1      47.553  36.065  29.413  1.00  0.00    -0.200 F 
ENDBRANCH  67  90
ENDBRANCH  41  42
ENDBRANCH  33  36
ENDBRANCH  31  32
ENDBRANCH  30  31
ENDBRANCH   1  30
TORSDOF 14
ENDMDL
