MODEL 1
REMARK VINA RESULT:     -12.7      0.000      0.000
REMARK SMILES Cc1cc(N2CCOC[C@H]2C(=O)NCCCCNC(=O)c2ccc(-c3c4nc(c(-c5c(F)c(F)c(F)c(F)c5F)c5ccc([nH]5)c(-c5c(F)c(F)c(F)c(F)c5F)c5nc(c(-c6c(F)c(F)c(F)c(F)c6F)c6ccc3[nH]6)C=C5)C=C4)cc2)ncc1[N+](=O)[O-]
REMARK SMILES IDX 15 1 14 2 13 3 11 4 12 5 10 7 5 8 6 9 7 10 9 11 8 12 4 13
REMARK SMILES IDX 1 14 2 15 3 16 86 17 85 18 84 19 87 20 88 21 89 22 16 23
REMARK SMILES IDX 17 24 18 25 19 26 20 28 21 29 22 30 83 31 23 32 82 33 24 34
REMARK SMILES IDX 25 35 26 36 76 37 27 38 81 39 75 40 77 41 28 42 80 43 74 44
REMARK SMILES IDX 73 45 29 47 61 48 41 49 60 50 42 51 45 52 59 53 78 54 43 55
REMARK SMILES IDX 44 56 58 58 79 59 46 60 30 61 31 62 39 63 32 64 33 65 37 66
REMARK SMILES IDX 40 67 34 68 35 69 38 70 36 71 62 72 63 73 71 74 64 75 65 76
REMARK SMILES IDX 69 77 72 78 66 79 67 80 70 81 68 82 47 83 48 84 56 85 49 86
REMARK SMILES IDX 50 87 54 88 57 89 51 90 52 91 55 92 53 93
REMARK H PARENT 13 6 18 27 77 46 45 57
REMARK Flexibility Score: inf
ROOT
ATOM      1  C   UNL A   1      37.347  22.054  24.543  1.00  0.00     0.023 C 
ENDROOT
BRANCH   1   2
ATOM      2  C   UNL A   1      37.180  23.373  25.294  1.00  0.00     0.116 C 
BRANCH   2   3
ATOM      3  N   UNL A   1      36.258  23.253  26.399  1.00  0.00    -0.354 N 
ATOM      4  C   UNL A   1      34.930  22.966  26.416  1.00  0.00     0.245 C 
ATOM      5  O   UNL A   1      34.396  22.953  27.534  1.00  0.00    -0.273 OA
ATOM      6  H   UNL A   1      36.657  23.407  27.285  1.00  0.00     0.163 HD
BRANCH   4   7
ATOM      7  C   UNL A   1      34.079  22.665  25.160  1.00  0.00     0.199 C 
ATOM      8  N   UNL A   1      32.989  21.687  25.397  1.00  0.00    -0.340 N 
ATOM      9  C   UNL A   1      31.607  22.175  25.441  1.00  0.00     0.147 C 
ATOM     10  C   UNL A   1      31.366  23.284  24.418  1.00  0.00     0.181 C 
ATOM     11  C   UNL A   1      33.640  23.914  24.367  1.00  0.00     0.195 C 
ATOM     12  O   UNL A   1      32.297  24.357  24.601  1.00  0.00    -0.377 OA
BRANCH   8  13
ATOM     13  C   UNL A   1      33.198  20.357  25.068  1.00  0.00     0.130 A 
ATOM     14  C   UNL A   1      36.113  17.960  24.627  1.00  0.00     0.052 C 
ATOM     15  C   UNL A   1      34.699  18.466  24.659  1.00  0.00     0.032 A 
ATOM     16  C   UNL A   1      34.485  19.815  25.001  1.00  0.00     0.057 A 
ATOM     17  C   UNL A   1      33.570  17.706  24.347  1.00  0.00     0.290 A 
ATOM     18  C   UNL A   1      32.320  18.290  24.453  1.00  0.00     0.199 A 
ATOM     19  N   UNL A   1      32.122  19.582  24.812  1.00  0.00    -0.232 NA
BRANCH  17  20
ATOM     20  N   UNL A   1      33.631  16.328  23.899  1.00  0.00     0.064 N 
ATOM     21  O   UNL A   1      33.245  15.456  24.691  1.00  0.00    -0.258 OA
ATOM     22  O   UNL A   1      34.029  16.110  22.746  1.00  0.00    -0.258 OA
ENDBRANCH  17  20
ENDBRANCH   8  13
ENDBRANCH   4   7
ENDBRANCH   2   3
ENDBRANCH   1   2
BRANCH   1  23
ATOM     23  C   UNL A   1      37.851  20.893  25.397  1.00  0.00     0.023 C 
BRANCH  23  24
ATOM     24  C   UNL A   1      39.287  21.020  25.892  1.00  0.00     0.116 C 
BRANCH  24  25
ATOM     25  N   UNL A   1      40.038  19.770  25.878  1.00  0.00    -0.352 N 
ATOM     26  C   UNL A   1      41.384  19.572  26.103  1.00  0.00     0.251 C 
ATOM     27  H   UNL A   1      39.514  18.961  25.681  1.00  0.00     0.163 HD
ATOM     28  O   UNL A   1      41.887  18.473  25.996  1.00  0.00    -0.269 OA
BRANCH  26  29
ATOM     29  C   UNL A   1      42.217  20.751  26.428  1.00  0.00     0.039 A 
ATOM     30  C   UNL A   1      42.746  21.506  25.379  1.00  0.00     0.014 A 
ATOM     31  C   UNL A   1      42.378  21.157  27.754  1.00  0.00     0.014 A 
ATOM     32  C   UNL A   1      43.343  22.736  25.656  1.00  0.00     0.010 A 
ATOM     33  C   UNL A   1      42.910  22.413  28.022  1.00  0.00     0.010 A 
ATOM     34  C   UNL A   1      43.373  23.223  26.973  1.00  0.00    -0.014 A 
BRANCH  34  35
ATOM     35  C   UNL A   1      43.818  24.606  27.273  1.00  0.00     0.031 A 
ATOM     36  C   UNL A   1      42.831  25.632  27.747  1.00  0.00     0.074 A 
ATOM     37  C   UNL A   1      45.087  24.963  26.998  1.00  0.00     0.049 A 
ATOM     38  N   UNL A   1      43.004  26.913  27.952  1.00  0.00    -0.248 NA
ATOM     39  C   UNL A   1      41.458  25.162  27.987  1.00  0.00     0.031 C 
ATOM     40  C   UNL A   1      46.117  24.075  26.456  1.00  0.00     0.029 A 
ATOM     41  N   UNL A   1      45.721  26.175  27.112  1.00  0.00    -0.354 N 
ATOM     42  C   UNL A   1      41.760  27.406  28.316  1.00  0.00     0.074 A 
ATOM     43  C   UNL A   1      40.833  26.297  28.265  1.00  0.00     0.031 C 
ATOM     44  C   UNL A   1      47.254  24.769  26.289  1.00  0.00     0.029 A 
ATOM     45  C   UNL A   1      47.025  26.156  26.683  1.00  0.00     0.049 A 
ATOM     46  H   UNL A   1      45.282  26.982  27.467  1.00  0.00     0.167 HD
ATOM     47  C   UNL A   1      41.429  28.668  28.678  1.00  0.00     0.037 A 
ATOM     48  C   UNL A   1      47.933  27.148  26.603  1.00  0.00     0.037 A 
ATOM     49  C   UNL A   1      42.365  29.756  28.769  1.00  0.00     0.049 A 
ATOM     50  C   UNL A   1      47.551  28.531  27.047  1.00  0.00     0.074 A 
ATOM     51  C   UNL A   1      42.155  31.038  29.247  1.00  0.00     0.029 A 
ATOM     52  N   UNL A   1      43.691  29.691  28.365  1.00  0.00    -0.354 N 
ATOM     53  N   UNL A   1      46.397  28.965  27.490  1.00  0.00    -0.248 NA
ATOM     54  C   UNL A   1      48.597  29.560  26.984  1.00  0.00     0.031 C 
ATOM     55  C   UNL A   1      43.344  31.761  29.094  1.00  0.00     0.029 A 
ATOM     56  C   UNL A   1      44.304  30.921  28.553  1.00  0.00     0.049 A 
ATOM     57  H   UNL A   1      44.131  28.891  28.000  1.00  0.00     0.167 HD
ATOM     58  C   UNL A   1      46.576  30.313  27.764  1.00  0.00     0.074 A 
ATOM     59  C   UNL A   1      47.958  30.622  27.458  1.00  0.00     0.031 C 
ATOM     60  C   UNL A   1      45.675  31.214  28.226  1.00  0.00     0.037 A 
BRANCH  47  61
ATOM     61  C   UNL A   1      39.991  28.935  29.007  1.00  0.00     0.064 A 
ATOM     62  C   UNL A   1      39.495  28.797  30.312  1.00  0.00     0.173 A 
ATOM     63  C   UNL A   1      39.100  29.351  28.007  1.00  0.00     0.173 A 
ATOM     64  F   UNL A   1      40.305  28.390  31.301  1.00  0.00    -0.203 F 
ATOM     65  C   UNL A   1      38.153  29.033  30.597  1.00  0.00     0.198 A 
ATOM     66  C   UNL A   1      37.765  29.613  28.301  1.00  0.00     0.198 A 
ATOM     67  F   UNL A   1      39.524  29.502  26.743  1.00  0.00    -0.203 F 
ATOM     68  F   UNL A   1      37.692  28.844  31.841  1.00  0.00    -0.200 F 
ATOM     69  C   UNL A   1      37.291  29.446  29.593  1.00  0.00     0.200 A 
ATOM     70  F   UNL A   1      36.933  30.020  27.331  1.00  0.00    -0.200 F 
ATOM     71  F   UNL A   1      35.999  29.672  29.870  1.00  0.00    -0.200 F 
ENDBRANCH  47  61
BRANCH  48  72
ATOM     72  C   UNL A   1      49.294  26.854  26.090  1.00  0.00     0.064 A 
ATOM     73  C   UNL A   1      50.294  26.371  26.944  1.00  0.00     0.173 A 
ATOM     74  C   UNL A   1      49.613  27.020  24.734  1.00  0.00     0.173 A 
ATOM     75  F   UNL A   1      50.039  26.214  28.251  1.00  0.00    -0.203 F 
ATOM     76  C   UNL A   1      51.567  26.072  26.462  1.00  0.00     0.198 A 
ATOM     77  C   UNL A   1      50.880  26.701  24.251  1.00  0.00     0.198 A 
ATOM     78  F   UNL A   1      48.687  27.474  23.877  1.00  0.00    -0.203 F 
ATOM     79  F   UNL A   1      52.514  25.636  27.304  1.00  0.00    -0.200 F 
ATOM     80  C   UNL A   1      51.857  26.230  25.116  1.00  0.00     0.200 A 
ATOM     81  F   UNL A   1      51.152  26.843  22.946  1.00  0.00    -0.200 F 
ATOM     82  F   UNL A   1      53.077  25.932  24.651  1.00  0.00    -0.200 F 
ENDBRANCH  48  72
BRANCH  60  83
ATOM     83  C   UNL A   1      46.153  32.621  28.419  1.00  0.00     0.064 A 
ATOM     84  C   UNL A   1      46.717  33.038  29.634  1.00  0.00     0.173 A 
ATOM     85  C   UNL A   1      46.089  33.548  27.368  1.00  0.00     0.173 A 
ATOM     86  F   UNL A   1      46.784  32.192  30.672  1.00  0.00    -0.203 F 
ATOM     87  C   UNL A   1      47.186  34.339  29.795  1.00  0.00     0.198 A 
ATOM     88  C   UNL A   1      46.581  34.841  27.525  1.00  0.00     0.198 A 
ATOM     89  F   UNL A   1      45.561  33.196  26.187  1.00  0.00    -0.203 F 
ATOM     90  F   UNL A   1      47.689  34.727  30.974  1.00  0.00    -0.200 F 
ATOM     91  C   UNL A   1      47.125  35.236  28.738  1.00  0.00     0.200 A 
ATOM     92  F   UNL A   1      46.530  35.704  26.501  1.00  0.00    -0.200 F 
ATOM     93  F   UNL A   1      47.585  36.485  28.892  1.00  0.00    -0.200 F 
ENDBRANCH  60  83
ENDBRANCH  34  35
ENDBRANCH  26  29
ENDBRANCH  24  25
ENDBRANCH  23  24
ENDBRANCH   1  23
TORSDOF 13
ENDMDL
MODEL 2
REMARK VINA RESULT:     -12.7      6.285     11.661
REMARK SMILES Cc1cc(N2CCOC[C@H]2C(=O)NCCCCNC(=O)c2ccc(-c3c4nc(c(-c5c(F)c(F)c(F)c(F)c5F)c5ccc([nH]5)c(-c5c(F)c(F)c(F)c(F)c5F)c5nc(c(-c6c(F)c(F)c(F)c(F)c6F)c6ccc3[nH]6)C=C5)C=C4)cc2)ncc1[N+](=O)[O-]
REMARK SMILES IDX 15 1 14 2 13 3 11 4 12 5 10 7 5 8 6 9 7 10 9 11 8 12 4 13
REMARK SMILES IDX 1 14 2 15 3 16 86 17 85 18 84 19 87 20 88 21 89 22 16 23
REMARK SMILES IDX 17 24 18 25 19 26 20 28 21 29 22 30 83 31 23 32 82 33 24 34
REMARK SMILES IDX 25 35 26 36 76 37 27 38 81 39 75 40 77 41 28 42 80 43 74 44
REMARK SMILES IDX 73 45 29 47 61 48 41 49 60 50 42 51 45 52 59 53 78 54 43 55
REMARK SMILES IDX 44 56 58 58 79 59 46 60 30 61 31 62 39 63 32 64 33 65 37 66
REMARK SMILES IDX 40 67 34 68 35 69 38 70 36 71 62 72 63 73 71 74 64 75 65 76
REMARK SMILES IDX 69 77 72 78 66 79 67 80 70 81 68 82 47 83 48 84 56 85 49 86
REMARK SMILES IDX 50 87 54 88 57 89 51 90 52 91 55 92 53 93
REMARK H PARENT 13 6 18 27 77 46 45 57
REMARK Flexibility Score: inf
ROOT
ATOM      1  C   UNL A   1      32.724  30.008  26.215  1.00  0.00     0.023 C 
ENDROOT
BRANCH   1   2
ATOM      2  C   UNL A   1      32.129  28.673  26.659  1.00  0.00     0.116 C 
BRANCH   2   3
ATOM      3  N   UNL A   1      33.040  27.575  26.441  1.00  0.00    -0.354 N 
ATOM      4  C   UNL A   1      32.836  26.353  25.881  1.00  0.00     0.245 C 
ATOM      5  O   UNL A   1      33.822  25.604  25.849  1.00  0.00    -0.273 OA
ATOM      6  H   UNL A   1      33.961  27.737  26.749  1.00  0.00     0.163 HD
BRANCH   4   7
ATOM      7  C   UNL A   1      31.487  25.867  25.302  1.00  0.00     0.199 C 
ATOM      8  N   UNL A   1      31.355  26.073  23.838  1.00  0.00    -0.340 N 
ATOM      9  C   UNL A   1      31.434  24.905  22.956  1.00  0.00     0.147 C 
ATOM     10  C   UNL A   1      30.753  23.685  23.572  1.00  0.00     0.181 C 
ATOM     11  C   UNL A   1      31.051  24.466  25.780  1.00  0.00     0.195 C 
ATOM     12  O   UNL A   1      31.301  23.392  24.863  1.00  0.00    -0.377 OA
BRANCH   8  13
ATOM     13  C   UNL A   1      30.679  27.191  23.378  1.00  0.00     0.130 A 
ATOM     14  C   UNL A   1      27.125  28.533  23.291  1.00  0.00     0.052 C 
ATOM     15  C   UNL A   1      28.607  28.459  23.062  1.00  0.00     0.032 A 
ATOM     16  C   UNL A   1      29.296  27.327  23.537  1.00  0.00     0.057 A 
ATOM     17  C   UNL A   1      29.361  29.420  22.385  1.00  0.00     0.290 A 
ATOM     18  C   UNL A   1      30.730  29.243  22.276  1.00  0.00     0.199 A 
ATOM     19  N   UNL A   1      31.388  28.163  22.764  1.00  0.00    -0.232 NA
BRANCH  17  20
ATOM     20  N   UNL A   1      28.786  30.600  21.766  1.00  0.00     0.064 N 
ATOM     21  O   UNL A   1      29.039  31.694  22.290  1.00  0.00    -0.258 OA
ATOM     22  O   UNL A   1      28.113  30.445  20.739  1.00  0.00    -0.258 OA
ENDBRANCH  17  20
ENDBRANCH   8  13
ENDBRANCH   4   7
ENDBRANCH   2   3
ENDBRANCH   1   2
BRANCH   1  23
ATOM     23  C   UNL A   1      32.094  31.236  26.867  1.00  0.00     0.023 C 
BRANCH  23  24
ATOM     24  C   UNL A   1      33.077  32.222  27.489  1.00  0.00     0.116 C 
BRANCH  24  25
ATOM     25  N   UNL A   1      32.563  33.581  27.612  1.00  0.00    -0.352 N 
ATOM     26  C   UNL A   1      33.024  34.606  28.411  1.00  0.00     0.251 C 
ATOM     27  H   UNL A   1      31.783  33.795  27.051  1.00  0.00     0.163 HD
ATOM     28  O   UNL A   1      32.453  35.676  28.458  1.00  0.00    -0.269 OA
BRANCH  26  29
ATOM     29  C   UNL A   1      34.209  34.350  29.260  1.00  0.00     0.039 A 
ATOM     30  C   UNL A   1      34.016  33.809  30.532  1.00  0.00     0.014 A 
ATOM     31  C   UNL A   1      35.494  34.546  28.752  1.00  0.00     0.014 A 
ATOM     32  C   UNL A   1      35.120  33.356  31.256  1.00  0.00     0.010 A 
ATOM     33  C   UNL A   1      36.585  34.032  29.443  1.00  0.00     0.010 A 
ATOM     34  C   UNL A   1      36.404  33.410  30.689  1.00  0.00    -0.014 A 
BRANCH  34  35
ATOM     35  C   UNL A   1      37.564  32.759  31.345  1.00  0.00     0.031 A 
ATOM     36  C   UNL A   1      38.236  31.582  30.700  1.00  0.00     0.074 A 
ATOM     37  C   UNL A   1      37.930  33.155  32.579  1.00  0.00     0.049 A 
ATOM     38  N   UNL A   1      39.185  30.814  31.169  1.00  0.00    -0.248 NA
ATOM     39  C   UNL A   1      37.748  31.196  29.368  1.00  0.00     0.031 C 
ATOM     40  C   UNL A   1      37.298  34.233  33.343  1.00  0.00     0.029 A 
ATOM     41  N   UNL A   1      38.903  32.679  33.421  1.00  0.00    -0.354 N 
ATOM     42  C   UNL A   1      39.390  29.839  30.204  1.00  0.00     0.074 A 
ATOM     43  C   UNL A   1      38.439  30.087  29.142  1.00  0.00     0.031 C 
ATOM     44  C   UNL A   1      37.903  34.340  34.536  1.00  0.00     0.029 A 
ATOM     45  C   UNL A   1      38.942  33.320  34.635  1.00  0.00     0.049 A 
ATOM     46  H   UNL A   1      39.515  31.947  33.178  1.00  0.00     0.167 HD
ATOM     47  C   UNL A   1      40.302  28.839  30.198  1.00  0.00     0.037 A 
ATOM     48  C   UNL A   1      39.720  33.102  35.712  1.00  0.00     0.037 A 
ATOM     49  C   UNL A   1      41.274  28.624  31.237  1.00  0.00     0.049 A 
ATOM     50  C   UNL A   1      40.751  32.010  35.666  1.00  0.00     0.074 A 
ATOM     51  C   UNL A   1      42.322  27.721  31.265  1.00  0.00     0.029 A 
ATOM     52  N   UNL A   1      41.312  29.320  32.437  1.00  0.00    -0.354 N 
ATOM     53  N   UNL A   1      41.006  31.158  34.704  1.00  0.00    -0.248 NA
ATOM     54  C   UNL A   1      41.603  31.852  36.853  1.00  0.00     0.031 C 
ATOM     55  C   UNL A   1      42.969  27.841  32.501  1.00  0.00     0.029 A 
ATOM     56  C   UNL A   1      42.347  28.844  33.227  1.00  0.00     0.049 A 
ATOM     57  H   UNL A   1      40.697  30.045  32.689  1.00  0.00     0.167 HD
ATOM     58  C   UNL A   1      42.050  30.368  35.163  1.00  0.00     0.074 A 
ATOM     59  C   UNL A   1      42.396  30.855  36.482  1.00  0.00     0.031 C 
ATOM     60  C   UNL A   1      42.664  29.329  34.545  1.00  0.00     0.037 A 
BRANCH  47  61
ATOM     61  C   UNL A   1      40.292  27.903  29.027  1.00  0.00     0.064 A 
ATOM     62  C   UNL A   1      41.024  28.174  27.862  1.00  0.00     0.173 A 
ATOM     63  C   UNL A   1      39.554  26.712  29.077  1.00  0.00     0.173 A 
ATOM     64  F   UNL A   1      41.737  29.306  27.760  1.00  0.00    -0.203 F 
ATOM     65  C   UNL A   1      40.991  27.302  26.776  1.00  0.00     0.198 A 
ATOM     66  C   UNL A   1      39.545  25.829  28.000  1.00  0.00     0.198 A 
ATOM     67  F   UNL A   1      38.839  26.404  30.170  1.00  0.00    -0.203 F 
ATOM     68  F   UNL A   1      41.657  27.608  25.654  1.00  0.00    -0.200 F 
ATOM     69  C   UNL A   1      40.256  26.129  26.848  1.00  0.00     0.200 A 
ATOM     70  F   UNL A   1      38.840  24.691  28.075  1.00  0.00    -0.200 F 
ATOM     71  F   UNL A   1      40.225  25.292  25.803  1.00  0.00    -0.200 F 
ENDBRANCH  47  61
BRANCH  48  72
ATOM     72  C   UNL A   1      39.553  33.950  36.919  1.00  0.00     0.064 A 
ATOM     73  C   UNL A   1      38.784  33.511  38.005  1.00  0.00     0.173 A 
ATOM     74  C   UNL A   1      40.183  35.199  37.024  1.00  0.00     0.173 A 
ATOM     75  F   UNL A   1      38.149  32.332  37.941  1.00  0.00    -0.203 F 
ATOM     76  C   UNL A   1      38.644  34.294  39.149  1.00  0.00     0.198 A 
ATOM     77  C   UNL A   1      40.060  35.970  38.177  1.00  0.00     0.198 A 
ATOM     78  F   UNL A   1      40.935  35.659  36.012  1.00  0.00    -0.203 F 
ATOM     79  F   UNL A   1      37.882  33.864  40.163  1.00  0.00    -0.200 F 
ATOM     80  C   UNL A   1      39.288  35.519  39.237  1.00  0.00     0.200 A 
ATOM     81  F   UNL A   1      40.694  37.148  38.263  1.00  0.00    -0.200 F 
ATOM     82  F   UNL A   1      39.162  36.266  40.341  1.00  0.00    -0.200 F 
ENDBRANCH  48  72
BRANCH  60  83
ATOM     83  C   UNL A   1      43.767  28.644  35.295  1.00  0.00     0.064 A 
ATOM     84  C   UNL A   1      43.506  27.556  36.140  1.00  0.00     0.173 A 
ATOM     85  C   UNL A   1      45.101  29.049  35.132  1.00  0.00     0.173 A 
ATOM     86  F   UNL A   1      42.245  27.144  36.339  1.00  0.00    -0.203 F 
ATOM     87  C   UNL A   1      44.540  26.906  36.808  1.00  0.00     0.198 A 
ATOM     88  C   UNL A   1      46.134  28.382  35.783  1.00  0.00     0.198 A 
ATOM     89  F   UNL A   1      45.400  30.083  34.332  1.00  0.00    -0.203 F 
ATOM     90  F   UNL A   1      44.266  25.892  37.639  1.00  0.00    -0.200 F 
ATOM     91  C   UNL A   1      45.853  27.315  36.623  1.00  0.00     0.200 A 
ATOM     92  F   UNL A   1      47.403  28.772  35.598  1.00  0.00    -0.200 F 
ATOM     93  F   UNL A   1      46.848  26.683  37.261  1.00  0.00    -0.200 F 
ENDBRANCH  60  83
ENDBRANCH  34  35
ENDBRANCH  26  29
ENDBRANCH  24  25
ENDBRANCH  23  24
ENDBRANCH   1  23
TORSDOF 13
ENDMDL
MODEL 3
REMARK VINA RESULT:     -12.5      6.294     10.718
REMARK SMILES Cc1cc(N2CCOC[C@H]2C(=O)NCCCCNC(=O)c2ccc(-c3c4nc(c(-c5c(F)c(F)c(F)c(F)c5F)c5ccc([nH]5)c(-c5c(F)c(F)c(F)c(F)c5F)c5nc(c(-c6c(F)c(F)c(F)c(F)c6F)c6ccc3[nH]6)C=C5)C=C4)cc2)ncc1[N+](=O)[O-]
REMARK SMILES IDX 15 1 14 2 13 3 11 4 12 5 10 7 5 8 6 9 7 10 9 11 8 12 4 13
REMARK SMILES IDX 1 14 2 15 3 16 86 17 85 18 84 19 87 20 88 21 89 22 16 23
REMARK SMILES IDX 17 24 18 25 19 26 20 28 21 29 22 30 83 31 23 32 82 33 24 34
REMARK SMILES IDX 25 35 26 36 76 37 27 38 81 39 75 40 77 41 28 42 80 43 74 44
REMARK SMILES IDX 73 45 29 47 61 48 41 49 60 50 42 51 45 52 59 53 78 54 43 55
REMARK SMILES IDX 44 56 58 58 79 59 46 60 30 61 31 62 39 63 32 64 33 65 37 66
REMARK SMILES IDX 40 67 34 68 35 69 38 70 36 71 62 72 63 73 71 74 64 75 65 76
REMARK SMILES IDX 69 77 72 78 66 79 67 80 70 81 68 82 47 83 48 84 56 85 49 86
REMARK SMILES IDX 50 87 54 88 57 89 51 90 52 91 55 92 53 93
REMARK H PARENT 13 6 18 27 77 46 45 57
REMARK Flexibility Score: inf
ROOT
ATOM      1  C   UNL A   1      32.246  30.275  26.974  1.00  0.00     0.023 C 
ENDROOT
BRANCH   1   2
ATOM      2  C   UNL A   1      32.256  29.562  25.624  1.00  0.00     0.116 C 
BRANCH   2   3
ATOM      3  N   UNL A   1      33.196  28.467  25.597  1.00  0.00    -0.354 N 
ATOM      4  C   UNL A   1      33.013  27.150  25.316  1.00  0.00     0.245 C 
ATOM      5  O   UNL A   1      34.024  26.437  25.394  1.00  0.00    -0.273 OA
ATOM      6  H   UNL A   1      34.122  28.715  25.819  1.00  0.00     0.163 HD
BRANCH   4   7
ATOM      7  C   UNL A   1      31.660  26.516  24.919  1.00  0.00     0.199 C 
ATOM      8  N   UNL A   1      31.322  26.679  23.482  1.00  0.00    -0.340 N 
ATOM      9  C   UNL A   1      31.410  25.508  22.605  1.00  0.00     0.147 C 
ATOM     10  C   UNL A   1      30.943  24.237  23.311  1.00  0.00     0.181 C 
ATOM     11  C   UNL A   1      31.436  25.087  25.457  1.00  0.00     0.195 C 
ATOM     12  O   UNL A   1      31.678  24.027  24.522  1.00  0.00    -0.377 OA
BRANCH   8  13
ATOM     13  C   UNL A   1      30.480  27.713  23.105  1.00  0.00     0.130 A 
ATOM     14  C   UNL A   1      26.797  28.614  23.344  1.00  0.00     0.052 C 
ATOM     15  C   UNL A   1      28.252  28.724  22.991  1.00  0.00     0.032 A 
ATOM     16  C   UNL A   1      29.110  27.678  23.382  1.00  0.00     0.057 A 
ATOM     17  C   UNL A   1      28.825  29.778  22.277  1.00  0.00     0.290 A 
ATOM     18  C   UNL A   1      30.191  29.770  22.051  1.00  0.00     0.199 A 
ATOM     19  N   UNL A   1      31.013  28.771  22.457  1.00  0.00    -0.232 NA
BRANCH  17  20
ATOM     20  N   UNL A   1      28.063  30.887  21.735  1.00  0.00     0.064 N 
ATOM     21  O   UNL A   1      27.745  31.792  22.520  1.00  0.00    -0.258 OA
ATOM     22  O   UNL A   1      27.808  30.879  20.523  1.00  0.00    -0.258 OA
ENDBRANCH  17  20
ENDBRANCH   8  13
ENDBRANCH   4   7
ENDBRANCH   2   3
ENDBRANCH   1   2
BRANCH   1  23
ATOM     23  C   UNL A   1      31.919  31.764  26.907  1.00  0.00     0.023 C 
BRANCH  23  24
ATOM     24  C   UNL A   1      33.006  32.697  27.430  1.00  0.00     0.116 C 
BRANCH  24  25
ATOM     25  N   UNL A   1      32.546  34.051  27.716  1.00  0.00    -0.352 N 
ATOM     26  C   UNL A   1      33.034  34.947  28.644  1.00  0.00     0.251 C 
ATOM     27  H   UNL A   1      31.786  34.366  27.177  1.00  0.00     0.163 HD
ATOM     28  O   UNL A   1      32.507  36.026  28.817  1.00  0.00    -0.269 OA
BRANCH  26  29
ATOM     29  C   UNL A   1      34.193  34.536  29.468  1.00  0.00     0.039 A 
ATOM     30  C   UNL A   1      33.956  34.012  30.740  1.00  0.00     0.014 A 
ATOM     31  C   UNL A   1      35.483  34.574  28.938  1.00  0.00     0.014 A 
ATOM     32  C   UNL A   1      35.007  33.418  31.441  1.00  0.00     0.010 A 
ATOM     33  C   UNL A   1      36.513  33.920  29.606  1.00  0.00     0.010 A 
ATOM     34  C   UNL A   1      36.277  33.315  30.850  1.00  0.00    -0.014 A 
BRANCH  34  35
ATOM     35  C   UNL A   1      37.357  32.518  31.480  1.00  0.00     0.031 A 
ATOM     36  C   UNL A   1      37.877  32.888  32.838  1.00  0.00     0.074 A 
ATOM     37  C   UNL A   1      37.951  31.538  30.772  1.00  0.00     0.049 A 
ATOM     38  N   UNL A   1      38.887  32.386  33.501  1.00  0.00    -0.248 NA
ATOM     39  C   UNL A   1      37.193  33.994  33.525  1.00  0.00     0.031 C 
ATOM     40  C   UNL A   1      37.589  31.141  29.409  1.00  0.00     0.029 A 
ATOM     41  N   UNL A   1      39.003  30.715  31.088  1.00  0.00    -0.354 N 
ATOM     42  C   UNL A   1      38.977  33.131  34.668  1.00  0.00     0.074 A 
ATOM     43  C   UNL A   1      37.947  34.145  34.604  1.00  0.00     0.031 C 
ATOM     44  C   UNL A   1      38.400  30.149  29.010  1.00  0.00     0.029 A 
ATOM     45  C   UNL A   1      39.357  29.861  30.073  1.00  0.00     0.049 A 
ATOM     46  H   UNL A   1      39.460  30.736  31.960  1.00  0.00     0.167 HD
ATOM     47  C   UNL A   1      39.832  32.970  35.705  1.00  0.00     0.037 A 
ATOM     48  C   UNL A   1      40.351  28.956  30.001  1.00  0.00     0.037 A 
ATOM     49  C   UNL A   1      40.825  31.932  35.781  1.00  0.00     0.049 A 
ATOM     50  C   UNL A   1      41.263  28.769  31.181  1.00  0.00     0.074 A 
ATOM     51  C   UNL A   1      41.652  31.605  36.842  1.00  0.00     0.029 A 
ATOM     52  N   UNL A   1      41.130  31.056  34.750  1.00  0.00    -0.354 N 
ATOM     53  N   UNL A   1      41.272  29.410  32.323  1.00  0.00    -0.248 NA
ATOM     54  C   UNL A   1      42.296  27.732  31.063  1.00  0.00     0.031 C 
ATOM     55  C   UNL A   1      42.487  30.557  36.437  1.00  0.00     0.029 A 
ATOM     56  C   UNL A   1      42.157  30.208  35.138  1.00  0.00     0.049 A 
ATOM     57  H   UNL A   1      40.684  31.038  33.873  1.00  0.00     0.167 HD
ATOM     58  C   UNL A   1      42.305  28.854  33.063  1.00  0.00     0.074 A 
ATOM     59  C   UNL A   1      42.887  27.807  32.249  1.00  0.00     0.031 C 
ATOM     60  C   UNL A   1      42.734  29.183  34.306  1.00  0.00     0.037 A 
BRANCH  47  61
ATOM     61  C   UNL A   1      39.724  33.939  36.844  1.00  0.00     0.064 A 
ATOM     62  C   UNL A   1      40.403  35.166  36.833  1.00  0.00     0.173 A 
ATOM     63  C   UNL A   1      38.919  33.643  37.953  1.00  0.00     0.173 A 
ATOM     64  F   UNL A   1      41.196  35.490  35.800  1.00  0.00    -0.203 F 
ATOM     65  C   UNL A   1      40.306  36.048  37.906  1.00  0.00     0.198 A 
ATOM     66  C   UNL A   1      38.802  34.540  39.012  1.00  0.00     0.198 A 
ATOM     67  F   UNL A   1      38.246  32.484  38.011  1.00  0.00    -0.203 F 
ATOM     68  F   UNL A   1      41.005  37.192  37.896  1.00  0.00    -0.200 F 
ATOM     69  C   UNL A   1      39.502  35.737  38.992  1.00  0.00     0.200 A 
ATOM     70  F   UNL A   1      38.018  34.241  40.058  1.00  0.00    -0.200 F 
ATOM     71  F   UNL A   1      39.410  36.586  40.024  1.00  0.00    -0.200 F 
ENDBRANCH  47  61
BRANCH  48  72
ATOM     72  C   UNL A   1      40.521  28.151  28.765  1.00  0.00     0.064 A 
ATOM     73  C   UNL A   1      39.868  26.921  28.614  1.00  0.00     0.173 A 
ATOM     74  C   UNL A   1      41.311  28.610  27.701  1.00  0.00     0.173 A 
ATOM     75  F   UNL A   1      39.118  26.435  29.613  1.00  0.00    -0.203 F 
ATOM     76  C   UNL A   1      40.006  26.173  27.447  1.00  0.00     0.198 A 
ATOM     77  C   UNL A   1      41.430  27.871  26.526  1.00  0.00     0.198 A 
ATOM     78  F   UNL A   1      41.950  29.785  27.796  1.00  0.00    -0.203 F 
ATOM     79  F   UNL A   1      39.393  24.987  27.337  1.00  0.00    -0.200 F 
ATOM     80  C   UNL A   1      40.780  26.652  26.401  1.00  0.00     0.200 A 
ATOM     81  F   UNL A   1      42.169  28.344  25.513  1.00  0.00    -0.200 F 
ATOM     82  F   UNL A   1      40.903  25.939  25.274  1.00  0.00    -0.200 F 
ENDBRANCH  48  72
BRANCH  60  83
ATOM     83  C   UNL A   1      43.894  28.410  34.857  1.00  0.00     0.064 A 
ATOM     84  C   UNL A   1      43.703  27.201  35.543  1.00  0.00     0.173 A 
ATOM     85  C   UNL A   1      45.209  28.855  34.657  1.00  0.00     0.173 A 
ATOM     86  F   UNL A   1      42.463  26.745  35.772  1.00  0.00    -0.203 F 
ATOM     87  C   UNL A   1      44.788  26.474  36.024  1.00  0.00     0.198 A 
ATOM     88  C   UNL A   1      46.293  28.113  35.119  1.00  0.00     0.198 A 
ATOM     89  F   UNL A   1      45.442  30.003  34.004  1.00  0.00    -0.203 F 
ATOM     90  F   UNL A   1      44.583  25.341  36.708  1.00  0.00    -0.200 F 
ATOM     91  C   UNL A   1      46.081  26.926  35.805  1.00  0.00     0.200 A 
ATOM     92  F   UNL A   1      47.542  28.546  34.899  1.00  0.00    -0.200 F 
ATOM     93  F   UNL A   1      47.125  26.221  36.262  1.00  0.00    -0.200 F 
ENDBRANCH  60  83
ENDBRANCH  34  35
ENDBRANCH  26  29
ENDBRANCH  24  25
ENDBRANCH  23  24
ENDBRANCH   1  23
TORSDOF 13
ENDMDL
