MODEL 1
REMARK VINA RESULT:     -13.5      0.000      0.000
REMARK SMILES CC(C)C[C@H](C(=O)NCCCCNC(=O)c1ccc(-c2c3nc(c(-c4c(F)c(F)c(F)c(F)c4F)c4ccc([nH]4)c(-c4c(F)c(F)c(F)c(F)c4F)c4nc(c(-c5c(F)c(F)c(F)c(F)c5F)c5ccc2[nH]5)C=C4)C=C3)cc1)N1C(=O)/C(=C2\C(=O)Nc3ccc(Br)cc32)SC1=S
REMARK SMILES IDX 10 1 9 2 8 3 6 4 7 5 5 7 4 8 2 9 1 10 3 11 79 12 80 13 95 14
REMARK SMILES IDX 81 15 82 16 94 17 96 18 83 19 84 20 93 21 85 22 86 23 87 24
REMARK SMILES IDX 92 25 88 27 90 28 89 29 91 30 11 31 12 32 13 33 14 34 15 36
REMARK SMILES IDX 16 37 17 38 78 39 18 40 77 41 19 42 20 43 21 44 71 45 22 46
REMARK SMILES IDX 76 47 70 48 72 49 23 50 75 51 69 52 68 53 24 55 56 56 36 57
REMARK SMILES IDX 55 58 37 59 40 60 54 61 73 62 38 63 39 64 53 66 74 67 41 68
REMARK SMILES IDX 25 69 26 70 34 71 27 72 28 73 32 74 35 75 29 76 30 77 33 78
REMARK SMILES IDX 31 79 57 80 58 81 66 82 59 83 60 84 64 85 67 86 61 87 62 88
REMARK SMILES IDX 65 89 63 90 42 91 43 92 51 93 44 94 45 95 49 96 52 97 46 98
REMARK SMILES IDX 47 99 50 100 48 101
REMARK H PARENT 8 6 86 26 13 35 72 54 40 65
REMARK Flexibility Score: inf
ROOT
ATOM      1  C   UNL A   1      31.745  30.785  26.150  1.00  0.00     0.023 C 
ENDROOT
BRANCH   1   2
ATOM      2  C   UNL A   1      32.720  29.733  26.664  1.00  0.00     0.116 C 
BRANCH   2   3
ATOM      3  N   UNL A   1      33.535  29.212  25.605  1.00  0.00    -0.354 N 
ATOM      4  C   UNL A   1      33.307  28.340  24.603  1.00  0.00     0.243 C 
ATOM      5  O   UNL A   1      34.295  28.204  23.859  1.00  0.00    -0.273 OA
ATOM      6  H   UNL A   1      34.455  29.566  25.612  1.00  0.00     0.163 HD
BRANCH   4   7
ATOM      7  C   UNL A   1      31.934  27.682  24.202  1.00  0.00     0.181 C 
BRANCH   7   8
ATOM      8  C   UNL A   1      31.308  28.690  23.178  1.00  0.00     0.038 C 
BRANCH   8   9
ATOM      9  C   UNL A   1      29.874  29.221  23.221  1.00  0.00    -0.015 C 
ATOM     10  C   UNL A   1      29.512  30.135  22.060  1.00  0.00     0.007 C 
ATOM     11  C   UNL A   1      28.920  28.014  23.251  1.00  0.00     0.007 C 
ENDBRANCH   8   9
ENDBRANCH   7   8
BRANCH   7  12
ATOM     12  N   UNL A   1      31.760  26.225  23.958  1.00  0.00    -0.280 N 
ATOM     13  C   UNL A   1      31.129  25.373  24.854  1.00  0.00     0.267 C 
ATOM     14  C   UNL A   1      32.183  25.597  22.793  1.00  0.00     0.149 C 
ATOM     15  O   UNL A   1      30.313  25.696  25.703  1.00  0.00    -0.268 OA
ATOM     16  C   UNL A   1      31.447  23.943  24.496  1.00  0.00     0.093 C 
ATOM     17  S   UNL A   1      31.620  23.925  22.778  1.00  0.00    -0.053 SA
ATOM     18  S   UNL A   1      33.074  26.200  21.516  1.00  0.00    -0.052 S 
ATOM     19  C   UNL A   1      31.812  22.921  25.293  1.00  0.00     0.069 C 
ATOM     20  C   UNL A   1      32.134  23.106  26.753  1.00  0.00     0.257 C 
ATOM     21  C   UNL A   1      32.197  21.523  24.967  1.00  0.00     0.013 A 
ATOM     22  O   UNL A   1      32.033  24.115  27.429  1.00  0.00    -0.269 OA
ATOM     23  N   UNL A   1      32.690  21.910  27.170  1.00  0.00    -0.321 N 
ATOM     24  C   UNL A   1      32.724  20.976  26.144  1.00  0.00     0.049 A 
ATOM     25  C   UNL A   1      32.104  20.721  23.838  1.00  0.00     0.026 A 
ATOM     26  H   UNL A   1      33.020  21.742  28.082  1.00  0.00     0.170 HD
ATOM     27  C   UNL A   1      33.193  19.677  26.241  1.00  0.00     0.028 A 
ATOM     28  C   UNL A   1      32.567  19.398  23.915  1.00  0.00     0.018 A 
ATOM     29  C   UNL A   1      33.110  18.877  25.101  1.00  0.00     0.018 A 
ATOM     30  Br  UNL A   1      32.452  18.282  22.390  1.00  0.00    -0.051 Br
ENDBRANCH   7  12
ENDBRANCH   4   7
ENDBRANCH   2   3
ENDBRANCH   1   2
BRANCH   1  31
ATOM     31  C   UNL A   1      31.505  31.937  27.127  1.00  0.00     0.023 C 
BRANCH  31  32
ATOM     32  C   UNL A   1      32.710  32.840  27.378  1.00  0.00     0.116 C 
BRANCH  32  33
ATOM     33  N   UNL A   1      32.359  34.219  27.689  1.00  0.00    -0.352 N 
ATOM     34  C   UNL A   1      32.963  35.066  28.587  1.00  0.00     0.251 C 
ATOM     35  H   UNL A   1      31.594  34.591  27.193  1.00  0.00     0.163 HD
ATOM     36  O   UNL A   1      32.498  36.177  28.814  1.00  0.00    -0.269 OA
BRANCH  34  37
ATOM     37  C   UNL A   1      34.152  34.589  29.316  1.00  0.00     0.039 A 
ATOM     38  C   UNL A   1      33.970  33.900  30.514  1.00  0.00     0.014 A 
ATOM     39  C   UNL A   1      35.429  34.750  28.771  1.00  0.00     0.014 A 
ATOM     40  C   UNL A   1      35.067  33.300  31.130  1.00  0.00     0.010 A 
ATOM     41  C   UNL A   1      36.507  34.083  29.343  1.00  0.00     0.010 A 
ATOM     42  C   UNL A   1      36.335  33.345  30.523  1.00  0.00    -0.014 A 
BRANCH  42  43
ATOM     43  C   UNL A   1      37.478  32.600  31.107  1.00  0.00     0.031 A 
ATOM     44  C   UNL A   1      37.998  32.951  32.472  1.00  0.00     0.074 A 
ATOM     45  C   UNL A   1      38.068  31.627  30.384  1.00  0.00     0.049 A 
ATOM     46  N   UNL A   1      38.983  32.410  33.144  1.00  0.00    -0.248 NA
ATOM     47  C   UNL A   1      37.344  34.073  33.165  1.00  0.00     0.031 C 
ATOM     48  C   UNL A   1      37.697  31.242  29.021  1.00  0.00     0.029 A 
ATOM     49  N   UNL A   1      39.106  30.784  30.693  1.00  0.00    -0.354 N 
ATOM     50  C   UNL A   1      39.062  33.121  34.335  1.00  0.00     0.074 A 
ATOM     51  C   UNL A   1      38.074  34.175  34.266  1.00  0.00     0.031 C 
ATOM     52  C   UNL A   1      38.468  30.218  28.625  1.00  0.00     0.029 A 
ATOM     53  C   UNL A   1      39.412  29.896  29.691  1.00  0.00     0.049 A 
ATOM     54  H   UNL A   1      39.585  30.811  31.553  1.00  0.00     0.167 HD
ATOM     55  C   UNL A   1      39.863  32.893  35.401  1.00  0.00     0.037 A 
ATOM     56  C   UNL A   1      40.351  28.932  29.637  1.00  0.00     0.037 A 
ATOM     57  C   UNL A   1      40.837  31.835  35.470  1.00  0.00     0.049 A 
ATOM     58  C   UNL A   1      41.231  28.707  30.839  1.00  0.00     0.074 A 
ATOM     59  C   UNL A   1      41.668  31.494  36.523  1.00  0.00     0.029 A 
ATOM     60  N   UNL A   1      41.111  30.946  34.441  1.00  0.00    -0.354 N 
ATOM     61  N   UNL A   1      41.240  29.333  31.990  1.00  0.00    -0.248 NA
ATOM     62  C   UNL A   1      42.225  27.629  30.734  1.00  0.00     0.031 C 
ATOM     63  C   UNL A   1      42.478  30.430  36.114  1.00  0.00     0.029 A 
ATOM     64  C   UNL A   1      42.113  30.070  34.827  1.00  0.00     0.049 A 
ATOM     65  H   UNL A   1      40.661  30.939  33.565  1.00  0.00     0.167 HD
ATOM     66  C   UNL A   1      42.217  28.712  32.754  1.00  0.00     0.074 A 
ATOM     67  C   UNL A   1      42.758  27.638  31.947  1.00  0.00     0.031 C 
ATOM     68  C   UNL A   1      42.637  29.005  34.010  1.00  0.00     0.037 A 
BRANCH  55  69
ATOM     69  C   UNL A   1      39.709  33.792  36.594  1.00  0.00     0.064 A 
ATOM     70  C   UNL A   1      40.335  35.048  36.649  1.00  0.00     0.173 A 
ATOM     71  C   UNL A   1      38.884  33.424  37.666  1.00  0.00     0.173 A 
ATOM     72  F   UNL A   1      41.146  35.442  35.656  1.00  0.00    -0.203 F 
ATOM     73  C   UNL A   1      40.154  35.891  37.741  1.00  0.00     0.198 A 
ATOM     74  C   UNL A   1      38.681  34.283  38.742  1.00  0.00     0.198 A 
ATOM     75  F   UNL A   1      38.260  32.235  37.663  1.00  0.00    -0.203 F 
ATOM     76  F   UNL A   1      40.794  37.068  37.790  1.00  0.00    -0.200 F 
ATOM     77  C   UNL A   1      39.320  35.513  38.782  1.00  0.00     0.200 A 
ATOM     78  F   UNL A   1      37.863  33.922  39.741  1.00  0.00    -0.200 F 
ATOM     79  F   UNL A   1      39.133  36.334  39.825  1.00  0.00    -0.200 F 
ENDBRANCH  55  69
BRANCH  56  80
ATOM     80  C   UNL A   1      40.502  28.094  28.417  1.00  0.00     0.064 A 
ATOM     81  C   UNL A   1      39.880  26.841  28.317  1.00  0.00     0.173 A 
ATOM     82  C   UNL A   1      41.301  28.510  27.342  1.00  0.00     0.173 A 
ATOM     83  F   UNL A   1      39.121  26.388  29.326  1.00  0.00    -0.203 F 
ATOM     84  C   UNL A   1      40.084  26.021  27.209  1.00  0.00     0.198 A 
ATOM     85  C   UNL A   1      41.475  27.705  26.218  1.00  0.00     0.198 A 
ATOM     86  F   UNL A   1      41.913  29.703  27.382  1.00  0.00    -0.203 F 
ATOM     87  F   UNL A   1      39.532  24.800  27.171  1.00  0.00    -0.200 F 
ATOM     88  C   UNL A   1      40.879  26.455  26.159  1.00  0.00     0.200 A 
ATOM     89  F   UNL A   1      42.230  28.136  25.199  1.00  0.00    -0.200 F 
ATOM     90  F   UNL A   1      41.077  25.665  25.096  1.00  0.00    -0.200 F 
ENDBRANCH  56  80
BRANCH  68  91
ATOM     91  C   UNL A   1      43.713  28.133  34.592  1.00  0.00     0.064 A 
ATOM     92  C   UNL A   1      45.070  28.481  34.506  1.00  0.00     0.173 A 
ATOM     93  C   UNL A   1      43.382  26.941  35.252  1.00  0.00     0.173 A 
ATOM     94  F   UNL A   1      45.441  29.605  33.873  1.00  0.00    -0.203 F 
ATOM     95  C   UNL A   1      46.056  27.646  35.023  1.00  0.00     0.198 A 
ATOM     96  C   UNL A   1      44.368  26.126  35.800  1.00  0.00     0.198 A 
ATOM     97  F   UNL A   1      42.099  26.566  35.370  1.00  0.00    -0.203 F 
ATOM     98  F   UNL A   1      47.348  27.966  34.870  1.00  0.00    -0.200 F 
ATOM     99  C   UNL A   1      45.705  26.473  35.674  1.00  0.00     0.200 A 
ATOM    100  F   UNL A   1      44.026  25.002  36.443  1.00  0.00    -0.200 F 
ATOM    101  F   UNL A   1      46.656  25.671  36.170  1.00  0.00    -0.200 F 
ENDBRANCH  68  91
ENDBRANCH  42  43
ENDBRANCH  34  37
ENDBRANCH  32  33
ENDBRANCH  31  32
ENDBRANCH   1  31
TORSDOF 14
ENDMDL
MODEL 2
REMARK VINA RESULT:     -13.2      0.629      7.161
REMARK SMILES CC(C)C[C@H](C(=O)NCCCCNC(=O)c1ccc(-c2c3nc(c(-c4c(F)c(F)c(F)c(F)c4F)c4ccc([nH]4)c(-c4c(F)c(F)c(F)c(F)c4F)c4nc(c(-c5c(F)c(F)c(F)c(F)c5F)c5ccc2[nH]5)C=C4)C=C3)cc1)N1C(=O)/C(=C2\C(=O)Nc3ccc(Br)cc32)SC1=S
REMARK SMILES IDX 10 1 9 2 8 3 6 4 7 5 5 7 4 8 2 9 1 10 3 11 79 12 80 13 95 14
REMARK SMILES IDX 81 15 82 16 94 17 96 18 83 19 84 20 93 21 85 22 86 23 87 24
REMARK SMILES IDX 92 25 88 27 90 28 89 29 91 30 11 31 12 32 13 33 14 34 15 36
REMARK SMILES IDX 16 37 17 38 78 39 18 40 77 41 19 42 20 43 21 44 71 45 22 46
REMARK SMILES IDX 76 47 70 48 72 49 23 50 75 51 69 52 68 53 24 55 56 56 36 57
REMARK SMILES IDX 55 58 37 59 40 60 54 61 73 62 38 63 39 64 53 66 74 67 41 68
REMARK SMILES IDX 25 69 26 70 34 71 27 72 28 73 32 74 35 75 29 76 30 77 33 78
REMARK SMILES IDX 31 79 57 80 58 81 66 82 59 83 60 84 64 85 67 86 61 87 62 88
REMARK SMILES IDX 65 89 63 90 42 91 43 92 51 93 44 94 45 95 49 96 52 97 46 98
REMARK SMILES IDX 47 99 50 100 48 101
REMARK H PARENT 8 6 86 26 13 35 72 54 40 65
REMARK Flexibility Score: inf
ROOT
ATOM      1  C   UNL A   1      32.001  30.083  27.020  1.00  0.00     0.023 C 
ENDROOT
BRANCH   1   2
ATOM      2  C   UNL A   1      33.439  29.595  26.902  1.00  0.00     0.116 C 
BRANCH   2   3
ATOM      3  N   UNL A   1      33.811  29.389  25.532  1.00  0.00    -0.354 N 
ATOM      4  C   UNL A   1      33.258  28.700  24.514  1.00  0.00     0.243 C 
ATOM      5  O   UNL A   1      33.893  28.831  23.452  1.00  0.00    -0.273 OA
ATOM      6  H   UNL A   1      34.647  29.848  25.283  1.00  0.00     0.163 HD
BRANCH   4   7
ATOM      7  C   UNL A   1      31.868  27.963  24.503  1.00  0.00     0.181 C 
BRANCH   7   8
ATOM      8  C   UNL A   1      30.887  28.997  23.851  1.00  0.00     0.038 C 
BRANCH   8   9
ATOM      9  C   UNL A   1      29.945  28.709  22.681  1.00  0.00    -0.015 C 
ATOM     10  C   UNL A   1      28.604  28.119  23.090  1.00  0.00     0.007 C 
ATOM     11  C   UNL A   1      29.723  30.024  21.913  1.00  0.00     0.007 C 
ENDBRANCH   8   9
ENDBRANCH   7   8
BRANCH   7  12
ATOM     12  N   UNL A   1      31.702  26.522  24.168  1.00  0.00    -0.280 N 
ATOM     13  C   UNL A   1      31.054  25.618  24.998  1.00  0.00     0.267 C 
ATOM     14  C   UNL A   1      32.152  25.965  22.978  1.00  0.00     0.149 C 
ATOM     15  O   UNL A   1      30.219  25.888  25.846  1.00  0.00    -0.268 OA
ATOM     16  C   UNL A   1      31.383  24.212  24.561  1.00  0.00     0.093 C 
ATOM     17  S   UNL A   1      31.594  24.297  22.850  1.00  0.00    -0.053 SA
ATOM     18  S   UNL A   1      33.069  26.645  21.759  1.00  0.00    -0.052 S 
ATOM     19  C   UNL A   1      31.732  23.144  25.304  1.00  0.00     0.069 C 
ATOM     20  C   UNL A   1      32.022  23.242  26.780  1.00  0.00     0.257 C 
ATOM     21  C   UNL A   1      32.128  21.768  24.904  1.00  0.00     0.013 A 
ATOM     22  O   UNL A   1      31.904  24.209  27.513  1.00  0.00    -0.269 OA
ATOM     23  N   UNL A   1      32.571  22.024  27.137  1.00  0.00    -0.321 N 
ATOM     24  C   UNL A   1      32.631  21.153  26.057  1.00  0.00     0.049 A 
ATOM     25  C   UNL A   1      32.062  21.036  23.727  1.00  0.00     0.026 A 
ATOM     26  H   UNL A   1      32.882  21.802  28.043  1.00  0.00     0.170 HD
ATOM     27  C   UNL A   1      33.100  19.851  26.086  1.00  0.00     0.028 A 
ATOM     28  C   UNL A   1      32.526  19.711  23.736  1.00  0.00     0.018 A 
ATOM     29  C   UNL A   1      33.044  19.121  24.900  1.00  0.00     0.018 A 
ATOM     30  Br  UNL A   1      32.448  18.688  22.143  1.00  0.00    -0.051 Br
ENDBRANCH   7  12
ENDBRANCH   4   7
ENDBRANCH   2   3
ENDBRANCH   1   2
BRANCH   1  31
ATOM     31  C   UNL A   1      31.836  31.586  26.787  1.00  0.00     0.023 C 
BRANCH  31  32
ATOM     32  C   UNL A   1      32.936  32.462  27.381  1.00  0.00     0.116 C 
BRANCH  32  33
ATOM     33  N   UNL A   1      32.532  33.842  27.612  1.00  0.00    -0.352 N 
ATOM     34  C   UNL A   1      33.064  34.744  28.501  1.00  0.00     0.251 C 
ATOM     35  H   UNL A   1      31.783  34.169  27.061  1.00  0.00     0.163 HD
ATOM     36  O   UNL A   1      32.557  35.850  28.654  1.00  0.00    -0.269 OA
BRANCH  34  37
ATOM     37  C   UNL A   1      34.227  34.336  29.310  1.00  0.00     0.039 A 
ATOM     38  C   UNL A   1      34.000  33.723  30.542  1.00  0.00     0.014 A 
ATOM     39  C   UNL A   1      35.524  34.482  28.811  1.00  0.00     0.014 A 
ATOM     40  C   UNL A   1      35.077  33.183  31.243  1.00  0.00     0.010 A 
ATOM     41  C   UNL A   1      36.584  33.870  29.472  1.00  0.00     0.010 A 
ATOM     42  C   UNL A   1      36.370  33.209  30.689  1.00  0.00    -0.014 A 
BRANCH  42  43
ATOM     43  C   UNL A   1      37.496  32.521  31.370  1.00  0.00     0.031 A 
ATOM     44  C   UNL A   1      38.207  31.379  30.702  1.00  0.00     0.074 A 
ATOM     45  C   UNL A   1      37.849  32.909  32.612  1.00  0.00     0.049 A 
ATOM     46  N   UNL A   1      39.210  30.661  31.140  1.00  0.00    -0.248 NA
ATOM     47  C   UNL A   1      37.712  30.971  29.376  1.00  0.00     0.031 C 
ATOM     48  C   UNL A   1      37.189  33.959  33.391  1.00  0.00     0.029 A 
ATOM     49  N   UNL A   1      38.851  32.466  33.439  1.00  0.00    -0.354 N 
ATOM     50  C   UNL A   1      39.467  29.725  30.147  1.00  0.00     0.074 A 
ATOM     51  C   UNL A   1      38.473  29.918  29.115  1.00  0.00     0.031 C 
ATOM     52  C   UNL A   1      37.824  34.103  34.564  1.00  0.00     0.029 A 
ATOM     53  C   UNL A   1      38.913  33.135  34.637  1.00  0.00     0.049 A 
ATOM     54  H   UNL A   1      39.468  31.739  33.196  1.00  0.00     0.167 HD
ATOM     55  C   UNL A   1      40.462  28.810  30.088  1.00  0.00     0.037 A 
ATOM     56  C   UNL A   1      39.752  32.981  35.678  1.00  0.00     0.037 A 
ATOM     57  C   UNL A   1      41.457  28.629  31.112  1.00  0.00     0.049 A 
ATOM     58  C   UNL A   1      40.847  31.950  35.584  1.00  0.00     0.074 A 
ATOM     59  C   UNL A   1      42.533  27.759  31.128  1.00  0.00     0.029 A 
ATOM     60  N   UNL A   1      41.496  29.333  32.307  1.00  0.00    -0.354 N 
ATOM     61  N   UNL A   1      41.129  31.127  34.604  1.00  0.00    -0.248 NA
ATOM     62  C   UNL A   1      41.748  31.838  36.740  1.00  0.00     0.031 C 
ATOM     63  C   UNL A   1      43.195  27.902  32.351  1.00  0.00     0.029 A 
ATOM     64  C   UNL A   1      42.567  28.902  33.075  1.00  0.00     0.049 A 
ATOM     65  H   UNL A   1      40.858  30.035  32.571  1.00  0.00     0.167 HD
ATOM     66  C   UNL A   1      42.251  30.418  35.012  1.00  0.00     0.074 A 
ATOM     67  C   UNL A   1      42.617  30.931  36.315  1.00  0.00     0.031 C 
ATOM     68  C   UNL A   1      42.917  29.427  34.370  1.00  0.00     0.037 A 
BRANCH  55  69
ATOM     69  C   UNL A   1      40.541  27.944  28.864  1.00  0.00     0.064 A 
ATOM     70  C   UNL A   1      39.824  26.740  28.773  1.00  0.00     0.173 A 
ATOM     71  C   UNL A   1      41.291  28.346  27.749  1.00  0.00     0.173 A 
ATOM     72  F   UNL A   1      39.103  26.303  29.816  1.00  0.00    -0.203 F 
ATOM     73  C   UNL A   1      39.872  25.963  27.619  1.00  0.00     0.198 A 
ATOM     74  C   UNL A   1      41.311  27.583  26.586  1.00  0.00     0.198 A 
ATOM     75  F   UNL A   1      41.993  29.490  27.783  1.00  0.00    -0.203 F 
ATOM     76  F   UNL A   1      39.212  24.798  27.570  1.00  0.00    -0.200 F 
ATOM     77  C   UNL A   1      40.607  26.389  26.523  1.00  0.00     0.200 A 
ATOM     78  F   UNL A   1      42.011  28.003  25.523  1.00  0.00    -0.200 F 
ATOM     79  F   UNL A   1      40.638  25.649  25.406  1.00  0.00    -0.200 F 
ENDBRANCH  55  69
BRANCH  56  80
ATOM     80  C   UNL A   1      39.610  33.828  36.893  1.00  0.00     0.064 A 
ATOM     81  C   UNL A   1      38.857  33.395  37.995  1.00  0.00     0.173 A 
ATOM     82  C   UNL A   1      40.191  35.102  36.964  1.00  0.00     0.173 A 
ATOM     83  F   UNL A   1      38.265  32.192  37.969  1.00  0.00    -0.203 F 
ATOM     84  C   UNL A   1      38.659  34.219  39.101  1.00  0.00     0.198 A 
ATOM     85  C   UNL A   1      40.022  35.911  38.086  1.00  0.00     0.198 A 
ATOM     86  F   UNL A   1      40.928  35.563  35.942  1.00  0.00    -0.203 F 
ATOM     87  F   UNL A   1      37.878  33.806  40.109  1.00  0.00    -0.200 F 
ATOM     88  C   UNL A   1      39.243  35.475  39.147  1.00  0.00     0.200 A 
ATOM     89  F   UNL A   1      40.603  37.118  38.133  1.00  0.00    -0.200 F 
ATOM     90  F   UNL A   1      39.049  36.269  40.209  1.00  0.00    -0.200 F 
ENDBRANCH  56  80
BRANCH  68  91
ATOM     91  C   UNL A   1      44.123  28.856  35.061  1.00  0.00     0.064 A 
ATOM     92  C   UNL A   1      44.025  27.761  35.931  1.00  0.00     0.173 A 
ATOM     93  C   UNL A   1      45.395  29.407  34.840  1.00  0.00     0.173 A 
ATOM     94  F   UNL A   1      42.829  27.206  36.187  1.00  0.00    -0.203 F 
ATOM     95  C   UNL A   1      45.147  27.264  36.587  1.00  0.00     0.198 A 
ATOM     96  C   UNL A   1      46.521  28.885  35.469  1.00  0.00     0.198 A 
ATOM     97  F   UNL A   1      45.546  30.450  34.010  1.00  0.00    -0.203 F 
ATOM     98  F   UNL A   1      45.018  26.260  37.465  1.00  0.00    -0.200 F 
ATOM     99  C   UNL A   1      46.395  27.822  36.351  1.00  0.00     0.200 A 
ATOM    100  F   UNL A   1      47.727  29.415  35.228  1.00  0.00    -0.200 F 
ATOM    101  F   UNL A   1      47.474  27.344  36.984  1.00  0.00    -0.200 F 
ENDBRANCH  68  91
ENDBRANCH  42  43
ENDBRANCH  34  37
ENDBRANCH  32  33
ENDBRANCH  31  32
ENDBRANCH   1  31
TORSDOF 14
ENDMDL
MODEL 3
REMARK VINA RESULT:     -13.1      3.313      5.759
REMARK SMILES CC(C)C[C@H](C(=O)NCCCCNC(=O)c1ccc(-c2c3nc(c(-c4c(F)c(F)c(F)c(F)c4F)c4ccc([nH]4)c(-c4c(F)c(F)c(F)c(F)c4F)c4nc(c(-c5c(F)c(F)c(F)c(F)c5F)c5ccc2[nH]5)C=C4)C=C3)cc1)N1C(=O)/C(=C2\C(=O)Nc3ccc(Br)cc32)SC1=S
REMARK SMILES IDX 10 1 9 2 8 3 6 4 7 5 5 7 4 8 2 9 1 10 3 11 79 12 80 13 95 14
REMARK SMILES IDX 81 15 82 16 94 17 96 18 83 19 84 20 93 21 85 22 86 23 87 24
REMARK SMILES IDX 92 25 88 27 90 28 89 29 91 30 11 31 12 32 13 33 14 34 15 36
REMARK SMILES IDX 16 37 17 38 78 39 18 40 77 41 19 42 20 43 21 44 71 45 22 46
REMARK SMILES IDX 76 47 70 48 72 49 23 50 75 51 69 52 68 53 24 55 56 56 36 57
REMARK SMILES IDX 55 58 37 59 40 60 54 61 73 62 38 63 39 64 53 66 74 67 41 68
REMARK SMILES IDX 25 69 26 70 34 71 27 72 28 73 32 74 35 75 29 76 30 77 33 78
REMARK SMILES IDX 31 79 57 80 58 81 66 82 59 83 60 84 64 85 67 86 61 87 62 88
REMARK SMILES IDX 65 89 63 90 42 91 43 92 51 93 44 94 45 95 49 96 52 97 46 98
REMARK SMILES IDX 47 99 50 100 48 101
REMARK H PARENT 8 6 86 26 13 35 72 54 40 65
REMARK Flexibility Score: inf
ROOT
ATOM      1  C   UNL A   1      33.838  25.468  26.111  1.00  0.00     0.023 C 
ENDROOT
BRANCH   1   2
ATOM      2  C   UNL A   1      35.117  24.961  25.459  1.00  0.00     0.116 C 
BRANCH   2   3
ATOM      3  N   UNL A   1      35.402  23.609  25.843  1.00  0.00    -0.354 N 
ATOM      4  C   UNL A   1      34.924  22.412  25.446  1.00  0.00     0.243 C 
ATOM      5  O   UNL A   1      35.495  21.463  26.012  1.00  0.00    -0.273 OA
ATOM      6  H   UNL A   1      36.092  23.540  26.543  1.00  0.00     0.163 HD
BRANCH   4   7
ATOM      7  C   UNL A   1      33.922  22.127  24.267  1.00  0.00     0.181 C 
BRANCH   7   8
ATOM      8  C   UNL A   1      33.635  20.589  24.368  1.00  0.00     0.038 C 
BRANCH   8   9
ATOM      9  C   UNL A   1      32.382  19.885  23.844  1.00  0.00    -0.015 C 
ATOM     10  C   UNL A   1      32.146  20.059  22.352  1.00  0.00     0.007 C 
ATOM     11  C   UNL A   1      32.501  18.388  24.181  1.00  0.00     0.007 C 
ENDBRANCH   8   9
ENDBRANCH   7   8
BRANCH   7  12
ATOM     12  N   UNL A   1      32.799  23.033  23.903  1.00  0.00    -0.280 N 
ATOM     13  C   UNL A   1      32.771  23.777  22.731  1.00  0.00     0.267 C 
ATOM     14  C   UNL A   1      31.664  23.187  24.689  1.00  0.00     0.149 C 
ATOM     15  O   UNL A   1      33.378  23.525  21.702  1.00  0.00    -0.268 OA
ATOM     16  C   UNL A   1      31.714  24.847  22.841  1.00  0.00     0.093 C 
ATOM     17  S   UNL A   1      30.475  24.172  23.837  1.00  0.00    -0.053 SA
ATOM     18  S   UNL A   1      31.328  22.583  26.209  1.00  0.00    -0.052 S 
ATOM     19  C   UNL A   1      31.777  26.151  22.511  1.00  0.00     0.069 C 
ATOM     20  C   UNL A   1      33.061  26.822  22.097  1.00  0.00     0.257 C 
ATOM     21  C   UNL A   1      30.782  27.244  22.670  1.00  0.00     0.013 A 
ATOM     22  O   UNL A   1      34.155  26.316  21.911  1.00  0.00    -0.269 OA
ATOM     23  N   UNL A   1      32.788  28.177  22.075  1.00  0.00    -0.321 N 
ATOM     24  C   UNL A   1      31.463  28.437  22.397  1.00  0.00     0.049 A 
ATOM     25  C   UNL A   1      29.428  27.297  22.966  1.00  0.00     0.026 A 
ATOM     26  H   UNL A   1      33.451  28.871  21.858  1.00  0.00     0.170 HD
ATOM     27  C   UNL A   1      30.865  29.685  22.437  1.00  0.00     0.028 A 
ATOM     28  C   UNL A   1      28.799  28.552  23.006  1.00  0.00     0.018 A 
ATOM     29  C   UNL A   1      29.506  29.737  22.748  1.00  0.00     0.018 A 
ATOM     30  Br  UNL A   1      26.951  28.653  23.409  1.00  0.00    -0.051 Br
ENDBRANCH   7  12
ENDBRANCH   4   7
ENDBRANCH   2   3
ENDBRANCH   1   2
BRANCH   1  31
ATOM     31  C   UNL A   1      33.499  26.919  25.768  1.00  0.00     0.023 C 
BRANCH  31  32
ATOM     32  C   UNL A   1      34.471  27.961  26.316  1.00  0.00     0.116 C 
BRANCH  32  33
ATOM     33  N   UNL A   1      33.839  29.219  26.690  1.00  0.00    -0.352 N 
ATOM     34  C   UNL A   1      34.332  30.206  27.509  1.00  0.00     0.251 C 
ATOM     35  H   UNL A   1      32.946  29.382  26.308  1.00  0.00     0.163 HD
ATOM     36  O   UNL A   1      33.644  31.174  27.812  1.00  0.00    -0.269 OA
BRANCH  34  37
ATOM     37  C   UNL A   1      35.690  30.050  28.062  1.00  0.00     0.039 A 
ATOM     38  C   UNL A   1      35.829  29.570  29.364  1.00  0.00     0.014 A 
ATOM     39  C   UNL A   1      36.812  30.296  27.267  1.00  0.00     0.014 A 
ATOM     40  C   UNL A   1      37.100  29.260  29.844  1.00  0.00     0.010 A 
ATOM     41  C   UNL A   1      38.069  29.910  27.719  1.00  0.00     0.010 A 
ATOM     42  C   UNL A   1      38.225  29.381  29.008  1.00  0.00    -0.014 A 
BRANCH  42  43
ATOM     43  C   UNL A   1      39.561  28.930  29.471  1.00  0.00     0.031 A 
ATOM     44  C   UNL A   1      40.341  29.750  30.459  1.00  0.00     0.074 A 
ATOM     45  C   UNL A   1      40.084  27.795  28.967  1.00  0.00     0.049 A 
ATOM     46  N   UNL A   1      41.519  29.515  30.979  1.00  0.00    -0.248 NA
ATOM     47  C   UNL A   1      39.729  31.013  30.906  1.00  0.00     0.031 C 
ATOM     48  C   UNL A   1      39.453  26.950  27.950  1.00  0.00     0.029 A 
ATOM     49  N   UNL A   1      41.266  27.153  29.239  1.00  0.00    -0.354 N 
ATOM     50  C   UNL A   1      41.785  30.594  31.812  1.00  0.00     0.074 A 
ATOM     51  C   UNL A   1      40.681  31.517  31.678  1.00  0.00     0.031 C 
ATOM     52  C   UNL A   1      40.235  25.887  27.712  1.00  0.00     0.029 A 
ATOM     53  C   UNL A   1      41.439  25.990  28.530  1.00  0.00     0.049 A 
ATOM     54  H   UNL A   1      41.928  27.495  29.883  1.00  0.00     0.167 HD
ATOM     55  C   UNL A   1      42.840  30.780  32.639  1.00  0.00     0.037 A 
ATOM     56  C   UNL A   1      42.455  25.107  28.538  1.00  0.00     0.037 A 
ATOM     57  C   UNL A   1      43.932  29.852  32.779  1.00  0.00     0.049 A 
ATOM     58  C   UNL A   1      43.618  25.345  29.466  1.00  0.00     0.074 A 
ATOM     59  C   UNL A   1      45.027  29.928  33.622  1.00  0.00     0.029 A 
ATOM     60  N   UNL A   1      44.067  28.677  32.055  1.00  0.00    -0.354 N 
ATOM     61  N   UNL A   1      43.818  26.328  30.309  1.00  0.00    -0.248 NA
ATOM     62  C   UNL A   1      44.690  24.340  29.450  1.00  0.00     0.031 C 
ATOM     63  C   UNL A   1      45.849  28.824  33.374  1.00  0.00     0.029 A 
ATOM     64  C   UNL A   1      45.238  28.029  32.418  1.00  0.00     0.049 A 
ATOM     65  H   UNL A   1      43.426  28.351  31.382  1.00  0.00     0.167 HD
ATOM     66  C   UNL A   1      45.022  26.049  30.941  1.00  0.00     0.074 A 
ATOM     67  C   UNL A   1      45.491  24.788  30.406  1.00  0.00     0.031 C 
ATOM     68  C   UNL A   1      45.687  26.773  31.875  1.00  0.00     0.037 A 
BRANCH  55  69
ATOM     69  C   UNL A   1      42.859  32.026  33.477  1.00  0.00     0.064 A 
ATOM     70  C   UNL A   1      42.286  32.054  34.758  1.00  0.00     0.173 A 
ATOM     71  C   UNL A   1      43.504  33.185  33.021  1.00  0.00     0.173 A 
ATOM     72  F   UNL A   1      41.645  30.977  35.235  1.00  0.00    -0.203 F 
ATOM     73  C   UNL A   1      42.343  33.202  35.543  1.00  0.00     0.198 A 
ATOM     74  C   UNL A   1      43.586  34.321  33.822  1.00  0.00     0.198 A 
ATOM     75  F   UNL A   1      44.070  33.211  31.804  1.00  0.00    -0.203 F 
ATOM     76  F   UNL A   1      41.754  33.218  36.748  1.00  0.00    -0.200 F 
ATOM     77  C   UNL A   1      43.001  34.331  35.079  1.00  0.00     0.200 A 
ATOM     78  F   UNL A   1      44.234  35.407  33.377  1.00  0.00    -0.200 F 
ATOM     79  F   UNL A   1      43.069  35.430  35.844  1.00  0.00    -0.200 F 
ENDBRANCH  55  69
BRANCH  56  80
ATOM     80  C   UNL A   1      42.420  23.909  27.657  1.00  0.00     0.064 A 
ATOM     81  C   UNL A   1      42.005  22.661  28.146  1.00  0.00     0.173 A 
ATOM     82  C   UNL A   1      42.836  23.976  26.319  1.00  0.00     0.173 A 
ATOM     83  F   UNL A   1      41.615  22.540  29.425  1.00  0.00    -0.203 F 
ATOM     84  C   UNL A   1      42.045  21.523  27.345  1.00  0.00     0.198 A 
ATOM     85  C   UNL A   1      42.842  22.843  25.508  1.00  0.00     0.198 A 
ATOM     86  F   UNL A   1      43.236  25.145  25.798  1.00  0.00    -0.203 F 
ATOM     87  F   UNL A   1      41.707  20.332  27.859  1.00  0.00    -0.200 F 
ATOM     88  C   UNL A   1      42.461  21.615  26.025  1.00  0.00     0.200 A 
ATOM     89  F   UNL A   1      43.228  22.940  24.228  1.00  0.00    -0.200 F 
ATOM     90  F   UNL A   1      42.504  20.518  25.256  1.00  0.00    -0.200 F 
ENDBRANCH  56  80
BRANCH  68  91
ATOM     91  C   UNL A   1      46.975  26.200  32.394  1.00  0.00     0.064 A 
ATOM     92  C   UNL A   1      48.211  26.520  31.814  1.00  0.00     0.173 A 
ATOM     93  C   UNL A   1      46.973  25.327  33.493  1.00  0.00     0.173 A 
ATOM     94  F   UNL A   1      48.267  27.339  30.751  1.00  0.00    -0.203 F 
ATOM     95  C   UNL A   1      49.392  25.956  32.287  1.00  0.00     0.198 A 
ATOM     96  C   UNL A   1      48.159  24.794  33.988  1.00  0.00     0.198 A 
ATOM     97  F   UNL A   1      45.819  24.995  34.092  1.00  0.00    -0.203 F 
ATOM     98  F   UNL A   1      50.553  26.225  31.673  1.00  0.00    -0.200 F 
ATOM     99  C   UNL A   1      49.367  25.098  33.376  1.00  0.00     0.200 A 
ATOM    100  F   UNL A   1      48.134  23.979  35.050  1.00  0.00    -0.200 F 
ATOM    101  F   UNL A   1      50.504  24.556  33.830  1.00  0.00    -0.200 F 
ENDBRANCH  68  91
ENDBRANCH  42  43
ENDBRANCH  34  37
ENDBRANCH  32  33
ENDBRANCH  31  32
ENDBRANCH   1  31
TORSDOF 14
ENDMDL
