MODEL 1
REMARK VINA RESULT:     -14.8      0.000      0.000
REMARK SMILES Cc1ccccc1C(=O)Nc1cc(C(=O)NCCCCNC(=O)c2ccc(-c3c4nc(c(-c5c(F)c(F)c(F)c(F)c5F)c5ccc([nH]5)c(-c5c(F)c(F)c(F)c(F)c5F)c5nc(c(-c6c(F)c(F)c(F)c(F)c6F)c6ccc3[nH]6)C=C5)C=C4)cc2)ccc1N1CC[NH+](CC(=O)Nc2ccc(F)cc2)CC1
REMARK SMILES IDX 17 1 16 2 14 3 15 4 13 6 11 7 12 8 89 9 88 10 87 11 10 12
REMARK SMILES IDX 8 13 9 14 7 16 1 17 2 18 3 19 4 20 6 21 5 22 90 23 91 24
REMARK SMILES IDX 106 25 92 26 105 27 93 28 94 30 95 31 96 32 97 33 98 35
REMARK SMILES IDX 99 36 104 37 100 38 103 39 101 40 102 41 18 42 19 43 20 44
REMARK SMILES IDX 21 45 22 46 23 48 24 49 25 50 86 51 26 52 85 53 27 54 28 55
REMARK SMILES IDX 29 56 79 57 30 58 84 59 78 60 80 61 31 62 83 63 77 64 76 65
REMARK SMILES IDX 32 67 64 68 44 69 63 70 45 71 48 72 62 73 81 74 46 75 47 76
REMARK SMILES IDX 61 78 82 79 49 80 33 81 34 82 42 83 35 84 36 85 40 86 43 87
REMARK SMILES IDX 37 88 38 89 41 90 39 91 65 92 66 93 74 94 67 95 68 96 72 97
REMARK SMILES IDX 75 98 69 99 70 100 73 101 71 102 50 103 51 104 59 105 52 106
REMARK SMILES IDX 53 107 57 108 60 109 54 110 55 111 58 112 56 113
REMARK H PARENT 16 5 10 15 93 29 97 34 21 47 80 66 48 77
REMARK Flexibility Score: inf
ROOT
ATOM      1  C   UNL A   1      30.525  26.431  25.976  1.00  0.00     0.116 C 
ENDROOT
BRANCH   1   2
ATOM      2  N   UNL A   1      29.847  25.273  26.540  1.00  0.00    -0.352 N 
ATOM      3  C   UNL A   1      30.237  23.983  26.827  1.00  0.00     0.251 C 
ATOM      4  O   UNL A   1      29.410  23.266  27.394  1.00  0.00    -0.269 OA
ATOM      5  H   UNL A   1      28.905  25.449  26.765  1.00  0.00     0.163 HD
BRANCH   3   6
ATOM      6  C   UNL A   1      31.585  23.414  26.525  1.00  0.00     0.042 A 
ATOM      7  C   UNL A   1      33.334  22.736  24.991  1.00  0.00     0.065 A 
ATOM      8  C   UNL A   1      32.023  23.125  25.249  1.00  0.00     0.042 A 
ATOM      9  C   UNL A   1      34.271  22.478  26.022  1.00  0.00     0.061 A 
ATOM     10  C   UNL A   1      33.796  22.694  27.324  1.00  0.00     0.029 A 
ATOM     11  C   UNL A   1      32.492  23.183  27.570  1.00  0.00     0.016 A 
BRANCH   7  12
ATOM     12  N   UNL A   1      33.690  22.628  23.640  1.00  0.00    -0.320 N 
ATOM     13  C   UNL A   1      34.026  23.663  22.778  1.00  0.00     0.255 C 
ATOM     14  O   UNL A   1      34.586  23.376  21.716  1.00  0.00    -0.269 OA
ATOM     15  H   UNL A   1      33.705  21.720  23.261  1.00  0.00     0.170 HD
BRANCH  13  16
ATOM     16  C   UNL A   1      33.727  25.100  23.050  1.00  0.00     0.043 A 
ATOM     17  C   UNL A   1      32.123  25.650  21.082  1.00  0.00     0.045 C 
ATOM     18  C   UNL A   1      32.938  25.997  22.293  1.00  0.00    -0.038 A 
ATOM     19  C   UNL A   1      32.870  27.350  22.696  1.00  0.00     0.004 A 
ATOM     20  C   UNL A   1      33.490  27.786  23.860  1.00  0.00     0.000 A 
ATOM     21  C   UNL A   1      34.302  25.549  24.249  1.00  0.00     0.014 A 
ATOM     22  C   UNL A   1      34.185  26.877  24.644  1.00  0.00     0.001 A 
ENDBRANCH  13  16
ENDBRANCH   7  12
BRANCH   9  23
ATOM     23  N   UNL A   1      35.586  22.112  25.762  1.00  0.00    -0.359 N 
ATOM     24  C   UNL A   1      36.023  20.738  25.394  1.00  0.00     0.178 C 
ATOM     25  C   UNL A   1      36.678  22.850  26.392  1.00  0.00     0.178 C 
ATOM     26  C   UNL A   1      37.497  20.702  24.804  1.00  0.00     0.284 C 
ATOM     27  C   UNL A   1      37.775  23.012  25.343  1.00  0.00     0.284 C 
ATOM     28  N   UNL A   1      38.481  21.749  25.181  1.00  0.00    -0.324 N 
ATOM     29  H   UNL A   1      39.134  21.780  24.399  1.00  0.00     0.348 HD
BRANCH  28  30
ATOM     30  C   UNL A   1      39.445  21.474  26.275  1.00  0.00     0.364 C 
BRANCH  30  31
ATOM     31  C   UNL A   1      40.483  22.542  26.619  1.00  0.00     0.279 C 
ATOM     32  O   UNL A   1      40.101  23.634  27.069  1.00  0.00    -0.268 OA
ATOM     33  N   UNL A   1      41.840  22.381  26.533  1.00  0.00    -0.321 N 
ATOM     34  H   UNL A   1      42.307  23.034  27.104  1.00  0.00     0.170 HD
BRANCH  33  35
ATOM     35  C   UNL A   1      42.767  21.548  25.864  1.00  0.00     0.041 A 
ATOM     36  C   UNL A   1      42.575  20.161  26.014  1.00  0.00     0.029 A 
ATOM     37  C   UNL A   1      43.907  21.962  25.183  1.00  0.00     0.029 A 
ATOM     38  C   UNL A   1      43.512  19.232  25.540  1.00  0.00     0.041 A 
ATOM     39  C   UNL A   1      44.883  21.041  24.761  1.00  0.00     0.041 A 
ATOM     40  C   UNL A   1      44.676  19.683  24.941  1.00  0.00     0.123 A 
ATOM     41  F   UNL A   1      45.598  18.804  24.530  1.00  0.00    -0.207 F 
ENDBRANCH  33  35
ENDBRANCH  30  31
ENDBRANCH  28  30
ENDBRANCH   9  23
ENDBRANCH   3   6
ENDBRANCH   1   2
BRANCH   1  42
ATOM     42  C   UNL A   1      31.617  27.004  26.899  1.00  0.00     0.023 C 
BRANCH  42  43
ATOM     43  C   UNL A   1      31.481  28.502  27.154  1.00  0.00     0.023 C 
BRANCH  43  44
ATOM     44  C   UNL A   1      32.827  29.208  27.221  1.00  0.00     0.116 C 
BRANCH  44  45
ATOM     45  N   UNL A   1      32.772  30.619  27.569  1.00  0.00    -0.352 N 
ATOM     46  C   UNL A   1      33.786  31.475  27.976  1.00  0.00     0.251 C 
ATOM     47  H   UNL A   1      31.880  31.029  27.505  1.00  0.00     0.163 HD
ATOM     48  O   UNL A   1      33.512  32.600  28.348  1.00  0.00    -0.269 OA
BRANCH  46  49
ATOM     49  C   UNL A   1      35.216  31.082  27.815  1.00  0.00     0.039 A 
ATOM     50  C   UNL A   1      35.534  29.716  27.898  1.00  0.00     0.014 A 
ATOM     51  C   UNL A   1      36.239  32.021  27.801  1.00  0.00     0.014 A 
ATOM     52  C   UNL A   1      36.827  29.326  28.238  1.00  0.00     0.010 A 
ATOM     53  C   UNL A   1      37.479  31.658  28.274  1.00  0.00     0.010 A 
ATOM     54  C   UNL A   1      37.749  30.318  28.559  1.00  0.00    -0.014 A 
BRANCH  54  55
ATOM     55  C   UNL A   1      38.971  30.105  29.317  1.00  0.00     0.031 A 
ATOM     56  C   UNL A   1      39.727  28.851  29.168  1.00  0.00     0.074 A 
ATOM     57  C   UNL A   1      39.498  31.156  29.983  1.00  0.00     0.049 A 
ATOM     58  N   UNL A   1      40.701  28.505  29.934  1.00  0.00    -0.248 NA
ATOM     59  C   UNL A   1      39.387  27.836  28.178  1.00  0.00     0.031 C 
ATOM     60  C   UNL A   1      40.865  31.332  30.462  1.00  0.00     0.029 A 
ATOM     61  N   UNL A   1      38.804  32.219  30.556  1.00  0.00    -0.354 N 
ATOM     62  C   UNL A   1      41.310  27.411  29.365  1.00  0.00     0.074 A 
ATOM     63  C   UNL A   1      40.372  26.954  28.371  1.00  0.00     0.031 C 
ATOM     64  C   UNL A   1      40.859  32.229  31.461  1.00  0.00     0.029 A 
ATOM     65  C   UNL A   1      39.468  32.535  31.749  1.00  0.00     0.049 A 
ATOM     66  H   UNL A   1      38.003  32.662  30.194  1.00  0.00     0.167 HD
ATOM     67  C   UNL A   1      42.597  27.138  29.722  1.00  0.00     0.037 A 
ATOM     68  C   UNL A   1      38.887  32.479  32.980  1.00  0.00     0.037 A 
ATOM     69  C   UNL A   1      42.969  27.929  30.905  1.00  0.00     0.049 A 
ATOM     70  C   UNL A   1      39.618  31.505  33.877  1.00  0.00     0.074 A 
ATOM     71  C   UNL A   1      43.762  29.048  31.090  1.00  0.00     0.029 A 
ATOM     72  N   UNL A   1      42.242  27.765  32.087  1.00  0.00    -0.354 N 
ATOM     73  N   UNL A   1      40.378  30.546  33.419  1.00  0.00    -0.248 NA
ATOM     74  C   UNL A   1      39.566  31.528  35.334  1.00  0.00     0.031 C 
ATOM     75  C   UNL A   1      43.435  29.611  32.355  1.00  0.00     0.029 A 
ATOM     76  C   UNL A   1      42.478  28.811  32.959  1.00  0.00     0.049 A 
ATOM     77  H   UNL A   1      41.642  27.007  32.273  1.00  0.00     0.167 HD
ATOM     78  C   UNL A   1      40.950  29.875  34.464  1.00  0.00     0.074 A 
ATOM     79  C   UNL A   1      40.394  30.514  35.644  1.00  0.00     0.031 C 
ATOM     80  C   UNL A   1      41.842  28.858  34.270  1.00  0.00     0.037 A 
BRANCH  67  81
ATOM     81  C   UNL A   1      43.606  26.350  28.893  1.00  0.00     0.064 A 
ATOM     82  C   UNL A   1      44.209  26.946  27.759  1.00  0.00     0.173 A 
ATOM     83  C   UNL A   1      43.948  24.992  29.071  1.00  0.00     0.173 A 
ATOM     84  F   UNL A   1      44.008  28.236  27.458  1.00  0.00    -0.203 F 
ATOM     85  C   UNL A   1      45.030  26.235  26.872  1.00  0.00     0.198 A 
ATOM     86  C   UNL A   1      44.788  24.290  28.199  1.00  0.00     0.198 A 
ATOM     87  F   UNL A   1      43.479  24.255  30.075  1.00  0.00    -0.203 F 
ATOM     88  F   UNL A   1      45.530  26.849  25.790  1.00  0.00    -0.200 F 
ATOM     89  C   UNL A   1      45.319  24.906  27.090  1.00  0.00     0.200 A 
ATOM     90  F   UNL A   1      45.056  22.998  28.441  1.00  0.00    -0.200 F 
ATOM     91  F   UNL A   1      46.096  24.220  26.242  1.00  0.00    -0.200 F 
ENDBRANCH  67  81
BRANCH  68  92
ATOM     92  C   UNL A   1      37.423  32.745  32.962  1.00  0.00     0.064 A 
ATOM     93  C   UNL A   1      37.005  34.080  33.144  1.00  0.00     0.173 A 
ATOM     94  C   UNL A   1      36.531  31.871  32.326  1.00  0.00     0.173 A 
ATOM     95  F   UNL A   1      37.826  34.958  33.742  1.00  0.00    -0.203 F 
ATOM     96  C   UNL A   1      35.823  34.554  32.580  1.00  0.00     0.198 A 
ATOM     97  C   UNL A   1      35.338  32.348  31.774  1.00  0.00     0.198 A 
ATOM     98  F   UNL A   1      36.886  30.601  32.083  1.00  0.00    -0.203 F 
ATOM     99  F   UNL A   1      35.530  35.860  32.637  1.00  0.00    -0.200 F 
ATOM    100  C   UNL A   1      35.007  33.693  31.865  1.00  0.00     0.200 A 
ATOM    101  F   UNL A   1      34.575  31.529  31.035  1.00  0.00    -0.200 F 
ATOM    102  F   UNL A   1      33.942  34.169  31.205  1.00  0.00    -0.200 F 
ENDBRANCH  68  92
BRANCH  80 103
ATOM    103  C   UNL A   1      42.275  27.866  35.322  1.00  0.00     0.064 A 
ATOM    104  C   UNL A   1      41.766  26.559  35.415  1.00  0.00     0.173 A 
ATOM    105  C   UNL A   1      43.370  28.155  36.173  1.00  0.00     0.173 A 
ATOM    106  F   UNL A   1      40.806  26.124  34.589  1.00  0.00    -0.203 F 
ATOM    107  C   UNL A   1      42.277  25.630  36.326  1.00  0.00     0.198 A 
ATOM    108  C   UNL A   1      43.918  27.206  37.034  1.00  0.00     0.198 A 
ATOM    109  F   UNL A   1      43.965  29.356  36.168  1.00  0.00    -0.203 F 
ATOM    110  F   UNL A   1      41.732  24.408  36.399  1.00  0.00    -0.200 F 
ATOM    111  C   UNL A   1      43.361  25.948  37.121  1.00  0.00     0.200 A 
ATOM    112  F   UNL A   1      45.004  27.513  37.757  1.00  0.00    -0.200 F 
ATOM    113  F   UNL A   1      43.885  25.035  37.951  1.00  0.00    -0.200 F 
ENDBRANCH  80 103
ENDBRANCH  54  55
ENDBRANCH  46  49
ENDBRANCH  44  45
ENDBRANCH  43  44
ENDBRANCH  42  43
ENDBRANCH   1  42
TORSDOF 17
ENDMDL
MODEL 2
REMARK VINA RESULT:     -14.6      2.773      5.108
REMARK SMILES Cc1ccccc1C(=O)Nc1cc(C(=O)NCCCCNC(=O)c2ccc(-c3c4nc(c(-c5c(F)c(F)c(F)c(F)c5F)c5ccc([nH]5)c(-c5c(F)c(F)c(F)c(F)c5F)c5nc(c(-c6c(F)c(F)c(F)c(F)c6F)c6ccc3[nH]6)C=C5)C=C4)cc2)ccc1N1CC[NH+](CC(=O)Nc2ccc(F)cc2)CC1
REMARK SMILES IDX 17 1 16 2 14 3 15 4 13 6 11 7 12 8 89 9 88 10 87 11 10 12
REMARK SMILES IDX 8 13 9 14 7 16 1 17 2 18 3 19 4 20 6 21 5 22 90 23 91 24
REMARK SMILES IDX 106 25 92 26 105 27 93 28 94 30 95 31 96 32 97 33 98 35
REMARK SMILES IDX 99 36 104 37 100 38 103 39 101 40 102 41 18 42 19 43 20 44
REMARK SMILES IDX 21 45 22 46 23 48 24 49 25 50 86 51 26 52 85 53 27 54 28 55
REMARK SMILES IDX 29 56 79 57 30 58 84 59 78 60 80 61 31 62 83 63 77 64 76 65
REMARK SMILES IDX 32 67 64 68 44 69 63 70 45 71 48 72 62 73 81 74 46 75 47 76
REMARK SMILES IDX 61 78 82 79 49 80 33 81 34 82 42 83 35 84 36 85 40 86 43 87
REMARK SMILES IDX 37 88 38 89 41 90 39 91 65 92 66 93 74 94 67 95 68 96 72 97
REMARK SMILES IDX 75 98 69 99 70 100 73 101 71 102 50 103 51 104 59 105 52 106
REMARK SMILES IDX 53 107 57 108 60 109 54 110 55 111 58 112 56 113
REMARK H PARENT 16 5 10 15 93 29 97 34 21 47 80 66 48 77
REMARK Flexibility Score: inf
ROOT
ATOM      1  C   UNL A   1      34.472  30.847  27.544  1.00  0.00     0.116 C 
ENDROOT
BRANCH   1   2
ATOM      2  N   UNL A   1      33.211  31.389  27.061  1.00  0.00    -0.352 N 
ATOM      3  C   UNL A   1      32.054  30.824  26.569  1.00  0.00     0.251 C 
ATOM      4  O   UNL A   1      31.121  31.592  26.325  1.00  0.00    -0.269 OA
ATOM      5  H   UNL A   1      33.176  32.372  27.090  1.00  0.00     0.163 HD
BRANCH   3   6
ATOM      6  C   UNL A   1      31.849  29.361  26.345  1.00  0.00     0.042 A 
ATOM      7  C   UNL A   1      31.676  27.414  24.914  1.00  0.00     0.065 A 
ATOM      8  C   UNL A   1      31.717  28.792  25.095  1.00  0.00     0.042 A 
ATOM      9  C   UNL A   1      31.629  26.502  25.998  1.00  0.00     0.061 A 
ATOM     10  C   UNL A   1      31.680  27.090  27.271  1.00  0.00     0.029 A 
ATOM     11  C   UNL A   1      31.820  28.487  27.442  1.00  0.00     0.016 A 
BRANCH   7  12
ATOM     12  N   UNL A   1      31.701  26.964  23.587  1.00  0.00    -0.320 N 
ATOM     13  C   UNL A   1      30.927  27.428  22.532  1.00  0.00     0.255 C 
ATOM     14  O   UNL A   1      31.272  27.130  21.385  1.00  0.00    -0.269 OA
ATOM     15  H   UNL A   1      32.336  26.241  23.380  1.00  0.00     0.170 HD
BRANCH  13  16
ATOM     16  C   UNL A   1      29.691  28.247  22.706  1.00  0.00     0.043 A 
ATOM     17  C   UNL A   1      28.163  26.569  23.969  1.00  0.00     0.045 C 
ATOM     18  C   UNL A   1      28.458  27.873  23.287  1.00  0.00    -0.038 A 
ATOM     19  C   UNL A   1      27.386  28.792  23.260  1.00  0.00     0.004 A 
ATOM     20  C   UNL A   1      27.551  30.076  22.754  1.00  0.00     0.000 A 
ATOM     21  C   UNL A   1      29.852  29.564  22.248  1.00  0.00     0.014 A 
ATOM     22  C   UNL A   1      28.793  30.463  22.270  1.00  0.00     0.001 A 
ENDBRANCH  13  16
ENDBRANCH   7  12
BRANCH   9  23
ATOM     23  N   UNL A   1      31.611  25.125  25.817  1.00  0.00    -0.359 N 
ATOM     24  C   UNL A   1      30.718  24.187  26.551  1.00  0.00     0.178 C 
ATOM     25  C   UNL A   1      32.821  24.440  25.368  1.00  0.00     0.178 C 
ATOM     26  C   UNL A   1      30.658  22.749  25.882  1.00  0.00     0.284 C 
ATOM     27  C   UNL A   1      32.389  23.377  24.362  1.00  0.00     0.284 C 
ATOM     28  N   UNL A   1      31.798  22.251  25.071  1.00  0.00    -0.324 N 
ATOM     29  H   UNL A   1      31.380  21.578  24.428  1.00  0.00     0.348 HD
BRANCH  28  30
ATOM     30  C   UNL A   1      32.805  21.366  25.707  1.00  0.00     0.364 C 
BRANCH  30  31
ATOM     31  C   UNL A   1      33.757  20.579  24.806  1.00  0.00     0.279 C 
ATOM     32  O   UNL A   1      33.328  19.594  24.186  1.00  0.00    -0.268 OA
ATOM     33  N   UNL A   1      35.065  20.906  24.563  1.00  0.00    -0.321 N 
ATOM     34  H   UNL A   1      35.380  20.493  23.726  1.00  0.00     0.170 HD
BRANCH  33  35
ATOM     35  C   UNL A   1      36.096  21.666  25.165  1.00  0.00     0.041 A 
ATOM     36  C   UNL A   1      35.850  23.046  25.299  1.00  0.00     0.029 A 
ATOM     37  C   UNL A   1      37.360  21.208  25.518  1.00  0.00     0.029 A 
ATOM     38  C   UNL A   1      36.848  23.933  25.727  1.00  0.00     0.041 A 
ATOM     39  C   UNL A   1      38.386  22.098  25.886  1.00  0.00     0.041 A 
ATOM     40  C   UNL A   1      38.120  23.453  25.990  1.00  0.00     0.123 A 
ATOM     41  F   UNL A   1      39.090  24.301  26.352  1.00  0.00    -0.207 F 
ENDBRANCH  33  35
ENDBRANCH  30  31
ENDBRANCH  28  30
ENDBRANCH   9  23
ENDBRANCH   3   6
ENDBRANCH   1   2
BRANCH   1  42
ATOM     42  C   UNL A   1      34.907  31.438  28.899  1.00  0.00     0.023 C 
BRANCH  42  43
ATOM     43  C   UNL A   1      34.699  32.946  29.006  1.00  0.00     0.023 C 
BRANCH  43  44
ATOM     44  C   UNL A   1      34.485  33.406  30.440  1.00  0.00     0.116 C 
BRANCH  44  45
ATOM     45  N   UNL A   1      35.533  34.257  30.982  1.00  0.00    -0.352 N 
ATOM     46  C   UNL A   1      36.823  33.935  31.382  1.00  0.00     0.251 C 
ATOM     47  H   UNL A   1      35.289  35.205  31.081  1.00  0.00     0.163 HD
ATOM     48  O   UNL A   1      37.509  34.773  31.935  1.00  0.00    -0.269 OA
BRANCH  46  49
ATOM     49  C   UNL A   1      37.426  32.625  31.002  1.00  0.00     0.039 A 
ATOM     50  C   UNL A   1      37.448  31.607  31.970  1.00  0.00     0.014 A 
ATOM     51  C   UNL A   1      38.140  32.460  29.822  1.00  0.00     0.014 A 
ATOM     52  C   UNL A   1      38.384  30.580  31.872  1.00  0.00     0.010 A 
ATOM     53  C   UNL A   1      39.158  31.536  29.786  1.00  0.00     0.010 A 
ATOM     54  C   UNL A   1      39.322  30.641  30.846  1.00  0.00    -0.014 A 
BRANCH  54  55
ATOM     55  C   UNL A   1      40.586  29.924  30.831  1.00  0.00     0.031 A 
ATOM     56  C   UNL A   1      40.690  28.619  30.159  1.00  0.00     0.074 A 
ATOM     57  C   UNL A   1      41.693  30.576  31.252  1.00  0.00     0.049 A 
ATOM     58  N   UNL A   1      41.707  27.837  30.262  1.00  0.00    -0.248 NA
ATOM     59  C   UNL A   1      39.605  28.046  29.372  1.00  0.00     0.031 C 
ATOM     60  C   UNL A   1      43.090  30.263  30.972  1.00  0.00     0.029 A 
ATOM     61  N   UNL A   1      41.760  31.569  32.226  1.00  0.00    -0.354 N 
ATOM     62  C   UNL A   1      41.560  26.837  29.331  1.00  0.00     0.074 A 
ATOM     63  C   UNL A   1      40.183  26.930  28.918  1.00  0.00     0.031 C 
ATOM     64  C   UNL A   1      43.854  30.810  31.931  1.00  0.00     0.029 A 
ATOM     65  C   UNL A   1      42.952  31.356  32.932  1.00  0.00     0.049 A 
ATOM     66  H   UNL A   1      41.101  32.281  32.388  1.00  0.00     0.167 HD
ATOM     67  C   UNL A   1      42.677  26.162  28.935  1.00  0.00     0.037 A 
ATOM     68  C   UNL A   1      43.008  31.096  34.269  1.00  0.00     0.037 A 
ATOM     69  C   UNL A   1      43.794  26.464  29.842  1.00  0.00     0.049 A 
ATOM     70  C   UNL A   1      43.660  29.757  34.531  1.00  0.00     0.074 A 
ATOM     71  C   UNL A   1      44.928  27.251  29.726  1.00  0.00     0.029 A 
ATOM     72  N   UNL A   1      43.670  26.156  31.198  1.00  0.00    -0.354 N 
ATOM     73  N   UNL A   1      43.735  28.812  33.633  1.00  0.00    -0.248 NA
ATOM     74  C   UNL A   1      44.279  29.376  35.795  1.00  0.00     0.031 C 
ATOM     75  C   UNL A   1      45.428  27.492  31.036  1.00  0.00     0.029 A 
ATOM     76  C   UNL A   1      44.628  26.816  31.944  1.00  0.00     0.049 A 
ATOM     77  H   UNL A   1      42.990  25.550  31.573  1.00  0.00     0.167 HD
ATOM     78  C   UNL A   1      44.431  27.751  34.140  1.00  0.00     0.074 A 
ATOM     79  C   UNL A   1      44.733  28.143  35.505  1.00  0.00     0.031 C 
ATOM     80  C   UNL A   1      44.711  26.643  33.390  1.00  0.00     0.037 A 
BRANCH  67  81
ATOM     81  C   UNL A   1      42.850  25.420  27.614  1.00  0.00     0.064 A 
ATOM     82  C   UNL A   1      42.144  24.216  27.381  1.00  0.00     0.173 A 
ATOM     83  C   UNL A   1      43.759  25.754  26.586  1.00  0.00     0.173 A 
ATOM     84  F   UNL A   1      41.226  23.766  28.248  1.00  0.00    -0.203 F 
ATOM     85  C   UNL A   1      42.365  23.408  26.255  1.00  0.00     0.198 A 
ATOM     86  C   UNL A   1      43.961  24.961  25.451  1.00  0.00     0.198 A 
ATOM     87  F   UNL A   1      44.522  26.844  26.622  1.00  0.00    -0.203 F 
ATOM     88  F   UNL A   1      41.695  22.256  26.122  1.00  0.00    -0.200 F 
ATOM     89  C   UNL A   1      43.275  23.780  25.290  1.00  0.00     0.200 A 
ATOM     90  F   UNL A   1      44.849  25.351  24.524  1.00  0.00    -0.200 F 
ATOM     91  F   UNL A   1      43.495  23.009  24.217  1.00  0.00    -0.200 F 
ENDBRANCH  67  81
BRANCH  68  92
ATOM     92  C   UNL A   1      41.895  31.711  35.043  1.00  0.00     0.064 A 
ATOM     93  C   UNL A   1      41.936  33.108  35.236  1.00  0.00     0.173 A 
ATOM     94  C   UNL A   1      40.650  31.079  35.155  1.00  0.00     0.173 A 
ATOM     95  F   UNL A   1      43.104  33.760  35.133  1.00  0.00    -0.203 F 
ATOM     96  C   UNL A   1      40.768  33.854  35.377  1.00  0.00     0.198 A 
ATOM     97  C   UNL A   1      39.482  31.832  35.312  1.00  0.00     0.198 A 
ATOM     98  F   UNL A   1      40.537  29.761  34.939  1.00  0.00    -0.203 F 
ATOM     99  F   UNL A   1      40.828  35.193  35.402  1.00  0.00    -0.200 F 
ATOM    100  C   UNL A   1      39.538  33.218  35.380  1.00  0.00     0.200 A 
ATOM    101  F   UNL A   1      38.288  31.223  35.260  1.00  0.00    -0.200 F 
ATOM    102  F   UNL A   1      38.408  33.938  35.377  1.00  0.00    -0.200 F 
ENDBRANCH  68  92
BRANCH  80 103
ATOM    103  C   UNL A   1      45.182  25.317  33.934  1.00  0.00     0.064 A 
ATOM    104  C   UNL A   1      44.314  24.282  34.323  1.00  0.00     0.173 A 
ATOM    105  C   UNL A   1      46.558  24.980  33.912  1.00  0.00     0.173 A 
ATOM    106  F   UNL A   1      42.984  24.435  34.280  1.00  0.00    -0.203 F 
ATOM    107  C   UNL A   1      44.788  23.026  34.709  1.00  0.00     0.198 A 
ATOM    108  C   UNL A   1      47.021  23.706  34.236  1.00  0.00     0.198 A 
ATOM    109  F   UNL A   1      47.493  25.867  33.538  1.00  0.00    -0.203 F 
ATOM    110  F   UNL A   1      43.919  22.085  35.105  1.00  0.00    -0.200 F 
ATOM    111  C   UNL A   1      46.136  22.733  34.650  1.00  0.00     0.200 A 
ATOM    112  F   UNL A   1      48.326  23.424  34.120  1.00  0.00    -0.200 F 
ATOM    113  F   UNL A   1      46.580  21.509  34.966  1.00  0.00    -0.200 F 
ENDBRANCH  80 103
ENDBRANCH  54  55
ENDBRANCH  46  49
ENDBRANCH  44  45
ENDBRANCH  43  44
ENDBRANCH  42  43
ENDBRANCH   1  42
TORSDOF 17
ENDMDL
MODEL 3
REMARK VINA RESULT:     -14.4      3.683      7.528
REMARK SMILES Cc1ccccc1C(=O)Nc1cc(C(=O)NCCCCNC(=O)c2ccc(-c3c4nc(c(-c5c(F)c(F)c(F)c(F)c5F)c5ccc([nH]5)c(-c5c(F)c(F)c(F)c(F)c5F)c5nc(c(-c6c(F)c(F)c(F)c(F)c6F)c6ccc3[nH]6)C=C5)C=C4)cc2)ccc1N1CC[NH+](CC(=O)Nc2ccc(F)cc2)CC1
REMARK SMILES IDX 17 1 16 2 14 3 15 4 13 6 11 7 12 8 89 9 88 10 87 11 10 12
REMARK SMILES IDX 8 13 9 14 7 16 1 17 2 18 3 19 4 20 6 21 5 22 90 23 91 24
REMARK SMILES IDX 106 25 92 26 105 27 93 28 94 30 95 31 96 32 97 33 98 35
REMARK SMILES IDX 99 36 104 37 100 38 103 39 101 40 102 41 18 42 19 43 20 44
REMARK SMILES IDX 21 45 22 46 23 48 24 49 25 50 86 51 26 52 85 53 27 54 28 55
REMARK SMILES IDX 29 56 79 57 30 58 84 59 78 60 80 61 31 62 83 63 77 64 76 65
REMARK SMILES IDX 32 67 64 68 44 69 63 70 45 71 48 72 62 73 81 74 46 75 47 76
REMARK SMILES IDX 61 78 82 79 49 80 33 81 34 82 42 83 35 84 36 85 40 86 43 87
REMARK SMILES IDX 37 88 38 89 41 90 39 91 65 92 66 93 74 94 67 95 68 96 72 97
REMARK SMILES IDX 75 98 69 99 70 100 73 101 71 102 50 103 51 104 59 105 52 106
REMARK SMILES IDX 53 107 57 108 60 109 54 110 55 111 58 112 56 113
REMARK H PARENT 16 5 10 15 93 29 97 34 21 47 80 66 48 77
REMARK Flexibility Score: inf
ROOT
ATOM      1  C   UNL A   1      35.001  30.145  27.511  1.00  0.00     0.116 C 
ENDROOT
BRANCH   1   2
ATOM      2  N   UNL A   1      33.805  30.676  26.875  1.00  0.00    -0.352 N 
ATOM      3  C   UNL A   1      32.703  30.100  26.280  1.00  0.00     0.251 C 
ATOM      4  O   UNL A   1      31.810  30.863  25.908  1.00  0.00    -0.269 OA
ATOM      5  H   UNL A   1      33.776  31.660  26.867  1.00  0.00     0.163 HD
BRANCH   3   6
ATOM      6  C   UNL A   1      32.511  28.631  26.084  1.00  0.00     0.042 A 
ATOM      7  C   UNL A   1      31.146  26.694  25.583  1.00  0.00     0.065 A 
ATOM      8  C   UNL A   1      31.277  28.039  25.909  1.00  0.00     0.042 A 
ATOM      9  C   UNL A   1      32.250  25.806  25.542  1.00  0.00     0.061 A 
ATOM     10  C   UNL A   1      33.496  26.396  25.803  1.00  0.00     0.029 A 
ATOM     11  C   UNL A   1      33.629  27.784  26.037  1.00  0.00     0.016 A 
BRANCH   7  12
ATOM     12  N   UNL A   1      29.850  26.257  25.276  1.00  0.00    -0.320 N 
ATOM     13  C   UNL A   1      29.075  26.636  24.189  1.00  0.00     0.255 C 
ATOM     14  O   UNL A   1      28.086  25.950  23.913  1.00  0.00    -0.269 OA
ATOM     15  H   UNL A   1      29.445  25.610  25.899  1.00  0.00     0.170 HD
BRANCH  13  16
ATOM     16  C   UNL A   1      29.355  27.838  23.348  1.00  0.00     0.043 A 
ATOM     17  C   UNL A   1      31.564  27.119  22.184  1.00  0.00     0.045 C 
ATOM     18  C   UNL A   1      30.462  28.086  22.504  1.00  0.00    -0.038 A 
ATOM     19  C   UNL A   1      30.564  29.345  21.870  1.00  0.00     0.004 A 
ATOM     20  C   UNL A   1      29.560  30.298  21.994  1.00  0.00     0.000 A 
ATOM     21  C   UNL A   1      28.328  28.792  23.418  1.00  0.00     0.014 A 
ATOM     22  C   UNL A   1      28.434  30.006  22.751  1.00  0.00     0.001 A 
ENDBRANCH  13  16
ENDBRANCH   7  12
BRANCH   9  23
ATOM     23  N   UNL A   1      32.120  24.467  25.194  1.00  0.00    -0.359 N 
ATOM     24  C   UNL A   1      31.938  23.356  26.167  1.00  0.00     0.178 C 
ATOM     25  C   UNL A   1      32.733  23.979  23.962  1.00  0.00     0.178 C 
ATOM     26  C   UNL A   1      31.455  22.010  25.477  1.00  0.00     0.284 C 
ATOM     27  C   UNL A   1      31.748  23.004  23.324  1.00  0.00     0.284 C 
ATOM     28  N   UNL A   1      31.776  21.742  24.051  1.00  0.00    -0.324 N 
ATOM     29  H   UNL A   1      31.040  21.110  23.738  1.00  0.00     0.348 HD
BRANCH  28  30
ATOM     30  C   UNL A   1      32.955  20.904  23.721  1.00  0.00     0.364 C 
BRANCH  30  31
ATOM     31  C   UNL A   1      33.512  19.974  24.799  1.00  0.00     0.279 C 
ATOM     32  O   UNL A   1      32.842  18.993  25.158  1.00  0.00    -0.268 OA
ATOM     33  N   UNL A   1      34.748  20.089  25.379  1.00  0.00    -0.321 N 
ATOM     34  H   UNL A   1      35.033  19.231  25.771  1.00  0.00     0.170 HD
BRANCH  33  35
ATOM     35  C   UNL A   1      35.735  21.082  25.578  1.00  0.00     0.041 A 
ATOM     36  C   UNL A   1      35.276  22.323  26.060  1.00  0.00     0.029 A 
ATOM     37  C   UNL A   1      37.079  20.991  25.232  1.00  0.00     0.029 A 
ATOM     38  C   UNL A   1      36.123  23.438  26.145  1.00  0.00     0.041 A 
ATOM     39  C   UNL A   1      37.919  22.120  25.254  1.00  0.00     0.041 A 
ATOM     40  C   UNL A   1      37.434  23.333  25.713  1.00  0.00     0.123 A 
ATOM     41  F   UNL A   1      38.234  24.406  25.746  1.00  0.00    -0.207 F 
ENDBRANCH  33  35
ENDBRANCH  30  31
ENDBRANCH  28  30
ENDBRANCH   9  23
ENDBRANCH   3   6
ENDBRANCH   1   2
BRANCH   1  42
ATOM     42  C   UNL A   1      35.523  31.032  28.657  1.00  0.00     0.023 C 
BRANCH  42  43
ATOM     43  C   UNL A   1      36.951  31.527  28.449  1.00  0.00     0.023 C 
BRANCH  43  44
ATOM     44  C   UNL A   1      37.945  30.848  29.380  1.00  0.00     0.116 C 
BRANCH  44  45
ATOM     45  N   UNL A   1      37.437  30.525  30.704  1.00  0.00    -0.352 N 
ATOM     46  C   UNL A   1      37.651  29.400  31.488  1.00  0.00     0.251 C 
ATOM     47  H   UNL A   1      36.853  31.209  31.103  1.00  0.00     0.163 HD
ATOM     48  O   UNL A   1      37.027  29.260  32.523  1.00  0.00    -0.269 OA
BRANCH  46  49
ATOM     49  C   UNL A   1      38.747  28.444  31.155  1.00  0.00     0.039 A 
ATOM     50  C   UNL A   1      40.038  28.737  31.625  1.00  0.00     0.014 A 
ATOM     51  C   UNL A   1      38.571  27.416  30.238  1.00  0.00     0.014 A 
ATOM     52  C   UNL A   1      41.148  28.197  30.980  1.00  0.00     0.010 A 
ATOM     53  C   UNL A   1      39.654  26.989  29.505  1.00  0.00     0.010 A 
ATOM     54  C   UNL A   1      40.936  27.436  29.834  1.00  0.00    -0.014 A 
BRANCH  54  55
ATOM     55  C   UNL A   1      41.942  27.155  28.823  1.00  0.00     0.031 A 
ATOM     56  C   UNL A   1      42.518  25.806  28.707  1.00  0.00     0.074 A 
ATOM     57  C   UNL A   1      42.169  28.090  27.874  1.00  0.00     0.049 A 
ATOM     58  N   UNL A   1      43.540  25.522  27.977  1.00  0.00    -0.248 NA
ATOM     59  C   UNL A   1      42.030  24.668  29.477  1.00  0.00     0.031 C 
ATOM     60  C   UNL A   1      42.789  27.918  26.565  1.00  0.00     0.029 A 
ATOM     61  N   UNL A   1      42.059  29.471  28.015  1.00  0.00    -0.354 N 
ATOM     62  C   UNL A   1      43.648  24.153  27.926  1.00  0.00     0.074 A 
ATOM     63  C   UNL A   1      42.789  23.685  28.984  1.00  0.00     0.031 C 
ATOM     64  C   UNL A   1      43.266  29.106  26.156  1.00  0.00     0.029 A 
ATOM     65  C   UNL A   1      43.099  30.034  27.262  1.00  0.00     0.049 A 
ATOM     66  H   UNL A   1      41.384  29.957  28.541  1.00  0.00     0.167 HD
ATOM     67  C   UNL A   1      44.344  23.605  26.890  1.00  0.00     0.037 A 
ATOM     68  C   UNL A   1      44.081  30.818  27.789  1.00  0.00     0.037 A 
ATOM     69  C   UNL A   1      45.106  24.648  26.188  1.00  0.00     0.049 A 
ATOM     70  C   UNL A   1      45.444  30.204  27.554  1.00  0.00     0.074 A 
ATOM     71  C   UNL A   1      44.937  25.298  24.976  1.00  0.00     0.029 A 
ATOM     72  N   UNL A   1      46.062  25.381  26.894  1.00  0.00    -0.354 N 
ATOM     73  N   UNL A   1      45.621  28.934  27.307  1.00  0.00    -0.248 NA
ATOM     74  C   UNL A   1      46.696  30.950  27.569  1.00  0.00     0.031 C 
ATOM     75  C   UNL A   1      45.727  26.480  25.001  1.00  0.00     0.029 A 
ATOM     76  C   UNL A   1      46.412  26.527  26.205  1.00  0.00     0.049 A 
ATOM     77  H   UNL A   1      46.436  25.118  27.766  1.00  0.00     0.167 HD
ATOM     78  C   UNL A   1      46.947  28.692  27.078  1.00  0.00     0.074 A 
ATOM     79  C   UNL A   1      47.584  29.982  27.275  1.00  0.00     0.031 C 
ATOM     80  C   UNL A   1      47.408  27.452  26.735  1.00  0.00     0.037 A 
BRANCH  67  81
ATOM     81  C   UNL A   1      44.172  22.189  26.348  1.00  0.00     0.064 A 
ATOM     82  C   UNL A   1      45.245  21.552  25.680  1.00  0.00     0.173 A 
ATOM     83  C   UNL A   1      42.975  21.441  26.343  1.00  0.00     0.173 A 
ATOM     84  F   UNL A   1      46.459  22.116  25.612  1.00  0.00    -0.203 F 
ATOM     85  C   UNL A   1      45.111  20.314  25.032  1.00  0.00     0.198 A 
ATOM     86  C   UNL A   1      42.849  20.195  25.719  1.00  0.00     0.198 A 
ATOM     87  F   UNL A   1      41.852  21.872  26.914  1.00  0.00    -0.203 F 
ATOM     88  F   UNL A   1      46.156  19.791  24.376  1.00  0.00    -0.200 F 
ATOM     89  C   UNL A   1      43.912  19.636  25.050  1.00  0.00     0.200 A 
ATOM     90  F   UNL A   1      41.671  19.555  25.758  1.00  0.00    -0.200 F 
ATOM     91  F   UNL A   1      43.778  18.458  24.427  1.00  0.00    -0.200 F 
ENDBRANCH  67  81
BRANCH  68  92
ATOM     92  C   UNL A   1      43.649  31.594  28.982  1.00  0.00     0.064 A 
ATOM     93  C   UNL A   1      43.884  31.019  30.249  1.00  0.00     0.173 A 
ATOM     94  C   UNL A   1      43.481  32.984  28.926  1.00  0.00     0.173 A 
ATOM     95  F   UNL A   1      44.058  29.692  30.355  1.00  0.00    -0.203 F 
ATOM     96  C   UNL A   1      44.097  31.809  31.377  1.00  0.00     0.198 A 
ATOM     97  C   UNL A   1      43.681  33.772  30.064  1.00  0.00     0.198 A 
ATOM     98  F   UNL A   1      43.299  33.596  27.748  1.00  0.00    -0.203 F 
ATOM     99  F   UNL A   1      44.472  31.241  32.531  1.00  0.00    -0.200 F 
ATOM    100  C   UNL A   1      44.029  33.188  31.275  1.00  0.00     0.200 A 
ATOM    101  F   UNL A   1      43.670  35.109  29.956  1.00  0.00    -0.200 F 
ATOM    102  F   UNL A   1      44.366  33.957  32.319  1.00  0.00    -0.200 F 
ENDBRANCH  68  92
BRANCH  80 103
ATOM    103  C   UNL A   1      48.853  27.017  26.772  1.00  0.00     0.064 A 
ATOM    104  C   UNL A   1      49.492  26.540  27.929  1.00  0.00     0.173 A 
ATOM    105  C   UNL A   1      49.598  26.899  25.573  1.00  0.00     0.173 A 
ATOM    106  F   UNL A   1      48.856  26.491  29.108  1.00  0.00    -0.203 F 
ATOM    107  C   UNL A   1      50.794  26.035  27.899  1.00  0.00     0.198 A 
ATOM    108  C   UNL A   1      50.872  26.335  25.537  1.00  0.00     0.198 A 
ATOM    109  F   UNL A   1      49.098  27.294  24.393  1.00  0.00    -0.203 F 
ATOM    110  F   UNL A   1      51.371  25.626  29.038  1.00  0.00    -0.200 F 
ATOM    111  C   UNL A   1      51.476  25.917  26.704  1.00  0.00     0.200 A 
ATOM    112  F   UNL A   1      51.496  26.178  24.362  1.00  0.00    -0.200 F 
ATOM    113  F   UNL A   1      52.702  25.378  26.672  1.00  0.00    -0.200 F 
ENDBRANCH  80 103
ENDBRANCH  54  55
ENDBRANCH  46  49
ENDBRANCH  44  45
ENDBRANCH  43  44
ENDBRANCH  42  43
ENDBRANCH   1  42
TORSDOF 17
ENDMDL
