MODEL 1
REMARK VINA RESULT:     -11.5      0.000      0.000
REMARK SMILES C[C@H](C(=O)NCCCCNC(=O)c1ccc(-c2c3nc(c(-c4c(F)c(F)c(F)c(F)c4F)c4ccc([nH]4)c(-c4c(F)c(F)c(F)c(F)c4F)c4nc(c(-c5c(F)c(F)c(F)c(F)c5F)c5ccc2[nH]5)C=C4)C=C3)cc1)c1ccc2c(c1)OCCO2
REMARK SMILES IDX 8 1 7 2 6 3 5 4 3 5 4 6 2 8 1 9 76 10 77 11 81 12 78 13
REMARK SMILES IDX 80 14 79 15 82 16 85 17 83 18 84 19 9 20 10 21 11 22 12 24
REMARK SMILES IDX 13 25 14 26 75 27 15 28 74 29 16 30 17 31 18 32 68 33 19 34
REMARK SMILES IDX 73 35 67 36 69 37 20 38 72 39 66 40 65 41 21 43 53 44 33 45
REMARK SMILES IDX 52 46 34 47 37 48 51 49 70 50 35 51 36 52 50 54 71 55 38 56
REMARK SMILES IDX 22 57 23 58 31 59 24 60 25 61 29 62 32 63 26 64 27 65 30 66
REMARK SMILES IDX 28 67 54 68 55 69 63 70 56 71 57 72 61 73 64 74 58 75 59 76
REMARK SMILES IDX 62 77 60 78 39 79 40 80 48 81 41 82 42 83 46 84 49 85 43 86
REMARK SMILES IDX 44 87 47 88 45 89
REMARK H PARENT 5 7 10 23 69 42 37 53
REMARK Flexibility Score: inf
ROOT
ATOM      1  C   UNL A   1      33.584  34.203  28.381  1.00  0.00     0.023 C 
ENDROOT
BRANCH   1   2
ATOM      2  C   UNL A   1      34.331  35.530  28.526  1.00  0.00     0.023 C 
BRANCH   2   3
ATOM      3  C   UNL A   1      33.510  36.669  29.130  1.00  0.00     0.116 C 
BRANCH   3   4
ATOM      4  N   UNL A   1      32.532  36.179  30.086  1.00  0.00    -0.356 N 
ATOM      5  C   UNL A   1      32.691  35.775  31.385  1.00  0.00     0.227 C 
ATOM      6  O   UNL A   1      31.697  35.328  31.963  1.00  0.00    -0.274 OA
ATOM      7  H   UNL A   1      31.609  36.130  29.747  1.00  0.00     0.163 HD
BRANCH   5   8
ATOM      8  C   UNL A   1      34.058  35.907  32.081  1.00  0.00     0.105 C 
ATOM      9  C   UNL A   1      34.028  36.951  33.193  1.00  0.00     0.023 C 
BRANCH   8  10
ATOM     10  C   UNL A   1      34.569  34.568  32.589  1.00  0.00    -0.032 A 
ATOM     11  C   UNL A   1      34.950  33.541  31.708  1.00  0.00     0.008 A 
ATOM     12  C   UNL A   1      34.853  34.443  33.956  1.00  0.00     0.055 A 
ATOM     13  C   UNL A   1      35.771  32.505  32.154  1.00  0.00     0.051 A 
ATOM     14  C   UNL A   1      35.753  33.477  34.373  1.00  0.00     0.161 A 
ATOM     15  C   UNL A   1      36.244  32.541  33.461  1.00  0.00     0.161 A 
ATOM     16  O   UNL A   1      36.239  33.616  35.644  1.00  0.00    -0.486 OA
ATOM     17  O   UNL A   1      37.320  31.751  33.782  1.00  0.00    -0.486 OA
ATOM     18  C   UNL A   1      37.541  33.044  35.825  1.00  0.00     0.271 C 
ATOM     19  C   UNL A   1      38.213  32.585  34.534  1.00  0.00     0.271 C 
ENDBRANCH   8  10
ENDBRANCH   5   8
ENDBRANCH   3   4
ENDBRANCH   2   3
ENDBRANCH   1   2
BRANCH   1  20
ATOM     20  C   UNL A   1      34.476  32.980  28.206  1.00  0.00     0.116 C 
BRANCH  20  21
ATOM     21  N   UNL A   1      33.753  31.801  27.755  1.00  0.00    -0.352 N 
ATOM     22  C   UNL A   1      34.193  30.507  27.626  1.00  0.00     0.251 C 
ATOM     23  H   UNL A   1      32.812  31.952  27.505  1.00  0.00     0.163 HD
ATOM     24  O   UNL A   1      33.470  29.664  27.097  1.00  0.00    -0.269 OA
BRANCH  22  25
ATOM     25  C   UNL A   1      35.541  30.126  28.100  1.00  0.00     0.039 A 
ATOM     26  C   UNL A   1      35.700  29.703  29.423  1.00  0.00     0.014 A 
ATOM     27  C   UNL A   1      36.649  30.194  27.252  1.00  0.00     0.014 A 
ATOM     28  C   UNL A   1      36.962  29.311  29.877  1.00  0.00     0.010 A 
ATOM     29  C   UNL A   1      37.880  29.705  27.674  1.00  0.00     0.010 A 
ATOM     30  C   UNL A   1      38.059  29.288  29.001  1.00  0.00    -0.014 A 
BRANCH  30  31
ATOM     31  C   UNL A   1      39.410  28.889  29.469  1.00  0.00     0.031 A 
ATOM     32  C   UNL A   1      40.131  29.736  30.483  1.00  0.00     0.074 A 
ATOM     33  C   UNL A   1      40.004  27.794  28.956  1.00  0.00     0.049 A 
ATOM     34  N   UNL A   1      41.320  29.571  31.009  1.00  0.00    -0.248 NA
ATOM     35  C   UNL A   1      39.439  30.949  30.949  1.00  0.00     0.031 C 
ATOM     36  C   UNL A   1      39.433  26.925  27.926  1.00  0.00     0.029 A 
ATOM     37  N   UNL A   1      41.222  27.225  29.233  1.00  0.00    -0.354 N 
ATOM     38  C   UNL A   1      41.518  30.665  31.843  1.00  0.00     0.074 A 
ATOM     39  C   UNL A   1      40.364  31.522  31.702  1.00  0.00     0.031 C 
ATOM     40  C   UNL A   1      40.280  25.910  27.688  1.00  0.00     0.029 A 
ATOM     41  C   UNL A   1      41.468  26.076  28.520  1.00  0.00     0.049 A 
ATOM     42  H   UNL A   1      41.858  27.604  29.880  1.00  0.00     0.167 HD
ATOM     43  C   UNL A   1      42.556  30.918  32.676  1.00  0.00     0.037 A 
ATOM     44  C   UNL A   1      42.531  25.250  28.544  1.00  0.00     0.037 A 
ATOM     45  C   UNL A   1      43.689  30.045  32.836  1.00  0.00     0.049 A 
ATOM     46  C   UNL A   1      43.667  25.549  29.487  1.00  0.00     0.074 A 
ATOM     47  C   UNL A   1      44.763  30.173  33.697  1.00  0.00     0.029 A 
ATOM     48  N   UNL A   1      43.893  28.879  32.111  1.00  0.00    -0.354 N 
ATOM     49  N   UNL A   1      43.808  26.541  30.331  1.00  0.00    -0.248 NA
ATOM     50  C   UNL A   1      44.786  24.597  29.490  1.00  0.00     0.031 C 
ATOM     51  C   UNL A   1      45.646  29.116  33.454  1.00  0.00     0.029 A 
ATOM     52  C   UNL A   1      45.087  28.290  32.492  1.00  0.00     0.049 A 
ATOM     53  H   UNL A   1      43.280  28.524  31.428  1.00  0.00     0.167 HD
ATOM     54  C   UNL A   1      45.004  26.312  30.996  1.00  0.00     0.074 A 
ATOM     55  C   UNL A   1      45.544  25.077  30.464  1.00  0.00     0.031 C 
ATOM     56  C   UNL A   1      45.602  27.052  31.964  1.00  0.00     0.037 A 
BRANCH  43  57
ATOM     57  C   UNL A   1      42.510  32.189  33.479  1.00  0.00     0.064 A 
ATOM     58  C   UNL A   1      41.909  32.244  34.746  1.00  0.00     0.173 A 
ATOM     59  C   UNL A   1      43.095  33.363  32.981  1.00  0.00     0.173 A 
ATOM     60  F   UNL A   1      41.322  31.155  35.265  1.00  0.00    -0.203 F 
ATOM     61  C   UNL A   1      41.861  33.435  35.467  1.00  0.00     0.198 A 
ATOM     62  C   UNL A   1      43.079  34.543  33.721  1.00  0.00     0.198 A 
ATOM     63  F   UNL A   1      43.688  33.368  31.778  1.00  0.00    -0.203 F 
ATOM     64  F   UNL A   1      41.225  33.477  36.646  1.00  0.00    -0.200 F 
ATOM     65  C   UNL A   1      42.453  34.581  34.957  1.00  0.00     0.200 A 
ATOM     66  F   UNL A   1      43.666  35.645  33.235  1.00  0.00    -0.200 F 
ATOM     67  F   UNL A   1      42.412  35.724  35.655  1.00  0.00    -0.200 F 
ENDBRANCH  43  57
BRANCH  44  68
ATOM     68  C   UNL A   1      42.553  24.035  27.686  1.00  0.00     0.064 A 
ATOM     69  C   UNL A   1      42.221  22.777  28.212  1.00  0.00     0.173 A 
ATOM     70  C   UNL A   1      42.920  24.099  26.335  1.00  0.00     0.173 A 
ATOM     71  F   UNL A   1      41.881  22.660  29.504  1.00  0.00    -0.203 F 
ATOM     72  C   UNL A   1      42.288  21.627  27.428  1.00  0.00     0.198 A 
ATOM     73  C   UNL A   1      42.953  22.953  25.543  1.00  0.00     0.198 A 
ATOM     74  F   UNL A   1      43.238  25.277  25.780  1.00  0.00    -0.203 F 
ATOM     75  F   UNL A   1      42.022  20.432  27.972  1.00  0.00    -0.200 F 
ATOM     76  C   UNL A   1      42.649  21.716  26.093  1.00  0.00     0.200 A 
ATOM     77  F   UNL A   1      43.287  23.044  24.248  1.00  0.00    -0.200 F 
ATOM     78  F   UNL A   1      42.713  20.611  25.338  1.00  0.00    -0.200 F 
ENDBRANCH  44  68
BRANCH  56  79
ATOM     79  C   UNL A   1      46.872  26.511  32.559  1.00  0.00     0.064 A 
ATOM     80  C   UNL A   1      46.870  25.629  33.649  1.00  0.00     0.173 A 
ATOM     81  C   UNL A   1      48.113  26.870  32.008  1.00  0.00     0.173 A 
ATOM     82  F   UNL A   1      45.712  25.263  34.220  1.00  0.00    -0.203 F 
ATOM     83  C   UNL A   1      48.064  25.161  34.193  1.00  0.00     0.198 A 
ATOM     84  C   UNL A   1      49.303  26.369  32.530  1.00  0.00     0.198 A 
ATOM     85  F   UNL A   1      48.174  27.702  30.957  1.00  0.00    -0.203 F 
ATOM     86  F   UNL A   1      48.039  24.374  35.277  1.00  0.00    -0.200 F 
ATOM     87  C   UNL A   1      49.278  25.526  33.630  1.00  0.00     0.200 A 
ATOM     88  F   UNL A   1      50.472  26.708  31.972  1.00  0.00    -0.200 F 
ATOM     89  F   UNL A   1      50.424  25.072  34.154  1.00  0.00    -0.200 F 
ENDBRANCH  56  79
ENDBRANCH  30  31
ENDBRANCH  22  25
ENDBRANCH  20  21
ENDBRANCH   1  20
TORSDOF 12
ENDMDL
MODEL 2
REMARK VINA RESULT:     -11.5      3.564      6.782
REMARK SMILES C[C@H](C(=O)NCCCCNC(=O)c1ccc(-c2c3nc(c(-c4c(F)c(F)c(F)c(F)c4F)c4ccc([nH]4)c(-c4c(F)c(F)c(F)c(F)c4F)c4nc(c(-c5c(F)c(F)c(F)c(F)c5F)c5ccc2[nH]5)C=C4)C=C3)cc1)c1ccc2c(c1)OCCO2
REMARK SMILES IDX 8 1 7 2 6 3 5 4 3 5 4 6 2 8 1 9 76 10 77 11 81 12 78 13
REMARK SMILES IDX 80 14 79 15 82 16 85 17 83 18 84 19 9 20 10 21 11 22 12 24
REMARK SMILES IDX 13 25 14 26 75 27 15 28 74 29 16 30 17 31 18 32 68 33 19 34
REMARK SMILES IDX 73 35 67 36 69 37 20 38 72 39 66 40 65 41 21 43 53 44 33 45
REMARK SMILES IDX 52 46 34 47 37 48 51 49 70 50 35 51 36 52 50 54 71 55 38 56
REMARK SMILES IDX 22 57 23 58 31 59 24 60 25 61 29 62 32 63 26 64 27 65 30 66
REMARK SMILES IDX 28 67 54 68 55 69 63 70 56 71 57 72 61 73 64 74 58 75 59 76
REMARK SMILES IDX 62 77 60 78 39 79 40 80 48 81 41 82 42 83 46 84 49 85 43 86
REMARK SMILES IDX 44 87 47 88 45 89
REMARK H PARENT 5 7 10 23 69 42 37 53
REMARK Flexibility Score: inf
ROOT
ATOM      1  C   UNL A   1      31.324  31.939  26.439  1.00  0.00     0.023 C 
ENDROOT
BRANCH   1   2
ATOM      2  C   UNL A   1      31.402  30.529  25.851  1.00  0.00     0.023 C 
BRANCH   2   3
ATOM      3  C   UNL A   1      32.819  29.984  25.668  1.00  0.00     0.116 C 
BRANCH   3   4
ATOM      4  N   UNL A   1      32.837  28.532  25.644  1.00  0.00    -0.356 N 
ATOM      5  C   UNL A   1      32.651  27.662  24.602  1.00  0.00     0.227 C 
ATOM      6  O   UNL A   1      32.645  26.458  24.866  1.00  0.00    -0.274 OA
ATOM      7  H   UNL A   1      33.011  28.105  26.513  1.00  0.00     0.163 HD
BRANCH   5   8
ATOM      8  C   UNL A   1      32.485  28.191  23.165  1.00  0.00     0.105 C 
ATOM      9  C   UNL A   1      33.183  27.294  22.148  1.00  0.00     0.023 C 
BRANCH   8  10
ATOM     10  C   UNL A   1      31.023  28.407  22.805  1.00  0.00    -0.032 A 
ATOM     11  C   UNL A   1      30.005  27.592  23.330  1.00  0.00     0.008 A 
ATOM     12  C   UNL A   1      30.680  29.569  22.099  1.00  0.00     0.055 A 
ATOM     13  C   UNL A   1      28.681  28.031  23.319  1.00  0.00     0.051 A 
ATOM     14  C   UNL A   1      29.386  30.053  22.185  1.00  0.00     0.161 A 
ATOM     15  C   UNL A   1      28.402  29.304  22.834  1.00  0.00     0.161 A 
ATOM     16  O   UNL A   1      29.195  31.340  21.762  1.00  0.00    -0.486 OA
ATOM     17  O   UNL A   1      27.194  29.871  23.159  1.00  0.00    -0.486 OA
ATOM     18  C   UNL A   1      28.092  31.996  22.402  1.00  0.00     0.271 C 
ATOM     19  C   UNL A   1      27.483  31.216  23.563  1.00  0.00     0.271 C 
ENDBRANCH   8  10
ENDBRANCH   5   8
ENDBRANCH   3   4
ENDBRANCH   2   3
ENDBRANCH   1   2
BRANCH   1  20
ATOM     20  C   UNL A   1      32.587  32.407  27.152  1.00  0.00     0.116 C 
BRANCH  20  21
ATOM     21  N   UNL A   1      32.539  33.806  27.549  1.00  0.00    -0.352 N 
ATOM     22  C   UNL A   1      33.323  34.483  28.450  1.00  0.00     0.251 C 
ATOM     23  H   UNL A   1      31.841  34.345  27.109  1.00  0.00     0.163 HD
ATOM     24  O   UNL A   1      33.044  35.641  28.756  1.00  0.00    -0.269 OA
BRANCH  22  25
ATOM     25  C   UNL A   1      34.489  33.818  29.070  1.00  0.00     0.039 A 
ATOM     26  C   UNL A   1      34.274  32.787  29.988  1.00  0.00     0.014 A 
ATOM     27  C   UNL A   1      35.793  34.214  28.760  1.00  0.00     0.014 A 
ATOM     28  C   UNL A   1      35.365  32.129  30.559  1.00  0.00     0.010 A 
ATOM     29  C   UNL A   1      36.875  33.490  29.249  1.00  0.00     0.010 A 
ATOM     30  C   UNL A   1      36.676  32.460  30.178  1.00  0.00    -0.014 A 
BRANCH  30  31
ATOM     31  C   UNL A   1      37.849  31.782  30.786  1.00  0.00     0.031 A 
ATOM     32  C   UNL A   1      38.270  32.129  32.189  1.00  0.00     0.074 A 
ATOM     33  C   UNL A   1      38.557  30.891  30.068  1.00  0.00     0.049 A 
ATOM     34  N   UNL A   1      39.272  31.666  32.895  1.00  0.00    -0.248 NA
ATOM     35  C   UNL A   1      37.479  33.159  32.885  1.00  0.00     0.031 C 
ATOM     36  C   UNL A   1      38.285  30.513  28.680  1.00  0.00     0.029 A 
ATOM     37  N   UNL A   1      39.653  30.138  30.408  1.00  0.00    -0.354 N 
ATOM     38  C   UNL A   1      39.239  32.360  34.098  1.00  0.00     0.074 A 
ATOM     39  C   UNL A   1      38.167  33.324  34.004  1.00  0.00     0.031 C 
ATOM     40  C   UNL A   1      39.162  29.569  28.301  1.00  0.00     0.029 A 
ATOM     41  C   UNL A   1      40.081  29.302  29.403  1.00  0.00     0.049 A 
ATOM     42  H   UNL A   1      40.091  30.191  31.287  1.00  0.00     0.167 HD
ATOM     43  C   UNL A   1      40.012  32.188  35.197  1.00  0.00     0.037 A 
ATOM     44  C   UNL A   1      41.096  28.419  29.382  1.00  0.00     0.037 A 
ATOM     45  C   UNL A   1      41.057  31.205  35.298  1.00  0.00     0.049 A 
ATOM     46  C   UNL A   1      41.935  28.239  30.621  1.00  0.00     0.074 A 
ATOM     47  C   UNL A   1      41.859  30.903  36.384  1.00  0.00     0.029 A 
ATOM     48  N   UNL A   1      41.448  30.363  34.266  1.00  0.00    -0.354 N 
ATOM     49  N   UNL A   1      41.844  28.842  31.781  1.00  0.00    -0.248 NA
ATOM     50  C   UNL A   1      43.009  27.240  30.549  1.00  0.00     0.031 C 
ATOM     51  C   UNL A   1      42.772  29.920  35.993  1.00  0.00     0.029 A 
ATOM     52  C   UNL A   1      42.493  29.556  34.685  1.00  0.00     0.049 A 
ATOM     53  H   UNL A   1      41.042  30.341  33.369  1.00  0.00     0.167 HD
ATOM     54  C   UNL A   1      42.815  28.267  32.589  1.00  0.00     0.074 A 
ATOM     55  C   UNL A   1      43.476  27.258  31.788  1.00  0.00     0.031 C 
ATOM     56  C   UNL A   1      43.129  28.544  33.880  1.00  0.00     0.037 A 
BRANCH  43  57
ATOM     57  C   UNL A   1      39.753  33.084  36.377  1.00  0.00     0.064 A 
ATOM     58  C   UNL A   1      38.823  32.748  37.373  1.00  0.00     0.173 A 
ATOM     59  C   UNL A   1      40.461  34.286  36.524  1.00  0.00     0.173 A 
ATOM     60  F   UNL A   1      38.108  31.616  37.277  1.00  0.00    -0.203 F 
ATOM     61  C   UNL A   1      38.585  33.598  38.451  1.00  0.00     0.198 A 
ATOM     62  C   UNL A   1      40.248  35.116  37.622  1.00  0.00     0.198 A 
ATOM     63  F   UNL A   1      41.366  34.657  35.605  1.00  0.00    -0.203 F 
ATOM     64  F   UNL A   1      37.646  33.285  39.354  1.00  0.00    -0.200 F 
ATOM     65  C   UNL A   1      39.303  34.777  38.578  1.00  0.00     0.200 A 
ATOM     66  F   UNL A   1      40.954  36.247  37.752  1.00  0.00    -0.200 F 
ATOM     67  F   UNL A   1      39.077  35.591  39.618  1.00  0.00    -0.200 F 
ENDBRANCH  43  57
BRANCH  44  68
ATOM     68  C   UNL A   1      41.347  27.597  28.168  1.00  0.00     0.064 A 
ATOM     69  C   UNL A   1      40.723  26.352  28.000  1.00  0.00     0.173 A 
ATOM     70  C   UNL A   1      42.224  28.026  27.162  1.00  0.00     0.173 A 
ATOM     71  F   UNL A   1      39.889  25.888  28.943  1.00  0.00    -0.203 F 
ATOM     72  C   UNL A   1      40.991  25.554  26.889  1.00  0.00     0.198 A 
ATOM     73  C   UNL A   1      42.466  27.242  26.035  1.00  0.00     0.198 A 
ATOM     74  F   UNL A   1      42.841  29.211  27.269  1.00  0.00    -0.203 F 
ATOM     75  F   UNL A   1      40.425  24.345  26.783  1.00  0.00    -0.200 F 
ATOM     76  C   UNL A   1      41.858  26.003  25.905  1.00  0.00     0.200 A 
ATOM     77  F   UNL A   1      43.293  27.685  25.078  1.00  0.00    -0.200 F 
ATOM     78  F   UNL A   1      42.117  25.236  24.837  1.00  0.00    -0.200 F 
ENDBRANCH  44  68
BRANCH  56  79
ATOM     79  C   UNL A   1      44.190  27.699  34.527  1.00  0.00     0.064 A 
ATOM     80  C   UNL A   1      45.540  28.077  34.544  1.00  0.00     0.173 A 
ATOM     81  C   UNL A   1      43.839  26.496  35.162  1.00  0.00     0.173 A 
ATOM     82  F   UNL A   1      45.930  29.212  33.942  1.00  0.00    -0.203 F 
ATOM     83  C   UNL A   1      46.505  27.263  35.132  1.00  0.00     0.198 A 
ATOM     84  C   UNL A   1      44.800  25.704  35.782  1.00  0.00     0.198 A 
ATOM     85  F   UNL A   1      42.560  26.090  35.186  1.00  0.00    -0.203 F 
ATOM     86  F   UNL A   1      47.797  27.613  35.076  1.00  0.00    -0.200 F 
ATOM     87  C   UNL A   1      46.134  26.081  35.756  1.00  0.00     0.200 A 
ATOM     88  F   UNL A   1      44.437  24.573  36.402  1.00  0.00    -0.200 F 
ATOM     89  F   UNL A   1      47.063  25.302  36.324  1.00  0.00    -0.200 F 
ENDBRANCH  56  79
ENDBRANCH  30  31
ENDBRANCH  22  25
ENDBRANCH  20  21
ENDBRANCH   1  20
TORSDOF 12
ENDMDL
MODEL 3
REMARK VINA RESULT:     -11.4      1.243      2.604
REMARK SMILES C[C@H](C(=O)NCCCCNC(=O)c1ccc(-c2c3nc(c(-c4c(F)c(F)c(F)c(F)c4F)c4ccc([nH]4)c(-c4c(F)c(F)c(F)c(F)c4F)c4nc(c(-c5c(F)c(F)c(F)c(F)c5F)c5ccc2[nH]5)C=C4)C=C3)cc1)c1ccc2c(c1)OCCO2
REMARK SMILES IDX 8 1 7 2 6 3 5 4 3 5 4 6 2 8 1 9 76 10 77 11 81 12 78 13
REMARK SMILES IDX 80 14 79 15 82 16 85 17 83 18 84 19 9 20 10 21 11 22 12 24
REMARK SMILES IDX 13 25 14 26 75 27 15 28 74 29 16 30 17 31 18 32 68 33 19 34
REMARK SMILES IDX 73 35 67 36 69 37 20 38 72 39 66 40 65 41 21 43 53 44 33 45
REMARK SMILES IDX 52 46 34 47 37 48 51 49 70 50 35 51 36 52 50 54 71 55 38 56
REMARK SMILES IDX 22 57 23 58 31 59 24 60 25 61 29 62 32 63 26 64 27 65 30 66
REMARK SMILES IDX 28 67 54 68 55 69 63 70 56 71 57 72 61 73 64 74 58 75 59 76
REMARK SMILES IDX 62 77 60 78 39 79 40 80 48 81 41 82 42 83 46 84 49 85 43 86
REMARK SMILES IDX 44 87 47 88 45 89
REMARK H PARENT 5 7 10 23 69 42 37 53
REMARK Flexibility Score: inf
ROOT
ATOM      1  C   UNL A   1      35.591  33.267  28.528  1.00  0.00     0.023 C 
ENDROOT
BRANCH   1   2
ATOM      2  C   UNL A   1      36.889  33.327  29.335  1.00  0.00     0.023 C 
BRANCH   2   3
ATOM      3  C   UNL A   1      36.771  32.849  30.783  1.00  0.00     0.116 C 
BRANCH   3   4
ATOM      4  N   UNL A   1      37.506  33.708  31.695  1.00  0.00    -0.356 N 
ATOM      5  C   UNL A   1      37.114  34.289  32.871  1.00  0.00     0.227 C 
ATOM      6  O   UNL A   1      37.919  35.043  33.424  1.00  0.00    -0.274 OA
ATOM      7  H   UNL A   1      38.432  33.903  31.424  1.00  0.00     0.163 HD
BRANCH   5   8
ATOM      8  C   UNL A   1      35.732  33.977  33.472  1.00  0.00     0.105 C 
ATOM      9  C   UNL A   1      35.767  33.963  34.998  1.00  0.00     0.023 C 
BRANCH   8  10
ATOM     10  C   UNL A   1      34.659  34.920  32.950  1.00  0.00    -0.032 A 
ATOM     11  C   UNL A   1      34.595  36.264  33.358  1.00  0.00     0.008 A 
ATOM     12  C   UNL A   1      33.852  34.483  31.890  1.00  0.00     0.055 A 
ATOM     13  C   UNL A   1      33.888  37.194  32.596  1.00  0.00     0.051 A 
ATOM     14  C   UNL A   1      33.241  35.421  31.076  1.00  0.00     0.161 A 
ATOM     15  C   UNL A   1      33.301  36.776  31.406  1.00  0.00     0.161 A 
ATOM     16  O   UNL A   1      32.752  34.957  29.885  1.00  0.00    -0.486 OA
ATOM     17  O   UNL A   1      32.936  37.735  30.493  1.00  0.00    -0.486 OA
ATOM     18  C   UNL A   1      32.710  35.955  28.856  1.00  0.00     0.271 C 
ATOM     19  C   UNL A   1      33.402  37.265  29.220  1.00  0.00     0.271 C 
ENDBRANCH   8  10
ENDBRANCH   5   8
ENDBRANCH   3   4
ENDBRANCH   2   3
ENDBRANCH   1   2
BRANCH   1  20
ATOM     20  C   UNL A   1      34.483  32.432  29.157  1.00  0.00     0.116 C 
BRANCH  20  21
ATOM     21  N   UNL A   1      33.944  31.421  28.260  1.00  0.00    -0.352 N 
ATOM     22  C   UNL A   1      34.568  30.335  27.698  1.00  0.00     0.251 C 
ATOM     23  H   UNL A   1      32.995  31.533  28.020  1.00  0.00     0.163 HD
ATOM     24  O   UNL A   1      33.981  29.663  26.851  1.00  0.00    -0.269 OA
BRANCH  22  25
ATOM     25  C   UNL A   1      35.949  29.983  28.089  1.00  0.00     0.039 A 
ATOM     26  C   UNL A   1      36.179  29.449  29.360  1.00  0.00     0.014 A 
ATOM     27  C   UNL A   1      37.019  30.184  27.214  1.00  0.00     0.014 A 
ATOM     28  C   UNL A   1      37.474  29.082  29.733  1.00  0.00     0.010 A 
ATOM     29  C   UNL A   1      38.288  29.723  27.547  1.00  0.00     0.010 A 
ATOM     30  C   UNL A   1      38.537  29.195  28.823  1.00  0.00    -0.014 A 
BRANCH  30  31
ATOM     31  C   UNL A   1      39.922  28.825  29.206  1.00  0.00     0.031 A 
ATOM     32  C   UNL A   1      40.710  29.721  30.125  1.00  0.00     0.074 A 
ATOM     33  C   UNL A   1      40.485  27.711  28.701  1.00  0.00     0.049 A 
ATOM     34  N   UNL A   1      41.936  29.587  30.566  1.00  0.00    -0.248 NA
ATOM     35  C   UNL A   1      40.044  30.951  30.585  1.00  0.00     0.031 C 
ATOM     36  C   UNL A   1      39.847  26.793  27.757  1.00  0.00     0.029 A 
ATOM     37  N   UNL A   1      41.725  27.161  28.911  1.00  0.00    -0.354 N 
ATOM     38  C   UNL A   1      42.186  30.719  31.333  1.00  0.00     0.074 A 
ATOM     39  C   UNL A   1      41.018  31.562  31.240  1.00  0.00     0.031 C 
ATOM     40  C   UNL A   1      40.682  25.772  27.503  1.00  0.00     0.029 A 
ATOM     41  C   UNL A   1      41.928  25.982  28.235  1.00  0.00     0.049 A 
ATOM     42  H   UNL A   1      42.405  27.573  29.491  1.00  0.00     0.167 HD
ATOM     43  C   UNL A   1      43.281  31.015  32.074  1.00  0.00     0.037 A 
ATOM     44  C   UNL A   1      42.996  25.164  28.217  1.00  0.00     0.037 A 
ATOM     45  C   UNL A   1      44.430  30.156  32.189  1.00  0.00     0.049 A 
ATOM     46  C   UNL A   1      44.197  25.510  29.058  1.00  0.00     0.074 A 
ATOM     47  C   UNL A   1      45.565  30.328  32.960  1.00  0.00     0.029 A 
ATOM     48  N   UNL A   1      44.590  28.959  31.504  1.00  0.00    -0.354 N 
ATOM     49  N   UNL A   1      44.392  26.541  29.843  1.00  0.00    -0.248 NA
ATOM     50  C   UNL A   1      45.321  24.565  29.021  1.00  0.00     0.031 C 
ATOM     51  C   UNL A   1      46.435  29.266  32.700  1.00  0.00     0.029 A 
ATOM     52  C   UNL A   1      45.814  28.393  31.821  1.00  0.00     0.049 A 
ATOM     53  H   UNL A   1      43.930  28.569  30.886  1.00  0.00     0.167 HD
ATOM     54  C   UNL A   1      45.636  26.348  30.427  1.00  0.00     0.074 A 
ATOM     55  C   UNL A   1      46.145  25.094  29.913  1.00  0.00     0.031 C 
ATOM     56  C   UNL A   1      46.298  27.135  31.313  1.00  0.00     0.037 A 
BRANCH  43  57
ATOM     57  C   UNL A   1      43.285  32.321  32.819  1.00  0.00     0.064 A 
ATOM     58  C   UNL A   1      42.802  32.426  34.133  1.00  0.00     0.173 A 
ATOM     59  C   UNL A   1      43.797  33.480  32.217  1.00  0.00     0.173 A 
ATOM     60  F   UNL A   1      42.288  31.353  34.753  1.00  0.00    -0.203 F 
ATOM     61  C   UNL A   1      42.798  33.649  34.802  1.00  0.00     0.198 A 
ATOM     62  C   UNL A   1      43.827  34.692  32.901  1.00  0.00     0.198 A 
ATOM     63  F   UNL A   1      44.276  33.438  30.964  1.00  0.00    -0.203 F 
ATOM     64  F   UNL A   1      42.273  33.736  36.031  1.00  0.00    -0.200 F 
ATOM     65  C   UNL A   1      43.317  34.779  34.188  1.00  0.00     0.200 A 
ATOM     66  F   UNL A   1      44.343  35.779  32.313  1.00  0.00    -0.200 F 
ATOM     67  F   UNL A   1      43.319  35.952  34.834  1.00  0.00    -0.200 F 
ENDBRANCH  43  57
BRANCH  44  68
ATOM     68  C   UNL A   1      42.965  23.910  27.416  1.00  0.00     0.064 A 
ATOM     69  C   UNL A   1      42.522  22.705  27.983  1.00  0.00     0.173 A 
ATOM     70  C   UNL A   1      43.388  23.884  26.080  1.00  0.00     0.173 A 
ATOM     71  F   UNL A   1      42.123  22.674  29.263  1.00  0.00    -0.203 F 
ATOM     72  C   UNL A   1      42.536  21.517  27.254  1.00  0.00     0.198 A 
ATOM     73  C   UNL A   1      43.370  22.702  25.342  1.00  0.00     0.198 A 
ATOM     74  F   UNL A   1      43.813  25.009  25.488  1.00  0.00    -0.203 F 
ATOM     75  F   UNL A   1      42.164  20.371  27.839  1.00  0.00    -0.200 F 
ATOM     76  C   UNL A   1      42.956  21.518  25.933  1.00  0.00     0.200 A 
ATOM     77  F   UNL A   1      43.761  22.708  24.060  1.00  0.00    -0.200 F 
ATOM     78  F   UNL A   1      42.970  20.375  25.232  1.00  0.00    -0.200 F 
ENDBRANCH  44  68
BRANCH  56  79
ATOM     79  C   UNL A   1      47.613  26.629  31.835  1.00  0.00     0.064 A 
ATOM     80  C   UNL A   1      47.699  25.789  32.955  1.00  0.00     0.173 A 
ATOM     81  C   UNL A   1      48.808  26.976  31.184  1.00  0.00     0.173 A 
ATOM     82  F   UNL A   1      46.588  25.436  33.621  1.00  0.00    -0.203 F 
ATOM     83  C   UNL A   1      48.933  25.353  33.430  1.00  0.00     0.198 A 
ATOM     84  C   UNL A   1      50.037  26.506  31.638  1.00  0.00     0.198 A 
ATOM     85  F   UNL A   1      48.784  27.767  30.100  1.00  0.00    -0.203 F 
ATOM     86  F   UNL A   1      48.995  24.608  34.542  1.00  0.00    -0.200 F 
ATOM     87  C   UNL A   1      50.100  25.706  32.767  1.00  0.00     0.200 A 
ATOM     88  F   UNL A   1      51.160  26.833  30.984  1.00  0.00    -0.200 F 
ATOM     89  F   UNL A   1      51.285  25.282  33.224  1.00  0.00    -0.200 F 
ENDBRANCH  56  79
ENDBRANCH  30  31
ENDBRANCH  22  25
ENDBRANCH  20  21
ENDBRANCH   1  20
TORSDOF 12
ENDMDL
