MODEL 1
REMARK VINA RESULT:     -12.2      0.000      0.000
REMARK SMILES Cn1cc(CNC(=O)Cn2ccc(C(=O)NCCCCNC(=O)c3ccc(-c4c5nc(c(-c6c(F)c(F)c(F)c(F)c6F)c6ccc([nH]6)c(-c6c(F)c(F)c(F)c(F)c6F)c6nc(c(-c7c(F)c(F)c(F)c(F)c7F)c7ccc4[nH]7)C=C6)C=C5)cc3)n2)cn1
REMARK SMILES IDX 17 1 16 2 14 3 15 4 13 6 10 7 11 8 87 9 12 10 9 11 7 12 6 13
REMARK SMILES IDX 8 15 5 16 4 17 1 18 2 19 3 20 89 21 88 22 18 23 19 24 20 25
REMARK SMILES IDX 21 26 22 27 23 29 24 30 25 31 86 32 26 33 85 34 27 35 28 36
REMARK SMILES IDX 29 37 79 38 30 39 84 40 78 41 80 42 31 43 83 44 77 45 76 46
REMARK SMILES IDX 32 48 64 49 44 50 63 51 45 52 48 53 62 54 81 55 46 56 47 57
REMARK SMILES IDX 61 59 82 60 49 61 33 62 34 63 42 64 35 65 36 66 40 67 43 68
REMARK SMILES IDX 37 69 38 70 41 71 39 72 65 73 66 74 74 75 67 76 68 77 72 78
REMARK SMILES IDX 75 79 69 80 70 81 73 82 71 83 50 84 51 85 59 86 52 87 53 88
REMARK SMILES IDX 57 89 60 90 54 91 55 92 58 93 56 94
REMARK H PARENT 16 5 6 14 21 28 80 47 48 58
REMARK Flexibility Score: inf
ROOT
ATOM      1  C   UNL A   1      33.994  28.086  26.125  1.00  0.00     0.116 C 
ENDROOT
BRANCH   1   2
ATOM      2  N   UNL A   1      32.726  27.484  26.474  1.00  0.00    -0.351 N 
ATOM      3  C   UNL A   1      32.217  26.217  26.283  1.00  0.00     0.271 C 
ATOM      4  O   UNL A   1      31.113  26.013  26.800  1.00  0.00    -0.267 OA
ATOM      5  H   UNL A   1      32.109  28.096  26.936  1.00  0.00     0.163 HD
BRANCH   3   6
ATOM      6  C   UNL A   1      32.938  25.173  25.517  1.00  0.00     0.150 A 
ATOM      7  N   UNL A   1      34.132  23.410  25.230  1.00  0.00    -0.263 N 
ATOM      8  C   UNL A   1      33.795  23.800  23.971  1.00  0.00     0.110 A 
ATOM      9  N   UNL A   1      33.657  24.237  26.177  1.00  0.00    -0.167 NA
ATOM     10  C   UNL A   1      33.015  24.919  24.120  1.00  0.00     0.056 A 
BRANCH   7  11
ATOM     11  C   UNL A   1      34.929  22.263  25.633  1.00  0.00     0.243 C 
BRANCH  11  12
ATOM     12  C   UNL A   1      34.167  21.307  26.518  1.00  0.00     0.241 C 
ATOM     13  N   UNL A   1      33.602  20.187  25.980  1.00  0.00    -0.350 N 
ATOM     14  H   UNL A   1      33.101  19.617  26.608  1.00  0.00     0.163 HD
ATOM     15  O   UNL A   1      34.028  21.515  27.724  1.00  0.00    -0.273 OA
BRANCH  13  16
ATOM     16  C   UNL A   1      33.641  19.726  24.608  1.00  0.00     0.155 C 
BRANCH  16  17
ATOM     17  C   UNL A   1      33.583  18.247  24.628  1.00  0.00     0.009 A 
ATOM     18  C   UNL A   1      32.528  14.936  25.588  1.00  0.00     0.173 C 
ATOM     19  N   UNL A   1      33.094  16.148  25.049  1.00  0.00    -0.275 N 
ATOM     20  C   UNL A   1      32.753  17.429  25.368  1.00  0.00     0.113 A 
ATOM     21  N   UNL A   1      34.080  16.069  24.141  1.00  0.00    -0.181 NA
ATOM     22  C   UNL A   1      34.375  17.343  23.882  1.00  0.00     0.140 A 
ENDBRANCH  16  17
ENDBRANCH  13  16
ENDBRANCH  11  12
ENDBRANCH   7  11
ENDBRANCH   3   6
ENDBRANCH   1   2
BRANCH   1  23
ATOM     23  C   UNL A   1      34.554  28.964  27.248  1.00  0.00     0.023 C 
BRANCH  23  24
ATOM     24  C   UNL A   1      33.962  30.381  27.340  1.00  0.00     0.023 C 
BRANCH  24  25
ATOM     25  C   UNL A   1      34.970  31.492  27.626  1.00  0.00     0.116 C 
BRANCH  25  26
ATOM     26  N   UNL A   1      34.709  32.212  28.879  1.00  0.00    -0.352 N 
ATOM     27  C   UNL A   1      35.154  31.913  30.159  1.00  0.00     0.251 C 
ATOM     28  H   UNL A   1      34.144  33.014  28.800  1.00  0.00     0.163 HD
ATOM     29  O   UNL A   1      34.573  32.327  31.149  1.00  0.00    -0.269 OA
BRANCH  27  30
ATOM     30  C   UNL A   1      36.381  31.111  30.301  1.00  0.00     0.039 A 
ATOM     31  C   UNL A   1      36.383  29.713  30.388  1.00  0.00     0.014 A 
ATOM     32  C   UNL A   1      37.571  31.823  30.315  1.00  0.00     0.014 A 
ATOM     33  C   UNL A   1      37.610  29.048  30.432  1.00  0.00     0.010 A 
ATOM     34  C   UNL A   1      38.747  31.171  30.104  1.00  0.00     0.010 A 
ATOM     35  C   UNL A   1      38.785  29.797  30.286  1.00  0.00    -0.014 A 
BRANCH  35  36
ATOM     36  C   UNL A   1      40.114  29.208  30.233  1.00  0.00     0.031 A 
ATOM     37  C   UNL A   1      40.748  29.031  31.564  1.00  0.00     0.074 A 
ATOM     38  C   UNL A   1      40.539  28.581  29.110  1.00  0.00     0.049 A 
ATOM     39  N   UNL A   1      41.814  29.599  32.016  1.00  0.00    -0.248 NA
ATOM     40  C   UNL A   1      40.020  28.246  32.580  1.00  0.00     0.031 C 
ATOM     41  C   UNL A   1      39.809  28.395  27.845  1.00  0.00     0.029 A 
ATOM     42  N   UNL A   1      41.667  27.853  28.901  1.00  0.00    -0.354 N 
ATOM     43  C   UNL A   1      42.013  29.071  33.290  1.00  0.00     0.074 A 
ATOM     44  C   UNL A   1      40.771  28.453  33.662  1.00  0.00     0.031 C 
ATOM     45  C   UNL A   1      40.400  27.427  27.111  1.00  0.00     0.029 A 
ATOM     46  C   UNL A   1      41.632  27.038  27.768  1.00  0.00     0.049 A 
ATOM     47  H   UNL A   1      42.446  27.895  29.499  1.00  0.00     0.167 HD
ATOM     48  C   UNL A   1      43.272  28.926  33.793  1.00  0.00     0.037 A 
ATOM     49  C   UNL A   1      42.540  26.083  27.438  1.00  0.00     0.037 A 
ATOM     50  C   UNL A   1      44.214  29.703  33.021  1.00  0.00     0.049 A 
ATOM     51  C   UNL A   1      43.765  26.358  28.236  1.00  0.00     0.074 A 
ATOM     52  C   UNL A   1      44.351  31.042  32.715  1.00  0.00     0.029 A 
ATOM     53  N   UNL A   1      44.981  29.030  32.099  1.00  0.00    -0.354 N 
ATOM     54  N   UNL A   1      44.511  27.416  28.068  1.00  0.00    -0.248 NA
ATOM     55  C   UNL A   1      43.862  25.722  29.541  1.00  0.00     0.031 C 
ATOM     56  C   UNL A   1      44.780  31.068  31.354  1.00  0.00     0.029 A 
ATOM     57  C   UNL A   1      44.967  29.750  30.934  1.00  0.00     0.049 A 
ATOM     58  H   UNL A   1      45.455  28.181  32.250  1.00  0.00     0.167 HD
ATOM     59  C   UNL A   1      44.826  27.830  29.355  1.00  0.00     0.074 A 
ATOM     60  C   UNL A   1      44.454  26.710  30.218  1.00  0.00     0.031 C 
ATOM     61  C   UNL A   1      45.067  29.146  29.627  1.00  0.00     0.037 A 
BRANCH  48  62
ATOM     62  C   UNL A   1      43.729  27.782  34.678  1.00  0.00     0.064 A 
ATOM     63  C   UNL A   1      43.595  26.465  34.187  1.00  0.00     0.173 A 
ATOM     64  C   UNL A   1      43.986  27.881  36.063  1.00  0.00     0.173 A 
ATOM     65  F   UNL A   1      43.362  26.241  32.885  1.00  0.00    -0.203 F 
ATOM     66  C   UNL A   1      43.588  25.354  35.034  1.00  0.00     0.198 A 
ATOM     67  C   UNL A   1      44.032  26.765  36.897  1.00  0.00     0.198 A 
ATOM     68  F   UNL A   1      44.097  29.051  36.698  1.00  0.00    -0.203 F 
ATOM     69  F   UNL A   1      43.305  24.142  34.537  1.00  0.00    -0.200 F 
ATOM     70  C   UNL A   1      43.791  25.506  36.392  1.00  0.00     0.200 A 
ATOM     71  F   UNL A   1      44.223  26.937  38.213  1.00  0.00    -0.200 F 
ATOM     72  F   UNL A   1      43.711  24.455  37.217  1.00  0.00    -0.200 F 
ENDBRANCH  48  62
BRANCH  49  73
ATOM     73  C   UNL A   1      42.318  24.785  26.754  1.00  0.00     0.064 A 
ATOM     74  C   UNL A   1      43.086  24.406  25.639  1.00  0.00     0.173 A 
ATOM     75  C   UNL A   1      41.545  23.768  27.350  1.00  0.00     0.173 A 
ATOM     76  F   UNL A   1      43.887  25.298  25.039  1.00  0.00    -0.203 F 
ATOM     77  C   UNL A   1      43.098  23.087  25.165  1.00  0.00     0.198 A 
ATOM     78  C   UNL A   1      41.555  22.455  26.874  1.00  0.00     0.198 A 
ATOM     79  F   UNL A   1      40.840  24.009  28.465  1.00  0.00    -0.203 F 
ATOM     80  F   UNL A   1      43.889  22.752  24.135  1.00  0.00    -0.200 F 
ATOM     81  C   UNL A   1      42.341  22.111  25.791  1.00  0.00     0.200 A 
ATOM     82  F   UNL A   1      40.846  21.513  27.513  1.00  0.00    -0.200 F 
ATOM     83  F   UNL A   1      42.398  20.837  25.376  1.00  0.00    -0.200 F 
ENDBRANCH  49  73
BRANCH  61  84
ATOM     84  C   UNL A   1      45.239  30.087  28.466  1.00  0.00     0.064 A 
ATOM     85  C   UNL A   1      44.188  30.793  27.854  1.00  0.00     0.173 A 
ATOM     86  C   UNL A   1      46.544  30.407  28.069  1.00  0.00     0.173 A 
ATOM     87  F   UNL A   1      42.920  30.616  28.242  1.00  0.00    -0.203 F 
ATOM     88  C   UNL A   1      44.434  31.747  26.867  1.00  0.00     0.198 A 
ATOM     89  C   UNL A   1      46.789  31.385  27.112  1.00  0.00     0.198 A 
ATOM     90  F   UNL A   1      47.589  29.804  28.658  1.00  0.00    -0.203 F 
ATOM     91  F   UNL A   1      43.413  32.403  26.296  1.00  0.00    -0.200 F 
ATOM     92  C   UNL A   1      45.736  32.049  26.504  1.00  0.00     0.200 A 
ATOM     93  F   UNL A   1      48.052  31.708  26.801  1.00  0.00    -0.200 F 
ATOM     94  F   UNL A   1      45.977  32.998  25.589  1.00  0.00    -0.200 F 
ENDBRANCH  61  84
ENDBRANCH  35  36
ENDBRANCH  27  30
ENDBRANCH  25  26
ENDBRANCH  24  25
ENDBRANCH  23  24
ENDBRANCH   1  23
TORSDOF 15
ENDMDL
MODEL 2
REMARK VINA RESULT:     -12.1      2.851      8.361
REMARK SMILES Cn1cc(CNC(=O)Cn2ccc(C(=O)NCCCCNC(=O)c3ccc(-c4c5nc(c(-c6c(F)c(F)c(F)c(F)c6F)c6ccc([nH]6)c(-c6c(F)c(F)c(F)c(F)c6F)c6nc(c(-c7c(F)c(F)c(F)c(F)c7F)c7ccc4[nH]7)C=C6)C=C5)cc3)n2)cn1
REMARK SMILES IDX 17 1 16 2 14 3 15 4 13 6 10 7 11 8 87 9 12 10 9 11 7 12 6 13
REMARK SMILES IDX 8 15 5 16 4 17 1 18 2 19 3 20 89 21 88 22 18 23 19 24 20 25
REMARK SMILES IDX 21 26 22 27 23 29 24 30 25 31 86 32 26 33 85 34 27 35 28 36
REMARK SMILES IDX 29 37 79 38 30 39 84 40 78 41 80 42 31 43 83 44 77 45 76 46
REMARK SMILES IDX 32 48 64 49 44 50 63 51 45 52 48 53 62 54 81 55 46 56 47 57
REMARK SMILES IDX 61 59 82 60 49 61 33 62 34 63 42 64 35 65 36 66 40 67 43 68
REMARK SMILES IDX 37 69 38 70 41 71 39 72 65 73 66 74 74 75 67 76 68 77 72 78
REMARK SMILES IDX 75 79 69 80 70 81 73 82 71 83 50 84 51 85 59 86 52 87 53 88
REMARK SMILES IDX 57 89 60 90 54 91 55 92 58 93 56 94
REMARK H PARENT 16 5 6 14 21 28 80 47 48 58
REMARK Flexibility Score: inf
ROOT
ATOM      1  C   UNL A   1      38.963  20.493  25.491  1.00  0.00     0.116 C 
ENDROOT
BRANCH   1   2
ATOM      2  N   UNL A   1      39.083  21.877  25.894  1.00  0.00    -0.351 N 
ATOM      3  C   UNL A   1      38.220  22.948  25.801  1.00  0.00     0.271 C 
ATOM      4  O   UNL A   1      38.615  23.987  26.340  1.00  0.00    -0.267 OA
ATOM      5  H   UNL A   1      39.945  22.096  26.314  1.00  0.00     0.163 HD
BRANCH   3   6
ATOM      6  C   UNL A   1      36.911  22.863  25.108  1.00  0.00     0.150 A 
ATOM      7  N   UNL A   1      34.786  22.602  24.935  1.00  0.00    -0.263 N 
ATOM      8  C   UNL A   1      35.194  22.905  23.673  1.00  0.00     0.110 A 
ATOM      9  N   UNL A   1      35.803  22.537  25.811  1.00  0.00    -0.167 NA
ATOM     10  C   UNL A   1      36.551  23.096  23.752  1.00  0.00     0.056 A 
BRANCH   7  11
ATOM     11  C   UNL A   1      33.436  22.333  25.403  1.00  0.00     0.243 C 
BRANCH  11  12
ATOM     12  C   UNL A   1      33.379  21.192  26.390  1.00  0.00     0.241 C 
ATOM     13  N   UNL A   1      33.234  19.911  25.940  1.00  0.00    -0.350 N 
ATOM     14  H   UNL A   1      33.182  19.217  26.637  1.00  0.00     0.163 HD
ATOM     15  O   UNL A   1      33.449  21.384  27.605  1.00  0.00    -0.273 OA
BRANCH  13  16
ATOM     16  C   UNL A   1      33.147  19.438  24.575  1.00  0.00     0.155 C 
BRANCH  16  17
ATOM     17  C   UNL A   1      33.262  17.963  24.600  1.00  0.00     0.009 A 
ATOM     18  C   UNL A   1      32.637  14.558  25.608  1.00  0.00     0.173 C 
ATOM     19  N   UNL A   1      33.037  15.824  25.045  1.00  0.00    -0.275 N 
ATOM     20  C   UNL A   1      32.562  17.059  25.375  1.00  0.00     0.113 A 
ATOM     21  N   UNL A   1      33.990  15.854  24.099  1.00  0.00    -0.181 NA
ATOM     22  C   UNL A   1      34.123  17.152  23.826  1.00  0.00     0.140 A 
ENDBRANCH  16  17
ENDBRANCH  13  16
ENDBRANCH  11  12
ENDBRANCH   7  11
ENDBRANCH   3   6
ENDBRANCH   1   2
BRANCH   1  23
ATOM     23  C   UNL A   1      40.214  19.676  25.829  1.00  0.00     0.023 C 
BRANCH  23  24
ATOM     24  C   UNL A   1      41.479  20.495  26.137  1.00  0.00     0.023 C 
BRANCH  24  25
ATOM     25  C   UNL A   1      42.697  19.678  26.561  1.00  0.00     0.116 C 
BRANCH  25  26
ATOM     26  N   UNL A   1      43.754  19.631  25.542  1.00  0.00    -0.352 N 
ATOM     27  C   UNL A   1      44.269  20.670  24.779  1.00  0.00     0.251 C 
ATOM     28  H   UNL A   1      44.150  18.745  25.380  1.00  0.00     0.163 HD
ATOM     29  O   UNL A   1      44.839  20.461  23.721  1.00  0.00    -0.269 OA
BRANCH  27  30
ATOM     30  C   UNL A   1      44.151  22.043  25.300  1.00  0.00     0.039 A 
ATOM     31  C   UNL A   1      43.355  23.028  24.703  1.00  0.00     0.014 A 
ATOM     32  C   UNL A   1      44.862  22.313  26.459  1.00  0.00     0.014 A 
ATOM     33  C   UNL A   1      43.247  24.270  25.331  1.00  0.00     0.010 A 
ATOM     34  C   UNL A   1      44.558  23.419  27.191  1.00  0.00     0.010 A 
ATOM     35  C   UNL A   1      43.856  24.447  26.580  1.00  0.00    -0.014 A 
BRANCH  35  36
ATOM     36  C   UNL A   1      43.744  25.666  27.366  1.00  0.00     0.031 A 
ATOM     37  C   UNL A   1      44.717  26.720  26.984  1.00  0.00     0.074 A 
ATOM     38  C   UNL A   1      42.636  25.901  28.107  1.00  0.00     0.049 A 
ATOM     39  N   UNL A   1      45.671  27.215  27.698  1.00  0.00    -0.248 NA
ATOM     40  C   UNL A   1      44.738  27.169  25.579  1.00  0.00     0.031 C 
ATOM     41  C   UNL A   1      41.443  25.049  28.249  1.00  0.00     0.029 A 
ATOM     42  N   UNL A   1      42.272  27.020  28.788  1.00  0.00    -0.354 N 
ATOM     43  C   UNL A   1      46.266  28.196  26.908  1.00  0.00     0.074 A 
ATOM     44  C   UNL A   1      45.820  27.949  25.565  1.00  0.00     0.031 C 
ATOM     45  C   UNL A   1      40.422  25.770  28.761  1.00  0.00     0.029 A 
ATOM     46  C   UNL A   1      40.921  27.078  29.133  1.00  0.00     0.049 A 
ATOM     47  H   UNL A   1      42.910  27.732  29.019  1.00  0.00     0.167 HD
ATOM     48  C   UNL A   1      46.826  29.301  27.477  1.00  0.00     0.037 A 
ATOM     49  C   UNL A   1      40.270  28.155  29.643  1.00  0.00     0.037 A 
ATOM     50  C   UNL A   1      47.024  29.092  28.892  1.00  0.00     0.049 A 
ATOM     51  C   UNL A   1      41.309  29.081  30.165  1.00  0.00     0.074 A 
ATOM     52  C   UNL A   1      47.734  28.183  29.652  1.00  0.00     0.029 A 
ATOM     53  N   UNL A   1      46.109  29.658  29.747  1.00  0.00    -0.354 N 
ATOM     54  N   UNL A   1      42.074  28.804  31.186  1.00  0.00    -0.248 NA
ATOM     55  C   UNL A   1      41.830  30.080  29.244  1.00  0.00     0.031 C 
ATOM     56  C   UNL A   1      46.892  27.900  30.769  1.00  0.00     0.029 A 
ATOM     57  C   UNL A   1      45.762  28.715  30.678  1.00  0.00     0.049 A 
ATOM     58  H   UNL A   1      45.763  30.578  29.700  1.00  0.00     0.167 HD
ATOM     59  C   UNL A   1      43.334  29.250  30.810  1.00  0.00     0.074 A 
ATOM     60  C   UNL A   1      43.109  30.085  29.632  1.00  0.00     0.031 C 
ATOM     61  C   UNL A   1      44.461  28.653  31.299  1.00  0.00     0.037 A 
BRANCH  48  62
ATOM     62  C   UNL A   1      46.798  30.696  26.880  1.00  0.00     0.064 A 
ATOM     63  C   UNL A   1      47.989  31.454  26.901  1.00  0.00     0.173 A 
ATOM     64  C   UNL A   1      45.627  31.429  26.587  1.00  0.00     0.173 A 
ATOM     65  F   UNL A   1      49.169  30.868  27.154  1.00  0.00    -0.203 F 
ATOM     66  C   UNL A   1      47.986  32.845  26.770  1.00  0.00     0.198 A 
ATOM     67  C   UNL A   1      45.636  32.811  26.404  1.00  0.00     0.198 A 
ATOM     68  F   UNL A   1      44.411  30.877  26.571  1.00  0.00    -0.203 F 
ATOM     69  F   UNL A   1      49.123  33.531  26.949  1.00  0.00    -0.200 F 
ATOM     70  C   UNL A   1      46.806  33.525  26.536  1.00  0.00     0.200 A 
ATOM     71  F   UNL A   1      44.478  33.451  26.186  1.00  0.00    -0.200 F 
ATOM     72  F   UNL A   1      46.787  34.862  26.485  1.00  0.00    -0.200 F 
ENDBRANCH  48  62
BRANCH  49  73
ATOM     73  C   UNL A   1      38.868  28.588  29.416  1.00  0.00     0.064 A 
ATOM     74  C   UNL A   1      37.992  28.824  30.491  1.00  0.00     0.173 A 
ATOM     75  C   UNL A   1      38.442  29.053  28.156  1.00  0.00     0.173 A 
ATOM     76  F   UNL A   1      38.339  28.456  31.733  1.00  0.00    -0.203 F 
ATOM     77  C   UNL A   1      36.779  29.504  30.319  1.00  0.00     0.198 A 
ATOM     78  C   UNL A   1      37.231  29.727  27.985  1.00  0.00     0.198 A 
ATOM     79  F   UNL A   1      39.239  28.947  27.082  1.00  0.00    -0.203 F 
ATOM     80  F   UNL A   1      35.999  29.761  31.379  1.00  0.00    -0.200 F 
ATOM     81  C   UNL A   1      36.405  29.964  29.067  1.00  0.00     0.200 A 
ATOM     82  F   UNL A   1      36.900  30.200  26.774  1.00  0.00    -0.200 F 
ATOM     83  F   UNL A   1      35.275  30.667  28.913  1.00  0.00    -0.200 F 
ENDBRANCH  49  73
BRANCH  61  84
ATOM     84  C   UNL A   1      44.309  27.686  32.441  1.00  0.00     0.064 A 
ATOM     85  C   UNL A   1      44.145  26.297  32.290  1.00  0.00     0.173 A 
ATOM     86  C   UNL A   1      44.503  28.171  33.741  1.00  0.00     0.173 A 
ATOM     87  F   UNL A   1      44.049  25.743  31.076  1.00  0.00    -0.203 F 
ATOM     88  C   UNL A   1      44.140  25.444  33.392  1.00  0.00     0.198 A 
ATOM     89  C   UNL A   1      44.536  27.314  34.835  1.00  0.00     0.198 A 
ATOM     90  F   UNL A   1      44.720  29.481  33.941  1.00  0.00    -0.203 F 
ATOM     91  F   UNL A   1      43.977  24.124  33.220  1.00  0.00    -0.200 F 
ATOM     92  C   UNL A   1      44.346  25.953  34.663  1.00  0.00     0.200 A 
ATOM     93  F   UNL A   1      44.785  27.806  36.057  1.00  0.00    -0.200 F 
ATOM     94  F   UNL A   1      44.388  25.129  35.720  1.00  0.00    -0.200 F 
ENDBRANCH  61  84
ENDBRANCH  35  36
ENDBRANCH  27  30
ENDBRANCH  25  26
ENDBRANCH  24  25
ENDBRANCH  23  24
ENDBRANCH   1  23
TORSDOF 15
ENDMDL
MODEL 3
REMARK VINA RESULT:     -12.0      3.294      9.062
REMARK SMILES Cn1cc(CNC(=O)Cn2ccc(C(=O)NCCCCNC(=O)c3ccc(-c4c5nc(c(-c6c(F)c(F)c(F)c(F)c6F)c6ccc([nH]6)c(-c6c(F)c(F)c(F)c(F)c6F)c6nc(c(-c7c(F)c(F)c(F)c(F)c7F)c7ccc4[nH]7)C=C6)C=C5)cc3)n2)cn1
REMARK SMILES IDX 17 1 16 2 14 3 15 4 13 6 10 7 11 8 87 9 12 10 9 11 7 12 6 13
REMARK SMILES IDX 8 15 5 16 4 17 1 18 2 19 3 20 89 21 88 22 18 23 19 24 20 25
REMARK SMILES IDX 21 26 22 27 23 29 24 30 25 31 86 32 26 33 85 34 27 35 28 36
REMARK SMILES IDX 29 37 79 38 30 39 84 40 78 41 80 42 31 43 83 44 77 45 76 46
REMARK SMILES IDX 32 48 64 49 44 50 63 51 45 52 48 53 62 54 81 55 46 56 47 57
REMARK SMILES IDX 61 59 82 60 49 61 33 62 34 63 42 64 35 65 36 66 40 67 43 68
REMARK SMILES IDX 37 69 38 70 41 71 39 72 65 73 66 74 74 75 67 76 68 77 72 78
REMARK SMILES IDX 75 79 69 80 70 81 73 82 71 83 50 84 51 85 59 86 52 87 53 88
REMARK SMILES IDX 57 89 60 90 54 91 55 92 58 93 56 94
REMARK H PARENT 16 5 6 14 21 28 80 47 48 58
REMARK Flexibility Score: inf
ROOT
ATOM      1  C   UNL A   1      36.186  20.469  25.086  1.00  0.00     0.116 C 
ENDROOT
BRANCH   1   2
ATOM      2  N   UNL A   1      35.683  21.311  26.148  1.00  0.00    -0.351 N 
ATOM      3  C   UNL A   1      34.762  22.337  26.162  1.00  0.00     0.271 C 
ATOM      4  O   UNL A   1      34.494  22.786  27.281  1.00  0.00    -0.267 OA
ATOM      5  H   UNL A   1      36.072  21.115  27.030  1.00  0.00     0.163 HD
BRANCH   3   6
ATOM      6  C   UNL A   1      34.134  22.864  24.926  1.00  0.00     0.150 A 
ATOM      7  N   UNL A   1      33.699  24.311  23.398  1.00  0.00    -0.263 N 
ATOM      8  C   UNL A   1      33.049  23.185  22.995  1.00  0.00     0.110 A 
ATOM      9  N   UNL A   1      34.332  24.154  24.573  1.00  0.00    -0.167 NA
ATOM     10  C   UNL A   1      33.322  22.232  23.944  1.00  0.00     0.056 A 
BRANCH   7  11
ATOM     11  C   UNL A   1      33.756  25.602  22.735  1.00  0.00     0.243 C 
BRANCH  11  12
ATOM     12  C   UNL A   1      32.794  25.706  21.577  1.00  0.00     0.241 C 
ATOM     13  N   UNL A   1      31.498  26.072  21.800  1.00  0.00    -0.350 N 
ATOM     14  H   UNL A   1      30.918  26.098  21.005  1.00  0.00     0.163 HD
ATOM     15  O   UNL A   1      33.144  25.455  20.422  1.00  0.00    -0.273 OA
BRANCH  13  16
ATOM     16  C   UNL A   1      30.864  26.426  23.052  1.00  0.00     0.155 C 
BRANCH  16  17
ATOM     17  C   UNL A   1      30.188  27.729  22.862  1.00  0.00     0.009 A 
ATOM     18  C   UNL A   1      27.539  30.175  22.864  1.00  0.00     0.173 C 
ATOM     19  N   UNL A   1      28.737  29.376  22.784  1.00  0.00    -0.275 N 
ATOM     20  C   UNL A   1      28.881  28.070  23.152  1.00  0.00     0.113 A 
ATOM     21  N   UNL A   1      29.859  29.918  22.286  1.00  0.00    -0.181 NA
ATOM     22  C   UNL A   1      30.742  28.919  22.337  1.00  0.00     0.140 A 
ENDBRANCH  16  17
ENDBRANCH  13  16
ENDBRANCH  11  12
ENDBRANCH   7  11
ENDBRANCH   3   6
ENDBRANCH   1   2
BRANCH   1  23
ATOM     23  C   UNL A   1      37.700  20.610  24.895  1.00  0.00     0.023 C 
BRANCH  23  24
ATOM     24  C   UNL A   1      38.315  21.920  25.415  1.00  0.00     0.023 C 
BRANCH  24  25
ATOM     25  C   UNL A   1      39.417  21.754  26.459  1.00  0.00     0.116 C 
BRANCH  25  26
ATOM     26  N   UNL A   1      40.756  21.600  25.878  1.00  0.00    -0.352 N 
ATOM     27  C   UNL A   1      41.766  22.546  25.765  1.00  0.00     0.251 C 
ATOM     28  H   UNL A   1      40.966  20.707  25.521  1.00  0.00     0.163 HD
ATOM     29  O   UNL A   1      42.655  22.433  24.938  1.00  0.00    -0.269 OA
BRANCH  27  30
ATOM     30  C   UNL A   1      41.766  23.680  26.706  1.00  0.00     0.039 A 
ATOM     31  C   UNL A   1      42.451  23.669  27.927  1.00  0.00     0.014 A 
ATOM     32  C   UNL A   1      41.060  24.802  26.301  1.00  0.00     0.014 A 
ATOM     33  C   UNL A   1      42.456  24.831  28.701  1.00  0.00     0.010 A 
ATOM     34  C   UNL A   1      41.274  25.992  26.924  1.00  0.00     0.010 A 
ATOM     35  C   UNL A   1      41.861  25.987  28.180  1.00  0.00    -0.014 A 
BRANCH  35  36
ATOM     36  C   UNL A   1      41.875  27.275  28.856  1.00  0.00     0.031 A 
ATOM     37  C   UNL A   1      42.985  28.165  28.432  1.00  0.00     0.074 A 
ATOM     38  C   UNL A   1      40.780  27.708  29.524  1.00  0.00     0.049 A 
ATOM     39  N   UNL A   1      43.968  28.602  29.145  1.00  0.00    -0.248 NA
ATOM     40  C   UNL A   1      43.110  28.483  26.996  1.00  0.00     0.031 C 
ATOM     41  C   UNL A   1      39.486  27.023  29.683  1.00  0.00     0.029 A 
ATOM     42  N   UNL A   1      40.536  28.918  30.093  1.00  0.00    -0.354 N 
ATOM     43  C   UNL A   1      44.708  29.429  28.303  1.00  0.00     0.074 A 
ATOM     44  C   UNL A   1      44.281  29.121  26.967  1.00  0.00     0.031 C 
ATOM     45  C   UNL A   1      38.546  27.905  30.087  1.00  0.00     0.029 A 
ATOM     46  C   UNL A   1      39.192  29.171  30.371  1.00  0.00     0.049 A 
ATOM     47  H   UNL A   1      41.250  29.565  30.293  1.00  0.00     0.167 HD
ATOM     48  C   UNL A   1      45.382  30.504  28.803  1.00  0.00     0.037 A 
ATOM     49  C   UNL A   1      38.663  30.360  30.760  1.00  0.00     0.037 A 
ATOM     50  C   UNL A   1      45.503  30.398  30.238  1.00  0.00     0.049 A 
ATOM     51  C   UNL A   1      39.792  31.195  31.249  1.00  0.00     0.074 A 
ATOM     52  C   UNL A   1      46.068  29.480  31.102  1.00  0.00     0.029 A 
ATOM     53  N   UNL A   1      44.637  31.144  31.001  1.00  0.00    -0.354 N 
ATOM     54  N   UNL A   1      40.481  30.917  32.323  1.00  0.00    -0.248 NA
ATOM     55  C   UNL A   1      40.465  32.037  30.273  1.00  0.00     0.031 C 
ATOM     56  C   UNL A   1      45.159  29.401  32.200  1.00  0.00     0.029 A 
ATOM     57  C   UNL A   1      44.144  30.335  31.990  1.00  0.00     0.049 A 
ATOM     58  H   UNL A   1      44.411  32.091  30.861  1.00  0.00     0.167 HD
ATOM     59  C   UNL A   1      41.799  31.171  31.968  1.00  0.00     0.074 A 
ATOM     60  C   UNL A   1      41.720  31.921  30.716  1.00  0.00     0.031 C 
ATOM     61  C   UNL A   1      42.824  30.487  32.555  1.00  0.00     0.037 A 
BRANCH  48  62
ATOM     62  C   UNL A   1      45.549  31.834  28.091  1.00  0.00     0.064 A 
ATOM     63  C   UNL A   1      44.387  32.508  27.657  1.00  0.00     0.173 A 
ATOM     64  C   UNL A   1      46.759  32.314  27.544  1.00  0.00     0.173 A 
ATOM     65  F   UNL A   1      43.178  32.151  28.116  1.00  0.00    -0.203 F 
ATOM     66  C   UNL A   1      44.425  33.489  26.663  1.00  0.00     0.198 A 
ATOM     67  C   UNL A   1      46.798  33.331  26.591  1.00  0.00     0.198 A 
ATOM     68  F   UNL A   1      47.946  31.764  27.813  1.00  0.00    -0.203 F 
ATOM     69  F   UNL A   1      43.280  33.988  26.180  1.00  0.00    -0.200 F 
ATOM     70  C   UNL A   1      45.630  33.890  26.120  1.00  0.00     0.200 A 
ATOM     71  F   UNL A   1      47.978  33.699  26.072  1.00  0.00    -0.200 F 
ATOM     72  F   UNL A   1      45.666  34.774  25.116  1.00  0.00    -0.200 F 
ENDBRANCH  48  62
BRANCH  49  73
ATOM     73  C   UNL A   1      37.335  30.938  30.435  1.00  0.00     0.064 A 
ATOM     74  C   UNL A   1      36.420  31.281  31.446  1.00  0.00     0.173 A 
ATOM     75  C   UNL A   1      37.049  31.430  29.145  1.00  0.00     0.173 A 
ATOM     76  F   UNL A   1      36.640  30.895  32.710  1.00  0.00    -0.203 F 
ATOM     77  C   UNL A   1      35.302  32.085  31.187  1.00  0.00     0.198 A 
ATOM     78  C   UNL A   1      35.932  32.228  28.888  1.00  0.00     0.198 A 
ATOM     79  F   UNL A   1      37.900  31.224  28.130  1.00  0.00    -0.203 F 
ATOM     80  F   UNL A   1      34.485  32.439  32.189  1.00  0.00    -0.200 F 
ATOM     81  C   UNL A   1      35.066  32.567  29.910  1.00  0.00     0.200 A 
ATOM     82  F   UNL A   1      35.736  32.718  27.655  1.00  0.00    -0.200 F 
ATOM     83  F   UNL A   1      34.031  33.386  29.674  1.00  0.00    -0.200 F 
ENDBRANCH  49  73
BRANCH  61  84
ATOM     84  C   UNL A   1      42.514  29.650  33.766  1.00  0.00     0.064 A 
ATOM     85  C   UNL A   1      42.061  28.320  33.716  1.00  0.00     0.173 A 
ATOM     86  C   UNL A   1      42.847  30.169  35.024  1.00  0.00     0.173 A 
ATOM     87  F   UNL A   1      41.812  27.719  32.548  1.00  0.00    -0.203 F 
ATOM     88  C   UNL A   1      41.916  27.561  34.877  1.00  0.00     0.198 A 
ATOM     89  C   UNL A   1      42.738  29.397  36.176  1.00  0.00     0.198 A 
ATOM     90  F   UNL A   1      43.337  31.415  35.126  1.00  0.00    -0.203 F 
ATOM     91  F   UNL A   1      41.478  26.295  34.802  1.00  0.00    -0.200 F 
ATOM     92  C   UNL A   1      42.265  28.098  36.105  1.00  0.00     0.200 A 
ATOM     93  F   UNL A   1      43.125  29.906  37.354  1.00  0.00    -0.200 F 
ATOM     94  F   UNL A   1      42.170  27.354  37.216  1.00  0.00    -0.200 F 
ENDBRANCH  61  84
ENDBRANCH  35  36
ENDBRANCH  27  30
ENDBRANCH  25  26
ENDBRANCH  24  25
ENDBRANCH  23  24
ENDBRANCH   1  23
TORSDOF 15
ENDMDL
