MODEL 1
REMARK VINA RESULT:     -13.3      0.000      0.000
REMARK SMILES Cc1cc(NS(=O)(=O)c2ccc(NC(=O)[C@@H]3CCCC[C@@H]3C(=O)NCCCCNC(=O)c3ccc(-c4c5nc(c(-c6c(F)c(F)c(F)c(F)c6F)c6ccc([nH]6)c(-c6c(F)c(F)c(F)c(F)c6F)c6nc(c(-c7c(F)c(F)c(F)c(F)c7F)c7ccc4[nH]7)C=C6)C=C5)cc3)cc2)no1
REMARK SMILES IDX 25 1 24 2 22 3 23 4 21 6 16 7 17 8 18 9 20 10 19 11 14 12
REMARK SMILES IDX 13 13 15 15 12 16 9 17 10 18 96 19 11 20 95 21 6 22 7 23
REMARK SMILES IDX 8 24 5 25 4 27 1 28 2 29 3 30 98 31 97 32 26 33 27 34 28 35
REMARK SMILES IDX 29 36 30 37 31 39 32 40 33 41 94 42 34 43 93 44 35 45 36 46
REMARK SMILES IDX 37 47 87 48 38 49 92 50 86 51 88 52 39 53 91 54 85 55 84 56
REMARK SMILES IDX 40 58 72 59 52 60 71 61 53 62 56 63 70 64 89 65 54 66 55 67
REMARK SMILES IDX 69 69 90 70 57 71 41 72 42 73 50 74 43 75 44 76 48 77 51 78
REMARK SMILES IDX 45 79 46 80 49 81 47 82 73 83 74 84 82 85 75 86 76 87 80 88
REMARK SMILES IDX 83 89 77 90 78 91 81 92 79 93 58 94 59 95 67 96 60 97 61 98
REMARK SMILES IDX 65 99 68 100 62 101 63 102 66 103 64 104
REMARK H PARENT 24 5 13 14 5 26 29 38 88 57 56 68
REMARK Flexibility Score: inf
ROOT
ATOM      1  C   UNL A   1      31.373  30.078  24.851  1.00  0.00     0.116 C 
ENDROOT
BRANCH   1   2
ATOM      2  N   UNL A   1      30.746  28.764  24.825  1.00  0.00    -0.356 N 
ATOM      3  C   UNL A   1      31.271  27.536  24.550  1.00  0.00     0.223 C 
ATOM      4  O   UNL A   1      30.531  26.557  24.660  1.00  0.00    -0.275 OA
ATOM      5  H   UNL A   1      29.786  28.762  25.041  1.00  0.00     0.163 HD
BRANCH   3   6
ATOM      6  C   UNL A   1      32.733  27.396  24.134  1.00  0.00     0.091 C 
ATOM      7  C   UNL A   1      33.089  26.061  23.439  1.00  0.00     0.091 C 
ATOM      8  C   UNL A   1      33.853  24.992  24.229  1.00  0.00     0.014 C 
ATOM      9  C   UNL A   1      34.750  25.527  25.335  1.00  0.00     0.001 C 
ATOM     10  C   UNL A   1      33.666  27.768  25.296  1.00  0.00     0.014 C 
ATOM     11  C   UNL A   1      34.046  26.584  26.170  1.00  0.00     0.001 C 
BRANCH   7  12
ATOM     12  C   UNL A   1      31.988  25.580  22.492  1.00  0.00     0.228 C 
ATOM     13  N   UNL A   1      31.211  24.469  22.576  1.00  0.00    -0.326 N 
ATOM     14  H   UNL A   1      30.426  24.503  21.984  1.00  0.00     0.169 HD
ATOM     15  O   UNL A   1      31.759  26.292  21.498  1.00  0.00    -0.274 OA
BRANCH  13  16
ATOM     16  C   UNL A   1      31.284  23.284  23.320  1.00  0.00     0.041 A 
ATOM     17  C   UNL A   1      32.185  21.065  24.724  1.00  0.00     0.088 A 
ATOM     18  C   UNL A   1      31.447  22.045  25.390  1.00  0.00     0.024 A 
ATOM     19  C   UNL A   1      32.285  21.079  23.334  1.00  0.00     0.024 A 
ATOM     20  C   UNL A   1      30.976  23.151  24.671  1.00  0.00     0.027 A 
ATOM     21  C   UNL A   1      31.812  22.183  22.631  1.00  0.00     0.027 A 
BRANCH  17  22
ATOM     22  S   UNL A   1      33.111  19.861  25.638  1.00  0.00     0.263 S 
ATOM     23  O   UNL A   1      32.426  18.585  25.559  1.00  0.00    -0.201 OA
ATOM     24  O   UNL A   1      33.415  20.452  26.924  1.00  0.00    -0.201 OA
BRANCH  22  25
ATOM     25  N   UNL A   1      34.581  19.705  24.861  1.00  0.00    -0.261 N 
ATOM     26  H   UNL A   1      34.655  18.970  24.209  1.00  0.00     0.182 HD
BRANCH  25  27
ATOM     27  C   UNL A   1      35.709  20.494  25.030  1.00  0.00     0.183 A 
ATOM     28  C   UNL A   1      37.653  23.604  25.235  1.00  0.00     0.091 C 
ATOM     29  C   UNL A   1      36.974  22.297  25.180  1.00  0.00     0.135 A 
ATOM     30  C   UNL A   1      35.659  21.900  25.173  1.00  0.00     0.096 A 
ATOM     31  O   UNL A   1      37.765  21.194  25.093  1.00  0.00    -0.360 OA
ATOM     32  N   UNL A   1      36.970  20.063  25.022  1.00  0.00    -0.061 NA
ENDBRANCH  25  27
ENDBRANCH  22  25
ENDBRANCH  17  22
ENDBRANCH  13  16
ENDBRANCH   7  12
ENDBRANCH   3   6
ENDBRANCH   1   2
BRANCH   1  33
ATOM     33  C   UNL A   1      31.756  30.509  26.266  1.00  0.00     0.023 C 
BRANCH  33  34
ATOM     34  C   UNL A   1      31.510  31.980  26.588  1.00  0.00     0.023 C 
BRANCH  34  35
ATOM     35  C   UNL A   1      32.644  32.670  27.328  1.00  0.00     0.116 C 
BRANCH  35  36
ATOM     36  N   UNL A   1      32.362  34.070  27.616  1.00  0.00    -0.352 N 
ATOM     37  C   UNL A   1      32.936  34.903  28.544  1.00  0.00     0.251 C 
ATOM     38  H   UNL A   1      31.656  34.478  27.063  1.00  0.00     0.163 HD
ATOM     39  O   UNL A   1      32.473  36.020  28.749  1.00  0.00    -0.269 OA
BRANCH  37  40
ATOM     40  C   UNL A   1      34.102  34.434  29.323  1.00  0.00     0.039 A 
ATOM     41  C   UNL A   1      33.887  33.820  30.560  1.00  0.00     0.014 A 
ATOM     42  C   UNL A   1      35.397  34.574  28.821  1.00  0.00     0.014 A 
ATOM     43  C   UNL A   1      34.967  33.278  31.257  1.00  0.00     0.010 A 
ATOM     44  C   UNL A   1      36.458  33.953  29.470  1.00  0.00     0.010 A 
ATOM     45  C   UNL A   1      36.255  33.304  30.697  1.00  0.00    -0.014 A 
BRANCH  45  46
ATOM     46  C   UNL A   1      37.408  32.667  31.379  1.00  0.00     0.031 A 
ATOM     47  C   UNL A   1      38.124  31.517  30.726  1.00  0.00     0.074 A 
ATOM     48  C   UNL A   1      37.764  33.071  32.614  1.00  0.00     0.049 A 
ATOM     49  N   UNL A   1      39.097  30.775  31.190  1.00  0.00    -0.248 NA
ATOM     50  C   UNL A   1      37.659  31.129  29.385  1.00  0.00     0.031 C 
ATOM     51  C   UNL A   1      37.113  34.138  33.375  1.00  0.00     0.029 A 
ATOM     52  N   UNL A   1      38.753  32.622  33.452  1.00  0.00    -0.354 N 
ATOM     53  C   UNL A   1      39.344  29.823  30.209  1.00  0.00     0.074 A 
ATOM     54  C   UNL A   1      38.381  30.044  29.152  1.00  0.00     0.031 C 
ATOM     55  C   UNL A   1      37.738  34.280  34.554  1.00  0.00     0.029 A 
ATOM     56  C   UNL A   1      38.806  33.291  34.649  1.00  0.00     0.049 A 
ATOM     57  H   UNL A   1      39.367  31.889  33.216  1.00  0.00     0.167 HD
ATOM     58  C   UNL A   1      40.305  28.870  30.179  1.00  0.00     0.037 A 
ATOM     59  C   UNL A   1      39.623  33.121  35.707  1.00  0.00     0.037 A 
ATOM     60  C   UNL A   1      41.281  28.675  31.219  1.00  0.00     0.049 A 
ATOM     61  C   UNL A   1      40.685  32.055  35.650  1.00  0.00     0.074 A 
ATOM     62  C   UNL A   1      42.337  27.783  31.255  1.00  0.00     0.029 A 
ATOM     63  N   UNL A   1      41.314  29.385  32.411  1.00  0.00    -0.354 N 
ATOM     64  N   UNL A   1      40.956  31.209  34.687  1.00  0.00    -0.248 NA
ATOM     65  C   UNL A   1      41.554  31.927  36.827  1.00  0.00     0.031 C 
ATOM     66  C   UNL A   1      42.985  27.922  32.488  1.00  0.00     0.029 A 
ATOM     67  C   UNL A   1      42.362  28.936  33.199  1.00  0.00     0.049 A 
ATOM     68  H   UNL A   1      40.688  30.102  32.659  1.00  0.00     0.167 HD
ATOM     69  C   UNL A   1      42.043  30.466  35.128  1.00  0.00     0.074 A 
ATOM     70  C   UNL A   1      42.389  30.971  36.440  1.00  0.00     0.031 C 
ATOM     71  C   UNL A   1      42.695  29.455  34.501  1.00  0.00     0.037 A 
BRANCH  58  72
ATOM     72  C   UNL A   1      40.346  27.969  28.978  1.00  0.00     0.064 A 
ATOM     73  C   UNL A   1      41.084  28.303  27.832  1.00  0.00     0.173 A 
ATOM     74  C   UNL A   1      39.650  26.751  28.977  1.00  0.00     0.173 A 
ATOM     75  F   UNL A   1      41.757  29.462  27.776  1.00  0.00    -0.203 F 
ATOM     76  C   UNL A   1      41.092  27.470  26.716  1.00  0.00     0.198 A 
ATOM     77  C   UNL A   1      39.688  25.905  27.871  1.00  0.00     0.198 A 
ATOM     78  F   UNL A   1      38.933  26.380  30.048  1.00  0.00    -0.203 F 
ATOM     79  F   UNL A   1      41.754  27.841  25.610  1.00  0.00    -0.200 F 
ATOM     80  C   UNL A   1      40.399  26.270  26.738  1.00  0.00     0.200 A 
ATOM     81  F   UNL A   1      39.027  24.740  27.899  1.00  0.00    -0.200 F 
ATOM     82  F   UNL A   1      40.409  25.470  25.664  1.00  0.00    -0.200 F 
ENDBRANCH  58  72
BRANCH  59  83
ATOM     83  C   UNL A   1      39.492  34.006  36.893  1.00  0.00     0.064 A 
ATOM     84  C   UNL A   1      38.748  33.601  38.010  1.00  0.00     0.173 A 
ATOM     85  C   UNL A   1      40.112  35.262  36.942  1.00  0.00     0.173 A 
ATOM     86  F   UNL A   1      38.120  32.416  38.002  1.00  0.00    -0.203 F 
ATOM     87  C   UNL A   1      38.615  34.427  39.124  1.00  0.00     0.198 A 
ATOM     88  C   UNL A   1      40.000  36.077  38.067  1.00  0.00     0.198 A 
ATOM     89  F   UNL A   1      40.839  35.694  35.901  1.00  0.00    -0.203 F 
ATOM     90  F   UNL A   1      37.865  34.032  40.161  1.00  0.00    -0.200 F 
ATOM     91  C   UNL A   1      39.246  35.661  39.154  1.00  0.00     0.200 A 
ATOM     92  F   UNL A   1      40.623  37.263  38.098  1.00  0.00    -0.200 F 
ATOM     93  F   UNL A   1      39.123  36.452  40.229  1.00  0.00    -0.200 F 
ENDBRANCH  59  83
BRANCH  71  94
ATOM     94  C   UNL A   1      43.869  28.849  35.214  1.00  0.00     0.064 A 
ATOM     95  C   UNL A   1      43.727  27.729  36.045  1.00  0.00     0.173 A 
ATOM     96  C   UNL A   1      45.157  29.374  35.029  1.00  0.00     0.173 A 
ATOM     97  F   UNL A   1      42.514  27.201  36.266  1.00  0.00    -0.203 F 
ATOM     98  C   UNL A   1      44.831  27.170  36.684  1.00  0.00     0.198 A 
ATOM     99  C   UNL A   1      46.261  28.793  35.645  1.00  0.00     0.198 A 
ATOM    100  F   UNL A   1      45.347  30.441  34.238  1.00  0.00    -0.203 F 
ATOM    101  F   UNL A   1      44.667  26.127  37.510  1.00  0.00    -0.200 F 
ATOM    102  C   UNL A   1      46.097  27.697  36.478  1.00  0.00     0.200 A 
ATOM    103  F   UNL A   1      47.486  29.296  35.434  1.00  0.00    -0.200 F 
ATOM    104  F   UNL A   1      47.159  27.152  37.087  1.00  0.00    -0.200 F 
ENDBRANCH  71  94
ENDBRANCH  45  46
ENDBRANCH  37  40
ENDBRANCH  35  36
ENDBRANCH  34  35
ENDBRANCH  33  34
ENDBRANCH   1  33
TORSDOF 16
ENDMDL
MODEL 2
REMARK VINA RESULT:     -13.3      1.402      7.531
REMARK SMILES Cc1cc(NS(=O)(=O)c2ccc(NC(=O)[C@@H]3CCCC[C@@H]3C(=O)NCCCCNC(=O)c3ccc(-c4c5nc(c(-c6c(F)c(F)c(F)c(F)c6F)c6ccc([nH]6)c(-c6c(F)c(F)c(F)c(F)c6F)c6nc(c(-c7c(F)c(F)c(F)c(F)c7F)c7ccc4[nH]7)C=C6)C=C5)cc3)cc2)no1
REMARK SMILES IDX 25 1 24 2 22 3 23 4 21 6 16 7 17 8 18 9 20 10 19 11 14 12
REMARK SMILES IDX 13 13 15 15 12 16 9 17 10 18 96 19 11 20 95 21 6 22 7 23
REMARK SMILES IDX 8 24 5 25 4 27 1 28 2 29 3 30 98 31 97 32 26 33 27 34 28 35
REMARK SMILES IDX 29 36 30 37 31 39 32 40 33 41 94 42 34 43 93 44 35 45 36 46
REMARK SMILES IDX 37 47 87 48 38 49 92 50 86 51 88 52 39 53 91 54 85 55 84 56
REMARK SMILES IDX 40 58 72 59 52 60 71 61 53 62 56 63 70 64 89 65 54 66 55 67
REMARK SMILES IDX 69 69 90 70 57 71 41 72 42 73 50 74 43 75 44 76 48 77 51 78
REMARK SMILES IDX 45 79 46 80 49 81 47 82 73 83 74 84 82 85 75 86 76 87 80 88
REMARK SMILES IDX 83 89 77 90 78 91 81 92 79 93 58 94 59 95 67 96 60 97 61 98
REMARK SMILES IDX 65 99 68 100 62 101 63 102 66 103 64 104
REMARK H PARENT 24 5 13 14 5 26 29 38 88 57 56 68
REMARK Flexibility Score: inf
ROOT
ATOM      1  C   UNL A   1      33.030  30.555  26.809  1.00  0.00     0.116 C 
ENDROOT
BRANCH   1   2
ATOM      2  N   UNL A   1      33.531  29.707  25.736  1.00  0.00    -0.356 N 
ATOM      3  C   UNL A   1      32.863  29.004  24.777  1.00  0.00     0.223 C 
ATOM      4  O   UNL A   1      33.532  28.407  23.933  1.00  0.00    -0.275 OA
ATOM      5  H   UNL A   1      34.511  29.629  25.696  1.00  0.00     0.163 HD
BRANCH   3   6
ATOM      6  C   UNL A   1      31.338  28.981  24.757  1.00  0.00     0.091 C 
ATOM      7  C   UNL A   1      30.694  27.748  25.433  1.00  0.00     0.091 C 
ATOM      8  C   UNL A   1      30.108  26.638  24.552  1.00  0.00     0.014 C 
ATOM      9  C   UNL A   1      29.611  27.094  23.189  1.00  0.00     0.001 C 
ATOM     10  C   UNL A   1      30.808  29.271  23.344  1.00  0.00     0.014 C 
ATOM     11  C   UNL A   1      30.604  28.019  22.507  1.00  0.00     0.001 C 
BRANCH   7  12
ATOM     12  C   UNL A   1      31.437  27.318  26.700  1.00  0.00     0.228 C 
ATOM     13  N   UNL A   1      32.400  26.373  26.849  1.00  0.00    -0.326 N 
ATOM     14  H   UNL A   1      32.883  26.447  27.704  1.00  0.00     0.169 HD
ATOM     15  O   UNL A   1      31.126  27.905  27.752  1.00  0.00    -0.274 OA
BRANCH  13  16
ATOM     16  C   UNL A   1      32.856  25.314  26.054  1.00  0.00     0.041 A 
ATOM     17  C   UNL A   1      34.216  23.093  25.089  1.00  0.00     0.088 A 
ATOM     18  C   UNL A   1      32.841  23.011  25.314  1.00  0.00     0.024 A 
ATOM     19  C   UNL A   1      34.867  24.325  25.133  1.00  0.00     0.024 A 
ATOM     20  C   UNL A   1      32.157  24.142  25.780  1.00  0.00     0.027 A 
ATOM     21  C   UNL A   1      34.175  25.441  25.597  1.00  0.00     0.027 A 
BRANCH  17  22
ATOM     22  S   UNL A   1      35.181  21.622  24.869  1.00  0.00     0.263 S 
ATOM     23  O   UNL A   1      35.515  21.084  26.173  1.00  0.00    -0.201 OA
ATOM     24  O   UNL A   1      36.223  21.942  23.918  1.00  0.00    -0.201 OA
BRANCH  22  25
ATOM     25  N   UNL A   1      34.193  20.520  24.095  1.00  0.00    -0.261 N 
ATOM     26  H   UNL A   1      34.002  20.696  23.145  1.00  0.00     0.182 HD
BRANCH  25  27
ATOM     27  C   UNL A   1      33.612  19.385  24.639  1.00  0.00     0.183 A 
ATOM     28  C   UNL A   1      33.106  15.790  25.202  1.00  0.00     0.091 C 
ATOM     29  C   UNL A   1      33.223  17.253  25.058  1.00  0.00     0.135 A 
ATOM     30  C   UNL A   1      34.157  18.088  24.496  1.00  0.00     0.096 A 
ATOM     31  O   UNL A   1      32.202  18.004  25.549  1.00  0.00    -0.360 OA
ATOM     32  N   UNL A   1      32.459  19.343  25.306  1.00  0.00    -0.061 NA
ENDBRANCH  25  27
ENDBRANCH  22  25
ENDBRANCH  17  22
ENDBRANCH  13  16
ENDBRANCH   7  12
ENDBRANCH   3   6
ENDBRANCH   1   2
BRANCH   1  33
ATOM     33  C   UNL A   1      31.662  31.153  26.484  1.00  0.00     0.023 C 
BRANCH  33  34
ATOM     34  C   UNL A   1      31.518  32.645  26.769  1.00  0.00     0.023 C 
BRANCH  34  35
ATOM     35  C   UNL A   1      32.754  33.305  27.357  1.00  0.00     0.116 C 
BRANCH  35  36
ATOM     36  N   UNL A   1      32.486  34.634  27.891  1.00  0.00    -0.352 N 
ATOM     37  C   UNL A   1      33.063  35.279  28.957  1.00  0.00     0.251 C 
ATOM     38  H   UNL A   1      31.790  35.144  27.417  1.00  0.00     0.163 HD
ATOM     39  O   UNL A   1      32.611  36.346  29.357  1.00  0.00    -0.269 OA
BRANCH  37  40
ATOM     40  C   UNL A   1      34.217  34.662  29.645  1.00  0.00     0.039 A 
ATOM     41  C   UNL A   1      34.000  33.954  30.830  1.00  0.00     0.014 A 
ATOM     42  C   UNL A   1      35.502  34.759  29.108  1.00  0.00     0.014 A 
ATOM     43  C   UNL A   1      35.060  33.278  31.434  1.00  0.00     0.010 A 
ATOM     44  C   UNL A   1      36.537  34.011  29.657  1.00  0.00     0.010 A 
ATOM     45  C   UNL A   1      36.328  33.268  30.829  1.00  0.00    -0.014 A 
BRANCH  45  46
ATOM     46  C   UNL A   1      37.455  32.493  31.406  1.00  0.00     0.031 A 
ATOM     47  C   UNL A   1      37.991  32.850  32.764  1.00  0.00     0.074 A 
ATOM     48  C   UNL A   1      38.041  31.522  30.681  1.00  0.00     0.049 A 
ATOM     49  N   UNL A   1      39.017  32.353  33.408  1.00  0.00    -0.248 NA
ATOM     50  C   UNL A   1      37.303  33.935  33.480  1.00  0.00     0.031 C 
ATOM     51  C   UNL A   1      37.647  31.120  29.330  1.00  0.00     0.029 A 
ATOM     52  N   UNL A   1      39.104  30.705  30.973  1.00  0.00    -0.354 N 
ATOM     53  C   UNL A   1      39.107  33.077  34.589  1.00  0.00     0.074 A 
ATOM     54  C   UNL A   1      38.072  34.086  34.547  1.00  0.00     0.031 C 
ATOM     55  C   UNL A   1      38.438  30.114  28.923  1.00  0.00     0.029 A 
ATOM     56  C   UNL A   1      39.417  29.827  29.966  1.00  0.00     0.049 A 
ATOM     57  H   UNL A   1      39.594  30.743  31.826  1.00  0.00     0.167 HD
ATOM     58  C   UNL A   1      39.958  32.898  35.627  1.00  0.00     0.037 A 
ATOM     59  C   UNL A   1      40.389  28.898  29.891  1.00  0.00     0.037 A 
ATOM     60  C   UNL A   1      40.966  31.872  35.677  1.00  0.00     0.049 A 
ATOM     61  C   UNL A   1      41.323  28.717  31.058  1.00  0.00     0.074 A 
ATOM     62  C   UNL A   1      41.834  31.564  36.709  1.00  0.00     0.029 A 
ATOM     63  N   UNL A   1      41.243  30.989  34.643  1.00  0.00    -0.354 N 
ATOM     64  N   UNL A   1      41.353  29.359  32.200  1.00  0.00    -0.248 NA
ATOM     65  C   UNL A   1      42.353  27.679  30.924  1.00  0.00     0.031 C 
ATOM     66  C   UNL A   1      42.665  30.522  36.284  1.00  0.00     0.029 A 
ATOM     67  C   UNL A   1      42.282  30.148  35.005  1.00  0.00     0.049 A 
ATOM     68  H   UNL A   1      40.770  30.963  33.780  1.00  0.00     0.167 HD
ATOM     69  C   UNL A   1      42.384  28.787  32.932  1.00  0.00     0.074 A 
ATOM     70  C   UNL A   1      42.947  27.736  32.109  1.00  0.00     0.031 C 
ATOM     71  C   UNL A   1      42.827  29.104  34.174  1.00  0.00     0.037 A 
BRANCH  58  72
ATOM     72  C   UNL A   1      39.828  33.834  36.795  1.00  0.00     0.064 A 
ATOM     73  C   UNL A   1      38.988  33.544  37.881  1.00  0.00     0.173 A 
ATOM     74  C   UNL A   1      40.560  35.030  36.834  1.00  0.00     0.173 A 
ATOM     75  F   UNL A   1      38.256  32.419  37.887  1.00  0.00    -0.203 F 
ATOM     76  C   UNL A   1      38.858  34.433  38.945  1.00  0.00     0.198 A 
ATOM     77  C   UNL A   1      40.452  35.901  37.915  1.00  0.00     0.198 A 
ATOM     78  F   UNL A   1      41.381  35.354  35.824  1.00  0.00    -0.203 F 
ATOM     79  F   UNL A   1      38.003  34.162  39.941  1.00  0.00    -0.200 F 
ATOM     80  C   UNL A   1      39.594  35.607  38.964  1.00  0.00     0.200 A 
ATOM     81  F   UNL A   1      41.173  37.030  37.938  1.00  0.00    -0.200 F 
ATOM     82  F   UNL A   1      39.468  36.461  39.988  1.00  0.00    -0.200 F 
ENDBRANCH  58  72
BRANCH  59  83
ATOM     83  C   UNL A   1      40.505  28.043  28.682  1.00  0.00     0.064 A 
ATOM     84  C   UNL A   1      41.287  28.447  27.590  1.00  0.00     0.173 A 
ATOM     85  C   UNL A   1      39.849  26.807  28.592  1.00  0.00     0.173 A 
ATOM     86  F   UNL A   1      41.917  29.631  27.621  1.00  0.00    -0.203 F 
ATOM     87  C   UNL A   1      41.396  27.654  26.450  1.00  0.00     0.198 A 
ATOM     88  C   UNL A   1      39.980  26.003  27.462  1.00  0.00     0.198 A 
ATOM     89  F   UNL A   1      39.093  26.373  29.611  1.00  0.00    -0.203 F 
ATOM     90  F   UNL A   1      42.118  28.083  25.406  1.00  0.00    -0.200 F 
ATOM     91  C   UNL A   1      40.748  26.431  26.389  1.00  0.00     0.200 A 
ATOM     92  F   UNL A   1      39.363  24.814  27.412  1.00  0.00    -0.200 F 
ATOM     93  F   UNL A   1      40.858  25.666  25.294  1.00  0.00    -0.200 F 
ENDBRANCH  59  83
BRANCH  71  94
ATOM     94  C   UNL A   1      43.954  28.285  34.732  1.00  0.00     0.064 A 
ATOM     95  C   UNL A   1      45.291  28.683  34.595  1.00  0.00     0.173 A 
ATOM     96  C   UNL A   1      43.687  27.108  35.447  1.00  0.00     0.173 A 
ATOM     97  F   UNL A   1      45.597  29.793  33.906  1.00  0.00    -0.203 F 
ATOM     98  C   UNL A   1      46.323  27.920  35.135  1.00  0.00     0.198 A 
ATOM     99  C   UNL A   1      44.719  26.364  36.011  1.00  0.00     0.198 A 
ATOM    100  F   UNL A   1      42.424  26.686  35.613  1.00  0.00    -0.203 F 
ATOM    101  F   UNL A   1      47.596  28.294  34.953  1.00  0.00    -0.200 F 
ATOM    102  C   UNL A   1      46.036  26.765  35.849  1.00  0.00     0.200 A 
ATOM    103  F   UNL A   1      44.439  25.256  36.712  1.00  0.00    -0.200 F 
ATOM    104  F   UNL A   1      47.030  26.037  36.374  1.00  0.00    -0.200 F 
ENDBRANCH  71  94
ENDBRANCH  45  46
ENDBRANCH  37  40
ENDBRANCH  35  36
ENDBRANCH  34  35
ENDBRANCH  33  34
ENDBRANCH   1  33
TORSDOF 16
ENDMDL
MODEL 3
REMARK VINA RESULT:     -13.1      3.633      7.342
REMARK SMILES Cc1cc(NS(=O)(=O)c2ccc(NC(=O)[C@@H]3CCCC[C@@H]3C(=O)NCCCCNC(=O)c3ccc(-c4c5nc(c(-c6c(F)c(F)c(F)c(F)c6F)c6ccc([nH]6)c(-c6c(F)c(F)c(F)c(F)c6F)c6nc(c(-c7c(F)c(F)c(F)c(F)c7F)c7ccc4[nH]7)C=C6)C=C5)cc3)cc2)no1
REMARK SMILES IDX 25 1 24 2 22 3 23 4 21 6 16 7 17 8 18 9 20 10 19 11 14 12
REMARK SMILES IDX 13 13 15 15 12 16 9 17 10 18 96 19 11 20 95 21 6 22 7 23
REMARK SMILES IDX 8 24 5 25 4 27 1 28 2 29 3 30 98 31 97 32 26 33 27 34 28 35
REMARK SMILES IDX 29 36 30 37 31 39 32 40 33 41 94 42 34 43 93 44 35 45 36 46
REMARK SMILES IDX 37 47 87 48 38 49 92 50 86 51 88 52 39 53 91 54 85 55 84 56
REMARK SMILES IDX 40 58 72 59 52 60 71 61 53 62 56 63 70 64 89 65 54 66 55 67
REMARK SMILES IDX 69 69 90 70 57 71 41 72 42 73 50 74 43 75 44 76 48 77 51 78
REMARK SMILES IDX 45 79 46 80 49 81 47 82 73 83 74 84 82 85 75 86 76 87 80 88
REMARK SMILES IDX 83 89 77 90 78 91 81 92 79 93 58 94 59 95 67 96 60 97 61 98
REMARK SMILES IDX 65 99 68 100 62 101 63 102 66 103 64 104
REMARK H PARENT 24 5 13 14 5 26 29 38 88 57 56 68
REMARK Flexibility Score: inf
ROOT
ATOM      1  C   UNL A   1      34.217  24.975  24.081  1.00  0.00     0.116 C 
ENDROOT
BRANCH   1   2
ATOM      2  N   UNL A   1      34.149  26.320  23.527  1.00  0.00    -0.356 N 
ATOM      3  C   UNL A   1      33.727  27.490  24.088  1.00  0.00     0.223 C 
ATOM      4  O   UNL A   1      33.832  28.519  23.418  1.00  0.00    -0.275 OA
ATOM      5  H   UNL A   1      34.459  26.399  22.596  1.00  0.00     0.163 HD
BRANCH   3   6
ATOM      6  C   UNL A   1      33.158  27.507  25.503  1.00  0.00     0.091 C 
ATOM      7  C   UNL A   1      31.738  28.109  25.629  1.00  0.00     0.091 C 
ATOM      8  C   UNL A   1      31.578  29.519  26.211  1.00  0.00     0.014 C 
ATOM      9  C   UNL A   1      32.664  29.938  27.190  1.00  0.00     0.001 C 
ATOM     10  C   UNL A   1      34.178  28.090  26.492  1.00  0.00     0.014 C 
ATOM     11  C   UNL A   1      34.051  29.593  26.676  1.00  0.00     0.001 C 
BRANCH   7  12
ATOM     12  C   UNL A   1      30.832  27.727  24.458  1.00  0.00     0.228 C 
ATOM     13  N   UNL A   1      30.300  26.517  24.147  1.00  0.00    -0.326 N 
ATOM     14  H   UNL A   1      29.568  26.576  23.491  1.00  0.00     0.169 HD
ATOM     15  O   UNL A   1      30.531  28.639  23.668  1.00  0.00    -0.274 OA
BRANCH  13  16
ATOM     16  C   UNL A   1      30.565  25.203  24.553  1.00  0.00     0.041 A 
ATOM     17  C   UNL A   1      31.760  22.737  25.004  1.00  0.00     0.088 A 
ATOM     18  C   UNL A   1      31.451  23.558  26.089  1.00  0.00     0.024 A 
ATOM     19  C   UNL A   1      31.282  23.041  23.730  1.00  0.00     0.024 A 
ATOM     20  C   UNL A   1      30.828  24.792  25.857  1.00  0.00     0.027 A 
ATOM     21  C   UNL A   1      30.663  24.269  23.512  1.00  0.00     0.027 A 
BRANCH  17  22
ATOM     22  S   UNL A   1      32.868  21.367  25.200  1.00  0.00     0.263 S 
ATOM     23  O   UNL A   1      33.257  21.277  26.594  1.00  0.00    -0.201 OA
ATOM     24  O   UNL A   1      33.871  21.488  24.164  1.00  0.00    -0.201 OA
BRANCH  22  25
ATOM     25  N   UNL A   1      31.996  19.995  24.818  1.00  0.00    -0.261 N 
ATOM     26  H   UNL A   1      31.016  20.095  24.783  1.00  0.00     0.182 HD
BRANCH  25  27
ATOM     27  C   UNL A   1      32.495  18.731  24.546  1.00  0.00     0.183 A 
ATOM     28  C   UNL A   1      34.329  15.614  25.191  1.00  0.00     0.091 C 
ATOM     29  C   UNL A   1      33.561  16.818  24.826  1.00  0.00     0.135 A 
ATOM     30  C   UNL A   1      33.090  17.902  25.525  1.00  0.00     0.096 A 
ATOM     31  O   UNL A   1      33.229  16.964  23.516  1.00  0.00    -0.360 OA
ATOM     32  N   UNL A   1      32.541  18.153  23.345  1.00  0.00    -0.061 NA
ENDBRANCH  25  27
ENDBRANCH  22  25
ENDBRANCH  17  22
ENDBRANCH  13  16
ENDBRANCH   7  12
ENDBRANCH   3   6
ENDBRANCH   1   2
BRANCH   1  33
ATOM     33  C   UNL A   1      34.887  24.947  25.454  1.00  0.00     0.023 C 
BRANCH  33  34
ATOM     34  C   UNL A   1      35.789  23.744  25.714  1.00  0.00     0.023 C 
BRANCH  34  35
ATOM     35  C   UNL A   1      37.067  23.714  24.892  1.00  0.00     0.116 C 
BRANCH  35  36
ATOM     36  N   UNL A   1      38.022  22.723  25.367  1.00  0.00    -0.352 N 
ATOM     37  C   UNL A   1      39.129  22.888  26.163  1.00  0.00     0.251 C 
ATOM     38  H   UNL A   1      37.848  21.798  25.075  1.00  0.00     0.163 HD
ATOM     39  O   UNL A   1      39.907  21.958  26.346  1.00  0.00    -0.269 OA
BRANCH  37  40
ATOM     40  C   UNL A   1      39.398  24.206  26.774  1.00  0.00     0.039 A 
ATOM     41  C   UNL A   1      38.973  24.445  28.083  1.00  0.00     0.014 A 
ATOM     42  C   UNL A   1      40.092  25.191  26.068  1.00  0.00     0.014 A 
ATOM     43  C   UNL A   1      39.311  25.644  28.711  1.00  0.00     0.010 A 
ATOM     44  C   UNL A   1      40.508  26.344  26.723  1.00  0.00     0.010 A 
ATOM     45  C   UNL A   1      40.117  26.585  28.049  1.00  0.00    -0.014 A 
BRANCH  45  46
ATOM     46  C   UNL A   1      40.558  27.834  28.719  1.00  0.00     0.031 A 
ATOM     47  C   UNL A   1      41.980  27.971  29.187  1.00  0.00     0.074 A 
ATOM     48  C   UNL A   1      39.666  28.810  28.972  1.00  0.00     0.049 A 
ATOM     49  N   UNL A   1      42.541  28.942  29.862  1.00  0.00    -0.248 NA
ATOM     50  C   UNL A   1      42.884  26.850  28.885  1.00  0.00     0.031 C 
ATOM     51  C   UNL A   1      38.246  28.771  28.616  1.00  0.00     0.029 A 
ATOM     52  N   UNL A   1      39.818  30.020  29.600  1.00  0.00    -0.354 N 
ATOM     53  C   UNL A   1      43.852  28.539  30.081  1.00  0.00     0.074 A 
ATOM     54  C   UNL A   1      43.987  27.212  29.522  1.00  0.00     0.031 C 
ATOM     55  C   UNL A   1      37.665  29.917  29.006  1.00  0.00     0.029 A 
ATOM     56  C   UNL A   1      38.659  30.753  29.671  1.00  0.00     0.049 A 
ATOM     57  H   UNL A   1      40.677  30.334  29.964  1.00  0.00     0.167 HD
ATOM     58  C   UNL A   1      44.859  29.226  30.672  1.00  0.00     0.037 A 
ATOM     59  C   UNL A   1      38.425  31.961  30.217  1.00  0.00     0.037 A 
ATOM     60  C   UNL A   1      44.727  30.558  31.199  1.00  0.00     0.049 A 
ATOM     61  C   UNL A   1      39.561  32.706  30.867  1.00  0.00     0.074 A 
ATOM     62  C   UNL A   1      45.702  31.366  31.755  1.00  0.00     0.029 A 
ATOM     63  N   UNL A   1      43.541  31.276  31.237  1.00  0.00    -0.354 N 
ATOM     64  N   UNL A   1      40.814  32.346  31.004  1.00  0.00    -0.248 NA
ATOM     65  C   UNL A   1      39.248  34.025  31.432  1.00  0.00     0.031 C 
ATOM     66  C   UNL A   1      45.097  32.558  32.170  1.00  0.00     0.029 A 
ATOM     67  C   UNL A   1      43.755  32.511  31.827  1.00  0.00     0.049 A 
ATOM     68  H   UNL A   1      42.675  30.956  30.895  1.00  0.00     0.167 HD
ATOM     69  C   UNL A   1      41.445  33.403  31.646  1.00  0.00     0.074 A 
ATOM     70  C   UNL A   1      40.439  34.423  31.858  1.00  0.00     0.031 C 
ATOM     71  C   UNL A   1      42.742  33.517  32.026  1.00  0.00     0.037 A 
BRANCH  58  72
ATOM     72  C   UNL A   1      46.193  28.542  30.771  1.00  0.00     0.064 A 
ATOM     73  C   UNL A   1      47.166  28.676  29.768  1.00  0.00     0.173 A 
ATOM     74  C   UNL A   1      46.508  27.755  31.888  1.00  0.00     0.173 A 
ATOM     75  F   UNL A   1      46.911  29.407  28.673  1.00  0.00    -0.203 F 
ATOM     76  C   UNL A   1      48.388  28.015  29.863  1.00  0.00     0.198 A 
ATOM     77  C   UNL A   1      47.744  27.123  31.995  1.00  0.00     0.198 A 
ATOM     78  F   UNL A   1      45.616  27.597  32.879  1.00  0.00    -0.203 F 
ATOM     79  F   UNL A   1      49.277  28.109  28.863  1.00  0.00    -0.200 F 
ATOM     80  C   UNL A   1      48.679  27.245  30.978  1.00  0.00     0.200 A 
ATOM     81  F   UNL A   1      48.028  26.388  33.079  1.00  0.00    -0.200 F 
ATOM     82  F   UNL A   1      49.856  26.611  31.067  1.00  0.00    -0.200 F 
ENDBRANCH  58  72
BRANCH  59  83
ATOM     83  C   UNL A   1      37.067  32.559  30.140  1.00  0.00     0.064 A 
ATOM     84  C   UNL A   1      36.671  33.294  29.013  1.00  0.00     0.173 A 
ATOM     85  C   UNL A   1      36.136  32.402  31.176  1.00  0.00     0.173 A 
ATOM     86  F   UNL A   1      37.534  33.487  28.004  1.00  0.00    -0.203 F 
ATOM     87  C   UNL A   1      35.402  33.863  28.934  1.00  0.00     0.198 A 
ATOM     88  C   UNL A   1      34.859  32.949  31.085  1.00  0.00     0.198 A 
ATOM     89  F   UNL A   1      36.464  31.704  32.274  1.00  0.00    -0.203 F 
ATOM     90  F   UNL A   1      35.064  34.593  27.863  1.00  0.00    -0.200 F 
ATOM     91  C   UNL A   1      34.495  33.685  29.967  1.00  0.00     0.200 A 
ATOM     92  F   UNL A   1      33.979  32.764  32.079  1.00  0.00    -0.200 F 
ATOM     93  F   UNL A   1      33.272  34.227  29.887  1.00  0.00    -0.200 F 
ENDBRANCH  59  83
BRANCH  71  94
ATOM     94  C   UNL A   1      43.155  34.802  32.682  1.00  0.00     0.064 A 
ATOM     95  C   UNL A   1      43.145  34.954  34.075  1.00  0.00     0.173 A 
ATOM     96  C   UNL A   1      43.604  35.881  31.905  1.00  0.00     0.173 A 
ATOM     97  F   UNL A   1      42.708  33.958  34.860  1.00  0.00    -0.203 F 
ATOM     98  C   UNL A   1      43.548  36.149  34.667  1.00  0.00     0.198 A 
ATOM     99  C   UNL A   1      44.036  37.062  32.502  1.00  0.00     0.198 A 
ATOM    100  F   UNL A   1      43.640  35.784  30.567  1.00  0.00    -0.203 F 
ATOM    101  F   UNL A   1      43.487  36.288  35.998  1.00  0.00    -0.200 F 
ATOM    102  C   UNL A   1      44.000  37.198  33.881  1.00  0.00     0.200 A 
ATOM    103  F   UNL A   1      44.485  38.070  31.741  1.00  0.00    -0.200 F 
ATOM    104  F   UNL A   1      44.396  38.344  34.453  1.00  0.00    -0.200 F 
ENDBRANCH  71  94
ENDBRANCH  45  46
ENDBRANCH  37  40
ENDBRANCH  35  36
ENDBRANCH  34  35
ENDBRANCH  33  34
ENDBRANCH   1  33
TORSDOF 16
ENDMDL
