MODEL 1
REMARK VINA RESULT:     -13.6      0.000      0.000
REMARK SMILES Cc1ccc(C(=O)NCCCCNC(=O)c2ccc(-c3c4nc(c(-c5c(F)c(F)c(F)c(F)c5F)c5ccc([nH]5)c(-c5c(F)c(F)c(F)c(F)c5F)c5nc(c(-c6c(F)c(F)c(F)c(F)c6F)c6ccc3[nH]6)C=C5)C=C4)cc2)c2c1N[C@H](c1ccccc1F)[C@H]1CC=C[C@@H]21
REMARK SMILES IDX 11 1 10 2 9 3 8 4 6 5 7 6 5 8 1 9 2 10 3 11 80 12 4 13 79 14
REMARK SMILES IDX 81 15 94 16 82 17 90 19 93 20 91 21 92 22 83 23 84 24 88 25
REMARK SMILES IDX 85 26 87 27 89 28 86 29 12 30 13 31 14 32 15 34 16 35 17 36
REMARK SMILES IDX 78 37 18 38 77 39 19 40 20 41 21 42 71 43 22 44 76 45 70 46
REMARK SMILES IDX 72 47 23 48 75 49 69 50 68 51 24 53 56 54 36 55 55 56 37 57
REMARK SMILES IDX 40 58 54 59 73 60 38 61 39 62 53 64 74 65 41 66 25 67 26 68
REMARK SMILES IDX 34 69 27 70 28 71 32 72 35 73 29 74 30 75 33 76 31 77 57 78
REMARK SMILES IDX 58 79 66 80 59 81 60 82 64 83 67 84 61 85 62 86 65 87 63 88
REMARK SMILES IDX 42 89 43 90 51 91 44 92 45 93 49 94 52 95 46 96 47 97 50 98
REMARK SMILES IDX 48 99
REMARK H PARENT 8 7 81 18 13 33 72 52 40 63
REMARK Flexibility Score: inf
ROOT
ATOM      1  C   UNL A   1      32.420  29.944  25.697  1.00  0.00     0.023 C 
ENDROOT
BRANCH   1   2
ATOM      2  C   UNL A   1      33.437  28.917  25.191  1.00  0.00     0.023 C 
BRANCH   2   3
ATOM      3  C   UNL A   1      33.766  27.804  26.191  1.00  0.00     0.116 C 
BRANCH   3   4
ATOM      4  N   UNL A   1      32.552  27.128  26.597  1.00  0.00    -0.352 N 
ATOM      5  C   UNL A   1      31.721  26.218  25.993  1.00  0.00     0.251 C 
ATOM      6  O   UNL A   1      30.662  26.034  26.592  1.00  0.00    -0.269 OA
ATOM      7  H   UNL A   1      32.260  27.374  27.504  1.00  0.00     0.163 HD
BRANCH   5   8
ATOM      8  C   UNL A   1      32.044  25.473  24.720  1.00  0.00     0.045 A 
ATOM      9  C   UNL A   1      33.021  23.498  20.979  1.00  0.00     0.046 C 
ATOM     10  C   UNL A   1      32.659  24.134  22.295  1.00  0.00    -0.028 A 
ATOM     11  C   UNL A   1      32.179  25.440  22.284  1.00  0.00     0.006 A 
ATOM     12  C   UNL A   1      32.754  23.440  23.519  1.00  0.00     0.042 A 
ATOM     13  C   UNL A   1      31.850  26.080  23.474  1.00  0.00     0.014 A 
ATOM     14  C   UNL A   1      32.482  24.114  24.740  1.00  0.00    -0.005 A 
ATOM     15  N   UNL A   1      33.107  22.101  23.505  1.00  0.00    -0.377 N 
ATOM     16  C   UNL A   1      32.589  23.331  26.034  1.00  0.00     0.050 C 
ATOM     17  C   UNL A   1      33.595  21.417  24.689  1.00  0.00     0.117 C 
ATOM     18  H   UNL A   1      33.026  21.597  22.664  1.00  0.00     0.161 HD
ATOM     19  C   UNL A   1      32.729  21.799  25.897  1.00  0.00     0.031 C 
ATOM     20  C   UNL A   1      33.772  23.665  26.907  1.00  0.00    -0.023 C 
ATOM     21  C   UNL A   1      33.396  21.377  27.220  1.00  0.00     0.034 C 
ATOM     22  C   UNL A   1      34.200  22.587  27.577  1.00  0.00    -0.030 C 
BRANCH  17  23
ATOM     23  C   UNL A   1      33.711  19.933  24.353  1.00  0.00     0.010 A 
ATOM     24  C   UNL A   1      32.594  19.293  23.773  1.00  0.00     0.009 A 
ATOM     25  C   UNL A   1      34.843  19.147  24.601  1.00  0.00     0.128 A 
ATOM     26  C   UNL A   1      32.620  17.931  23.460  1.00  0.00     0.001 A 
ATOM     27  C   UNL A   1      34.874  17.789  24.284  1.00  0.00     0.039 A 
ATOM     28  F   UNL A   1      35.950  19.667  25.145  1.00  0.00    -0.207 F 
ATOM     29  C   UNL A   1      33.762  17.178  23.714  1.00  0.00     0.003 A 
ENDBRANCH  17  23
ENDBRANCH   5   8
ENDBRANCH   3   4
ENDBRANCH   2   3
ENDBRANCH   1   2
BRANCH   1  30
ATOM     30  C   UNL A   1      32.728  30.520  27.071  1.00  0.00     0.116 C 
BRANCH  30  31
ATOM     31  N   UNL A   1      32.734  31.974  27.086  1.00  0.00    -0.352 N 
ATOM     32  C   UNL A   1      33.689  32.805  27.615  1.00  0.00     0.251 C 
ATOM     33  H   UNL A   1      31.960  32.415  26.666  1.00  0.00     0.163 HD
ATOM     34  O   UNL A   1      33.533  34.018  27.644  1.00  0.00    -0.269 OA
BRANCH  32  35
ATOM     35  C   UNL A   1      34.899  32.193  28.189  1.00  0.00     0.039 A 
ATOM     36  C   UNL A   1      36.066  32.956  28.261  1.00  0.00     0.014 A 
ATOM     37  C   UNL A   1      34.848  30.897  28.710  1.00  0.00     0.014 A 
ATOM     38  C   UNL A   1      37.182  32.429  28.906  1.00  0.00     0.010 A 
ATOM     39  C   UNL A   1      35.949  30.390  29.389  1.00  0.00     0.010 A 
ATOM     40  C   UNL A   1      37.123  31.153  29.489  1.00  0.00    -0.014 A 
BRANCH  40  41
ATOM     41  C   UNL A   1      38.301  30.591  30.183  1.00  0.00     0.031 A 
ATOM     42  C   UNL A   1      38.583  30.991  31.600  1.00  0.00     0.074 A 
ATOM     43  C   UNL A   1      39.121  29.750  29.529  1.00  0.00     0.049 A 
ATOM     44  N   UNL A   1      39.556  30.611  32.386  1.00  0.00    -0.248 NA
ATOM     45  C   UNL A   1      37.657  31.960  32.208  1.00  0.00     0.031 C 
ATOM     46  C   UNL A   1      38.959  29.322  28.140  1.00  0.00     0.029 A 
ATOM     47  N   UNL A   1      40.256  29.105  29.948  1.00  0.00    -0.354 N 
ATOM     48  C   UNL A   1      39.354  31.284  33.581  1.00  0.00     0.074 A 
ATOM     49  C   UNL A   1      38.203  32.141  33.402  1.00  0.00     0.031 C 
ATOM     50  C   UNL A   1      39.946  28.466  27.828  1.00  0.00     0.029 A 
ATOM     51  C   UNL A   1      40.818  28.301  28.988  1.00  0.00     0.049 A 
ATOM     52  H   UNL A   1      40.632  29.208  30.853  1.00  0.00     0.167 HD
ATOM     53  C   UNL A   1      40.052  31.172  34.735  1.00  0.00     0.037 A 
ATOM     54  C   UNL A   1      41.909  27.515  29.047  1.00  0.00     0.037 A 
ATOM     55  C   UNL A   1      41.187  30.310  34.912  1.00  0.00     0.049 A 
ATOM     56  C   UNL A   1      42.686  27.433  30.333  1.00  0.00     0.074 A 
ATOM     57  C   UNL A   1      41.936  30.092  36.053  1.00  0.00     0.029 A 
ATOM     58  N   UNL A   1      41.738  29.521  33.912  1.00  0.00    -0.354 N 
ATOM     59  N   UNL A   1      42.451  28.025  31.478  1.00  0.00    -0.248 NA
ATOM     60  C   UNL A   1      43.876  26.569  30.335  1.00  0.00     0.031 C 
ATOM     61  C   UNL A   1      42.962  29.195  35.737  1.00  0.00     0.029 A 
ATOM     62  C   UNL A   1      42.830  28.829  34.406  1.00  0.00     0.049 A 
ATOM     63  H   UNL A   1      41.402  29.464  32.988  1.00  0.00     0.167 HD
ATOM     64  C   UNL A   1      43.445  27.592  32.342  1.00  0.00     0.074 A 
ATOM     65  C   UNL A   1      44.284  26.680  31.593  1.00  0.00     0.031 C 
ATOM     66  C   UNL A   1      43.645  27.921  33.642  1.00  0.00     0.037 A 
BRANCH  53  67
ATOM     67  C   UNL A   1      39.588  31.991  35.901  1.00  0.00     0.064 A 
ATOM     68  C   UNL A   1      40.163  33.238  36.186  1.00  0.00     0.173 A 
ATOM     69  C   UNL A   1      38.541  31.546  36.719  1.00  0.00     0.173 A 
ATOM     70  F   UNL A   1      41.178  33.700  35.439  1.00  0.00    -0.203 F 
ATOM     71  C   UNL A   1      39.720  34.001  37.261  1.00  0.00     0.198 A 
ATOM     72  C   UNL A   1      38.084  32.322  37.780  1.00  0.00     0.198 A 
ATOM     73  F   UNL A   1      37.958  30.359  36.486  1.00  0.00    -0.203 F 
ATOM     74  F   UNL A   1      40.310  35.173  37.538  1.00  0.00    -0.200 F 
ATOM     75  C   UNL A   1      38.677  33.546  38.054  1.00  0.00     0.200 A 
ATOM     76  F   UNL A   1      37.072  31.884  38.542  1.00  0.00    -0.200 F 
ATOM     77  F   UNL A   1      38.247  34.285  39.086  1.00  0.00    -0.200 F 
ENDBRANCH  53  67
BRANCH  54  78
ATOM     78  C   UNL A   1      42.301  26.709  27.865  1.00  0.00     0.064 A 
ATOM     79  C   UNL A   1      41.733  25.447  27.642  1.00  0.00     0.173 A 
ATOM     80  C   UNL A   1      43.231  27.183  26.929  1.00  0.00     0.173 A 
ATOM     81  F   UNL A   1      40.852  24.945  28.520  1.00  0.00    -0.203 F 
ATOM     82  C   UNL A   1      42.088  24.684  26.532  1.00  0.00     0.198 A 
ATOM     83  C   UNL A   1      43.571  26.428  25.809  1.00  0.00     0.198 A 
ATOM     84  F   UNL A   1      43.799  28.386  27.098  1.00  0.00    -0.203 F 
ATOM     85  F   UNL A   1      41.551  23.469  26.356  1.00  0.00    -0.200 F 
ATOM     86  C   UNL A   1      43.002  25.178  25.613  1.00  0.00     0.200 A 
ATOM     87  F   UNL A   1      44.448  26.911  24.918  1.00  0.00    -0.200 F 
ATOM     88  F   UNL A   1      43.339  24.447  24.542  1.00  0.00    -0.200 F 
ENDBRANCH  54  78
BRANCH  66  89
ATOM     89  C   UNL A   1      44.803  27.283  34.346  1.00  0.00     0.064 A 
ATOM     90  C   UNL A   1      46.046  27.925  34.432  1.00  0.00     0.173 A 
ATOM     91  C   UNL A   1      44.642  26.060  35.015  1.00  0.00     0.173 A 
ATOM     92  F   UNL A   1      46.248  29.090  33.798  1.00  0.00    -0.203 F 
ATOM     93  C   UNL A   1      47.090  27.363  35.160  1.00  0.00     0.198 A 
ATOM     94  C   UNL A   1      45.681  25.511  35.759  1.00  0.00     0.198 A 
ATOM     95  F   UNL A   1      43.468  25.413  34.965  1.00  0.00    -0.203 F 
ATOM     96  F   UNL A   1      48.278  27.982  35.212  1.00  0.00    -0.200 F 
ATOM     97  C   UNL A   1      46.904  26.162  35.830  1.00  0.00     0.200 A 
ATOM     98  F   UNL A   1      45.497  24.358  36.416  1.00  0.00    -0.200 F 
ATOM     99  F   UNL A   1      47.906  25.632  36.545  1.00  0.00    -0.200 F 
ENDBRANCH  66  89
ENDBRANCH  40  41
ENDBRANCH  32  35
ENDBRANCH  30  31
ENDBRANCH   1  30
TORSDOF 12
ENDMDL
MODEL 2
REMARK VINA RESULT:     -13.6      5.106     11.095
REMARK SMILES Cc1ccc(C(=O)NCCCCNC(=O)c2ccc(-c3c4nc(c(-c5c(F)c(F)c(F)c(F)c5F)c5ccc([nH]5)c(-c5c(F)c(F)c(F)c(F)c5F)c5nc(c(-c6c(F)c(F)c(F)c(F)c6F)c6ccc3[nH]6)C=C5)C=C4)cc2)c2c1N[C@H](c1ccccc1F)[C@H]1CC=C[C@@H]21
REMARK SMILES IDX 11 1 10 2 9 3 8 4 6 5 7 6 5 8 1 9 2 10 3 11 80 12 4 13 79 14
REMARK SMILES IDX 81 15 94 16 82 17 90 19 93 20 91 21 92 22 83 23 84 24 88 25
REMARK SMILES IDX 85 26 87 27 89 28 86 29 12 30 13 31 14 32 15 34 16 35 17 36
REMARK SMILES IDX 78 37 18 38 77 39 19 40 20 41 21 42 71 43 22 44 76 45 70 46
REMARK SMILES IDX 72 47 23 48 75 49 69 50 68 51 24 53 56 54 36 55 55 56 37 57
REMARK SMILES IDX 40 58 54 59 73 60 38 61 39 62 53 64 74 65 41 66 25 67 26 68
REMARK SMILES IDX 34 69 27 70 28 71 32 72 35 73 29 74 30 75 33 76 31 77 57 78
REMARK SMILES IDX 58 79 66 80 59 81 60 82 64 83 67 84 61 85 62 86 65 87 63 88
REMARK SMILES IDX 42 89 43 90 51 91 44 92 45 93 49 94 52 95 46 96 47 97 50 98
REMARK SMILES IDX 48 99
REMARK H PARENT 8 7 81 18 13 33 72 52 40 63
REMARK Flexibility Score: inf
ROOT
ATOM      1  C   UNL A   1      42.165  22.336  27.456  1.00  0.00     0.023 C 
ENDROOT
BRANCH   1   2
ATOM      2  C   UNL A   1      42.867  23.129  28.562  1.00  0.00     0.023 C 
BRANCH   2   3
ATOM      3  C   UNL A   1      44.062  23.960  28.084  1.00  0.00     0.116 C 
BRANCH   3   4
ATOM      4  N   UNL A   1      44.159  23.904  26.642  1.00  0.00    -0.352 N 
ATOM      5  C   UNL A   1      44.778  24.686  25.697  1.00  0.00     0.251 C 
ATOM      6  O   UNL A   1      44.453  24.423  24.540  1.00  0.00    -0.269 OA
ATOM      7  H   UNL A   1      43.677  23.139  26.253  1.00  0.00     0.163 HD
BRANCH   5   8
ATOM      8  C   UNL A   1      45.787  25.767  26.005  1.00  0.00     0.045 A 
ATOM      9  C   UNL A   1      48.813  28.780  26.783  1.00  0.00     0.046 C 
ATOM     10  C   UNL A   1      47.731  27.758  26.554  1.00  0.00    -0.028 A 
ATOM     11  C   UNL A   1      48.109  26.437  26.338  1.00  0.00     0.006 A 
ATOM     12  C   UNL A   1      46.361  28.092  26.589  1.00  0.00     0.042 A 
ATOM     13  C   UNL A   1      47.149  25.460  26.100  1.00  0.00     0.014 A 
ATOM     14  C   UNL A   1      45.383  27.108  26.280  1.00  0.00    -0.005 A 
ATOM     15  N   UNL A   1      45.993  29.381  26.934  1.00  0.00    -0.377 N 
ATOM     16  C   UNL A   1      43.920  27.504  26.336  1.00  0.00     0.050 C 
ATOM     17  C   UNL A   1      44.677  29.917  26.635  1.00  0.00     0.117 C 
ATOM     18  H   UNL A   1      46.646  29.955  27.396  1.00  0.00     0.161 HD
ATOM     19  C   UNL A   1      43.606  28.873  26.980  1.00  0.00     0.031 C 
ATOM     20  C   UNL A   1      43.224  27.629  25.005  1.00  0.00    -0.023 C 
ATOM     21  C   UNL A   1      42.240  29.251  26.376  1.00  0.00     0.034 C 
ATOM     22  C   UNL A   1      42.281  28.580  25.039  1.00  0.00    -0.030 C 
BRANCH  17  23
ATOM     23  C   UNL A   1      44.567  31.280  27.310  1.00  0.00     0.010 A 
ATOM     24  C   UNL A   1      44.877  31.369  28.685  1.00  0.00     0.009 A 
ATOM     25  C   UNL A   1      44.153  32.455  26.669  1.00  0.00     0.128 A 
ATOM     26  C   UNL A   1      44.777  32.581  29.375  1.00  0.00     0.001 A 
ATOM     27  C   UNL A   1      44.057  33.667  27.354  1.00  0.00     0.039 A 
ATOM     28  F   UNL A   1      43.842  32.469  25.368  1.00  0.00    -0.207 F 
ATOM     29  C   UNL A   1      44.368  33.732  28.708  1.00  0.00     0.003 A 
ENDBRANCH  17  23
ENDBRANCH   5   8
ENDBRANCH   3   4
ENDBRANCH   2   3
ENDBRANCH   1   2
BRANCH   1  30
ATOM     30  C   UNL A   1      40.778  21.826  27.820  1.00  0.00     0.116 C 
BRANCH  30  31
ATOM     31  N   UNL A   1      39.822  21.964  26.733  1.00  0.00    -0.352 N 
ATOM     32  C   UNL A   1      39.121  23.086  26.368  1.00  0.00     0.251 C 
ATOM     33  H   UNL A   1      39.657  21.156  26.195  1.00  0.00     0.163 HD
ATOM     34  O   UNL A   1      38.275  23.050  25.487  1.00  0.00    -0.269 OA
BRANCH  32  35
ATOM     35  C   UNL A   1      39.388  24.337  27.097  1.00  0.00     0.039 A 
ATOM     36  C   UNL A   1      38.862  24.490  28.381  1.00  0.00     0.014 A 
ATOM     37  C   UNL A   1      40.211  25.315  26.531  1.00  0.00     0.014 A 
ATOM     38  C   UNL A   1      39.203  25.617  29.125  1.00  0.00     0.010 A 
ATOM     39  C   UNL A   1      40.584  26.417  27.290  1.00  0.00     0.010 A 
ATOM     40  C   UNL A   1      40.080  26.575  28.591  1.00  0.00    -0.014 A 
BRANCH  40  41
ATOM     41  C   UNL A   1      40.454  27.769  29.378  1.00  0.00     0.031 A 
ATOM     42  C   UNL A   1      41.819  27.850  29.993  1.00  0.00     0.074 A 
ATOM     43  C   UNL A   1      39.559  28.756  29.557  1.00  0.00     0.049 A 
ATOM     44  N   UNL A   1      42.345  28.807  30.712  1.00  0.00    -0.248 NA
ATOM     45  C   UNL A   1      42.705  26.694  29.785  1.00  0.00     0.031 C 
ATOM     46  C   UNL A   1      38.194  28.764  29.033  1.00  0.00     0.029 A 
ATOM     47  N   UNL A   1      39.666  29.945  30.232  1.00  0.00    -0.354 N 
ATOM     48  C   UNL A   1      43.622  28.373  31.033  1.00  0.00     0.074 A 
ATOM     49  C   UNL A   1      43.775  27.045  30.483  1.00  0.00     0.031 C 
ATOM     50  C   UNL A   1      37.596  29.914  29.387  1.00  0.00     0.029 A 
ATOM     51  C   UNL A   1      38.530  30.713  30.177  1.00  0.00     0.049 A 
ATOM     52  H   UNL A   1      40.480  30.222  30.712  1.00  0.00     0.167 HD
ATOM     53  C   UNL A   1      44.591  29.040  31.702  1.00  0.00     0.037 A 
ATOM     54  C   UNL A   1      38.278  31.928  30.699  1.00  0.00     0.037 A 
ATOM     55  C   UNL A   1      44.437  30.366  32.236  1.00  0.00     0.049 A 
ATOM     56  C   UNL A   1      39.363  32.634  31.466  1.00  0.00     0.074 A 
ATOM     57  C   UNL A   1      45.371  31.146  32.892  1.00  0.00     0.029 A 
ATOM     58  N   UNL A   1      43.266  31.107  32.174  1.00  0.00    -0.354 N 
ATOM     59  N   UNL A   1      40.589  32.244  31.711  1.00  0.00    -0.248 NA
ATOM     60  C   UNL A   1      39.029  33.953  32.024  1.00  0.00     0.031 C 
ATOM     61  C   UNL A   1      44.757  32.348  33.256  1.00  0.00     0.029 A 
ATOM     62  C   UNL A   1      43.449  32.329  32.796  1.00  0.00     0.049 A 
ATOM     63  H   UNL A   1      42.429  30.807  31.750  1.00  0.00     0.167 HD
ATOM     64  C   UNL A   1      41.181  33.272  32.430  1.00  0.00     0.074 A 
ATOM     65  C   UNL A   1      40.181  34.310  32.576  1.00  0.00     0.031 C 
ATOM     66  C   UNL A   1      42.440  33.349  32.923  1.00  0.00     0.037 A 
BRANCH  53  67
ATOM     67  C   UNL A   1      45.908  28.349  31.873  1.00  0.00     0.064 A 
ATOM     68  C   UNL A   1      46.177  27.571  33.009  1.00  0.00     0.173 A 
ATOM     69  C   UNL A   1      46.897  28.435  30.884  1.00  0.00     0.173 A 
ATOM     70  F   UNL A   1      45.266  27.471  33.990  1.00  0.00    -0.203 F 
ATOM     71  C   UNL A   1      47.397  26.920  33.158  1.00  0.00     0.198 A 
ATOM     72  C   UNL A   1      48.108  27.763  31.025  1.00  0.00     0.198 A 
ATOM     73  F   UNL A   1      46.687  29.167  29.779  1.00  0.00    -0.203 F 
ATOM     74  F   UNL A   1      47.647  26.213  34.269  1.00  0.00    -0.200 F 
ATOM     75  C   UNL A   1      48.359  27.011  32.163  1.00  0.00     0.200 A 
ATOM     76  F   UNL A   1      49.035  27.846  30.060  1.00  0.00    -0.200 F 
ATOM     77  F   UNL A   1      49.532  26.378  32.304  1.00  0.00    -0.200 F 
ENDBRANCH  53  67
BRANCH  54  78
ATOM     78  C   UNL A   1      36.961  32.570  30.471  1.00  0.00     0.064 A 
ATOM     79  C   UNL A   1      35.938  32.459  31.423  1.00  0.00     0.173 A 
ATOM     80  C   UNL A   1      36.700  33.318  29.314  1.00  0.00     0.173 A 
ATOM     81  F   UNL A   1      36.137  31.738  32.536  1.00  0.00    -0.203 F 
ATOM     82  C   UNL A   1      34.700  33.064  31.223  1.00  0.00     0.198 A 
ATOM     83  C   UNL A   1      35.467  33.939  29.123  1.00  0.00     0.198 A 
ATOM     84  F   UNL A   1      37.648  33.455  28.376  1.00  0.00    -0.203 F 
ATOM     85  F   UNL A   1      33.730  32.919  32.135  1.00  0.00    -0.200 F 
ATOM     86  C   UNL A   1      34.467  33.808  30.076  1.00  0.00     0.200 A 
ATOM     87  F   UNL A   1      35.249  34.665  28.018  1.00  0.00    -0.200 F 
ATOM     88  F   UNL A   1      33.278  34.395  29.886  1.00  0.00    -0.200 F 
ENDBRANCH  54  78
BRANCH  66  89
ATOM     89  C   UNL A   1      42.820  34.600  33.656  1.00  0.00     0.064 A 
ATOM     90  C   UNL A   1      43.237  35.747  32.968  1.00  0.00     0.173 A 
ATOM     91  C   UNL A   1      42.683  34.677  35.050  1.00  0.00     0.173 A 
ATOM     92  F   UNL A   1      43.395  35.716  31.636  1.00  0.00    -0.203 F 
ATOM     93  C   UNL A   1      43.508  36.930  33.651  1.00  0.00     0.198 A 
ATOM     94  C   UNL A   1      42.933  35.865  35.728  1.00  0.00     0.198 A 
ATOM     95  F   UNL A   1      42.280  33.605  35.749  1.00  0.00    -0.203 F 
ATOM     96  F   UNL A   1      43.926  38.010  32.978  1.00  0.00    -0.200 F 
ATOM     97  C   UNL A   1      43.346  36.990  35.028  1.00  0.00     0.200 A 
ATOM     98  F   UNL A   1      42.765  35.927  37.056  1.00  0.00    -0.200 F 
ATOM     99  F   UNL A   1      43.590  38.134  35.682  1.00  0.00    -0.200 F 
ENDBRANCH  66  89
ENDBRANCH  40  41
ENDBRANCH  32  35
ENDBRANCH  30  31
ENDBRANCH   1  30
TORSDOF 12
ENDMDL
MODEL 3
REMARK VINA RESULT:     -13.6      4.772      8.648
REMARK SMILES Cc1ccc(C(=O)NCCCCNC(=O)c2ccc(-c3c4nc(c(-c5c(F)c(F)c(F)c(F)c5F)c5ccc([nH]5)c(-c5c(F)c(F)c(F)c(F)c5F)c5nc(c(-c6c(F)c(F)c(F)c(F)c6F)c6ccc3[nH]6)C=C5)C=C4)cc2)c2c1N[C@H](c1ccccc1F)[C@H]1CC=C[C@@H]21
REMARK SMILES IDX 11 1 10 2 9 3 8 4 6 5 7 6 5 8 1 9 2 10 3 11 80 12 4 13 79 14
REMARK SMILES IDX 81 15 94 16 82 17 90 19 93 20 91 21 92 22 83 23 84 24 88 25
REMARK SMILES IDX 85 26 87 27 89 28 86 29 12 30 13 31 14 32 15 34 16 35 17 36
REMARK SMILES IDX 78 37 18 38 77 39 19 40 20 41 21 42 71 43 22 44 76 45 70 46
REMARK SMILES IDX 72 47 23 48 75 49 69 50 68 51 24 53 56 54 36 55 55 56 37 57
REMARK SMILES IDX 40 58 54 59 73 60 38 61 39 62 53 64 74 65 41 66 25 67 26 68
REMARK SMILES IDX 34 69 27 70 28 71 32 72 35 73 29 74 30 75 33 76 31 77 57 78
REMARK SMILES IDX 58 79 66 80 59 81 60 82 64 83 67 84 61 85 62 86 65 87 63 88
REMARK SMILES IDX 42 89 43 90 51 91 44 92 45 93 49 94 52 95 46 96 47 97 50 98
REMARK SMILES IDX 48 99
REMARK H PARENT 8 7 81 18 13 33 72 52 40 63
REMARK Flexibility Score: inf
ROOT
ATOM      1  C   UNL A   1      36.163  33.285  29.342  1.00  0.00     0.023 C 
ENDROOT
BRANCH   1   2
ATOM      2  C   UNL A   1      37.674  33.462  29.520  1.00  0.00     0.023 C 
BRANCH   2   3
ATOM      3  C   UNL A   1      38.156  33.364  30.971  1.00  0.00     0.116 C 
BRANCH   3   4
ATOM      4  N   UNL A   1      37.072  32.931  31.825  1.00  0.00    -0.352 N 
ATOM      5  C   UNL A   1      37.011  32.375  33.079  1.00  0.00     0.251 C 
ATOM      6  O   UNL A   1      35.896  31.953  33.385  1.00  0.00    -0.269 OA
ATOM      7  H   UNL A   1      36.185  33.065  31.420  1.00  0.00     0.163 HD
BRANCH   5   8
ATOM      8  C   UNL A   1      38.175  32.287  34.037  1.00  0.00     0.045 A 
ATOM      9  C   UNL A   1      41.423  32.137  36.913  1.00  0.00     0.046 C 
ATOM     10  C   UNL A   1      40.332  32.168  35.877  1.00  0.00    -0.028 A 
ATOM     11  C   UNL A   1      39.483  33.270  35.847  1.00  0.00     0.006 A 
ATOM     12  C   UNL A   1      40.171  31.142  34.921  1.00  0.00     0.042 A 
ATOM     13  C   UNL A   1      38.447  33.336  34.922  1.00  0.00     0.014 A 
ATOM     14  C   UNL A   1      39.073  31.177  34.020  1.00  0.00    -0.005 A 
ATOM     15  N   UNL A   1      41.100  30.117  34.877  1.00  0.00    -0.377 N 
ATOM     16  C   UNL A   1      38.940  30.060  33.004  1.00  0.00     0.050 C 
ATOM     17  C   UNL A   1      40.827  28.853  34.215  1.00  0.00     0.117 C 
ATOM     18  H   UNL A   1      41.975  30.247  35.308  1.00  0.00     0.161 HD
ATOM     19  C   UNL A   1      40.155  29.117  32.860  1.00  0.00     0.031 C 
ATOM     20  C   UNL A   1      37.823  29.078  33.251  1.00  0.00    -0.023 C 
ATOM     21  C   UNL A   1      39.544  27.828  32.278  1.00  0.00     0.034 C 
ATOM     22  C   UNL A   1      38.153  27.851  32.828  1.00  0.00    -0.030 C 
BRANCH  17  23
ATOM     23  C   UNL A   1      42.120  28.044  34.207  1.00  0.00     0.010 A 
ATOM     24  C   UNL A   1      43.302  28.681  33.771  1.00  0.00     0.009 A 
ATOM     25  C   UNL A   1      42.219  26.698  34.580  1.00  0.00     0.128 A 
ATOM     26  C   UNL A   1      44.519  27.996  33.716  1.00  0.00     0.001 A 
ATOM     27  C   UNL A   1      43.432  26.012  34.532  1.00  0.00     0.039 A 
ATOM     28  F   UNL A   1      41.153  26.012  35.010  1.00  0.00    -0.207 F 
ATOM     29  C   UNL A   1      44.585  26.660  34.099  1.00  0.00     0.003 A 
ENDBRANCH  17  23
ENDBRANCH   5   8
ENDBRANCH   3   4
ENDBRANCH   2   3
ENDBRANCH   1   2
BRANCH   1  30
ATOM     30  C   UNL A   1      35.719  32.992  27.916  1.00  0.00     0.116 C 
BRANCH  30  31
ATOM     31  N   UNL A   1      34.705  31.952  27.843  1.00  0.00    -0.352 N 
ATOM     32  C   UNL A   1      34.889  30.593  27.894  1.00  0.00     0.251 C 
ATOM     33  H   UNL A   1      33.775  32.261  27.744  1.00  0.00     0.163 HD
ATOM     34  O   UNL A   1      33.958  29.818  27.730  1.00  0.00    -0.269 OA
BRANCH  32  35
ATOM     35  C   UNL A   1      36.254  30.087  28.114  1.00  0.00     0.039 A 
ATOM     36  C   UNL A   1      37.146  30.078  27.041  1.00  0.00     0.014 A 
ATOM     37  C   UNL A   1      36.655  29.692  29.393  1.00  0.00     0.014 A 
ATOM     38  C   UNL A   1      38.471  29.712  27.263  1.00  0.00     0.010 A 
ATOM     39  C   UNL A   1      37.987  29.368  29.621  1.00  0.00     0.010 A 
ATOM     40  C   UNL A   1      38.901  29.374  28.556  1.00  0.00    -0.014 A 
BRANCH  40  41
ATOM     41  C   UNL A   1      40.309  28.993  28.801  1.00  0.00     0.031 A 
ATOM     42  C   UNL A   1      41.221  29.952  29.506  1.00  0.00     0.074 A 
ATOM     43  C   UNL A   1      40.763  27.805  28.366  1.00  0.00     0.049 A 
ATOM     44  N   UNL A   1      42.482  29.810  29.823  1.00  0.00    -0.248 NA
ATOM     45  C   UNL A   1      40.643  31.248  29.893  1.00  0.00     0.031 C 
ATOM     46  C   UNL A   1      39.971  26.812  27.639  1.00  0.00     0.029 A 
ATOM     47  N   UNL A   1      42.004  27.231  28.472  1.00  0.00    -0.354 N 
ATOM     48  C   UNL A   1      42.843  30.991  30.452  1.00  0.00     0.074 A 
ATOM     49  C   UNL A   1      41.690  31.863  30.423  1.00  0.00     0.031 C 
ATOM     50  C   UNL A   1      40.740  25.741  27.385  1.00  0.00     0.029 A 
ATOM     51  C   UNL A   1      42.081  25.980  27.913  1.00  0.00     0.049 A 
ATOM     52  H   UNL A   1      42.768  27.674  28.907  1.00  0.00     0.167 HD
ATOM     53  C   UNL A   1      44.026  31.306  31.030  1.00  0.00     0.037 A 
ATOM     54  C   UNL A   1      43.117  25.123  27.845  1.00  0.00     0.037 A 
ATOM     55  C   UNL A   1      45.164  30.430  31.067  1.00  0.00     0.049 A 
ATOM     56  C   UNL A   1      44.430  25.511  28.468  1.00  0.00     0.074 A 
ATOM     57  C   UNL A   1      46.394  30.638  31.665  1.00  0.00     0.029 A 
ATOM     58  N   UNL A   1      45.211  29.175  30.476  1.00  0.00    -0.354 N 
ATOM     59  N   UNL A   1      44.746  26.605  29.118  1.00  0.00    -0.248 NA
ATOM     60  C   UNL A   1      45.531  24.542  28.354  1.00  0.00     0.031 C 
ATOM     61  C   UNL A   1      47.196  29.521  31.410  1.00  0.00     0.029 A 
ATOM     62  C   UNL A   1      46.454  28.605  30.680  1.00  0.00     0.049 A 
ATOM     63  H   UNL A   1      44.468  28.755  29.985  1.00  0.00     0.167 HD
ATOM     64  C   UNL A   1      46.067  26.450  29.507  1.00  0.00     0.074 A 
ATOM     65  C   UNL A   1      46.496  25.152  29.029  1.00  0.00     0.031 C 
ATOM     66  C   UNL A   1      46.855  27.307  30.200  1.00  0.00     0.037 A 
BRANCH  53  67
ATOM     67  C   UNL A   1      44.134  32.648  31.686  1.00  0.00     0.064 A 
ATOM     68  C   UNL A   1      43.778  32.828  33.031  1.00  0.00     0.173 A 
ATOM     69  C   UNL A   1      44.629  33.753  30.981  1.00  0.00     0.173 A 
ATOM     70  F   UNL A   1      43.286  31.803  33.742  1.00  0.00    -0.203 F 
ATOM     71  C   UNL A   1      43.894  34.073  33.640  1.00  0.00     0.198 A 
ATOM     72  C   UNL A   1      44.766  34.992  31.600  1.00  0.00     0.198 A 
ATOM     73  F   UNL A   1      44.984  33.630  29.693  1.00  0.00    -0.203 F 
ATOM     74  F   UNL A   1      43.512  34.233  34.915  1.00  0.00    -0.200 F 
ATOM     75  C   UNL A   1      44.394  35.153  32.926  1.00  0.00     0.200 A 
ATOM     76  F   UNL A   1      45.255  36.033  30.912  1.00  0.00    -0.200 F 
ATOM     77  F   UNL A   1      44.511  36.351  33.516  1.00  0.00    -0.200 F 
ENDBRANCH  53  67
BRANCH  54  78
ATOM     78  C   UNL A   1      42.937  23.797  27.205  1.00  0.00     0.064 A 
ATOM     79  C   UNL A   1      43.322  23.590  25.873  1.00  0.00     0.173 A 
ATOM     80  C   UNL A   1      42.397  22.711  27.907  1.00  0.00     0.173 A 
ATOM     81  F   UNL A   1      43.826  24.606  25.157  1.00  0.00    -0.203 F 
ATOM     82  C   UNL A   1      43.164  22.348  25.264  1.00  0.00     0.198 A 
ATOM     83  C   UNL A   1      42.258  21.463  27.303  1.00  0.00     0.198 A 
ATOM     84  F   UNL A   1      42.018  22.860  29.185  1.00  0.00    -0.203 F 
ATOM     85  F   UNL A   1      43.513  22.183  23.981  1.00  0.00    -0.200 F 
ATOM     86  C   UNL A   1      42.637  21.284  25.981  1.00  0.00     0.200 A 
ATOM     87  F   UNL A   1      41.757  20.435  28.001  1.00  0.00    -0.200 F 
ATOM     88  F   UNL A   1      42.491  20.087  25.396  1.00  0.00    -0.200 F 
ENDBRANCH  54  78
BRANCH  66  89
ATOM     89  C   UNL A   1      48.256  26.870  30.500  1.00  0.00     0.064 A 
ATOM     90  C   UNL A   1      48.542  26.044  31.596  1.00  0.00     0.173 A 
ATOM     91  C   UNL A   1      49.307  27.209  29.635  1.00  0.00     0.173 A 
ATOM     92  F   UNL A   1      47.570  25.705  32.456  1.00  0.00    -0.203 F 
ATOM     93  C   UNL A   1      49.834  25.574  31.818  1.00  0.00     0.198 A 
ATOM     94  C   UNL A   1      50.593  26.721  29.848  1.00  0.00     0.198 A 
ATOM     95  F   UNL A   1      49.079  27.992  28.570  1.00  0.00    -0.203 F 
ATOM     96  F   UNL A   1      50.091  24.803  32.883  1.00  0.00    -0.200 F 
ATOM     97  C   UNL A   1      50.854  25.906  30.939  1.00  0.00     0.200 A 
ATOM     98  F   UNL A   1      51.576  27.031  28.991  1.00  0.00    -0.200 F 
ATOM     99  F   UNL A   1      52.094  25.438  31.145  1.00  0.00    -0.200 F 
ENDBRANCH  66  89
ENDBRANCH  40  41
ENDBRANCH  32  35
ENDBRANCH  30  31
ENDBRANCH   1  30
TORSDOF 12
ENDMDL
