MODEL 1
REMARK VINA RESULT:     -14.4      0.000      0.000
REMARK SMILES Cc1ccn(CC(=O)N2CCC3(CC2)NC(=O)C[C@@H]3C(=O)NCCCCNC(=O)c2ccc(-c3c4nc(c(-c5c(F)c(F)c(F)c(F)c5F)c5ccc([nH]5)c(-c5c(F)c(F)c(F)c(F)c5F)c5nc(c(-c6c(F)c(F)c(F)c(F)c6F)c6ccc3[nH]6)C=C5)C=C4)cc2)n1
REMARK SMILES IDX 24 1 23 2 22 3 20 4 21 5 19 7 7 8 8 9 9 10 10 11 14 12 11 13
REMARK SMILES IDX 13 14 12 15 15 16 16 17 18 19 17 20 6 21 5 22 1 23 2 24 3 25
REMARK SMILES IDX 93 26 4 27 25 28 26 29 27 30 28 31 29 33 30 34 31 35 92 36
REMARK SMILES IDX 32 37 91 38 33 39 34 40 35 41 85 42 36 43 90 44 84 45 86 46
REMARK SMILES IDX 37 47 89 48 83 49 82 50 38 52 70 53 50 54 69 55 51 56 54 57
REMARK SMILES IDX 68 58 87 59 52 60 53 61 67 63 88 64 55 65 39 66 40 67 48 68
REMARK SMILES IDX 41 69 42 70 46 71 49 72 43 73 44 74 47 75 45 76 71 77 72 78
REMARK SMILES IDX 80 79 73 80 74 81 78 82 81 83 75 84 76 85 79 86 77 87 56 88
REMARK SMILES IDX 57 89 65 90 58 91 59 92 63 93 66 94 60 95 61 96 64 97 62 98
REMARK H PARENT 22 6 15 18 27 32 86 51 54 62
REMARK Flexibility Score: inf
ROOT
ATOM      1  C   UNL A   1      32.230  28.369  27.428  1.00  0.00     0.023 C 
ENDROOT
BRANCH   1   2
ATOM      2  C   UNL A   1      31.449  27.459  26.472  1.00  0.00     0.116 C 
BRANCH   2   3
ATOM      3  N   UNL A   1      31.293  26.114  26.998  1.00  0.00    -0.356 N 
ATOM      4  C   UNL A   1      31.816  24.907  26.655  1.00  0.00     0.226 C 
ATOM      5  O   UNL A   1      31.354  23.929  27.246  1.00  0.00    -0.275 OA
ATOM      6  H   UNL A   1      30.678  26.066  27.765  1.00  0.00     0.163 HD
BRANCH   4   7
ATOM      7  C   UNL A   1      32.930  24.758  25.620  1.00  0.00     0.113 C 
ATOM      8  C   UNL A   1      29.819  27.745  22.941  1.00  0.00     0.244 C 
ATOM      9  O   UNL A   1      28.688  27.729  23.455  1.00  0.00    -0.273 OA
ATOM     10  N   UNL A   1      30.694  26.668  23.162  1.00  0.00    -0.341 N 
ATOM     11  C   UNL A   1      30.153  25.526  23.911  1.00  0.00     0.122 C 
ATOM     12  C   UNL A   1      32.139  26.844  23.140  1.00  0.00     0.122 C 
ATOM     13  C   UNL A   1      31.002  24.264  23.865  1.00  0.00     0.051 C 
ATOM     14  C   UNL A   1      32.981  25.588  23.180  1.00  0.00     0.051 C 
ATOM     15  C   UNL A   1      32.490  24.500  24.140  1.00  0.00     0.055 C 
ATOM     16  N   UNL A   1      33.222  23.299  23.767  1.00  0.00    -0.350 N 
ATOM     17  C   UNL A   1      33.981  22.744  24.752  1.00  0.00     0.221 C 
ATOM     18  H   UNL A   1      33.171  22.914  22.863  1.00  0.00     0.164 HD
ATOM     19  C   UNL A   1      33.769  23.510  26.017  1.00  0.00     0.116 C 
ATOM     20  O   UNL A   1      34.707  21.776  24.603  1.00  0.00    -0.275 OA
BRANCH   8  21
ATOM     21  C   UNL A   1      30.139  28.886  21.982  1.00  0.00     0.244 C 
BRANCH  21  22
ATOM     22  N   UNL A   1      29.411  30.133  22.130  1.00  0.00    -0.263 N 
ATOM     23  C   UNL A   1      27.641  32.732  20.510  1.00  0.00     0.069 C 
ATOM     24  C   UNL A   1      28.277  31.809  21.480  1.00  0.00     0.059 A 
ATOM     25  C   UNL A   1      28.431  31.945  22.878  1.00  0.00     0.045 A 
ATOM     26  N   UNL A   1      28.812  30.665  21.044  1.00  0.00    -0.178 NA
ATOM     27  C   UNL A   1      29.144  30.833  23.271  1.00  0.00     0.109 A 
ENDBRANCH  21  22
ENDBRANCH   8  21
ENDBRANCH   4   7
ENDBRANCH   2   3
ENDBRANCH   1   2
BRANCH   1  28
ATOM     28  C   UNL A   1      32.288  29.863  27.078  1.00  0.00     0.023 C 
BRANCH  28  29
ATOM     29  C   UNL A   1      33.665  30.500  27.271  1.00  0.00     0.116 C 
BRANCH  29  30
ATOM     30  N   UNL A   1      33.742  31.417  28.410  1.00  0.00    -0.352 N 
ATOM     31  C   UNL A   1      34.843  31.696  29.206  1.00  0.00     0.251 C 
ATOM     32  H   UNL A   1      32.911  31.893  28.639  1.00  0.00     0.163 HD
ATOM     33  O   UNL A   1      34.759  32.296  30.260  1.00  0.00    -0.269 OA
BRANCH  31  34
ATOM     34  C   UNL A   1      36.148  31.241  28.698  1.00  0.00     0.039 A 
ATOM     35  C   UNL A   1      37.289  32.016  28.904  1.00  0.00     0.014 A 
ATOM     36  C   UNL A   1      36.230  29.908  28.315  1.00  0.00     0.014 A 
ATOM     37  C   UNL A   1      38.534  31.388  28.876  1.00  0.00     0.010 A 
ATOM     38  C   UNL A   1      37.450  29.272  28.417  1.00  0.00     0.010 A 
ATOM     39  C   UNL A   1      38.615  29.995  28.710  1.00  0.00    -0.014 A 
BRANCH  39  40
ATOM     40  C   UNL A   1      39.877  29.295  29.001  1.00  0.00     0.031 A 
ATOM     41  C   UNL A   1      40.205  28.998  30.440  1.00  0.00     0.074 A 
ATOM     42  C   UNL A   1      40.648  28.694  28.069  1.00  0.00     0.049 A 
ATOM     43  N   UNL A   1      41.259  29.358  31.105  1.00  0.00    -0.248 NA
ATOM     44  C   UNL A   1      39.254  28.209  31.236  1.00  0.00     0.031 C 
ATOM     45  C   UNL A   1      40.431  28.556  26.625  1.00  0.00     0.029 A 
ATOM     46  N   UNL A   1      41.776  27.958  28.274  1.00  0.00    -0.354 N 
ATOM     47  C   UNL A   1      41.177  28.755  32.363  1.00  0.00     0.074 A 
ATOM     48  C   UNL A   1      39.886  28.114  32.410  1.00  0.00     0.031 C 
ATOM     49  C   UNL A   1      41.241  27.592  26.138  1.00  0.00     0.029 A 
ATOM     50  C   UNL A   1      42.161  27.197  27.186  1.00  0.00     0.049 A 
ATOM     51  H   UNL A   1      42.274  27.967  29.124  1.00  0.00     0.167 HD
ATOM     52  C   UNL A   1      42.233  28.717  33.228  1.00  0.00     0.037 A 
ATOM     53  C   UNL A   1      43.169  26.297  27.136  1.00  0.00     0.037 A 
ATOM     54  C   UNL A   1      43.256  29.660  32.863  1.00  0.00     0.049 A 
ATOM     55  C   UNL A   1      44.129  26.649  28.209  1.00  0.00     0.074 A 
ATOM     56  C   UNL A   1      43.296  31.032  32.692  1.00  0.00     0.029 A 
ATOM     57  N   UNL A   1      44.413  29.201  32.283  1.00  0.00    -0.354 N 
ATOM     58  N   UNL A   1      44.850  27.739  28.209  1.00  0.00    -0.248 NA
ATOM     59  C   UNL A   1      43.989  25.993  29.499  1.00  0.00     0.031 C 
ATOM     60  C   UNL A   1      44.143  31.230  31.560  1.00  0.00     0.029 A 
ATOM     61  C   UNL A   1      44.594  29.971  31.163  1.00  0.00     0.049 A 
ATOM     62  H   UNL A   1      44.992  28.472  32.604  1.00  0.00     0.167 HD
ATOM     63  C   UNL A   1      44.897  28.130  29.536  1.00  0.00     0.074 A 
ATOM     64  C   UNL A   1      44.447  26.964  30.293  1.00  0.00     0.031 C 
ATOM     65  C   UNL A   1      45.028  29.443  29.892  1.00  0.00     0.037 A 
BRANCH  52  66
ATOM     66  C   UNL A   1      42.483  27.664  34.281  1.00  0.00     0.064 A 
ATOM     67  C   UNL A   1      43.125  26.455  33.930  1.00  0.00     0.173 A 
ATOM     68  C   UNL A   1      41.862  27.676  35.545  1.00  0.00     0.173 A 
ATOM     69  F   UNL A   1      43.729  26.322  32.739  1.00  0.00    -0.203 F 
ATOM     70  C   UNL A   1      43.089  25.327  34.756  1.00  0.00     0.198 A 
ATOM     71  C   UNL A   1      41.870  26.564  36.389  1.00  0.00     0.198 A 
ATOM     72  F   UNL A   1      41.135  28.722  35.959  1.00  0.00    -0.203 F 
ATOM     73  F   UNL A   1      43.612  24.170  34.328  1.00  0.00    -0.200 F 
ATOM     74  C   UNL A   1      42.458  25.381  35.984  1.00  0.00     0.200 A 
ATOM     75  F   UNL A   1      41.236  26.626  37.569  1.00  0.00    -0.200 F 
ATOM     76  F   UNL A   1      42.372  24.289  36.753  1.00  0.00    -0.200 F 
ENDBRANCH  52  66
BRANCH  53  77
ATOM     77  C   UNL A   1      43.224  25.052  26.345  1.00  0.00     0.064 A 
ATOM     78  C   UNL A   1      44.181  24.869  25.339  1.00  0.00     0.173 A 
ATOM     79  C   UNL A   1      42.482  23.914  26.726  1.00  0.00     0.173 A 
ATOM     80  F   UNL A   1      44.958  25.891  24.953  1.00  0.00    -0.203 F 
ATOM     81  C   UNL A   1      44.394  23.616  24.754  1.00  0.00     0.198 A 
ATOM     82  C   UNL A   1      42.688  22.668  26.135  1.00  0.00     0.198 A 
ATOM     83  F   UNL A   1      41.603  23.970  27.738  1.00  0.00    -0.203 F 
ATOM     84  F   UNL A   1      45.355  23.466  23.832  1.00  0.00    -0.200 F 
ATOM     85  C   UNL A   1      43.653  22.517  25.158  1.00  0.00     0.200 A 
ATOM     86  F   UNL A   1      41.985  21.608  26.558  1.00  0.00    -0.200 F 
ATOM     87  F   UNL A   1      43.894  21.307  24.634  1.00  0.00    -0.200 F 
ENDBRANCH  53  77
BRANCH  65  88
ATOM     88  C   UNL A   1      45.357  30.451  28.825  1.00  0.00     0.064 A 
ATOM     89  C   UNL A   1      44.391  31.067  28.010  1.00  0.00     0.173 A 
ATOM     90  C   UNL A   1      46.667  30.944  28.745  1.00  0.00     0.173 A 
ATOM     91  F   UNL A   1      43.099  30.738  28.103  1.00  0.00    -0.203 F 
ATOM     92  C   UNL A   1      44.729  32.092  27.128  1.00  0.00     0.198 A 
ATOM     93  C   UNL A   1      46.996  31.994  27.891  1.00  0.00     0.198 A 
ATOM     94  F   UNL A   1      47.624  30.443  29.544  1.00  0.00    -0.203 F 
ATOM     95  F   UNL A   1      43.784  32.654  26.360  1.00  0.00    -0.200 F 
ATOM     96  C   UNL A   1      46.030  32.560  27.076  1.00  0.00     0.200 A 
ATOM     97  F   UNL A   1      48.245  32.481  27.882  1.00  0.00    -0.200 F 
ATOM     98  F   UNL A   1      46.345  33.577  26.262  1.00  0.00    -0.200 F 
ENDBRANCH  65  88
ENDBRANCH  39  40
ENDBRANCH  31  34
ENDBRANCH  29  30
ENDBRANCH  28  29
ENDBRANCH   1  28
TORSDOF 13
ENDMDL
MODEL 2
REMARK VINA RESULT:     -14.3      3.097      8.487
REMARK SMILES Cc1ccn(CC(=O)N2CCC3(CC2)NC(=O)C[C@@H]3C(=O)NCCCCNC(=O)c2ccc(-c3c4nc(c(-c5c(F)c(F)c(F)c(F)c5F)c5ccc([nH]5)c(-c5c(F)c(F)c(F)c(F)c5F)c5nc(c(-c6c(F)c(F)c(F)c(F)c6F)c6ccc3[nH]6)C=C5)C=C4)cc2)n1
REMARK SMILES IDX 24 1 23 2 22 3 20 4 21 5 19 7 7 8 8 9 9 10 10 11 14 12 11 13
REMARK SMILES IDX 13 14 12 15 15 16 16 17 18 19 17 20 6 21 5 22 1 23 2 24 3 25
REMARK SMILES IDX 93 26 4 27 25 28 26 29 27 30 28 31 29 33 30 34 31 35 92 36
REMARK SMILES IDX 32 37 91 38 33 39 34 40 35 41 85 42 36 43 90 44 84 45 86 46
REMARK SMILES IDX 37 47 89 48 83 49 82 50 38 52 70 53 50 54 69 55 51 56 54 57
REMARK SMILES IDX 68 58 87 59 52 60 53 61 67 63 88 64 55 65 39 66 40 67 48 68
REMARK SMILES IDX 41 69 42 70 46 71 49 72 43 73 44 74 47 75 45 76 71 77 72 78
REMARK SMILES IDX 80 79 73 80 74 81 78 82 81 83 75 84 76 85 79 86 77 87 56 88
REMARK SMILES IDX 57 89 65 90 58 91 59 92 63 93 66 94 60 95 61 96 64 97 62 98
REMARK H PARENT 22 6 15 18 27 32 86 51 54 62
REMARK Flexibility Score: inf
ROOT
ATOM      1  C   UNL A   1      38.135  22.991  26.154  1.00  0.00     0.023 C 
ENDROOT
BRANCH   1   2
ATOM      2  C   UNL A   1      36.678  23.093  25.687  1.00  0.00     0.116 C 
BRANCH   2   3
ATOM      3  N   UNL A   1      35.783  22.288  26.501  1.00  0.00    -0.356 N 
ATOM      4  C   UNL A   1      34.692  21.527  26.221  1.00  0.00     0.226 C 
ATOM      5  O   UNL A   1      34.082  21.078  27.193  1.00  0.00    -0.275 OA
ATOM      6  H   UNL A   1      36.016  22.295  27.457  1.00  0.00     0.163 HD
BRANCH   4   7
ATOM      7  C   UNL A   1      34.251  21.216  24.792  1.00  0.00     0.113 C 
ATOM      8  C   UNL A   1      32.945  26.121  24.924  1.00  0.00     0.244 C 
ATOM      9  O   UNL A   1      32.905  26.506  26.104  1.00  0.00    -0.273 OA
ATOM     10  N   UNL A   1      32.786  24.755  24.635  1.00  0.00    -0.341 N 
ATOM     11  C   UNL A   1      32.467  23.878  25.770  1.00  0.00     0.122 C 
ATOM     12  C   UNL A   1      33.390  24.150  23.457  1.00  0.00     0.122 C 
ATOM     13  C   UNL A   1      31.996  22.481  25.393  1.00  0.00     0.051 C 
ATOM     14  C   UNL A   1      32.983  22.729  23.134  1.00  0.00     0.051 C 
ATOM     15  C   UNL A   1      32.867  21.791  24.338  1.00  0.00     0.055 C 
ATOM     16  N   UNL A   1      32.152  20.622  23.848  1.00  0.00    -0.350 N 
ATOM     17  C   UNL A   1      32.813  19.437  23.965  1.00  0.00     0.221 C 
ATOM     18  H   UNL A   1      31.251  20.685  23.457  1.00  0.00     0.164 HD
ATOM     19  C   UNL A   1      34.106  19.672  24.675  1.00  0.00     0.116 C 
ATOM     20  O   UNL A   1      32.396  18.368  23.552  1.00  0.00    -0.275 OA
BRANCH   8  21
ATOM     21  C   UNL A   1      33.032  27.189  23.839  1.00  0.00     0.244 C 
BRANCH  21  22
ATOM     22  N   UNL A   1      31.802  27.817  23.393  1.00  0.00    -0.263 N 
ATOM     23  C   UNL A   1      29.534  30.500  23.808  1.00  0.00     0.069 C 
ATOM     24  C   UNL A   1      30.281  29.300  23.358  1.00  0.00     0.059 A 
ATOM     25  C   UNL A   1      29.934  28.346  22.376  1.00  0.00     0.045 A 
ATOM     26  N   UNL A   1      31.458  29.011  23.920  1.00  0.00    -0.178 NA
ATOM     27  C   UNL A   1      30.951  27.415  22.404  1.00  0.00     0.109 A 
ENDBRANCH  21  22
ENDBRANCH   8  21
ENDBRANCH   4   7
ENDBRANCH   2   3
ENDBRANCH   1   2
BRANCH   1  28
ATOM     28  C   UNL A   1      38.916  21.736  25.736  1.00  0.00     0.023 C 
BRANCH  28  29
ATOM     29  C   UNL A   1      40.212  21.514  26.517  1.00  0.00     0.116 C 
BRANCH  29  30
ATOM     30  N   UNL A   1      41.411  22.003  25.832  1.00  0.00    -0.352 N 
ATOM     31  C   UNL A   1      41.905  23.298  25.800  1.00  0.00     0.251 C 
ATOM     32  H   UNL A   1      41.927  21.330  25.333  1.00  0.00     0.163 HD
ATOM     33  O   UNL A   1      42.774  23.652  25.028  1.00  0.00    -0.269 OA
BRANCH  31  34
ATOM     34  C   UNL A   1      41.332  24.240  26.777  1.00  0.00     0.039 A 
ATOM     35  C   UNL A   1      41.899  24.366  28.044  1.00  0.00     0.014 A 
ATOM     36  C   UNL A   1      40.448  25.187  26.274  1.00  0.00     0.014 A 
ATOM     37  C   UNL A   1      41.692  25.550  28.752  1.00  0.00     0.010 A 
ATOM     38  C   UNL A   1      40.355  26.401  26.922  1.00  0.00     0.010 A 
ATOM     39  C   UNL A   1      40.981  26.607  28.158  1.00  0.00    -0.014 A 
BRANCH  39  40
ATOM     40  C   UNL A   1      41.037  27.953  28.755  1.00  0.00     0.031 A 
ATOM     41  C   UNL A   1      42.147  28.872  28.323  1.00  0.00     0.074 A 
ATOM     42  C   UNL A   1      40.040  28.506  29.479  1.00  0.00     0.049 A 
ATOM     43  N   UNL A   1      43.036  29.449  29.071  1.00  0.00    -0.248 NA
ATOM     44  C   UNL A   1      42.290  29.191  26.895  1.00  0.00     0.031 C 
ATOM     45  C   UNL A   1      38.717  27.969  29.811  1.00  0.00     0.029 A 
ATOM     46  N   UNL A   1      39.987  29.770  29.986  1.00  0.00    -0.354 N 
ATOM     47  C   UNL A   1      43.782  30.295  28.245  1.00  0.00     0.074 A 
ATOM     48  C   UNL A   1      43.320  30.042  26.902  1.00  0.00     0.031 C 
ATOM     49  C   UNL A   1      37.916  28.971  30.233  1.00  0.00     0.029 A 
ATOM     50  C   UNL A   1      38.724  30.164  30.390  1.00  0.00     0.049 A 
ATOM     51  H   UNL A   1      40.777  30.352  30.058  1.00  0.00     0.167 HD
ATOM     52  C   UNL A   1      44.636  31.238  28.741  1.00  0.00     0.037 A 
ATOM     53  C   UNL A   1      38.354  31.389  30.828  1.00  0.00     0.037 A 
ATOM     54  C   UNL A   1      44.947  31.001  30.125  1.00  0.00     0.049 A 
ATOM     55  C   UNL A   1      39.572  32.063  31.336  1.00  0.00     0.074 A 
ATOM     56  C   UNL A   1      45.512  29.953  30.827  1.00  0.00     0.029 A 
ATOM     57  N   UNL A   1      44.373  31.798  31.085  1.00  0.00    -0.354 N 
ATOM     58  N   UNL A   1      40.227  31.675  32.397  1.00  0.00    -0.248 NA
ATOM     59  C   UNL A   1      40.310  32.926  30.427  1.00  0.00     0.031 C 
ATOM     60  C   UNL A   1      44.767  29.890  32.044  1.00  0.00     0.029 A 
ATOM     61  C   UNL A   1      43.844  30.936  32.010  1.00  0.00     0.049 A 
ATOM     62  H   UNL A   1      44.349  32.782  31.105  1.00  0.00     0.167 HD
ATOM     63  C   UNL A   1      41.560  31.886  32.085  1.00  0.00     0.074 A 
ATOM     64  C   UNL A   1      41.542  32.757  30.911  1.00  0.00     0.031 C 
ATOM     65  C   UNL A   1      42.553  31.121  32.629  1.00  0.00     0.037 A 
BRANCH  52  66
ATOM     66  C   UNL A   1      45.021  32.533  28.065  1.00  0.00     0.064 A 
ATOM     67  C   UNL A   1      44.038  33.516  27.814  1.00  0.00     0.173 A 
ATOM     68  C   UNL A   1      46.249  32.719  27.401  1.00  0.00     0.173 A 
ATOM     69  F   UNL A   1      42.822  33.426  28.374  1.00  0.00    -0.203 F 
ATOM     70  C   UNL A   1      44.249  34.567  26.916  1.00  0.00     0.198 A 
ATOM     71  C   UNL A   1      46.474  33.798  26.543  1.00  0.00     0.198 A 
ATOM     72  F   UNL A   1      47.229  31.811  27.472  1.00  0.00    -0.203 F 
ATOM     73  F   UNL A   1      43.247  35.406  26.623  1.00  0.00    -0.200 F 
ATOM     74  C   UNL A   1      45.467  34.705  26.277  1.00  0.00     0.200 A 
ATOM     75  F   UNL A   1      47.655  33.907  25.916  1.00  0.00    -0.200 F 
ATOM     76  F   UNL A   1      45.655  35.676  25.375  1.00  0.00    -0.200 F 
ENDBRANCH  52  66
BRANCH  53  77
ATOM     77  C   UNL A   1      37.051  32.056  30.636  1.00  0.00     0.064 A 
ATOM     78  C   UNL A   1      36.075  32.054  31.641  1.00  0.00     0.173 A 
ATOM     79  C   UNL A   1      36.829  32.918  29.541  1.00  0.00     0.173 A 
ATOM     80  F   UNL A   1      36.236  31.296  32.735  1.00  0.00    -0.203 F 
ATOM     81  C   UNL A   1      34.947  32.877  31.563  1.00  0.00     0.198 A 
ATOM     82  C   UNL A   1      35.698  33.729  29.461  1.00  0.00     0.198 A 
ATOM     83  F   UNL A   1      37.746  33.053  28.571  1.00  0.00    -0.203 F 
ATOM     84  F   UNL A   1      34.061  32.889  32.569  1.00  0.00    -0.200 F 
ATOM     85  C   UNL A   1      34.763  33.718  30.478  1.00  0.00     0.200 A 
ATOM     86  F   UNL A   1      35.551  34.560  28.418  1.00  0.00    -0.200 F 
ATOM     87  F   UNL A   1      33.710  34.544  30.429  1.00  0.00    -0.200 F 
ENDBRANCH  53  77
BRANCH  65  88
ATOM     88  C   UNL A   1      42.211  30.187  33.757  1.00  0.00     0.064 A 
ATOM     89  C   UNL A   1      41.762  28.869  33.569  1.00  0.00     0.173 A 
ATOM     90  C   UNL A   1      42.515  30.577  35.069  1.00  0.00     0.173 A 
ATOM     91  F   UNL A   1      41.556  28.378  32.343  1.00  0.00    -0.203 F 
ATOM     92  C   UNL A   1      41.586  27.999  34.643  1.00  0.00     0.198 A 
ATOM     93  C   UNL A   1      42.374  29.695  36.138  1.00  0.00     0.198 A 
ATOM     94  F   UNL A   1      43.009  31.802  35.309  1.00  0.00    -0.203 F 
ATOM     95  F   UNL A   1      41.151  26.749  34.430  1.00  0.00    -0.200 F 
ATOM     96  C   UNL A   1      41.900  28.411  35.927  1.00  0.00     0.200 A 
ATOM     97  F   UNL A   1      42.731  30.080  37.372  1.00  0.00    -0.200 F 
ATOM     98  F   UNL A   1      41.775  27.560  36.954  1.00  0.00    -0.200 F 
ENDBRANCH  65  88
ENDBRANCH  39  40
ENDBRANCH  31  34
ENDBRANCH  29  30
ENDBRANCH  28  29
ENDBRANCH   1  28
TORSDOF 13
ENDMDL
MODEL 3
REMARK VINA RESULT:     -14.2      1.526      4.256
REMARK SMILES Cc1ccn(CC(=O)N2CCC3(CC2)NC(=O)C[C@@H]3C(=O)NCCCCNC(=O)c2ccc(-c3c4nc(c(-c5c(F)c(F)c(F)c(F)c5F)c5ccc([nH]5)c(-c5c(F)c(F)c(F)c(F)c5F)c5nc(c(-c6c(F)c(F)c(F)c(F)c6F)c6ccc3[nH]6)C=C5)C=C4)cc2)n1
REMARK SMILES IDX 24 1 23 2 22 3 20 4 21 5 19 7 7 8 8 9 9 10 10 11 14 12 11 13
REMARK SMILES IDX 13 14 12 15 15 16 16 17 18 19 17 20 6 21 5 22 1 23 2 24 3 25
REMARK SMILES IDX 93 26 4 27 25 28 26 29 27 30 28 31 29 33 30 34 31 35 92 36
REMARK SMILES IDX 32 37 91 38 33 39 34 40 35 41 85 42 36 43 90 44 84 45 86 46
REMARK SMILES IDX 37 47 89 48 83 49 82 50 38 52 70 53 50 54 69 55 51 56 54 57
REMARK SMILES IDX 68 58 87 59 52 60 53 61 67 63 88 64 55 65 39 66 40 67 48 68
REMARK SMILES IDX 41 69 42 70 46 71 49 72 43 73 44 74 47 75 45 76 71 77 72 78
REMARK SMILES IDX 80 79 73 80 74 81 78 82 81 83 75 84 76 85 79 86 77 87 56 88
REMARK SMILES IDX 57 89 65 90 58 91 59 92 63 93 66 94 60 95 61 96 64 97 62 98
REMARK H PARENT 22 6 15 18 27 32 86 51 54 62
REMARK Flexibility Score: inf
ROOT
ATOM      1  C   UNL A   1      32.040  28.834  27.256  1.00  0.00     0.023 C 
ENDROOT
BRANCH   1   2
ATOM      2  C   UNL A   1      31.324  27.952  26.226  1.00  0.00     0.116 C 
BRANCH   2   3
ATOM      3  N   UNL A   1      31.150  26.589  26.696  1.00  0.00    -0.356 N 
ATOM      4  C   UNL A   1      30.864  25.413  26.077  1.00  0.00     0.226 C 
ATOM      5  O   UNL A   1      30.655  24.449  26.816  1.00  0.00    -0.275 OA
ATOM      6  H   UNL A   1      31.263  26.497  27.670  1.00  0.00     0.163 HD
BRANCH   4   7
ATOM      7  C   UNL A   1      30.827  25.273  24.556  1.00  0.00     0.113 C 
ATOM      8  C   UNL A   1      34.782  22.229  25.489  1.00  0.00     0.244 C 
ATOM      9  O   UNL A   1      35.209  22.447  26.635  1.00  0.00    -0.273 OA
ATOM     10  N   UNL A   1      34.059  23.230  24.818  1.00  0.00    -0.341 N 
ATOM     11  C   UNL A   1      33.956  24.529  25.495  1.00  0.00     0.122 C 
ATOM     12  C   UNL A   1      33.054  22.902  23.817  1.00  0.00     0.122 C 
ATOM     13  C   UNL A   1      33.450  25.672  24.626  1.00  0.00     0.051 C 
ATOM     14  C   UNL A   1      32.492  24.053  23.012  1.00  0.00     0.051 C 
ATOM     15  C   UNL A   1      32.201  25.329  23.808  1.00  0.00     0.055 C 
ATOM     16  N   UNL A   1      32.007  26.369  22.809  1.00  0.00    -0.350 N 
ATOM     17  C   UNL A   1      30.798  26.997  22.840  1.00  0.00     0.221 C 
ATOM     18  H   UNL A   1      32.704  26.604  22.155  1.00  0.00     0.164 HD
ATOM     19  C   UNL A   1      30.013  26.475  23.998  1.00  0.00     0.116 C 
ATOM     20  O   UNL A   1      30.440  27.846  22.043  1.00  0.00    -0.275 OA
BRANCH   8  21
ATOM     21  C   UNL A   1      35.190  20.919  24.825  1.00  0.00     0.244 C 
BRANCH  21  22
ATOM     22  N   UNL A   1      34.282  19.790  24.916  1.00  0.00    -0.263 N 
ATOM     23  C   UNL A   1      33.644  16.430  24.011  1.00  0.00     0.069 C 
ATOM     24  C   UNL A   1      33.621  17.797  24.586  1.00  0.00     0.059 A 
ATOM     25  C   UNL A   1      32.615  18.432  25.347  1.00  0.00     0.045 A 
ATOM     26  N   UNL A   1      34.666  18.607  24.392  1.00  0.00    -0.178 NA
ATOM     27  C   UNL A   1      33.084  19.710  25.567  1.00  0.00     0.109 A 
ENDBRANCH  21  22
ENDBRANCH   8  21
ENDBRANCH   4   7
ENDBRANCH   2   3
ENDBRANCH   1   2
BRANCH   1  28
ATOM     28  C   UNL A   1      32.272  30.304  26.876  1.00  0.00     0.023 C 
BRANCH  28  29
ATOM     29  C   UNL A   1      33.684  30.814  27.168  1.00  0.00     0.116 C 
BRANCH  29  30
ATOM     30  N   UNL A   1      33.797  31.570  28.416  1.00  0.00    -0.352 N 
ATOM     31  C   UNL A   1      34.885  31.642  29.273  1.00  0.00     0.251 C 
ATOM     32  H   UNL A   1      33.004  32.091  28.679  1.00  0.00     0.163 HD
ATOM     33  O   UNL A   1      34.812  32.112  30.392  1.00  0.00    -0.269 OA
BRANCH  31  34
ATOM     34  C   UNL A   1      36.163  31.132  28.749  1.00  0.00     0.039 A 
ATOM     35  C   UNL A   1      37.322  31.901  28.857  1.00  0.00     0.014 A 
ATOM     36  C   UNL A   1      36.212  29.774  28.459  1.00  0.00     0.014 A 
ATOM     37  C   UNL A   1      38.556  31.253  28.828  1.00  0.00     0.010 A 
ATOM     38  C   UNL A   1      37.427  29.128  28.559  1.00  0.00     0.010 A 
ATOM     39  C   UNL A   1      38.612  29.850  28.756  1.00  0.00    -0.014 A 
BRANCH  39  40
ATOM     40  C   UNL A   1      39.875  29.152  29.049  1.00  0.00     0.031 A 
ATOM     41  C   UNL A   1      40.214  28.879  30.489  1.00  0.00     0.074 A 
ATOM     42  C   UNL A   1      40.636  28.534  28.119  1.00  0.00     0.049 A 
ATOM     43  N   UNL A   1      41.274  29.247  31.139  1.00  0.00    -0.248 NA
ATOM     44  C   UNL A   1      39.268  28.105  31.307  1.00  0.00     0.031 C 
ATOM     45  C   UNL A   1      40.406  28.372  26.681  1.00  0.00     0.029 A 
ATOM     46  N   UNL A   1      41.764  27.799  28.328  1.00  0.00    -0.354 N 
ATOM     47  C   UNL A   1      41.202  28.665  32.408  1.00  0.00     0.074 A 
ATOM     48  C   UNL A   1      39.910  28.028  32.476  1.00  0.00     0.031 C 
ATOM     49  C   UNL A   1      41.210  27.399  26.202  1.00  0.00     0.029 A 
ATOM     50  C   UNL A   1      42.138  27.018  27.249  1.00  0.00     0.049 A 
ATOM     51  H   UNL A   1      42.270  27.821  29.173  1.00  0.00     0.167 HD
ATOM     52  C   UNL A   1      42.266  28.639  33.265  1.00  0.00     0.037 A 
ATOM     53  C   UNL A   1      43.143  26.116  27.206  1.00  0.00     0.037 A 
ATOM     54  C   UNL A   1      43.288  29.573  32.874  1.00  0.00     0.049 A 
ATOM     55  C   UNL A   1      44.114  26.483  28.264  1.00  0.00     0.074 A 
ATOM     56  C   UNL A   1      43.329  30.942  32.681  1.00  0.00     0.029 A 
ATOM     57  N   UNL A   1      44.439  29.102  32.292  1.00  0.00    -0.354 N 
ATOM     58  N   UNL A   1      44.837  27.570  28.240  1.00  0.00    -0.248 NA
ATOM     59  C   UNL A   1      43.983  25.849  29.566  1.00  0.00     0.031 C 
ATOM     60  C   UNL A   1      44.167  31.119  31.539  1.00  0.00     0.029 A 
ATOM     61  C   UNL A   1      44.611  29.852  31.158  1.00  0.00     0.049 A 
ATOM     62  H   UNL A   1      45.018  28.377  32.621  1.00  0.00     0.167 HD
ATOM     63  C   UNL A   1      44.896  27.984  29.560  1.00  0.00     0.074 A 
ATOM     64  C   UNL A   1      44.450  26.832  30.340  1.00  0.00     0.031 C 
ATOM     65  C   UNL A   1      45.034  29.303  29.893  1.00  0.00     0.037 A 
BRANCH  52  66
ATOM     66  C   UNL A   1      42.522  27.603  34.332  1.00  0.00     0.064 A 
ATOM     67  C   UNL A   1      43.171  26.393  33.999  1.00  0.00     0.173 A 
ATOM     68  C   UNL A   1      41.901  27.629  35.596  1.00  0.00     0.173 A 
ATOM     69  F   UNL A   1      43.776  26.246  32.810  1.00  0.00    -0.203 F 
ATOM     70  C   UNL A   1      43.142  25.277  34.841  1.00  0.00     0.198 A 
ATOM     71  C   UNL A   1      41.916  26.529  36.457  1.00  0.00     0.198 A 
ATOM     72  F   UNL A   1      41.168  28.676  35.995  1.00  0.00    -0.203 F 
ATOM     73  F   UNL A   1      43.672  24.117  34.430  1.00  0.00    -0.200 F 
ATOM     74  C   UNL A   1      42.510  25.345  36.069  1.00  0.00     0.200 A 
ATOM     75  F   UNL A   1      41.282  26.605  37.636  1.00  0.00    -0.200 F 
ATOM     76  F   UNL A   1      42.431  24.263  36.853  1.00  0.00    -0.200 F 
ENDBRANCH  52  66
BRANCH  53  77
ATOM     77  C   UNL A   1      43.189  24.858  26.434  1.00  0.00     0.064 A 
ATOM     78  C   UNL A   1      44.073  24.691  25.361  1.00  0.00     0.173 A 
ATOM     79  C   UNL A   1      42.526  23.699  26.892  1.00  0.00     0.173 A 
ATOM     80  F   UNL A   1      44.776  25.735  24.899  1.00  0.00    -0.203 F 
ATOM     81  C   UNL A   1      44.292  23.436  24.784  1.00  0.00     0.198 A 
ATOM     82  C   UNL A   1      42.737  22.451  26.309  1.00  0.00     0.198 A 
ATOM     83  F   UNL A   1      41.725  23.741  27.967  1.00  0.00    -0.203 F 
ATOM     84  F   UNL A   1      45.185  23.304  23.794  1.00  0.00    -0.200 F 
ATOM     85  C   UNL A   1      43.629  22.317  25.263  1.00  0.00     0.200 A 
ATOM     86  F   UNL A   1      42.111  21.373  26.804  1.00  0.00    -0.200 F 
ATOM     87  F   UNL A   1      43.879  21.107  24.745  1.00  0.00    -0.200 F 
ENDBRANCH  53  77
BRANCH  65  88
ATOM     88  C   UNL A   1      45.355  30.292  28.807  1.00  0.00     0.064 A 
ATOM     89  C   UNL A   1      44.381  30.931  28.020  1.00  0.00     0.173 A 
ATOM     90  C   UNL A   1      46.676  30.743  28.677  1.00  0.00     0.173 A 
ATOM     91  F   UNL A   1      43.083  30.643  28.160  1.00  0.00    -0.203 F 
ATOM     92  C   UNL A   1      44.719  31.938  27.118  1.00  0.00     0.198 A 
ATOM     93  C   UNL A   1      47.007  31.776  27.803  1.00  0.00     0.198 A 
ATOM     94  F   UNL A   1      47.644  30.220  29.447  1.00  0.00    -0.203 F 
ATOM     95  F   UNL A   1      43.765  32.523  26.379  1.00  0.00    -0.200 F 
ATOM     96  C   UNL A   1      46.031  32.366  27.017  1.00  0.00     0.200 A 
ATOM     97  F   UNL A   1      48.270  32.224  27.747  1.00  0.00    -0.200 F 
ATOM     98  F   UNL A   1      46.349  33.366  26.184  1.00  0.00    -0.200 F 
ENDBRANCH  65  88
ENDBRANCH  39  40
ENDBRANCH  31  34
ENDBRANCH  29  30
ENDBRANCH  28  29
ENDBRANCH   1  28
TORSDOF 13
ENDMDL
