MODEL 1
REMARK VINA RESULT:     -12.8      0.000      0.000
REMARK SMILES Cc1ccc(Cl)c(Nc2ccccc2C(=O)NCCCCNC(=O)c2ccc(-c3c4nc(c(-c5c(F)c(F)c(F)c(F)c5F)c5ccc([nH]5)c(-c5c(F)c(F)c(F)c(F)c5F)c5nc(c(-c6c(F)c(F)c(F)c(F)c6F)c6ccc3[nH]6)C=C5)C=C4)cc2)c1Cl
REMARK SMILES IDX 19 1 18 2 17 3 15 4 16 5 14 7 9 8 10 9 11 10 13 11 12 12
REMARK SMILES IDX 8 13 7 15 1 16 2 17 3 18 88 19 4 20 89 21 5 22 6 23 20 24
REMARK SMILES IDX 21 25 22 26 23 27 24 29 25 30 26 31 87 32 27 33 86 34 28 35
REMARK SMILES IDX 29 36 30 37 80 38 31 39 85 40 79 41 81 42 32 43 84 44 78 45
REMARK SMILES IDX 77 46 33 48 65 49 45 50 64 51 46 52 49 53 63 54 82 55 47 56
REMARK SMILES IDX 48 57 62 59 83 60 50 61 34 62 35 63 43 64 36 65 37 66 41 67
REMARK SMILES IDX 44 68 38 69 39 70 42 71 40 72 66 73 67 74 75 75 68 76 69 77
REMARK SMILES IDX 73 78 76 79 70 80 71 81 74 82 72 83 51 84 52 85 60 86 53 87
REMARK SMILES IDX 54 88 58 89 61 90 55 91 56 92 59 93 57 94
REMARK H PARENT 17 6 8 14 22 28 81 47 49 58
REMARK Flexibility Score: inf
ROOT
ATOM      1  C   UNL A   1      32.213  27.762  27.231  1.00  0.00     0.023 C 
ENDROOT
BRANCH   1   2
ATOM      2  C   UNL A   1      31.988  26.495  26.418  1.00  0.00     0.116 C 
BRANCH   2   3
ATOM      3  N   UNL A   1      30.832  25.715  26.787  1.00  0.00    -0.352 N 
ATOM      4  C   UNL A   1      30.535  24.399  26.509  1.00  0.00     0.253 C 
ATOM      5  O   UNL A   1      29.529  23.927  27.043  1.00  0.00    -0.269 OA
ATOM      6  H   UNL A   1      30.154  26.194  27.317  1.00  0.00     0.163 HD
BRANCH   4   7
ATOM      7  C   UNL A   1      31.279  23.571  25.508  1.00  0.00     0.063 A 
ATOM      8  C   UNL A   1      31.217  23.645  24.100  1.00  0.00     0.051 A 
ATOM      9  C   UNL A   1      31.947  22.691  23.354  1.00  0.00     0.027 A 
ATOM     10  C   UNL A   1      32.774  21.745  23.960  1.00  0.00     0.002 A 
ATOM     11  C   UNL A   1      32.146  22.625  26.104  1.00  0.00     0.016 A 
ATOM     12  C   UNL A   1      32.893  21.727  25.340  1.00  0.00     0.001 A 
BRANCH   8  13
ATOM     13  N   UNL A   1      30.592  24.643  23.324  1.00  0.00    -0.352 N 
ATOM     14  H   UNL A   1      29.821  24.304  22.813  1.00  0.00     0.167 HD
BRANCH  13  15
ATOM     15  C   UNL A   1      30.828  26.023  23.116  1.00  0.00     0.077 A 
ATOM     16  C   UNL A   1      33.604  28.577  22.386  1.00  0.00     0.046 C 
ATOM     17  C   UNL A   1      32.273  27.975  22.750  1.00  0.00    -0.030 A 
ATOM     18  C   UNL A   1      31.228  28.825  23.143  1.00  0.00     0.006 A 
ATOM     19  C   UNL A   1      32.056  26.580  22.702  1.00  0.00     0.069 A 
ATOM     20  C   UNL A   1      29.980  28.304  23.461  1.00  0.00     0.023 A 
ATOM     21  Cl  UNL A   1      33.278  25.586  21.959  1.00  0.00    -0.082 Cl
ATOM     22  C   UNL A   1      29.784  26.925  23.443  1.00  0.00     0.066 A 
ATOM     23  Cl  UNL A   1      28.221  26.329  23.912  1.00  0.00    -0.082 Cl
ENDBRANCH  13  15
ENDBRANCH   8  13
ENDBRANCH   4   7
ENDBRANCH   2   3
ENDBRANCH   1   2
BRANCH   1  24
ATOM     24  C   UNL A   1      31.732  29.077  26.612  1.00  0.00     0.023 C 
BRANCH  24  25
ATOM     25  C   UNL A   1      32.786  30.090  26.163  1.00  0.00     0.116 C 
BRANCH  25  26
ATOM     26  N   UNL A   1      32.628  31.432  26.699  1.00  0.00    -0.352 N 
ATOM     27  C   UNL A   1      33.486  32.163  27.495  1.00  0.00     0.251 C 
ATOM     28  H   UNL A   1      31.788  31.887  26.458  1.00  0.00     0.163 HD
ATOM     29  O   UNL A   1      33.202  33.303  27.831  1.00  0.00    -0.269 OA
BRANCH  27  30
ATOM     30  C   UNL A   1      34.740  31.549  27.992  1.00  0.00     0.039 A 
ATOM     31  C   UNL A   1      35.866  32.365  28.148  1.00  0.00     0.014 A 
ATOM     32  C   UNL A   1      34.804  30.197  28.336  1.00  0.00     0.014 A 
ATOM     33  C   UNL A   1      37.018  31.851  28.751  1.00  0.00     0.010 A 
ATOM     34  C   UNL A   1      35.930  29.703  28.994  1.00  0.00     0.010 A 
ATOM     35  C   UNL A   1      37.039  30.533  29.231  1.00  0.00    -0.014 A 
BRANCH  35  36
ATOM     36  C   UNL A   1      38.184  30.025  30.033  1.00  0.00     0.031 A 
ATOM     37  C   UNL A   1      38.395  30.488  31.447  1.00  0.00     0.074 A 
ATOM     38  C   UNL A   1      39.087  29.209  29.450  1.00  0.00     0.049 A 
ATOM     39  N   UNL A   1      39.376  30.209  32.271  1.00  0.00    -0.248 NA
ATOM     40  C   UNL A   1      37.391  31.407  32.001  1.00  0.00     0.031 C 
ATOM     41  C   UNL A   1      39.034  28.744  28.063  1.00  0.00     0.029 A 
ATOM     42  N   UNL A   1      40.237  28.643  29.944  1.00  0.00    -0.354 N 
ATOM     43  C   UNL A   1      39.117  30.933  33.427  1.00  0.00     0.074 A 
ATOM     44  C   UNL A   1      37.908  31.693  33.188  1.00  0.00     0.031 C 
ATOM     45  C   UNL A   1      40.096  27.957  27.820  1.00  0.00     0.029 A 
ATOM     46  C   UNL A   1      40.920  27.885  29.022  1.00  0.00     0.049 A 
ATOM     47  H   UNL A   1      40.543  28.767  30.872  1.00  0.00     0.167 HD
ATOM     48  C   UNL A   1      39.815  30.949  34.587  1.00  0.00     0.037 A 
ATOM     49  C   UNL A   1      42.083  27.213  29.131  1.00  0.00     0.037 A 
ATOM     50  C   UNL A   1      40.995  30.161  34.837  1.00  0.00     0.049 A 
ATOM     51  C   UNL A   1      42.810  27.212  30.449  1.00  0.00     0.074 A 
ATOM     52  C   UNL A   1      41.723  30.048  36.009  1.00  0.00     0.029 A 
ATOM     53  N   UNL A   1      41.619  29.352  33.899  1.00  0.00    -0.354 N 
ATOM     54  N   UNL A   1      42.502  27.827  31.565  1.00  0.00    -0.248 NA
ATOM     55  C   UNL A   1      44.039  26.409  30.528  1.00  0.00     0.031 C 
ATOM     56  C   UNL A   1      42.812  29.202  35.769  1.00  0.00     0.029 A 
ATOM     57  C   UNL A   1      42.733  28.750  34.463  1.00  0.00     0.049 A 
ATOM     58  H   UNL A   1      41.316  29.225  32.972  1.00  0.00     0.167 HD
ATOM     59  C   UNL A   1      43.474  27.458  32.484  1.00  0.00     0.074 A 
ATOM     60  C   UNL A   1      44.376  26.555  31.801  1.00  0.00     0.031 C 
ATOM     61  C   UNL A   1      43.608  27.835  33.779  1.00  0.00     0.037 A 
BRANCH  48  62
ATOM     62  C   UNL A   1      39.324  31.838  35.690  1.00  0.00     0.064 A 
ATOM     63  C   UNL A   1      38.388  31.388  36.634  1.00  0.00     0.173 A 
ATOM     64  C   UNL A   1      39.850  33.128  35.851  1.00  0.00     0.173 A 
ATOM     65  F   UNL A   1      37.848  30.166  36.521  1.00  0.00    -0.203 F 
ATOM     66  C   UNL A   1      37.985  32.206  37.687  1.00  0.00     0.198 A 
ATOM     67  C   UNL A   1      39.465  33.933  36.919  1.00  0.00     0.198 A 
ATOM     68  F   UNL A   1      40.753  33.603  34.979  1.00  0.00    -0.203 F 
ATOM     69  F   UNL A   1      37.064  31.768  38.558  1.00  0.00    -0.200 F 
ATOM     70  C   UNL A   1      38.530  33.472  37.835  1.00  0.00     0.200 A 
ATOM     71  F   UNL A   1      40.002  35.151  37.067  1.00  0.00    -0.200 F 
ATOM     72  F   UNL A   1      38.152  34.251  38.858  1.00  0.00    -0.200 F 
ENDBRANCH  48  62
BRANCH  49  73
ATOM     73  C   UNL A   1      42.627  26.465  27.967  1.00  0.00     0.064 A 
ATOM     74  C   UNL A   1      43.464  27.091  27.033  1.00  0.00     0.173 A 
ATOM     75  C   UNL A   1      42.298  25.119  27.748  1.00  0.00     0.173 A 
ATOM     76  F   UNL A   1      43.791  28.383  27.188  1.00  0.00    -0.203 F 
ATOM     77  C   UNL A   1      43.924  26.411  25.907  1.00  0.00     0.198 A 
ATOM     78  C   UNL A   1      42.783  24.431  26.637  1.00  0.00     0.198 A 
ATOM     79  F   UNL A   1      41.507  24.472  28.615  1.00  0.00    -0.203 F 
ATOM     80  F   UNL A   1      44.673  27.053  25.000  1.00  0.00    -0.200 F 
ATOM     81  C   UNL A   1      43.586  25.081  25.711  1.00  0.00     0.200 A 
ATOM     82  F   UNL A   1      42.466  23.142  26.459  1.00  0.00    -0.200 F 
ATOM     83  F   UNL A   1      44.023  24.428  24.626  1.00  0.00    -0.200 F 
ENDBRANCH  49  73
BRANCH  61  84
ATOM     84  C   UNL A   1      44.737  27.230  34.560  1.00  0.00     0.064 A 
ATOM     85  C   UNL A   1      45.991  27.853  34.649  1.00  0.00     0.173 A 
ATOM     86  C   UNL A   1      44.549  26.028  35.258  1.00  0.00     0.173 A 
ATOM     87  F   UNL A   1      46.225  28.996  33.987  1.00  0.00    -0.203 F 
ATOM     88  C   UNL A   1      47.023  27.279  35.387  1.00  0.00     0.198 A 
ATOM     89  C   UNL A   1      45.574  25.473  36.019  1.00  0.00     0.198 A 
ATOM     90  F   UNL A   1      43.366  25.396  35.211  1.00  0.00    -0.203 F 
ATOM     91  F   UNL A   1      48.227  27.867  35.420  1.00  0.00    -0.200 F 
ATOM     92  C   UNL A   1      46.812  26.095  36.077  1.00  0.00     0.200 A 
ATOM     93  F   UNL A   1      45.364  24.335  36.695  1.00  0.00    -0.200 F 
ATOM     94  F   UNL A   1      47.804  25.548  36.791  1.00  0.00    -0.200 F 
ENDBRANCH  61  84
ENDBRANCH  35  36
ENDBRANCH  27  30
ENDBRANCH  25  26
ENDBRANCH  24  25
ENDBRANCH   1  24
TORSDOF 13
ENDMDL
MODEL 2
REMARK VINA RESULT:     -12.6      1.963      7.699
REMARK SMILES Cc1ccc(Cl)c(Nc2ccccc2C(=O)NCCCCNC(=O)c2ccc(-c3c4nc(c(-c5c(F)c(F)c(F)c(F)c5F)c5ccc([nH]5)c(-c5c(F)c(F)c(F)c(F)c5F)c5nc(c(-c6c(F)c(F)c(F)c(F)c6F)c6ccc3[nH]6)C=C5)C=C4)cc2)c1Cl
REMARK SMILES IDX 19 1 18 2 17 3 15 4 16 5 14 7 9 8 10 9 11 10 13 11 12 12
REMARK SMILES IDX 8 13 7 15 1 16 2 17 3 18 88 19 4 20 89 21 5 22 6 23 20 24
REMARK SMILES IDX 21 25 22 26 23 27 24 29 25 30 26 31 87 32 27 33 86 34 28 35
REMARK SMILES IDX 29 36 30 37 80 38 31 39 85 40 79 41 81 42 32 43 84 44 78 45
REMARK SMILES IDX 77 46 33 48 65 49 45 50 64 51 46 52 49 53 63 54 82 55 47 56
REMARK SMILES IDX 48 57 62 59 83 60 50 61 34 62 35 63 43 64 36 65 37 66 41 67
REMARK SMILES IDX 44 68 38 69 39 70 42 71 40 72 66 73 67 74 75 75 68 76 69 77
REMARK SMILES IDX 73 78 76 79 70 80 71 81 74 82 72 83 51 84 52 85 60 86 53 87
REMARK SMILES IDX 54 88 58 89 61 90 55 91 56 92 59 93 57 94
REMARK H PARENT 17 6 8 14 22 28 81 47 49 58
REMARK Flexibility Score: inf
ROOT
ATOM      1  C   UNL A   1      32.177  30.197  25.821  1.00  0.00     0.023 C 
ENDROOT
BRANCH   1   2
ATOM      2  C   UNL A   1      32.633  28.844  26.350  1.00  0.00     0.116 C 
BRANCH   2   3
ATOM      3  N   UNL A   1      31.584  27.881  26.585  1.00  0.00    -0.352 N 
ATOM      4  C   UNL A   1      31.536  26.541  26.271  1.00  0.00     0.253 C 
ATOM      5  O   UNL A   1      30.567  25.903  26.687  1.00  0.00    -0.269 OA
ATOM      6  H   UNL A   1      30.784  28.235  27.037  1.00  0.00     0.163 HD
BRANCH   4   7
ATOM      7  C   UNL A   1      32.509  25.865  25.355  1.00  0.00     0.063 A 
ATOM      8  C   UNL A   1      32.385  25.639  23.968  1.00  0.00     0.051 A 
ATOM      9  C   UNL A   1      33.400  24.891  23.326  1.00  0.00     0.027 A 
ATOM     10  C   UNL A   1      34.538  24.447  23.999  1.00  0.00     0.002 A 
ATOM     11  C   UNL A   1      33.684  25.434  26.015  1.00  0.00     0.016 A 
ATOM     12  C   UNL A   1      34.693  24.741  25.344  1.00  0.00     0.001 A 
BRANCH   8  13
ATOM     13  N   UNL A   1      31.409  26.170  23.099  1.00  0.00    -0.352 N 
ATOM     14  H   UNL A   1      31.148  25.543  22.387  1.00  0.00     0.167 HD
BRANCH  13  15
ATOM     15  C   UNL A   1      30.723  27.406  23.025  1.00  0.00     0.077 A 
ATOM     16  C   UNL A   1      27.210  28.963  23.043  1.00  0.00     0.046 C 
ATOM     17  C   UNL A   1      28.699  28.793  22.903  1.00  0.00    -0.030 A 
ATOM     18  C   UNL A   1      29.465  29.874  22.441  1.00  0.00     0.006 A 
ATOM     19  C   UNL A   1      29.338  27.576  23.230  1.00  0.00     0.069 A 
ATOM     20  C   UNL A   1      30.846  29.759  22.325  1.00  0.00     0.023 A 
ATOM     21  Cl  UNL A   1      28.404  26.355  24.048  1.00  0.00    -0.082 Cl
ATOM     22  C   UNL A   1      31.462  28.545  22.617  1.00  0.00     0.066 A 
ATOM     23  Cl  UNL A   1      33.182  28.443  22.392  1.00  0.00    -0.082 Cl
ENDBRANCH  13  15
ENDBRANCH   8  13
ENDBRANCH   4   7
ENDBRANCH   2   3
ENDBRANCH   1   2
BRANCH   1  24
ATOM     24  C   UNL A   1      31.853  31.274  26.860  1.00  0.00     0.023 C 
BRANCH  24  25
ATOM     25  C   UNL A   1      32.938  32.298  27.197  1.00  0.00     0.116 C 
BRANCH  25  26
ATOM     26  N   UNL A   1      32.457  33.627  27.536  1.00  0.00    -0.352 N 
ATOM     27  C   UNL A   1      32.994  34.558  28.402  1.00  0.00     0.251 C 
ATOM     28  H   UNL A   1      31.628  33.905  27.081  1.00  0.00     0.163 HD
ATOM     29  O   UNL A   1      32.466  35.651  28.543  1.00  0.00    -0.269 OA
BRANCH  27  30
ATOM     30  C   UNL A   1      34.190  34.218  29.207  1.00  0.00     0.039 A 
ATOM     31  C   UNL A   1      34.004  33.594  30.446  1.00  0.00     0.014 A 
ATOM     32  C   UNL A   1      35.481  34.473  28.740  1.00  0.00     0.014 A 
ATOM     33  C   UNL A   1      35.110  33.128  31.162  1.00  0.00     0.010 A 
ATOM     34  C   UNL A   1      36.579  33.952  29.424  1.00  0.00     0.010 A 
ATOM     35  C   UNL A   1      36.403  33.252  30.629  1.00  0.00    -0.014 A 
BRANCH  35  36
ATOM     36  C   UNL A   1      37.570  32.605  31.287  1.00  0.00     0.031 A 
ATOM     37  C   UNL A   1      38.268  31.442  30.640  1.00  0.00     0.074 A 
ATOM     38  C   UNL A   1      37.946  33.016  32.516  1.00  0.00     0.049 A 
ATOM     39  N   UNL A   1      39.253  30.709  31.098  1.00  0.00    -0.248 NA
ATOM     40  C   UNL A   1      37.777  31.026  29.318  1.00  0.00     0.031 C 
ATOM     41  C   UNL A   1      37.305  34.087  33.282  1.00  0.00     0.029 A 
ATOM     42  N   UNL A   1      38.944  32.568  33.347  1.00  0.00    -0.354 N 
ATOM     43  C   UNL A   1      39.484  29.738  30.133  1.00  0.00     0.074 A 
ATOM     44  C   UNL A   1      38.513  29.949  29.080  1.00  0.00     0.031 C 
ATOM     45  C   UNL A   1      37.931  34.219  34.463  1.00  0.00     0.029 A 
ATOM     46  C   UNL A   1      38.996  33.226  34.553  1.00  0.00     0.049 A 
ATOM     47  H   UNL A   1      39.564  31.843  33.101  1.00  0.00     0.167 HD
ATOM     48  C   UNL A   1      40.430  28.770  30.120  1.00  0.00     0.037 A 
ATOM     49  C   UNL A   1      39.806  33.046  35.614  1.00  0.00     0.037 A 
ATOM     50  C   UNL A   1      41.421  28.586  31.149  1.00  0.00     0.049 A 
ATOM     51  C   UNL A   1      40.879  31.992  35.548  1.00  0.00     0.074 A 
ATOM     52  C   UNL A   1      42.472  27.685  31.183  1.00  0.00     0.029 A 
ATOM     53  N   UNL A   1      41.484  29.318  32.325  1.00  0.00    -0.354 N 
ATOM     54  N   UNL A   1      41.146  31.142  34.587  1.00  0.00    -0.248 NA
ATOM     55  C   UNL A   1      41.775  31.884  36.709  1.00  0.00     0.031 C 
ATOM     56  C   UNL A   1      43.146  27.843  32.398  1.00  0.00     0.029 A 
ATOM     57  C   UNL A   1      42.547  28.877  33.098  1.00  0.00     0.049 A 
ATOM     58  H   UNL A   1      40.866  30.043  32.574  1.00  0.00     0.167 HD
ATOM     59  C   UNL A   1      42.257  30.425  35.010  1.00  0.00     0.074 A 
ATOM     60  C   UNL A   1      42.625  30.948  36.308  1.00  0.00     0.031 C 
ATOM     61  C   UNL A   1      42.915  29.423  34.378  1.00  0.00     0.037 A 
BRANCH  48  62
ATOM     62  C   UNL A   1      40.456  27.829  28.951  1.00  0.00     0.064 A 
ATOM     63  C   UNL A   1      39.684  26.658  28.934  1.00  0.00     0.173 A 
ATOM     64  C   UNL A   1      41.204  28.140  27.805  1.00  0.00     0.173 A 
ATOM     65  F   UNL A   1      38.959  26.311  30.007  1.00  0.00    -0.203 F 
ATOM     66  C   UNL A   1      39.674  25.825  27.818  1.00  0.00     0.198 A 
ATOM     67  C   UNL A   1      41.171  27.319  26.682  1.00  0.00     0.198 A 
ATOM     68  F   UNL A   1      41.953  29.253  27.769  1.00  0.00    -0.203 F 
ATOM     69  F   UNL A   1      38.956  24.693  27.836  1.00  0.00    -0.200 F 
ATOM     70  C   UNL A   1      40.408  26.160  26.691  1.00  0.00     0.200 A 
ATOM     71  F   UNL A   1      41.871  27.651  25.589  1.00  0.00    -0.200 F 
ATOM     72  F   UNL A   1      40.385  25.364  25.612  1.00  0.00    -0.200 F 
ENDBRANCH  48  62
BRANCH  49  73
ATOM     73  C   UNL A   1      39.654  33.894  36.826  1.00  0.00     0.064 A 
ATOM     74  C   UNL A   1      38.869  33.473  37.908  1.00  0.00     0.173 A 
ATOM     75  C   UNL A   1      40.264  35.154  36.913  1.00  0.00     0.173 A 
ATOM     76  F   UNL A   1      38.249  32.284  37.863  1.00  0.00    -0.203 F 
ATOM     77  C   UNL A   1      38.672  34.293  39.018  1.00  0.00     0.198 A 
ATOM     78  C   UNL A   1      40.090  35.961  38.037  1.00  0.00     0.198 A 
ATOM     79  F   UNL A   1      41.030  35.601  35.909  1.00  0.00    -0.203 F 
ATOM     80  F   UNL A   1      37.868  33.889  40.011  1.00  0.00    -0.200 F 
ATOM     81  C   UNL A   1      39.285  35.535  39.083  1.00  0.00     0.200 A 
ATOM     82  F   UNL A   1      40.696  37.154  38.103  1.00  0.00    -0.200 F 
ATOM     83  F   UNL A   1      39.092  36.325  40.147  1.00  0.00    -0.200 F 
ENDBRANCH  49  73
BRANCH  61  84
ATOM     84  C   UNL A   1      44.131  28.862  35.054  1.00  0.00     0.064 A 
ATOM     85  C   UNL A   1      45.410  29.394  34.836  1.00  0.00     0.173 A 
ATOM     86  C   UNL A   1      44.007  27.799  35.962  1.00  0.00     0.173 A 
ATOM     87  F   UNL A   1      45.583  30.400  33.966  1.00  0.00    -0.203 F 
ATOM     88  C   UNL A   1      46.524  28.864  35.481  1.00  0.00     0.198 A 
ATOM     89  C   UNL A   1      45.119  27.291  36.628  1.00  0.00     0.198 A 
ATOM     90  F   UNL A   1      42.804  27.259  36.211  1.00  0.00    -0.203 F 
ATOM     91  F   UNL A   1      47.744  29.356  35.221  1.00  0.00    -0.200 F 
ATOM     92  C   UNL A   1      46.377  27.819  36.381  1.00  0.00     0.200 A 
ATOM     93  F   UNL A   1      44.972  26.290  37.506  1.00  0.00    -0.200 F 
ATOM     94  F   UNL A   1      47.449  27.315  37.006  1.00  0.00    -0.200 F 
ENDBRANCH  61  84
ENDBRANCH  35  36
ENDBRANCH  27  30
ENDBRANCH  25  26
ENDBRANCH  24  25
ENDBRANCH   1  24
TORSDOF 13
ENDMDL
MODEL 3
REMARK VINA RESULT:     -12.6      1.797      2.992
REMARK SMILES Cc1ccc(Cl)c(Nc2ccccc2C(=O)NCCCCNC(=O)c2ccc(-c3c4nc(c(-c5c(F)c(F)c(F)c(F)c5F)c5ccc([nH]5)c(-c5c(F)c(F)c(F)c(F)c5F)c5nc(c(-c6c(F)c(F)c(F)c(F)c6F)c6ccc3[nH]6)C=C5)C=C4)cc2)c1Cl
REMARK SMILES IDX 19 1 18 2 17 3 15 4 16 5 14 7 9 8 10 9 11 10 13 11 12 12
REMARK SMILES IDX 8 13 7 15 1 16 2 17 3 18 88 19 4 20 89 21 5 22 6 23 20 24
REMARK SMILES IDX 21 25 22 26 23 27 24 29 25 30 26 31 87 32 27 33 86 34 28 35
REMARK SMILES IDX 29 36 30 37 80 38 31 39 85 40 79 41 81 42 32 43 84 44 78 45
REMARK SMILES IDX 77 46 33 48 65 49 45 50 64 51 46 52 49 53 63 54 82 55 47 56
REMARK SMILES IDX 48 57 62 59 83 60 50 61 34 62 35 63 43 64 36 65 37 66 41 67
REMARK SMILES IDX 44 68 38 69 39 70 42 71 40 72 66 73 67 74 75 75 68 76 69 77
REMARK SMILES IDX 73 78 76 79 70 80 71 81 74 82 72 83 51 84 52 85 60 86 53 87
REMARK SMILES IDX 54 88 58 89 61 90 55 91 56 92 59 93 57 94
REMARK H PARENT 17 6 8 14 22 28 81 47 49 58
REMARK Flexibility Score: inf
ROOT
ATOM      1  C   UNL A   1      31.838  30.349  25.770  1.00  0.00     0.023 C 
ENDROOT
BRANCH   1   2
ATOM      2  C   UNL A   1      32.439  29.000  26.135  1.00  0.00     0.116 C 
BRANCH   2   3
ATOM      3  N   UNL A   1      31.493  27.974  26.502  1.00  0.00    -0.352 N 
ATOM      4  C   UNL A   1      31.545  26.615  26.288  1.00  0.00     0.253 C 
ATOM      5  O   UNL A   1      30.659  25.932  26.807  1.00  0.00    -0.269 OA
ATOM      6  H   UNL A   1      30.691  28.293  26.975  1.00  0.00     0.163 HD
BRANCH   4   7
ATOM      7  C   UNL A   1      32.521  25.953  25.365  1.00  0.00     0.063 A 
ATOM      8  C   UNL A   1      32.381  25.705  23.984  1.00  0.00     0.051 A 
ATOM      9  C   UNL A   1      33.406  24.977  23.334  1.00  0.00     0.027 A 
ATOM     10  C   UNL A   1      34.567  24.574  23.994  1.00  0.00     0.002 A 
ATOM     11  C   UNL A   1      33.719  25.564  26.011  1.00  0.00     0.016 A 
ATOM     12  C   UNL A   1      34.736  24.891  25.333  1.00  0.00     0.001 A 
BRANCH   8  13
ATOM     13  N   UNL A   1      31.377  26.196  23.124  1.00  0.00    -0.352 N 
ATOM     14  H   UNL A   1      31.111  25.547  22.433  1.00  0.00     0.167 HD
BRANCH  13  15
ATOM     15  C   UNL A   1      30.667  27.418  23.034  1.00  0.00     0.077 A 
ATOM     16  C   UNL A   1      27.127  28.911  23.074  1.00  0.00     0.046 C 
ATOM     17  C   UNL A   1      28.617  28.765  22.915  1.00  0.00    -0.030 A 
ATOM     18  C   UNL A   1      29.356  29.850  22.417  1.00  0.00     0.006 A 
ATOM     19  C   UNL A   1      29.283  27.567  23.257  1.00  0.00     0.069 A 
ATOM     20  C   UNL A   1      30.736  29.757  22.282  1.00  0.00     0.023 A 
ATOM     21  Cl  UNL A   1      28.384  26.348  24.116  1.00  0.00    -0.082 Cl
ATOM     22  C   UNL A   1      31.379  28.561  22.590  1.00  0.00     0.066 A 
ATOM     23  Cl  UNL A   1      33.097  28.485  22.340  1.00  0.00    -0.082 Cl
ENDBRANCH  13  15
ENDBRANCH   8  13
ENDBRANCH   4   7
ENDBRANCH   2   3
ENDBRANCH   1   2
BRANCH   1  24
ATOM     24  C   UNL A   1      31.739  31.390  26.889  1.00  0.00     0.023 C 
BRANCH  24  25
ATOM     25  C   UNL A   1      32.849  32.436  26.999  1.00  0.00     0.116 C 
BRANCH  25  26
ATOM     26  N   UNL A   1      32.422  33.754  27.441  1.00  0.00    -0.352 N 
ATOM     27  C   UNL A   1      32.992  34.588  28.382  1.00  0.00     0.251 C 
ATOM     28  H   UNL A   1      31.610  34.102  27.007  1.00  0.00     0.163 HD
ATOM     29  O   UNL A   1      32.510  35.688  28.608  1.00  0.00    -0.269 OA
BRANCH  27  30
ATOM     30  C   UNL A   1      34.166  34.132  29.163  1.00  0.00     0.039 A 
ATOM     31  C   UNL A   1      33.944  33.414  30.343  1.00  0.00     0.014 A 
ATOM     32  C   UNL A   1      35.470  34.374  28.727  1.00  0.00     0.014 A 
ATOM     33  C   UNL A   1      35.023  32.845  31.023  1.00  0.00     0.010 A 
ATOM     34  C   UNL A   1      36.540  33.753  29.371  1.00  0.00     0.010 A 
ATOM     35  C   UNL A   1      36.325  32.961  30.511  1.00  0.00    -0.014 A 
BRANCH  35  36
ATOM     36  C   UNL A   1      37.459  32.215  31.118  1.00  0.00     0.031 A 
ATOM     37  C   UNL A   1      37.969  32.573  32.486  1.00  0.00     0.074 A 
ATOM     38  C   UNL A   1      38.088  31.266  30.393  1.00  0.00     0.049 A 
ATOM     39  N   UNL A   1      38.991  32.082  33.142  1.00  0.00    -0.248 NA
ATOM     40  C   UNL A   1      37.258  33.644  33.199  1.00  0.00     0.031 C 
ATOM     41  C   UNL A   1      37.736  30.874  29.027  1.00  0.00     0.029 A 
ATOM     42  N   UNL A   1      39.169  30.474  30.695  1.00  0.00    -0.354 N 
ATOM     43  C   UNL A   1      39.057  32.796  34.332  1.00  0.00     0.074 A 
ATOM     44  C   UNL A   1      37.995  33.780  34.292  1.00  0.00     0.031 C 
ATOM     45  C   UNL A   1      38.576  29.911  28.614  1.00  0.00     0.029 A 
ATOM     46  C   UNL A   1      39.544  29.637  29.670  1.00  0.00     0.049 A 
ATOM     47  H   UNL A   1      39.631  30.502  31.564  1.00  0.00     0.167 HD
ATOM     48  C   UNL A   1      39.913  32.634  35.367  1.00  0.00     0.037 A 
ATOM     49  C   UNL A   1      40.558  28.754  29.589  1.00  0.00     0.037 A 
ATOM     50  C   UNL A   1      40.943  31.628  35.422  1.00  0.00     0.049 A 
ATOM     51  C   UNL A   1      41.464  28.563  30.776  1.00  0.00     0.074 A 
ATOM     52  C   UNL A   1      41.806  31.333  36.464  1.00  0.00     0.029 A 
ATOM     53  N   UNL A   1      41.249  30.753  34.390  1.00  0.00    -0.354 N 
ATOM     54  N   UNL A   1      41.454  29.181  31.932  1.00  0.00    -0.248 NA
ATOM     55  C   UNL A   1      42.512  27.539  30.653  1.00  0.00     0.031 C 
ATOM     56  C   UNL A   1      42.661  30.307  36.048  1.00  0.00     0.029 A 
ATOM     57  C   UNL A   1      42.298  29.929  34.767  1.00  0.00     0.049 A 
ATOM     58  H   UNL A   1      40.789  30.721  33.520  1.00  0.00     0.167 HD
ATOM     59  C   UNL A   1      42.466  28.599  32.683  1.00  0.00     0.074 A 
ATOM     60  C   UNL A   1      43.061  27.569  31.859  1.00  0.00     0.031 C 
ATOM     61  C   UNL A   1      42.865  28.892  33.945  1.00  0.00     0.037 A 
BRANCH  48  62
ATOM     62  C   UNL A   1      39.777  33.556  36.543  1.00  0.00     0.064 A 
ATOM     63  C   UNL A   1      40.404  34.811  36.568  1.00  0.00     0.173 A 
ATOM     64  C   UNL A   1      38.950  33.213  37.623  1.00  0.00     0.173 A 
ATOM     65  F   UNL A   1      41.212  35.183  35.564  1.00  0.00    -0.203 F 
ATOM     66  C   UNL A   1      40.221  35.680  37.640  1.00  0.00     0.198 A 
ATOM     67  C   UNL A   1      38.748  34.095  38.680  1.00  0.00     0.198 A 
ATOM     68  F   UNL A   1      38.322  32.027  37.643  1.00  0.00    -0.203 F 
ATOM     69  F   UNL A   1      40.856  36.860  37.660  1.00  0.00    -0.200 F 
ATOM     70  C   UNL A   1      39.386  35.326  38.690  1.00  0.00     0.200 A 
ATOM     71  F   UNL A   1      37.931  33.757  39.687  1.00  0.00    -0.200 F 
ATOM     72  F   UNL A   1      39.199  36.171  39.714  1.00  0.00    -0.200 F 
ENDBRANCH  48  62
BRANCH  49  73
ATOM     73  C   UNL A   1      40.764  27.961  28.347  1.00  0.00     0.064 A 
ATOM     74  C   UNL A   1      40.195  26.689  28.200  1.00  0.00     0.173 A 
ATOM     75  C   UNL A   1      41.556  28.447  27.297  1.00  0.00     0.173 A 
ATOM     76  F   UNL A   1      39.445  26.173  29.186  1.00  0.00    -0.203 F 
ATOM     77  C   UNL A   1      40.437  25.917  27.065  1.00  0.00     0.198 A 
ATOM     78  C   UNL A   1      41.774  27.686  26.149  1.00  0.00     0.198 A 
ATOM     79  F   UNL A   1      42.118  29.661  27.384  1.00  0.00    -0.203 F 
ATOM     80  F   UNL A   1      39.929  24.680  26.978  1.00  0.00    -0.200 F 
ATOM     81  C   UNL A   1      41.224  26.418  26.039  1.00  0.00     0.200 A 
ATOM     82  F   UNL A   1      42.523  28.178  25.154  1.00  0.00    -0.200 F 
ATOM     83  F   UNL A   1      41.462  25.674  24.950  1.00  0.00    -0.200 F 
ENDBRANCH  49  73
BRANCH  61  84
ATOM     84  C   UNL A   1      43.962  28.055  34.533  1.00  0.00     0.064 A 
ATOM     85  C   UNL A   1      45.307  28.451  34.475  1.00  0.00     0.173 A 
ATOM     86  C   UNL A   1      43.658  26.856  35.196  1.00  0.00     0.173 A 
ATOM     87  F   UNL A   1      45.650  29.581  33.839  1.00  0.00    -0.203 F 
ATOM     88  C   UNL A   1      46.308  27.663  35.035  1.00  0.00     0.198 A 
ATOM     89  C   UNL A   1      44.659  26.086  35.781  1.00  0.00     0.198 A 
ATOM     90  F   UNL A   1      42.387  26.437  35.285  1.00  0.00    -0.203 F 
ATOM     91  F   UNL A   1      47.591  28.037  34.927  1.00  0.00    -0.200 F 
ATOM     92  C   UNL A   1      45.983  26.486  35.694  1.00  0.00     0.200 A 
ATOM     93  F   UNL A   1      44.341  24.956  36.427  1.00  0.00    -0.200 F 
ATOM     94  F   UNL A   1      46.948  25.733  36.238  1.00  0.00    -0.200 F 
ENDBRANCH  61  84
ENDBRANCH  35  36
ENDBRANCH  27  30
ENDBRANCH  25  26
ENDBRANCH  24  25
ENDBRANCH   1  24
TORSDOF 13
ENDMDL
