MODEL 1
REMARK VINA RESULT:     -13.6      0.000      0.000
REMARK SMILES Cc1ccn2c([C@H]3C[C@@H]3C(=O)NCCCCNC(=O)c3ccc(-c4c5nc(c(-c6c(F)c(F)c(F)c(F)c6F)c6ccc([nH]6)c(-c6c(F)c(F)c(F)c(F)c6F)c6nc(c(-c7c(F)c(F)c(F)c(F)c7F)c7ccc4[nH]7)C=C6)C=C5)cc3)nnc2c1
REMARK SMILES IDX 15 1 14 2 13 3 12 4 10 5 11 6 9 8 7 9 8 10 6 11 1 12 2 13
REMARK SMILES IDX 3 14 86 15 4 16 85 17 5 18 84 19 83 20 16 21 17 22 18 23
REMARK SMILES IDX 19 25 20 26 21 27 82 28 22 29 81 30 23 31 24 32 25 33 75 34
REMARK SMILES IDX 26 35 80 36 74 37 76 38 27 39 79 40 73 41 72 42 28 44 60 45
REMARK SMILES IDX 40 46 59 47 41 48 44 49 58 50 77 51 42 52 43 53 57 55 78 56
REMARK SMILES IDX 45 57 29 58 30 59 38 60 31 61 32 62 36 63 39 64 33 65 34 66
REMARK SMILES IDX 37 67 35 68 61 69 62 70 70 71 63 72 64 73 68 74 71 75 65 76
REMARK SMILES IDX 66 77 69 78 67 79 46 80 47 81 55 82 48 83 49 84 53 85 56 86
REMARK SMILES IDX 50 87 51 88 54 89 52 90
REMARK H PARENT 12 7 17 24 76 43 44 54
REMARK Flexibility Score: inf
ROOT
ATOM      1  C   UNL A   1      37.352  22.215  24.950  1.00  0.00     0.023 C 
ENDROOT
BRANCH   1   2
ATOM      2  C   UNL A   1      36.390  21.078  25.281  1.00  0.00     0.023 C 
BRANCH   2   3
ATOM      3  C   UNL A   1      35.190  21.458  26.132  1.00  0.00     0.116 C 
BRANCH   3   4
ATOM      4  N   UNL A   1      34.012  20.644  25.889  1.00  0.00    -0.356 N 
ATOM      5  C   UNL A   1      33.102  20.603  24.852  1.00  0.00     0.223 C 
ATOM      6  O   UNL A   1      32.217  19.766  24.908  1.00  0.00    -0.275 OA
ATOM      7  H   UNL A   1      33.827  19.994  26.605  1.00  0.00     0.163 HD
BRANCH   5   8
ATOM      8  C   UNL A   1      33.148  21.519  23.669  1.00  0.00     0.090 C 
ATOM      9  C   UNL A   1      32.157  22.623  23.457  1.00  0.00     0.071 C 
ATOM     10  C   UNL A   1      32.152  21.401  22.557  1.00  0.00     0.026 C 
BRANCH   9  11
ATOM     11  C   UNL A   1      32.405  23.945  22.772  1.00  0.00     0.141 A 
ATOM     12  C   UNL A   1      29.500  28.705  22.907  1.00  0.00     0.044 C 
ATOM     13  C   UNL A   1      30.303  27.440  22.883  1.00  0.00    -0.046 A 
ATOM     14  C   UNL A   1      29.785  26.355  23.712  1.00  0.00     0.022 A 
ATOM     15  C   UNL A   1      31.427  27.278  22.145  1.00  0.00     0.053 A 
ATOM     16  C   UNL A   1      30.445  25.189  23.742  1.00  0.00     0.095 A 
ATOM     17  C   UNL A   1      32.109  26.026  22.154  1.00  0.00     0.161 A 
ATOM     18  N   UNL A   1      31.597  25.039  22.972  1.00  0.00    -0.286 N 
ATOM     19  N   UNL A   1      33.147  25.548  21.498  1.00  0.00    -0.130 NA
ATOM     20  N   UNL A   1      33.316  24.221  21.868  1.00  0.00    -0.134 NA
ENDBRANCH   9  11
ENDBRANCH   5   8
ENDBRANCH   3   4
ENDBRANCH   2   3
ENDBRANCH   1   2
BRANCH   1  21
ATOM     21  C   UNL A   1      38.197  22.722  26.123  1.00  0.00     0.116 C 
BRANCH  21  22
ATOM     22  N   UNL A   1      39.574  22.265  26.116  1.00  0.00    -0.352 N 
ATOM     23  C   UNL A   1      40.765  22.781  26.553  1.00  0.00     0.251 C 
ATOM     24  H   UNL A   1      39.677  21.379  25.702  1.00  0.00     0.163 HD
ATOM     25  O   UNL A   1      41.734  22.019  26.511  1.00  0.00    -0.269 OA
BRANCH  23  26
ATOM     26  C   UNL A   1      40.978  24.183  27.003  1.00  0.00     0.039 A 
ATOM     27  C   UNL A   1      41.517  24.558  28.232  1.00  0.00     0.014 A 
ATOM     28  C   UNL A   1      40.521  25.197  26.137  1.00  0.00     0.014 A 
ATOM     29  C   UNL A   1      41.479  25.882  28.645  1.00  0.00     0.010 A 
ATOM     30  C   UNL A   1      40.512  26.532  26.532  1.00  0.00     0.010 A 
ATOM     31  C   UNL A   1      40.937  26.863  27.814  1.00  0.00    -0.014 A 
BRANCH  31  32
ATOM     32  C   UNL A   1      40.871  28.217  28.353  1.00  0.00     0.031 A 
ATOM     33  C   UNL A   1      41.974  29.138  27.948  1.00  0.00     0.074 A 
ATOM     34  C   UNL A   1      39.866  28.643  29.142  1.00  0.00     0.049 A 
ATOM     35  N   UNL A   1      42.812  29.780  28.701  1.00  0.00    -0.248 NA
ATOM     36  C   UNL A   1      42.214  29.305  26.507  1.00  0.00     0.031 C 
ATOM     37  C   UNL A   1      38.592  27.981  29.431  1.00  0.00     0.029 A 
ATOM     38  N   UNL A   1      39.755  29.831  29.800  1.00  0.00    -0.354 N 
ATOM     39  C   UNL A   1      43.605  30.538  27.839  1.00  0.00     0.074 A 
ATOM     40  C   UNL A   1      43.252  30.141  26.500  1.00  0.00     0.031 C 
ATOM     41  C   UNL A   1      37.756  28.864  30.024  1.00  0.00     0.029 A 
ATOM     42  C   UNL A   1      38.483  30.096  30.280  1.00  0.00     0.049 A 
ATOM     43  H   UNL A   1      40.512  30.448  29.922  1.00  0.00     0.167 HD
ATOM     44  C   UNL A   1      44.403  31.552  28.276  1.00  0.00     0.037 A 
ATOM     45  C   UNL A   1      38.046  31.271  30.788  1.00  0.00     0.037 A 
ATOM     46  C   UNL A   1      44.691  31.446  29.679  1.00  0.00     0.049 A 
ATOM     47  C   UNL A   1      39.230  32.056  31.205  1.00  0.00     0.074 A 
ATOM     48  C   UNL A   1      45.399  30.559  30.464  1.00  0.00     0.029 A 
ATOM     49  N   UNL A   1      43.972  32.219  30.552  1.00  0.00    -0.354 N 
ATOM     50  N   UNL A   1      39.994  31.755  32.216  1.00  0.00    -0.248 NA
ATOM     51  C   UNL A   1      39.795  33.000  30.255  1.00  0.00     0.031 C 
ATOM     52  C   UNL A   1      44.712  30.534  31.713  1.00  0.00     0.029 A 
ATOM     53  C   UNL A   1      43.640  31.422  31.617  1.00  0.00     0.049 A 
ATOM     54  H   UNL A   1      43.737  33.167  30.437  1.00  0.00     0.167 HD
ATOM     55  C   UNL A   1      41.268  32.133  31.820  1.00  0.00     0.074 A 
ATOM     56  C   UNL A   1      41.066  32.997  30.665  1.00  0.00     0.031 C 
ATOM     57  C   UNL A   1      42.371  31.490  32.302  1.00  0.00     0.037 A 
BRANCH  44  58
ATOM     58  C   UNL A   1      44.706  32.798  27.483  1.00  0.00     0.064 A 
ATOM     59  C   UNL A   1      45.926  32.914  26.787  1.00  0.00     0.173 A 
ATOM     60  C   UNL A   1      43.963  33.991  27.612  1.00  0.00     0.173 A 
ATOM     61  F   UNL A   1      46.729  31.851  26.632  1.00  0.00    -0.203 F 
ATOM     62  C   UNL A   1      46.388  34.143  26.305  1.00  0.00     0.198 A 
ATOM     63  C   UNL A   1      44.403  35.205  27.085  1.00  0.00     0.198 A 
ATOM     64  F   UNL A   1      42.841  34.048  28.342  1.00  0.00    -0.203 F 
ATOM     65  F   UNL A   1      47.604  34.225  25.747  1.00  0.00    -0.200 F 
ATOM     66  C   UNL A   1      45.628  35.287  26.456  1.00  0.00     0.200 A 
ATOM     67  F   UNL A   1      43.659  36.307  27.260  1.00  0.00    -0.200 F 
ATOM     68  F   UNL A   1      46.092  36.474  26.043  1.00  0.00    -0.200 F 
ENDBRANCH  44  58
BRANCH  45  69
ATOM     69  C   UNL A   1      36.710  31.889  30.626  1.00  0.00     0.064 A 
ATOM     70  C   UNL A   1      35.882  32.112  31.737  1.00  0.00     0.173 A 
ATOM     71  C   UNL A   1      36.348  32.535  29.429  1.00  0.00     0.173 A 
ATOM     72  F   UNL A   1      36.182  31.565  32.924  1.00  0.00    -0.203 F 
ATOM     73  C   UNL A   1      34.777  32.965  31.664  1.00  0.00     0.198 A 
ATOM     74  C   UNL A   1      35.239  33.378  29.355  1.00  0.00     0.198 A 
ATOM     75  F   UNL A   1      37.118  32.446  28.336  1.00  0.00    -0.203 F 
ATOM     76  F   UNL A   1      34.050  33.213  32.762  1.00  0.00    -0.200 F 
ATOM     77  C   UNL A   1      34.464  33.606  30.476  1.00  0.00     0.200 A 
ATOM     78  F   UNL A   1      34.969  34.020  28.209  1.00  0.00    -0.200 F 
ATOM     79  F   UNL A   1      33.446  34.476  30.423  1.00  0.00    -0.200 F 
ENDBRANCH  45  69
BRANCH  57  80
ATOM     80  C   UNL A   1      42.175  30.575  33.479  1.00  0.00     0.064 A 
ATOM     81  C   UNL A   1      42.227  31.004  34.817  1.00  0.00     0.173 A 
ATOM     82  C   UNL A   1      41.806  29.245  33.242  1.00  0.00     0.173 A 
ATOM     83  F   UNL A   1      42.465  32.286  35.121  1.00  0.00    -0.203 F 
ATOM     84  C   UNL A   1      41.981  30.123  35.869  1.00  0.00     0.198 A 
ATOM     85  C   UNL A   1      41.522  28.376  34.293  1.00  0.00     0.198 A 
ATOM     86  F   UNL A   1      41.678  28.796  31.984  1.00  0.00    -0.203 F 
ATOM     87  F   UNL A   1      42.058  30.552  37.137  1.00  0.00    -0.200 F 
ATOM     88  C   UNL A   1      41.624  28.812  35.605  1.00  0.00     0.200 A 
ATOM     89  F   UNL A   1      41.124  27.124  34.034  1.00  0.00    -0.200 F 
ATOM     90  F   UNL A   1      41.349  27.973  36.615  1.00  0.00    -0.200 F 
ENDBRANCH  57  80
ENDBRANCH  31  32
ENDBRANCH  23  26
ENDBRANCH  21  22
ENDBRANCH   1  21
TORSDOF 12
ENDMDL
MODEL 2
REMARK VINA RESULT:     -13.6      4.241      7.213
REMARK SMILES Cc1ccn2c([C@H]3C[C@@H]3C(=O)NCCCCNC(=O)c3ccc(-c4c5nc(c(-c6c(F)c(F)c(F)c(F)c6F)c6ccc([nH]6)c(-c6c(F)c(F)c(F)c(F)c6F)c6nc(c(-c7c(F)c(F)c(F)c(F)c7F)c7ccc4[nH]7)C=C6)C=C5)cc3)nnc2c1
REMARK SMILES IDX 15 1 14 2 13 3 12 4 10 5 11 6 9 8 7 9 8 10 6 11 1 12 2 13
REMARK SMILES IDX 3 14 86 15 4 16 85 17 5 18 84 19 83 20 16 21 17 22 18 23
REMARK SMILES IDX 19 25 20 26 21 27 82 28 22 29 81 30 23 31 24 32 25 33 75 34
REMARK SMILES IDX 26 35 80 36 74 37 76 38 27 39 79 40 73 41 72 42 28 44 60 45
REMARK SMILES IDX 40 46 59 47 41 48 44 49 58 50 77 51 42 52 43 53 57 55 78 56
REMARK SMILES IDX 45 57 29 58 30 59 38 60 31 61 32 62 36 63 39 64 33 65 34 66
REMARK SMILES IDX 37 67 35 68 61 69 62 70 70 71 63 72 64 73 68 74 71 75 65 76
REMARK SMILES IDX 66 77 69 78 67 79 46 80 47 81 55 82 48 83 49 84 53 85 56 86
REMARK SMILES IDX 50 87 51 88 54 89 52 90
REMARK H PARENT 12 7 17 24 76 43 44 54
REMARK Flexibility Score: inf
ROOT
ATOM      1  C   UNL A   1      43.395  23.155  24.761  1.00  0.00     0.023 C 
ENDROOT
BRANCH   1   2
ATOM      2  C   UNL A   1      44.551  24.084  25.120  1.00  0.00     0.023 C 
BRANCH   2   3
ATOM      3  C   UNL A   1      44.157  25.422  25.722  1.00  0.00     0.116 C 
BRANCH   3   4
ATOM      4  N   UNL A   1      44.675  26.571  24.999  1.00  0.00    -0.356 N 
ATOM      5  C   UNL A   1      45.724  27.435  25.246  1.00  0.00     0.223 C 
ATOM      6  O   UNL A   1      45.948  28.303  24.418  1.00  0.00    -0.275 OA
ATOM      7  H   UNL A   1      44.182  26.771  24.172  1.00  0.00     0.163 HD
BRANCH   5   8
ATOM      8  C   UNL A   1      46.597  27.358  26.460  1.00  0.00     0.090 C 
ATOM      9  C   UNL A   1      46.060  27.477  27.854  1.00  0.00     0.071 C 
ATOM     10  C   UNL A   1      46.918  28.581  27.263  1.00  0.00     0.026 C 
BRANCH   9  11
ATOM     11  C   UNL A   1      46.605  26.813  29.094  1.00  0.00     0.141 A 
ATOM     12  C   UNL A   1      44.161  25.677  33.978  1.00  0.00     0.044 C 
ATOM     13  C   UNL A   1      44.821  25.953  32.662  1.00  0.00    -0.046 A 
ATOM     14  C   UNL A   1      43.969  26.580  31.655  1.00  0.00     0.022 A 
ATOM     15  C   UNL A   1      46.118  25.667  32.397  1.00  0.00     0.053 A 
ATOM     16  C   UNL A   1      44.487  26.862  30.451  1.00  0.00     0.095 A 
ATOM     17  C   UNL A   1      46.675  25.998  31.128  1.00  0.00     0.161 A 
ATOM     18  N   UNL A   1      45.825  26.564  30.199  1.00  0.00    -0.286 N 
ATOM     19  N   UNL A   1      47.887  25.924  30.616  1.00  0.00    -0.130 NA
ATOM     20  N   UNL A   1      47.849  26.467  29.339  1.00  0.00    -0.134 NA
ENDBRANCH   9  11
ENDBRANCH   5   8
ENDBRANCH   3   4
ENDBRANCH   2   3
ENDBRANCH   1   2
BRANCH   1  21
ATOM     21  C   UNL A   1      43.155  21.998  25.737  1.00  0.00     0.116 C 
BRANCH  21  22
ATOM     22  N   UNL A   1      41.776  21.840  26.157  1.00  0.00    -0.352 N 
ATOM     23  C   UNL A   1      40.803  22.686  26.617  1.00  0.00     0.251 C 
ATOM     24  H   UNL A   1      41.466  20.907  26.097  1.00  0.00     0.163 HD
ATOM     25  O   UNL A   1      39.674  22.203  26.734  1.00  0.00    -0.269 OA
BRANCH  23  26
ATOM     26  C   UNL A   1      41.023  24.096  27.038  1.00  0.00     0.039 A 
ATOM     27  C   UNL A   1      41.680  24.491  28.202  1.00  0.00     0.014 A 
ATOM     28  C   UNL A   1      40.447  25.092  26.226  1.00  0.00     0.014 A 
ATOM     29  C   UNL A   1      41.650  25.815  28.615  1.00  0.00     0.010 A 
ATOM     30  C   UNL A   1      40.443  26.428  26.617  1.00  0.00     0.010 A 
ATOM     31  C   UNL A   1      40.993  26.777  27.845  1.00  0.00    -0.014 A 
BRANCH  31  32
ATOM     32  C   UNL A   1      40.947  28.132  28.386  1.00  0.00     0.031 A 
ATOM     33  C   UNL A   1      42.057  29.040  27.974  1.00  0.00     0.074 A 
ATOM     34  C   UNL A   1      39.953  28.568  29.184  1.00  0.00     0.049 A 
ATOM     35  N   UNL A   1      42.908  29.672  28.720  1.00  0.00    -0.248 NA
ATOM     36  C   UNL A   1      42.287  29.206  26.530  1.00  0.00     0.031 C 
ATOM     37  C   UNL A   1      38.674  27.920  29.482  1.00  0.00     0.029 A 
ATOM     38  N   UNL A   1      39.860  29.756  29.844  1.00  0.00    -0.354 N 
ATOM     39  C   UNL A   1      43.703  30.422  27.853  1.00  0.00     0.074 A 
ATOM     40  C   UNL A   1      43.335  30.030  26.517  1.00  0.00     0.031 C 
ATOM     41  C   UNL A   1      37.853  28.811  30.082  1.00  0.00     0.029 A 
ATOM     42  C   UNL A   1      38.596  30.034  30.335  1.00  0.00     0.049 A 
ATOM     43  H   UNL A   1      40.626  30.365  29.960  1.00  0.00     0.167 HD
ATOM     44  C   UNL A   1      44.516  31.426  28.285  1.00  0.00     0.037 A 
ATOM     45  C   UNL A   1      38.176  31.214  30.847  1.00  0.00     0.037 A 
ATOM     46  C   UNL A   1      44.813  31.315  29.685  1.00  0.00     0.049 A 
ATOM     47  C   UNL A   1      39.372  31.985  31.256  1.00  0.00     0.074 A 
ATOM     48  C   UNL A   1      45.518  30.420  30.463  1.00  0.00     0.029 A 
ATOM     49  N   UNL A   1      44.110  32.095  30.565  1.00  0.00    -0.354 N 
ATOM     50  N   UNL A   1      40.141  31.674  32.260  1.00  0.00    -0.248 NA
ATOM     51  C   UNL A   1      39.941  32.924  30.302  1.00  0.00     0.031 C 
ATOM     52  C   UNL A   1      44.840  30.401  31.718  1.00  0.00     0.029 A 
ATOM     53  C   UNL A   1      43.778  31.301  31.632  1.00  0.00     0.049 A 
ATOM     54  H   UNL A   1      43.886  33.046  30.452  1.00  0.00     0.167 HD
ATOM     55  C   UNL A   1      41.416  32.038  31.854  1.00  0.00     0.074 A 
ATOM     56  C   UNL A   1      41.214  32.906  30.702  1.00  0.00     0.031 C 
ATOM     57  C   UNL A   1      42.515  31.383  32.327  1.00  0.00     0.037 A 
BRANCH  44  58
ATOM     58  C   UNL A   1      44.826  32.669  27.490  1.00  0.00     0.064 A 
ATOM     59  C   UNL A   1      46.057  32.789  26.816  1.00  0.00     0.173 A 
ATOM     60  C   UNL A   1      44.075  33.859  27.600  1.00  0.00     0.173 A 
ATOM     61  F   UNL A   1      46.869  31.728  26.681  1.00  0.00    -0.203 F 
ATOM     62  C   UNL A   1      46.522  34.017  26.336  1.00  0.00     0.198 A 
ATOM     63  C   UNL A   1      44.518  35.073  27.074  1.00  0.00     0.198 A 
ATOM     64  F   UNL A   1      42.940  33.914  28.310  1.00  0.00    -0.203 F 
ATOM     65  F   UNL A   1      47.748  34.102  25.799  1.00  0.00    -0.200 F 
ATOM     66  C   UNL A   1      45.753  35.158  26.467  1.00  0.00     0.200 A 
ATOM     67  F   UNL A   1      43.766  36.172  27.230  1.00  0.00    -0.200 F 
ATOM     68  F   UNL A   1      46.219  36.346  26.057  1.00  0.00    -0.200 F 
ENDBRANCH  44  58
BRANCH  45  69
ATOM     69  C   UNL A   1      36.846  31.847  30.697  1.00  0.00     0.064 A 
ATOM     70  C   UNL A   1      36.006  32.029  31.807  1.00  0.00     0.173 A 
ATOM     71  C   UNL A   1      36.501  32.546  29.524  1.00  0.00     0.173 A 
ATOM     72  F   UNL A   1      36.290  31.429  32.972  1.00  0.00    -0.203 F 
ATOM     73  C   UNL A   1      34.908  32.891  31.757  1.00  0.00     0.198 A 
ATOM     74  C   UNL A   1      35.399  33.398  29.474  1.00  0.00     0.198 A 
ATOM     75  F   UNL A   1      37.284  32.498  28.438  1.00  0.00    -0.203 F 
ATOM     76  F   UNL A   1      34.169  33.097  32.857  1.00  0.00    -0.200 F 
ATOM     77  C   UNL A   1      34.613  33.584  30.595  1.00  0.00     0.200 A 
ATOM     78  F   UNL A   1      35.146  34.091  28.353  1.00  0.00    -0.200 F 
ATOM     79  F   UNL A   1      33.600  34.463  30.567  1.00  0.00    -0.200 F 
ENDBRANCH  45  69
BRANCH  57  80
ATOM     80  C   UNL A   1      42.319  30.468  33.504  1.00  0.00     0.064 A 
ATOM     81  C   UNL A   1      42.447  30.882  34.842  1.00  0.00     0.173 A 
ATOM     82  C   UNL A   1      41.870  29.162  33.273  1.00  0.00     0.173 A 
ATOM     83  F   UNL A   1      42.764  32.147  35.145  1.00  0.00    -0.203 F 
ATOM     84  C   UNL A   1      42.197  30.006  35.897  1.00  0.00     0.198 A 
ATOM     85  C   UNL A   1      41.583  28.300  34.329  1.00  0.00     0.198 A 
ATOM     86  F   UNL A   1      41.668  28.731  32.018  1.00  0.00    -0.203 F 
ATOM     87  F   UNL A   1      42.347  30.418  37.164  1.00  0.00    -0.200 F 
ATOM     88  C   UNL A   1      41.760  28.717  35.639  1.00  0.00     0.200 A 
ATOM     89  F   UNL A   1      41.109  27.072  34.077  1.00  0.00    -0.200 F 
ATOM     90  F   UNL A   1      41.482  27.885  36.653  1.00  0.00    -0.200 F 
ENDBRANCH  57  80
ENDBRANCH  31  32
ENDBRANCH  23  26
ENDBRANCH  21  22
ENDBRANCH   1  21
TORSDOF 12
ENDMDL
MODEL 3
REMARK VINA RESULT:     -13.6      0.468      1.682
REMARK SMILES Cc1ccn2c([C@H]3C[C@@H]3C(=O)NCCCCNC(=O)c3ccc(-c4c5nc(c(-c6c(F)c(F)c(F)c(F)c6F)c6ccc([nH]6)c(-c6c(F)c(F)c(F)c(F)c6F)c6nc(c(-c7c(F)c(F)c(F)c(F)c7F)c7ccc4[nH]7)C=C6)C=C5)cc3)nnc2c1
REMARK SMILES IDX 15 1 14 2 13 3 12 4 10 5 11 6 9 8 7 9 8 10 6 11 1 12 2 13
REMARK SMILES IDX 3 14 86 15 4 16 85 17 5 18 84 19 83 20 16 21 17 22 18 23
REMARK SMILES IDX 19 25 20 26 21 27 82 28 22 29 81 30 23 31 24 32 25 33 75 34
REMARK SMILES IDX 26 35 80 36 74 37 76 38 27 39 79 40 73 41 72 42 28 44 60 45
REMARK SMILES IDX 40 46 59 47 41 48 44 49 58 50 77 51 42 52 43 53 57 55 78 56
REMARK SMILES IDX 45 57 29 58 30 59 38 60 31 61 32 62 36 63 39 64 33 65 34 66
REMARK SMILES IDX 37 67 35 68 61 69 62 70 70 71 63 72 64 73 68 74 71 75 65 76
REMARK SMILES IDX 66 77 69 78 67 79 46 80 47 81 55 82 48 83 49 84 53 85 56 86
REMARK SMILES IDX 50 87 51 88 54 89 52 90
REMARK H PARENT 12 7 17 24 76 43 44 54
REMARK Flexibility Score: inf
ROOT
ATOM      1  C   UNL A   1      37.378  22.233  25.095  1.00  0.00     0.023 C 
ENDROOT
BRANCH   1   2
ATOM      2  C   UNL A   1      36.135  21.569  25.679  1.00  0.00     0.023 C 
BRANCH   2   3
ATOM      3  C   UNL A   1      35.707  20.272  25.014  1.00  0.00     0.116 C 
BRANCH   3   4
ATOM      4  N   UNL A   1      34.316  19.923  25.239  1.00  0.00    -0.356 N 
ATOM      5  C   UNL A   1      33.144  20.303  24.615  1.00  0.00     0.223 C 
ATOM      6  O   UNL A   1      32.104  19.801  25.010  1.00  0.00    -0.275 OA
ATOM      7  H   UNL A   1      34.182  19.292  25.982  1.00  0.00     0.163 HD
BRANCH   5   8
ATOM      8  C   UNL A   1      33.084  21.282  23.484  1.00  0.00     0.090 C 
ATOM      9  C   UNL A   1      32.190  22.485  23.500  1.00  0.00     0.071 C 
ATOM     10  C   UNL A   1      31.908  21.328  22.559  1.00  0.00     0.026 C 
BRANCH   9  11
ATOM     11  C   UNL A   1      32.452  23.818  22.843  1.00  0.00     0.141 A 
ATOM     12  C   UNL A   1      29.501  28.550  22.924  1.00  0.00     0.044 C 
ATOM     13  C   UNL A   1      30.315  27.294  22.915  1.00  0.00    -0.046 A 
ATOM     14  C   UNL A   1      29.774  26.192  23.708  1.00  0.00     0.022 A 
ATOM     15  C   UNL A   1      31.470  27.151  22.221  1.00  0.00     0.053 A 
ATOM     16  C   UNL A   1      30.444  25.032  23.749  1.00  0.00     0.095 A 
ATOM     17  C   UNL A   1      32.163  25.906  22.241  1.00  0.00     0.161 A 
ATOM     18  N   UNL A   1      31.627  24.903  23.024  1.00  0.00    -0.286 N 
ATOM     19  N   UNL A   1      33.231  25.446  21.621  1.00  0.00    -0.130 NA
ATOM     20  N   UNL A   1      33.397  24.115  21.980  1.00  0.00    -0.134 NA
ENDBRANCH   9  11
ENDBRANCH   5   8
ENDBRANCH   3   4
ENDBRANCH   2   3
ENDBRANCH   1   2
BRANCH   1  21
ATOM     21  C   UNL A   1      38.363  22.802  26.122  1.00  0.00     0.116 C 
BRANCH  21  22
ATOM     22  N   UNL A   1      39.742  22.395  25.926  1.00  0.00    -0.352 N 
ATOM     23  C   UNL A   1      40.960  22.916  26.269  1.00  0.00     0.251 C 
ATOM     24  H   UNL A   1      39.820  21.547  25.433  1.00  0.00     0.163 HD
ATOM     25  O   UNL A   1      41.938  22.194  26.058  1.00  0.00    -0.269 OA
BRANCH  23  26
ATOM     26  C   UNL A   1      41.186  24.286  26.803  1.00  0.00     0.039 A 
ATOM     27  C   UNL A   1      41.729  24.580  28.053  1.00  0.00     0.014 A 
ATOM     28  C   UNL A   1      40.739  25.355  26.001  1.00  0.00     0.014 A 
ATOM     29  C   UNL A   1      41.703  25.876  28.546  1.00  0.00     0.010 A 
ATOM     30  C   UNL A   1      40.744  26.663  26.477  1.00  0.00     0.010 A 
ATOM     31  C   UNL A   1      41.171  26.911  27.777  1.00  0.00    -0.014 A 
BRANCH  31  32
ATOM     32  C   UNL A   1      41.117  28.231  28.398  1.00  0.00     0.031 A 
ATOM     33  C   UNL A   1      42.272  29.134  28.117  1.00  0.00     0.074 A 
ATOM     34  C   UNL A   1      40.082  28.643  29.154  1.00  0.00     0.049 A 
ATOM     35  N   UNL A   1      43.085  29.697  28.956  1.00  0.00    -0.248 NA
ATOM     36  C   UNL A   1      42.603  29.382  26.705  1.00  0.00     0.031 C 
ATOM     37  C   UNL A   1      38.772  28.011  29.327  1.00  0.00     0.029 A 
ATOM     38  N   UNL A   1      39.971  29.791  29.880  1.00  0.00    -0.354 N 
ATOM     39  C   UNL A   1      43.952  30.478  28.192  1.00  0.00     0.074 A 
ATOM     40  C   UNL A   1      43.667  30.178  26.812  1.00  0.00     0.031 C 
ATOM     41  C   UNL A   1      37.932  28.885  29.926  1.00  0.00     0.029 A 
ATOM     42  C   UNL A   1      38.682  30.071  30.303  1.00  0.00     0.049 A 
ATOM     43  H   UNL A   1      40.740  30.371  30.085  1.00  0.00     0.167 HD
ATOM     44  C   UNL A   1      44.756  31.432  28.739  1.00  0.00     0.037 A 
ATOM     45  C   UNL A   1      38.255  31.227  30.860  1.00  0.00     0.037 A 
ATOM     46  C   UNL A   1      44.956  31.228  30.145  1.00  0.00     0.049 A 
ATOM     47  C   UNL A   1      39.438  31.941  31.395  1.00  0.00     0.074 A 
ATOM     48  C   UNL A   1      45.587  30.269  30.911  1.00  0.00     0.029 A 
ATOM     49  N   UNL A   1      44.212  31.970  31.025  1.00  0.00    -0.354 N 
ATOM     50  N   UNL A   1      40.130  31.549  32.426  1.00  0.00    -0.248 NA
ATOM     51  C   UNL A   1      40.089  32.921  30.541  1.00  0.00     0.031 C 
ATOM     52  C   UNL A   1      44.827  30.190  32.114  1.00  0.00     0.029 A 
ATOM     53  C   UNL A   1      43.792  31.121  32.015  1.00  0.00     0.049 A 
ATOM     54  H   UNL A   1      44.017  32.932  30.958  1.00  0.00     0.167 HD
ATOM     55  C   UNL A   1      41.437  31.904  32.128  1.00  0.00     0.074 A 
ATOM     56  C   UNL A   1      41.332  32.846  31.021  1.00  0.00     0.031 C 
ATOM     57  C   UNL A   1      42.488  31.193  32.630  1.00  0.00     0.037 A 
BRANCH  44  58
ATOM     58  C   UNL A   1      45.145  32.714  28.046  1.00  0.00     0.064 A 
ATOM     59  C   UNL A   1      44.186  33.724  27.837  1.00  0.00     0.173 A 
ATOM     60  C   UNL A   1      46.354  32.866  27.334  1.00  0.00     0.173 A 
ATOM     61  F   UNL A   1      42.987  33.664  28.438  1.00  0.00    -0.203 F 
ATOM     62  C   UNL A   1      44.402  34.777  26.942  1.00  0.00     0.198 A 
ATOM     63  C   UNL A   1      46.587  33.945  26.482  1.00  0.00     0.198 A 
ATOM     64  F   UNL A   1      47.308  31.926  27.354  1.00  0.00    -0.203 F 
ATOM     65  F   UNL A   1      43.419  35.653  26.693  1.00  0.00    -0.200 F 
ATOM     66  C   UNL A   1      45.602  34.885  26.264  1.00  0.00     0.200 A 
ATOM     67  F   UNL A   1      47.750  34.021  25.818  1.00  0.00    -0.200 F 
ATOM     68  F   UNL A   1      45.792  35.862  25.366  1.00  0.00    -0.200 F 
ENDBRANCH  44  58
BRANCH  45  69
ATOM     69  C   UNL A   1      36.952  31.902  30.663  1.00  0.00     0.064 A 
ATOM     70  C   UNL A   1      35.997  31.938  31.691  1.00  0.00     0.173 A 
ATOM     71  C   UNL A   1      36.740  32.772  29.575  1.00  0.00     0.173 A 
ATOM     72  F   UNL A   1      36.149  31.169  32.780  1.00  0.00    -0.203 F 
ATOM     73  C   UNL A   1      34.914  32.820  31.651  1.00  0.00     0.198 A 
ATOM     74  C   UNL A   1      35.654  33.644  29.533  1.00  0.00     0.198 A 
ATOM     75  F   UNL A   1      37.637  32.866  28.584  1.00  0.00    -0.203 F 
ATOM     76  F   UNL A   1      34.062  32.879  32.684  1.00  0.00    -0.200 F 
ATOM     77  C   UNL A   1      34.751  33.681  30.578  1.00  0.00     0.200 A 
ATOM     78  F   UNL A   1      35.528  34.497  28.505  1.00  0.00    -0.200 F 
ATOM     79  F   UNL A   1      33.751  34.575  30.572  1.00  0.00    -0.200 F 
ENDBRANCH  45  69
BRANCH  57  80
ATOM     80  C   UNL A   1      42.193  30.213  33.732  1.00  0.00     0.064 A 
ATOM     81  C   UNL A   1      41.751  28.897  33.507  1.00  0.00     0.173 A 
ATOM     82  C   UNL A   1      42.480  30.581  35.052  1.00  0.00     0.173 A 
ATOM     83  F   UNL A   1      41.561  28.437  32.264  1.00  0.00    -0.203 F 
ATOM     84  C   UNL A   1      41.547  28.013  34.565  1.00  0.00     0.198 A 
ATOM     85  C   UNL A   1      42.313  29.682  36.104  1.00  0.00     0.198 A 
ATOM     86  F   UNL A   1      42.965  31.803  35.321  1.00  0.00    -0.203 F 
ATOM     87  F   UNL A   1      41.105  26.769  34.326  1.00  0.00    -0.200 F 
ATOM     88  C   UNL A   1      41.834  28.405  35.861  1.00  0.00     0.200 A 
ATOM     89  F   UNL A   1      42.643  30.047  37.350  1.00  0.00    -0.200 F 
ATOM     90  F   UNL A   1      41.676  27.543  36.876  1.00  0.00    -0.200 F 
ENDBRANCH  57  80
ENDBRANCH  31  32
ENDBRANCH  23  26
ENDBRANCH  21  22
ENDBRANCH   1  21
TORSDOF 12
ENDMDL
