MODEL 1
REMARK VINA RESULT:     -11.5      0.000      0.000
REMARK SMILES C[C@@H](CC(=O)NCCCCNC(=O)c1ccc(-c2c3nc(c(-c4c(F)c(F)c(F)c(F)c4F)c4ccc([nH]4)c(-c4c(F)c(F)c(F)c(F)c4F)c4nc(c(-c5c(F)c(F)c(F)c(F)c5F)c5ccc2[nH]5)C=C4)C=C3)cc1)CC(=O)NC[C@@]1(C)CCCO1
REMARK SMILES IDX 7 1 6 2 4 3 5 4 3 6 2 7 1 8 77 9 78 10 79 11 80 12 81 14
REMARK SMILES IDX 82 15 83 16 84 17 87 18 85 19 86 20 8 21 9 22 10 23 11 24
REMARK SMILES IDX 12 25 13 27 14 28 15 29 76 30 16 31 75 32 17 33 18 34 19 35
REMARK SMILES IDX 69 36 20 37 74 38 68 39 70 40 21 41 73 42 67 43 66 44 22 46
REMARK SMILES IDX 54 47 34 48 53 49 35 50 38 51 52 52 71 53 36 54 37 55 51 57
REMARK SMILES IDX 72 58 39 59 23 60 24 61 32 62 25 63 26 64 30 65 33 66 27 67
REMARK SMILES IDX 28 68 31 69 29 70 55 71 56 72 64 73 57 74 58 75 62 76 65 77
REMARK SMILES IDX 59 78 60 79 63 80 61 81 40 82 41 83 49 84 42 85 43 86 47 87
REMARK SMILES IDX 50 88 44 89 45 90 48 91 46 92
REMARK H PARENT 6 5 80 13 11 26 70 45 38 56
REMARK Flexibility Score: inf
ROOT
ATOM      1  C   UNL A   1      36.817  23.672  25.885  1.00  0.00     0.116 C 
ENDROOT
BRANCH   1   2
ATOM      2  N   UNL A   1      35.903  22.930  26.728  1.00  0.00    -0.356 N 
ATOM      3  C   UNL A   1      34.551  23.045  26.865  1.00  0.00     0.220 C 
ATOM      4  O   UNL A   1      34.003  22.414  27.768  1.00  0.00    -0.275 OA
ATOM      5  H   UNL A   1      36.321  22.238  27.290  1.00  0.00     0.163 HD
BRANCH   3   6
ATOM      6  C   UNL A   1      33.743  23.901  25.904  1.00  0.00     0.103 C 
BRANCH   6   7
ATOM      7  C   UNL A   1      33.589  23.431  24.436  1.00  0.00     0.004 C 
ATOM      8  C   UNL A   1      34.015  24.559  23.493  1.00  0.00     0.009 C 
BRANCH   7   9
ATOM      9  C   UNL A   1      32.224  22.811  24.088  1.00  0.00     0.103 C 
BRANCH   9  10
ATOM     10  C   UNL A   1      31.687  21.835  25.127  1.00  0.00     0.220 C 
ATOM     11  O   UNL A   1      30.809  22.172  25.920  1.00  0.00    -0.275 OA
ATOM     12  N   UNL A   1      32.188  20.564  25.205  1.00  0.00    -0.353 N 
ATOM     13  H   UNL A   1      31.787  19.996  25.902  1.00  0.00     0.163 HD
BRANCH  12  14
ATOM     14  C   UNL A   1      33.229  19.928  24.408  1.00  0.00     0.151 C 
BRANCH  14  15
ATOM     15  C   UNL A   1      33.130  18.388  24.218  1.00  0.00     0.083 C 
ATOM     16  C   UNL A   1      32.527  18.077  22.831  1.00  0.00     0.044 C 
ATOM     17  C   UNL A   1      34.410  17.595  24.462  1.00  0.00     0.039 C 
ATOM     18  O   UNL A   1      32.218  17.845  25.197  1.00  0.00    -0.373 OA
ATOM     19  C   UNL A   1      33.890  16.203  24.748  1.00  0.00     0.031 C 
ATOM     20  C   UNL A   1      32.528  16.453  25.376  1.00  0.00     0.161 C 
ENDBRANCH  14  15
ENDBRANCH  12  14
ENDBRANCH   9  10
ENDBRANCH   7   9
ENDBRANCH   6   7
ENDBRANCH   3   6
ENDBRANCH   1   2
BRANCH   1  21
ATOM     21  C   UNL A   1      37.373  22.772  24.785  1.00  0.00     0.023 C 
BRANCH  21  22
ATOM     22  C   UNL A   1      37.776  21.371  25.213  1.00  0.00     0.023 C 
BRANCH  22  23
ATOM     23  C   UNL A   1      39.109  21.299  25.936  1.00  0.00     0.116 C 
BRANCH  23  24
ATOM     24  N   UNL A   1      39.740  19.981  25.905  1.00  0.00    -0.352 N 
ATOM     25  C   UNL A   1      41.062  19.651  26.116  1.00  0.00     0.251 C 
ATOM     26  H   UNL A   1      39.138  19.226  25.707  1.00  0.00     0.163 HD
ATOM     27  O   UNL A   1      41.450  18.494  26.006  1.00  0.00    -0.269 OA
BRANCH  25  28
ATOM     28  C   UNL A   1      42.013  20.736  26.422  1.00  0.00     0.039 A 
ATOM     29  C   UNL A   1      42.534  21.500  25.375  1.00  0.00     0.014 A 
ATOM     30  C   UNL A   1      42.245  21.091  27.750  1.00  0.00     0.014 A 
ATOM     31  C   UNL A   1      43.178  22.704  25.665  1.00  0.00     0.010 A 
ATOM     32  C   UNL A   1      42.780  22.340  28.027  1.00  0.00     0.010 A 
ATOM     33  C   UNL A   1      43.233  23.170  26.989  1.00  0.00    -0.014 A 
BRANCH  33  34
ATOM     34  C   UNL A   1      43.729  24.527  27.338  1.00  0.00     0.031 A 
ATOM     35  C   UNL A   1      42.758  25.553  27.853  1.00  0.00     0.074 A 
ATOM     36  C   UNL A   1      45.000  24.879  27.060  1.00  0.00     0.049 A 
ATOM     37  N   UNL A   1      42.909  26.845  27.986  1.00  0.00    -0.248 NA
ATOM     38  C   UNL A   1      41.418  25.063  28.212  1.00  0.00     0.031 C 
ATOM     39  C   UNL A   1      46.028  23.997  26.504  1.00  0.00     0.029 A 
ATOM     40  N   UNL A   1      45.638  26.090  27.185  1.00  0.00    -0.354 N 
ATOM     41  C   UNL A   1      41.669  27.326  28.385  1.00  0.00     0.074 A 
ATOM     42  C   UNL A   1      40.768  26.195  28.431  1.00  0.00     0.031 C 
ATOM     43  C   UNL A   1      47.172  24.687  26.359  1.00  0.00     0.029 A 
ATOM     44  C   UNL A   1      46.945  26.072  26.761  1.00  0.00     0.049 A 
ATOM     45  H   UNL A   1      45.199  26.895  27.544  1.00  0.00     0.167 HD
ATOM     46  C   UNL A   1      41.319  28.593  28.705  1.00  0.00     0.037 A 
ATOM     47  C   UNL A   1      47.853  27.064  26.692  1.00  0.00     0.037 A 
ATOM     48  C   UNL A   1      42.236  29.700  28.733  1.00  0.00     0.049 A 
ATOM     49  C   UNL A   1      47.456  28.453  27.111  1.00  0.00     0.074 A 
ATOM     50  C   UNL A   1      42.003  31.005  29.126  1.00  0.00     0.029 A 
ATOM     51  N   UNL A   1      43.572  29.622  28.368  1.00  0.00    -0.354 N 
ATOM     52  N   UNL A   1      46.292  28.889  27.528  1.00  0.00    -0.248 NA
ATOM     53  C   UNL A   1      48.496  29.490  27.046  1.00  0.00     0.031 C 
ATOM     54  C   UNL A   1      43.194  31.723  28.980  1.00  0.00     0.029 A 
ATOM     55  C   UNL A   1      44.175  30.858  28.527  1.00  0.00     0.049 A 
ATOM     56  H   UNL A   1      44.024  28.808  28.045  1.00  0.00     0.167 HD
ATOM     57  C   UNL A   1      46.467  30.238  27.804  1.00  0.00     0.074 A 
ATOM     58  C   UNL A   1      47.851  30.550  27.512  1.00  0.00     0.031 C 
ATOM     59  C   UNL A   1      45.561  31.138  28.255  1.00  0.00     0.037 A 
BRANCH  46  60
ATOM     60  C   UNL A   1      39.886  28.843  29.066  1.00  0.00     0.064 A 
ATOM     61  C   UNL A   1      39.427  28.724  30.386  1.00  0.00     0.173 A 
ATOM     62  C   UNL A   1      38.960  29.221  28.080  1.00  0.00     0.173 A 
ATOM     63  F   UNL A   1      40.269  28.350  31.362  1.00  0.00    -0.203 F 
ATOM     64  C   UNL A   1      38.088  28.939  30.702  1.00  0.00     0.198 A 
ATOM     65  C   UNL A   1      37.629  29.465  28.405  1.00  0.00     0.198 A 
ATOM     66  F   UNL A   1      39.348  29.353  26.803  1.00  0.00    -0.203 F 
ATOM     67  F   UNL A   1      37.662  28.762  31.959  1.00  0.00    -0.200 F 
ATOM     68  C   UNL A   1      37.192  29.315  29.713  1.00  0.00     0.200 A 
ATOM     69  F   UNL A   1      36.765  29.839  27.450  1.00  0.00    -0.200 F 
ATOM     70  F   UNL A   1      35.904  29.523  30.018  1.00  0.00    -0.200 F 
ENDBRANCH  46  60
BRANCH  47  71
ATOM     71  C   UNL A   1      49.237  26.778  26.231  1.00  0.00     0.064 A 
ATOM     72  C   UNL A   1      49.600  26.986  24.893  1.00  0.00     0.173 A 
ATOM     73  C   UNL A   1      50.219  26.291  27.106  1.00  0.00     0.173 A 
ATOM     74  F   UNL A   1      48.689  27.431  24.016  1.00  0.00    -0.203 F 
ATOM     75  C   UNL A   1      50.886  26.700  24.443  1.00  0.00     0.198 A 
ATOM     76  C   UNL A   1      51.512  26.027  26.659  1.00  0.00     0.198 A 
ATOM     77  F   UNL A   1      49.923  26.081  28.397  1.00  0.00    -0.203 F 
ATOM     78  F   UNL A   1      51.193  26.869  23.150  1.00  0.00    -0.200 F 
ATOM     79  C   UNL A   1      51.843  26.226  25.326  1.00  0.00     0.200 A 
ATOM     80  F   UNL A   1      52.437  25.580  27.518  1.00  0.00    -0.200 F 
ATOM     81  F   UNL A   1      53.081  25.951  24.893  1.00  0.00    -0.200 F 
ENDBRANCH  47  71
BRANCH  59  82
ATOM     82  C   UNL A   1      46.042  32.534  28.511  1.00  0.00     0.064 A 
ATOM     83  C   UNL A   1      45.978  33.525  27.521  1.00  0.00     0.173 A 
ATOM     84  C   UNL A   1      46.509  32.898  29.783  1.00  0.00     0.173 A 
ATOM     85  F   UNL A   1      45.553  33.218  26.286  1.00  0.00    -0.203 F 
ATOM     86  C   UNL A   1      46.372  34.830  27.795  1.00  0.00     0.198 A 
ATOM     87  C   UNL A   1      46.880  34.209  30.059  1.00  0.00     0.198 A 
ATOM     88  F   UNL A   1      46.583  31.984  30.762  1.00  0.00    -0.203 F 
ATOM     89  F   UNL A   1      46.329  35.758  26.828  1.00  0.00    -0.200 F 
ATOM     90  C   UNL A   1      46.814  35.174  29.064  1.00  0.00     0.200 A 
ATOM     91  F   UNL A   1      47.296  34.542  31.288  1.00  0.00    -0.200 F 
ATOM     92  F   UNL A   1      47.180  36.436  29.330  1.00  0.00    -0.200 F 
ENDBRANCH  59  82
ENDBRANCH  33  34
ENDBRANCH  25  28
ENDBRANCH  23  24
ENDBRANCH  22  23
ENDBRANCH  21  22
ENDBRANCH   1  21
TORSDOF 16
ENDMDL
MODEL 2
REMARK VINA RESULT:     -11.5      6.351     11.509
REMARK SMILES C[C@@H](CC(=O)NCCCCNC(=O)c1ccc(-c2c3nc(c(-c4c(F)c(F)c(F)c(F)c4F)c4ccc([nH]4)c(-c4c(F)c(F)c(F)c(F)c4F)c4nc(c(-c5c(F)c(F)c(F)c(F)c5F)c5ccc2[nH]5)C=C4)C=C3)cc1)CC(=O)NC[C@@]1(C)CCCO1
REMARK SMILES IDX 7 1 6 2 4 3 5 4 3 6 2 7 1 8 77 9 78 10 79 11 80 12 81 14
REMARK SMILES IDX 82 15 83 16 84 17 87 18 85 19 86 20 8 21 9 22 10 23 11 24
REMARK SMILES IDX 12 25 13 27 14 28 15 29 76 30 16 31 75 32 17 33 18 34 19 35
REMARK SMILES IDX 69 36 20 37 74 38 68 39 70 40 21 41 73 42 67 43 66 44 22 46
REMARK SMILES IDX 54 47 34 48 53 49 35 50 38 51 52 52 71 53 36 54 37 55 51 57
REMARK SMILES IDX 72 58 39 59 23 60 24 61 32 62 25 63 26 64 30 65 33 66 27 67
REMARK SMILES IDX 28 68 31 69 29 70 55 71 56 72 64 73 57 74 58 75 62 76 65 77
REMARK SMILES IDX 59 78 60 79 63 80 61 81 40 82 41 83 49 84 42 85 43 86 47 87
REMARK SMILES IDX 50 88 44 89 45 90 48 91 46 92
REMARK H PARENT 6 5 80 13 11 26 70 45 38 56
REMARK Flexibility Score: inf
ROOT
ATOM      1  C   UNL A   1      31.959  28.381  27.627  1.00  0.00     0.116 C 
ENDROOT
BRANCH   1   2
ATOM      2  N   UNL A   1      31.033  27.412  27.081  1.00  0.00    -0.356 N 
ATOM      3  C   UNL A   1      31.249  26.403  26.189  1.00  0.00     0.220 C 
ATOM      4  O   UNL A   1      30.271  25.803  25.742  1.00  0.00    -0.275 OA
ATOM      5  H   UNL A   1      30.105  27.493  27.401  1.00  0.00     0.163 HD
BRANCH   3   6
ATOM      6  C   UNL A   1      32.660  26.010  25.787  1.00  0.00     0.103 C 
BRANCH   6   7
ATOM      7  C   UNL A   1      33.101  26.217  24.315  1.00  0.00     0.004 C 
ATOM      8  C   UNL A   1      34.023  25.070  23.895  1.00  0.00     0.009 C 
BRANCH   7   9
ATOM      9  C   UNL A   1      33.657  27.614  23.990  1.00  0.00     0.103 C 
BRANCH   9  10
ATOM     10  C   UNL A   1      33.310  28.127  22.598  1.00  0.00     0.220 C 
ATOM     11  O   UNL A   1      33.998  27.830  21.622  1.00  0.00    -0.275 OA
ATOM     12  N   UNL A   1      32.228  28.944  22.412  1.00  0.00    -0.353 N 
ATOM     13  H   UNL A   1      32.073  29.230  21.483  1.00  0.00     0.163 HD
BRANCH  12  14
ATOM     14  C   UNL A   1      31.275  29.454  23.388  1.00  0.00     0.151 C 
BRANCH  14  15
ATOM     15  C   UNL A   1      29.788  29.543  22.942  1.00  0.00     0.083 C 
ATOM     16  C   UNL A   1      29.111  28.167  23.126  1.00  0.00     0.044 C 
ATOM     17  C   UNL A   1      28.961  30.661  23.568  1.00  0.00     0.039 C 
ATOM     18  O   UNL A   1      29.732  29.845  21.531  1.00  0.00    -0.373 OA
ATOM     19  C   UNL A   1      27.828  30.831  22.578  1.00  0.00     0.031 C 
ATOM     20  C   UNL A   1      28.452  30.438  21.250  1.00  0.00     0.161 C 
ENDBRANCH  14  15
ENDBRANCH  12  14
ENDBRANCH   9  10
ENDBRANCH   7   9
ENDBRANCH   6   7
ENDBRANCH   3   6
ENDBRANCH   1   2
BRANCH   1  21
ATOM     21  C   UNL A   1      31.779  29.732  26.941  1.00  0.00     0.023 C 
BRANCH  21  22
ATOM     22  C   UNL A   1      33.055  30.436  26.513  1.00  0.00     0.023 C 
BRANCH  22  23
ATOM     23  C   UNL A   1      33.597  31.418  27.537  1.00  0.00     0.116 C 
BRANCH  23  24
ATOM     24  N   UNL A   1      32.934  32.721  27.530  1.00  0.00    -0.352 N 
ATOM     25  C   UNL A   1      33.212  33.836  28.293  1.00  0.00     0.251 C 
ATOM     26  H   UNL A   1      32.189  32.816  26.893  1.00  0.00     0.163 HD
ATOM     27  O   UNL A   1      32.529  34.848  28.206  1.00  0.00    -0.269 OA
BRANCH  25  28
ATOM     28  C   UNL A   1      34.321  33.760  29.263  1.00  0.00     0.039 A 
ATOM     29  C   UNL A   1      34.121  33.098  30.476  1.00  0.00     0.014 A 
ATOM     30  C   UNL A   1      35.591  34.197  28.888  1.00  0.00     0.014 A 
ATOM     31  C   UNL A   1      35.227  32.753  31.255  1.00  0.00     0.010 A 
ATOM     32  C   UNL A   1      36.692  33.752  29.604  1.00  0.00     0.010 A 
ATOM     33  C   UNL A   1      36.525  33.007  30.783  1.00  0.00    -0.014 A 
BRANCH  33  34
ATOM     34  C   UNL A   1      37.739  32.494  31.470  1.00  0.00     0.031 A 
ATOM     35  C   UNL A   1      38.513  31.365  30.847  1.00  0.00     0.074 A 
ATOM     36  C   UNL A   1      38.060  32.934  32.703  1.00  0.00     0.049 A 
ATOM     37  N   UNL A   1      39.439  30.605  31.371  1.00  0.00    -0.248 NA
ATOM     38  C   UNL A   1      38.151  31.009  29.465  1.00  0.00     0.031 C 
ATOM     39  C   UNL A   1      37.359  33.982  33.446  1.00  0.00     0.029 A 
ATOM     40  N   UNL A   1      39.052  32.528  33.564  1.00  0.00    -0.354 N 
ATOM     41  C   UNL A   1      39.725  29.649  30.406  1.00  0.00     0.074 A 
ATOM     42  C   UNL A   1      38.846  29.898  29.284  1.00  0.00     0.031 C 
ATOM     43  C   UNL A   1      37.954  34.154  34.637  1.00  0.00     0.029 A 
ATOM     44  C   UNL A   1      39.046  33.195  34.766  1.00  0.00     0.049 A 
ATOM     45  H   UNL A   1      39.705  31.826  33.341  1.00  0.00     0.167 HD
ATOM     46  C   UNL A   1      40.653  28.664  30.443  1.00  0.00     0.037 A 
ATOM     47  C   UNL A   1      39.825  33.038  35.854  1.00  0.00     0.037 A 
ATOM     48  C   UNL A   1      41.578  28.470  31.527  1.00  0.00     0.049 A 
ATOM     49  C   UNL A   1      40.890  31.976  35.848  1.00  0.00     0.074 A 
ATOM     50  C   UNL A   1      42.612  27.557  31.626  1.00  0.00     0.029 A 
ATOM     51  N   UNL A   1      41.586  29.217  32.695  1.00  0.00    -0.354 N 
ATOM     52  N   UNL A   1      41.181  31.104  34.913  1.00  0.00    -0.248 NA
ATOM     53  C   UNL A   1      41.732  31.872  37.048  1.00  0.00     0.031 C 
ATOM     54  C   UNL A   1      43.236  27.739  32.864  1.00  0.00     0.029 A 
ATOM     55  C   UNL A   1      42.610  28.785  33.521  1.00  0.00     0.049 A 
ATOM     56  H   UNL A   1      40.959  29.947  32.905  1.00  0.00     0.167 HD
ATOM     57  C   UNL A   1      42.256  30.371  35.397  1.00  0.00     0.074 A 
ATOM     58  C   UNL A   1      42.570  30.903  36.707  1.00  0.00     0.031 C 
ATOM     59  C   UNL A   1      42.920  29.348  34.810  1.00  0.00     0.037 A 
BRANCH  46  60
ATOM     60  C   UNL A   1      40.722  27.735  29.269  1.00  0.00     0.064 A 
ATOM     61  C   UNL A   1      39.830  26.661  29.126  1.00  0.00     0.173 A 
ATOM     62  C   UNL A   1      41.685  27.928  28.266  1.00  0.00     0.173 A 
ATOM     63  F   UNL A   1      38.902  26.426  30.066  1.00  0.00    -0.203 F 
ATOM     64  C   UNL A   1      39.921  25.795  28.041  1.00  0.00     0.198 A 
ATOM     65  C   UNL A   1      41.753  27.077  27.167  1.00  0.00     0.198 A 
ATOM     66  F   UNL A   1      42.560  28.941  28.353  1.00  0.00    -0.203 F 
ATOM     67  F   UNL A   1      39.096  24.743  27.956  1.00  0.00    -0.200 F 
ATOM     68  C   UNL A   1      40.878  26.006  27.060  1.00  0.00     0.200 A 
ATOM     69  F   UNL A   1      42.671  27.288  26.213  1.00  0.00    -0.200 F 
ATOM     70  F   UNL A   1      40.963  25.171  26.015  1.00  0.00    -0.200 F 
ENDBRANCH  46  60
BRANCH  47  71
ATOM     71  C   UNL A   1      39.647  33.926  37.032  1.00  0.00     0.064 A 
ATOM     72  C   UNL A   1      38.851  33.523  38.114  1.00  0.00     0.173 A 
ATOM     73  C   UNL A   1      40.257  35.187  37.104  1.00  0.00     0.173 A 
ATOM     74  F   UNL A   1      38.232  32.334  38.081  1.00  0.00    -0.203 F 
ATOM     75  C   UNL A   1      38.657  34.354  39.214  1.00  0.00     0.198 A 
ATOM     76  C   UNL A   1      40.080  36.008  38.216  1.00  0.00     0.198 A 
ATOM     77  F   UNL A   1      41.032  35.616  36.097  1.00  0.00    -0.203 F 
ATOM     78  F   UNL A   1      37.858  33.960  40.215  1.00  0.00    -0.200 F 
ATOM     79  C   UNL A   1      39.275  35.593  39.267  1.00  0.00     0.200 A 
ATOM     80  F   UNL A   1      40.687  37.200  38.268  1.00  0.00    -0.200 F 
ATOM     81  F   UNL A   1      39.088  36.393  40.327  1.00  0.00    -0.200 F 
ENDBRANCH  47  71
BRANCH  59  82
ATOM     82  C   UNL A   1      44.085  28.764  35.551  1.00  0.00     0.064 A 
ATOM     83  C   UNL A   1      45.385  29.261  35.383  1.00  0.00     0.173 A 
ATOM     84  C   UNL A   1      43.883  27.743  36.491  1.00  0.00     0.173 A 
ATOM     85  F   UNL A   1      45.626  30.227  34.484  1.00  0.00    -0.203 F 
ATOM     86  C   UNL A   1      46.444  28.749  36.125  1.00  0.00     0.198 A 
ATOM     87  C   UNL A   1      44.941  27.249  37.247  1.00  0.00     0.198 A 
ATOM     88  F   UNL A   1      42.655  27.240  36.690  1.00  0.00    -0.203 F 
ATOM     89  F   UNL A   1      47.685  29.218  35.931  1.00  0.00    -0.200 F 
ATOM     90  C   UNL A   1      46.221  27.751  37.062  1.00  0.00     0.200 A 
ATOM     91  F   UNL A   1      44.721  26.293  38.160  1.00  0.00    -0.200 F 
ATOM     92  F   UNL A   1      47.241  27.268  37.786  1.00  0.00    -0.200 F 
ENDBRANCH  59  82
ENDBRANCH  33  34
ENDBRANCH  25  28
ENDBRANCH  23  24
ENDBRANCH  22  23
ENDBRANCH  21  22
ENDBRANCH   1  21
TORSDOF 16
ENDMDL
MODEL 3
REMARK VINA RESULT:     -11.4      4.881      9.934
REMARK SMILES C[C@@H](CC(=O)NCCCCNC(=O)c1ccc(-c2c3nc(c(-c4c(F)c(F)c(F)c(F)c4F)c4ccc([nH]4)c(-c4c(F)c(F)c(F)c(F)c4F)c4nc(c(-c5c(F)c(F)c(F)c(F)c5F)c5ccc2[nH]5)C=C4)C=C3)cc1)CC(=O)NC[C@@]1(C)CCCO1
REMARK SMILES IDX 7 1 6 2 4 3 5 4 3 6 2 7 1 8 77 9 78 10 79 11 80 12 81 14
REMARK SMILES IDX 82 15 83 16 84 17 87 18 85 19 86 20 8 21 9 22 10 23 11 24
REMARK SMILES IDX 12 25 13 27 14 28 15 29 76 30 16 31 75 32 17 33 18 34 19 35
REMARK SMILES IDX 69 36 20 37 74 38 68 39 70 40 21 41 73 42 67 43 66 44 22 46
REMARK SMILES IDX 54 47 34 48 53 49 35 50 38 51 52 52 71 53 36 54 37 55 51 57
REMARK SMILES IDX 72 58 39 59 23 60 24 61 32 62 25 63 26 64 30 65 33 66 27 67
REMARK SMILES IDX 28 68 31 69 29 70 55 71 56 72 64 73 57 74 58 75 62 76 65 77
REMARK SMILES IDX 59 78 60 79 63 80 61 81 40 82 41 83 49 84 42 85 43 86 47 87
REMARK SMILES IDX 50 88 44 89 45 90 48 91 46 92
REMARK H PARENT 6 5 80 13 11 26 70 45 38 56
REMARK Flexibility Score: inf
ROOT
ATOM      1  C   UNL A   1      31.533  26.291  25.892  1.00  0.00     0.116 C 
ENDROOT
BRANCH   1   2
ATOM      2  N   UNL A   1      31.351  25.217  26.845  1.00  0.00    -0.356 N 
ATOM      3  C   UNL A   1      31.734  23.910  26.774  1.00  0.00     0.220 C 
ATOM      4  O   UNL A   1      31.325  23.137  27.640  1.00  0.00    -0.275 OA
ATOM      5  H   UNL A   1      30.878  25.468  27.672  1.00  0.00     0.163 HD
BRANCH   3   6
ATOM      6  C   UNL A   1      32.668  23.433  25.674  1.00  0.00     0.103 C 
BRANCH   6   7
ATOM      7  C   UNL A   1      34.197  23.506  25.912  1.00  0.00     0.004 C 
ATOM      8  C   UNL A   1      34.905  23.792  24.585  1.00  0.00     0.009 C 
BRANCH   7   9
ATOM      9  C   UNL A   1      34.794  22.323  26.694  1.00  0.00     0.103 C 
BRANCH   9  10
ATOM     10  C   UNL A   1      35.637  21.370  25.857  1.00  0.00     0.220 C 
ATOM     11  O   UNL A   1      36.854  21.524  25.752  1.00  0.00    -0.275 OA
ATOM     12  N   UNL A   1      35.048  20.331  25.190  1.00  0.00    -0.353 N 
ATOM     13  H   UNL A   1      35.663  19.761  24.673  1.00  0.00     0.163 HD
BRANCH  12  14
ATOM     14  C   UNL A   1      33.646  19.944  25.132  1.00  0.00     0.151 C 
BRANCH  14  15
ATOM     15  C   UNL A   1      33.327  18.527  24.577  1.00  0.00     0.083 C 
ATOM     16  C   UNL A   1      32.443  18.653  23.317  1.00  0.00     0.044 C 
ATOM     17  C   UNL A   1      34.523  17.613  24.332  1.00  0.00     0.039 C 
ATOM     18  O   UNL A   1      32.553  17.797  25.553  1.00  0.00    -0.373 OA
ATOM     19  C   UNL A   1      33.899  16.234  24.353  1.00  0.00     0.031 C 
ATOM     20  C   UNL A   1      32.719  16.391  25.297  1.00  0.00     0.161 C 
ENDBRANCH  14  15
ENDBRANCH  12  14
ENDBRANCH   9  10
ENDBRANCH   7   9
ENDBRANCH   6   7
ENDBRANCH   3   6
ENDBRANCH   1   2
BRANCH   1  21
ATOM     21  C   UNL A   1      31.161  27.630  26.523  1.00  0.00     0.023 C 
BRANCH  21  22
ATOM     22  C   UNL A   1      32.293  28.385  27.198  1.00  0.00     0.023 C 
BRANCH  22  23
ATOM     23  C   UNL A   1      32.901  29.486  26.348  1.00  0.00     0.116 C 
BRANCH  23  24
ATOM     24  N   UNL A   1      32.567  30.839  26.789  1.00  0.00    -0.352 N 
ATOM     25  C   UNL A   1      33.367  31.760  27.432  1.00  0.00     0.251 C 
ATOM     26  H   UNL A   1      31.646  31.134  26.600  1.00  0.00     0.163 HD
ATOM     27  O   UNL A   1      32.924  32.846  27.785  1.00  0.00    -0.269 OA
BRANCH  25  28
ATOM     28  C   UNL A   1      34.760  31.382  27.740  1.00  0.00     0.039 A 
ATOM     29  C   UNL A   1      35.730  32.381  27.840  1.00  0.00     0.014 A 
ATOM     30  C   UNL A   1      35.050  30.065  28.091  1.00  0.00     0.014 A 
ATOM     31  C   UNL A   1      36.961  32.079  28.426  1.00  0.00     0.010 A 
ATOM     32  C   UNL A   1      36.227  29.797  28.775  1.00  0.00     0.010 A 
ATOM     33  C   UNL A   1      37.186  30.804  28.970  1.00  0.00    -0.014 A 
BRANCH  33  34
ATOM     34  C   UNL A   1      38.393  30.480  29.774  1.00  0.00     0.031 A 
ATOM     35  C   UNL A   1      39.401  29.509  29.225  1.00  0.00     0.074 A 
ATOM     36  C   UNL A   1      38.512  30.936  31.037  1.00  0.00     0.049 A 
ATOM     37  N   UNL A   1      40.384  28.899  29.836  1.00  0.00    -0.248 NA
ATOM     38  C   UNL A   1      39.244  29.133  27.811  1.00  0.00     0.031 C 
ATOM     39  C   UNL A   1      37.575  31.836  31.712  1.00  0.00     0.029 A 
ATOM     40  N   UNL A   1      39.465  30.677  31.993  1.00  0.00    -0.354 N 
ATOM     41  C   UNL A   1      40.920  28.026  28.898  1.00  0.00     0.074 A 
ATOM     42  C   UNL A   1      40.129  28.156  27.694  1.00  0.00     0.031 C 
ATOM     43  C   UNL A   1      38.011  32.074  32.960  1.00  0.00     0.029 A 
ATOM     44  C   UNL A   1      39.229  31.304  33.193  1.00  0.00     0.049 A 
ATOM     45  H   UNL A   1      40.245  30.097  31.832  1.00  0.00     0.167 HD
ATOM     46  C   UNL A   1      41.989  27.207  29.023  1.00  0.00     0.037 A 
ATOM     47  C   UNL A   1      39.909  31.250  34.354  1.00  0.00     0.037 A 
ATOM     48  C   UNL A   1      42.820  27.140  30.195  1.00  0.00     0.049 A 
ATOM     49  C   UNL A   1      41.131  30.377  34.449  1.00  0.00     0.074 A 
ATOM     50  C   UNL A   1      43.976  26.407  30.392  1.00  0.00     0.029 A 
ATOM     51  N   UNL A   1      42.587  27.849  31.363  1.00  0.00    -0.354 N 
ATOM     52  N   UNL A   1      41.655  29.589  33.542  1.00  0.00    -0.248 NA
ATOM     53  C   UNL A   1      41.854  30.383  35.729  1.00  0.00     0.031 C 
ATOM     54  C   UNL A   1      44.434  26.658  31.690  1.00  0.00     0.029 A 
ATOM     55  C   UNL A   1      43.581  27.571  32.287  1.00  0.00     0.049 A 
ATOM     56  H   UNL A   1      41.830  28.460  31.514  1.00  0.00     0.167 HD
ATOM     57  C   UNL A   1      42.782  29.030  34.129  1.00  0.00     0.074 A 
ATOM     58  C   UNL A   1      42.871  29.573  35.468  1.00  0.00     0.031 C 
ATOM     59  C   UNL A   1      43.662  28.144  33.605  1.00  0.00     0.037 A 
BRANCH  46  60
ATOM     60  C   UNL A   1      42.329  26.331  27.855  1.00  0.00     0.064 A 
ATOM     61  C   UNL A   1      43.289  26.709  26.905  1.00  0.00     0.173 A 
ATOM     62  C   UNL A   1      41.695  25.090  27.690  1.00  0.00     0.173 A 
ATOM     63  F   UNL A   1      43.912  27.894  27.010  1.00  0.00    -0.203 F 
ATOM     64  C   UNL A   1      43.578  25.894  25.815  1.00  0.00     0.198 A 
ATOM     65  C   UNL A   1      42.008  24.263  26.615  1.00  0.00     0.198 A 
ATOM     66  F   UNL A   1      40.771  24.679  28.572  1.00  0.00    -0.203 F 
ATOM     67  F   UNL A   1      44.456  26.303  24.889  1.00  0.00    -0.200 F 
ATOM     68  C   UNL A   1      42.942  24.670  25.673  1.00  0.00     0.200 A 
ATOM     69  F   UNL A   1      41.401  23.076  26.484  1.00  0.00    -0.200 F 
ATOM     70  F   UNL A   1      43.222  23.886  24.623  1.00  0.00    -0.200 F 
ENDBRANCH  46  60
BRANCH  47  71
ATOM     71  C   UNL A   1      39.470  32.067  35.514  1.00  0.00     0.064 A 
ATOM     72  C   UNL A   1      38.604  31.529  36.477  1.00  0.00     0.173 A 
ATOM     73  C   UNL A   1      39.895  33.392  35.687  1.00  0.00     0.173 A 
ATOM     74  F   UNL A   1      38.155  30.272  36.344  1.00  0.00    -0.203 F 
ATOM     75  C   UNL A   1      38.165  32.290  37.557  1.00  0.00     0.198 A 
ATOM     76  C   UNL A   1      39.473  34.146  36.781  1.00  0.00     0.198 A 
ATOM     77  F   UNL A   1      40.727  33.951  34.796  1.00  0.00    -0.203 F 
ATOM     78  F   UNL A   1      37.305  31.764  38.440  1.00  0.00    -0.200 F 
ATOM     79  C   UNL A   1      38.604  33.596  37.712  1.00  0.00     0.200 A 
ATOM     80  F   UNL A   1      39.908  35.403  36.932  1.00  0.00    -0.200 F 
ATOM     81  F   UNL A   1      38.181  34.328  38.752  1.00  0.00    -0.200 F 
ENDBRANCH  47  71
BRANCH  59  82
ATOM     82  C   UNL A   1      44.827  27.741  34.458  1.00  0.00     0.064 A 
ATOM     83  C   UNL A   1      44.776  26.608  35.281  1.00  0.00     0.173 A 
ATOM     84  C   UNL A   1      46.030  28.461  34.397  1.00  0.00     0.173 A 
ATOM     85  F   UNL A   1      43.641  25.899  35.383  1.00  0.00    -0.203 F 
ATOM     86  C   UNL A   1      45.887  26.213  36.020  1.00  0.00     0.198 A 
ATOM     87  C   UNL A   1      47.145  28.050  35.119  1.00  0.00     0.198 A 
ATOM     88  F   UNL A   1      46.127  29.549  33.618  1.00  0.00    -0.203 F 
ATOM     89  F   UNL A   1      45.810  25.142  36.822  1.00  0.00    -0.200 F 
ATOM     90  C   UNL A   1      47.072  26.928  35.931  1.00  0.00     0.200 A 
ATOM     91  F   UNL A   1      48.293  28.735  35.023  1.00  0.00    -0.200 F 
ATOM     92  F   UNL A   1      48.146  26.538  36.633  1.00  0.00    -0.200 F 
ENDBRANCH  59  82
ENDBRANCH  33  34
ENDBRANCH  25  28
ENDBRANCH  23  24
ENDBRANCH  22  23
ENDBRANCH  21  22
ENDBRANCH   1  21
TORSDOF 16
ENDMDL
