MODEL 1
REMARK VINA RESULT:     -12.2      0.000      0.000
REMARK SMILES CC(C)[NH2+][C@]1(C(=O)NCCCCNC(=O)c2ccc(-c3c4nc(c(-c5c(F)c(F)c(F)c(F)c5F)c5ccc([nH]5)c(-c5c(F)c(F)c(F)c(F)c5F)c5nc(c(-c6c(F)c(F)c(F)c(F)c6F)c6ccc3[nH]6)C=C5)C=C4)cc2)CCC[C@@H]1CCSc1cnccn1
REMARK SMILES IDX 9 1 8 2 6 3 7 4 5 6 79 7 82 8 80 9 81 10 4 11 2 14 1 15 3 16
REMARK SMILES IDX 83 17 84 18 85 19 86 20 87 21 91 22 88 23 90 24 89 25 10 26
REMARK SMILES IDX 11 27 12 28 13 29 14 30 15 32 16 33 17 34 78 35 18 36 77 37
REMARK SMILES IDX 19 38 20 39 21 40 71 41 22 42 76 43 70 44 72 45 23 46 75 47
REMARK SMILES IDX 69 48 68 49 24 51 56 52 36 53 55 54 37 55 40 56 54 57 73 58
REMARK SMILES IDX 38 59 39 60 53 62 74 63 41 64 25 65 26 66 34 67 27 68 28 69
REMARK SMILES IDX 32 70 35 71 29 72 30 73 33 74 31 75 57 76 58 77 66 78 59 79
REMARK SMILES IDX 60 80 64 81 67 82 61 83 62 84 65 85 63 86 42 87 43 88 51 89
REMARK SMILES IDX 44 90 45 91 49 92 52 93 46 94 47 95 50 96 48 97
REMARK H PARENT 8 5 4 12 4 13 13 31 72 50 40 61
REMARK Flexibility Score: inf
ROOT
ATOM      1  C   UNL A   1      32.982  30.208  25.863  1.00  0.00     0.116 C 
ENDROOT
BRANCH   1   2
ATOM      2  N   UNL A   1      33.102  29.634  24.516  1.00  0.00    -0.351 N 
ATOM      3  C   UNL A   1      32.566  28.624  23.767  1.00  0.00     0.281 C 
ATOM      4  O   UNL A   1      32.494  28.945  22.562  1.00  0.00    -0.268 OA
ATOM      5  H   UNL A   1      33.776  30.126  23.994  1.00  0.00     0.163 HD
BRANCH   3   6
ATOM      6  C   UNL A   1      32.216  27.118  24.186  1.00  0.00     0.178 C 
ATOM      7  C   UNL A   1      33.478  26.705  24.993  1.00  0.00     0.079 C 
ATOM      8  C   UNL A   1      31.065  27.072  25.176  1.00  0.00     0.061 C 
ATOM      9  C   UNL A   1      33.019  25.745  26.058  1.00  0.00     0.008 C 
ATOM     10  C   UNL A   1      31.563  26.137  26.329  1.00  0.00     0.011 C 
BRANCH   6  11
ATOM     11  N   UNL A   1      32.019  26.153  23.061  1.00  0.00    -0.331 N 
ATOM     12  H   UNL A   1      31.496  25.369  23.449  1.00  0.00     0.347 HD
ATOM     13  H   UNL A   1      31.589  26.745  22.351  1.00  0.00     0.347 HD
BRANCH  11  14
ATOM     14  C   UNL A   1      33.153  25.558  22.310  1.00  0.00     0.176 C 
ATOM     15  C   UNL A   1      33.414  24.058  22.605  1.00  0.00     0.075 C 
ATOM     16  C   UNL A   1      32.876  25.645  20.810  1.00  0.00     0.075 C 
ENDBRANCH  11  14
ENDBRANCH   6  11
BRANCH   8  17
ATOM     17  C   UNL A   1      29.680  26.665  24.592  1.00  0.00     0.022 C 
BRANCH  17  18
ATOM     18  C   UNL A   1      28.914  27.397  23.418  1.00  0.00     0.077 C 
BRANCH  18  19
ATOM     19  S   UNL A   1      27.486  28.685  23.210  1.00  0.00    -0.105 SA
BRANCH  19  20
ATOM     20  C   UNL A   1      27.890  30.248  22.390  1.00  0.00     0.114 A 
ATOM     21  C   UNL A   1      27.940  31.413  23.174  1.00  0.00     0.146 A 
ATOM     22  N   UNL A   1      28.031  30.330  21.054  1.00  0.00    -0.247 NA
ATOM     23  N   UNL A   1      27.985  32.679  22.674  1.00  0.00    -0.260 NA
ATOM     24  C   UNL A   1      28.072  31.606  20.550  1.00  0.00     0.132 A 
ATOM     25  C   UNL A   1      27.995  32.748  21.331  1.00  0.00     0.131 A 
ENDBRANCH  19  20
ENDBRANCH  18  19
ENDBRANCH  17  18
ENDBRANCH   8  17
ENDBRANCH   3   6
ENDBRANCH   1   2
BRANCH   1  26
ATOM     26  C   UNL A   1      31.556  30.587  26.304  1.00  0.00     0.023 C 
BRANCH  26  27
ATOM     27  C   UNL A   1      31.377  32.067  26.704  1.00  0.00     0.023 C 
BRANCH  27  28
ATOM     28  C   UNL A   1      32.624  32.829  27.166  1.00  0.00     0.116 C 
BRANCH  28  29
ATOM     29  N   UNL A   1      32.357  34.191  27.607  1.00  0.00    -0.352 N 
ATOM     30  C   UNL A   1      32.998  34.931  28.590  1.00  0.00     0.251 C 
ATOM     31  H   UNL A   1      31.620  34.651  27.143  1.00  0.00     0.163 HD
ATOM     32  O   UNL A   1      32.592  36.032  28.901  1.00  0.00    -0.269 OA
BRANCH  30  33
ATOM     33  C   UNL A   1      34.171  34.350  29.294  1.00  0.00     0.039 A 
ATOM     34  C   UNL A   1      33.960  33.534  30.411  1.00  0.00     0.014 A 
ATOM     35  C   UNL A   1      35.469  34.591  28.842  1.00  0.00     0.014 A 
ATOM     36  C   UNL A   1      35.046  32.893  31.021  1.00  0.00     0.010 A 
ATOM     37  C   UNL A   1      36.541  33.900  29.407  1.00  0.00     0.010 A 
ATOM     38  C   UNL A   1      36.341  33.040  30.499  1.00  0.00    -0.014 A 
BRANCH  38  39
ATOM     39  C   UNL A   1      37.499  32.311  31.086  1.00  0.00     0.031 A 
ATOM     40  C   UNL A   1      38.002  32.670  32.458  1.00  0.00     0.074 A 
ATOM     41  C   UNL A   1      38.146  31.376  30.360  1.00  0.00     0.049 A 
ATOM     42  N   UNL A   1      39.028  32.195  33.119  1.00  0.00    -0.248 NA
ATOM     43  C   UNL A   1      37.269  33.729  33.169  1.00  0.00     0.031 C 
ATOM     44  C   UNL A   1      37.801  30.978  28.994  1.00  0.00     0.029 A 
ATOM     45  N   UNL A   1      39.234  30.595  30.667  1.00  0.00    -0.354 N 
ATOM     46  C   UNL A   1      39.073  32.908  34.310  1.00  0.00     0.074 A 
ATOM     47  C   UNL A   1      38.010  33.889  34.256  1.00  0.00     0.031 C 
ATOM     48  C   UNL A   1      38.643  30.011  28.592  1.00  0.00     0.029 A 
ATOM     49  C   UNL A   1      39.603  29.740  29.657  1.00  0.00     0.049 A 
ATOM     50  H   UNL A   1      39.706  30.646  31.530  1.00  0.00     0.167 HD
ATOM     51  C   UNL A   1      39.904  32.743  35.368  1.00  0.00     0.037 A 
ATOM     52  C   UNL A   1      40.599  28.834  29.602  1.00  0.00     0.037 A 
ATOM     53  C   UNL A   1      40.940  31.747  35.434  1.00  0.00     0.049 A 
ATOM     54  C   UNL A   1      41.491  28.649  30.800  1.00  0.00     0.074 A 
ATOM     55  C   UNL A   1      41.802  31.462  36.479  1.00  0.00     0.029 A 
ATOM     56  N   UNL A   1      41.252  30.866  34.408  1.00  0.00    -0.354 N 
ATOM     57  N   UNL A   1      41.477  29.280  31.949  1.00  0.00    -0.248 NA
ATOM     58  C   UNL A   1      42.530  27.613  30.699  1.00  0.00     0.031 C 
ATOM     59  C   UNL A   1      42.658  30.434  36.074  1.00  0.00     0.029 A 
ATOM     60  C   UNL A   1      42.299  30.044  34.794  1.00  0.00     0.049 A 
ATOM     61  H   UNL A   1      40.798  30.832  33.536  1.00  0.00     0.167 HD
ATOM     62  C   UNL A   1      42.474  28.695  32.719  1.00  0.00     0.074 A 
ATOM     63  C   UNL A   1      43.068  27.651  31.910  1.00  0.00     0.031 C 
ATOM     64  C   UNL A   1      42.863  28.996  33.983  1.00  0.00     0.037 A 
BRANCH  51  65
ATOM     65  C   UNL A   1      39.713  33.657  36.544  1.00  0.00     0.064 A 
ATOM     66  C   UNL A   1      38.881  33.308  37.619  1.00  0.00     0.173 A 
ATOM     67  C   UNL A   1      40.382  34.890  36.608  1.00  0.00     0.173 A 
ATOM     68  F   UNL A   1      38.210  32.146  37.603  1.00  0.00    -0.203 F 
ATOM     69  C   UNL A   1      38.694  34.172  38.695  1.00  0.00     0.198 A 
ATOM     70  C   UNL A   1      40.218  35.738  37.701  1.00  0.00     0.198 A 
ATOM     71  F   UNL A   1      41.195  35.272  35.613  1.00  0.00    -0.203 F 
ATOM     72  F   UNL A   1      37.848  33.841  39.679  1.00  0.00    -0.200 F 
ATOM     73  C   UNL A   1      39.367  35.383  38.738  1.00  0.00     0.200 A 
ATOM     74  F   UNL A   1      40.880  36.903  37.748  1.00  0.00    -0.200 F 
ATOM     75  F   UNL A   1      39.189  36.214  39.774  1.00  0.00    -0.200 F 
ENDBRANCH  51  65
BRANCH  52  76
ATOM     76  C   UNL A   1      40.777  27.993  28.388  1.00  0.00     0.064 A 
ATOM     77  C   UNL A   1      40.167  26.734  28.292  1.00  0.00     0.173 A 
ATOM     78  C   UNL A   1      41.565  28.419  27.310  1.00  0.00     0.173 A 
ATOM     79  F   UNL A   1      39.420  26.273  29.306  1.00  0.00    -0.203 F 
ATOM     80  C   UNL A   1      40.359  25.923  27.175  1.00  0.00     0.198 A 
ATOM     81  C   UNL A   1      41.734  27.618  26.181  1.00  0.00     0.198 A 
ATOM     82  F   UNL A   1      42.167  29.616  27.348  1.00  0.00    -0.203 F 
ATOM     83  F   UNL A   1      39.804  24.704  27.132  1.00  0.00    -0.200 F 
ATOM     84  C   UNL A   1      41.138  26.367  26.118  1.00  0.00     0.200 A 
ATOM     85  F   UNL A   1      42.477  28.057  25.155  1.00  0.00    -0.200 F 
ATOM     86  F   UNL A   1      41.322  25.588  25.044  1.00  0.00    -0.200 F 
ENDBRANCH  52  76
BRANCH  64  87
ATOM     87  C   UNL A   1      43.945  28.150  34.589  1.00  0.00     0.064 A 
ATOM     88  C   UNL A   1      45.297  28.520  34.526  1.00  0.00     0.173 A 
ATOM     89  C   UNL A   1      43.618  26.969  35.272  1.00  0.00     0.173 A 
ATOM     90  F   UNL A   1      45.662  29.632  33.871  1.00  0.00    -0.203 F 
ATOM     91  C   UNL A   1      46.284  27.722  35.099  1.00  0.00     0.198 A 
ATOM     92  C   UNL A   1      44.604  26.190  35.872  1.00  0.00     0.198 A 
ATOM     93  F   UNL A   1      42.339  26.574  35.368  1.00  0.00    -0.203 F 
ATOM     94  F   UNL A   1      47.573  28.068  34.982  1.00  0.00    -0.200 F 
ATOM     95  C   UNL A   1      45.937  26.563  35.777  1.00  0.00     0.200 A 
ATOM     96  F   UNL A   1      44.266  25.078  36.537  1.00  0.00    -0.200 F 
ATOM     97  F   UNL A   1      46.888  25.799  36.332  1.00  0.00    -0.200 F 
ENDBRANCH  64  87
ENDBRANCH  38  39
ENDBRANCH  30  33
ENDBRANCH  28  29
ENDBRANCH  27  28
ENDBRANCH  26  27
ENDBRANCH   1  26
TORSDOF 17
ENDMDL
MODEL 2
REMARK VINA RESULT:     -12.1      0.631      7.421
REMARK SMILES CC(C)[NH2+][C@]1(C(=O)NCCCCNC(=O)c2ccc(-c3c4nc(c(-c5c(F)c(F)c(F)c(F)c5F)c5ccc([nH]5)c(-c5c(F)c(F)c(F)c(F)c5F)c5nc(c(-c6c(F)c(F)c(F)c(F)c6F)c6ccc3[nH]6)C=C5)C=C4)cc2)CCC[C@@H]1CCSc1cnccn1
REMARK SMILES IDX 9 1 8 2 6 3 7 4 5 6 79 7 82 8 80 9 81 10 4 11 2 14 1 15 3 16
REMARK SMILES IDX 83 17 84 18 85 19 86 20 87 21 91 22 88 23 90 24 89 25 10 26
REMARK SMILES IDX 11 27 12 28 13 29 14 30 15 32 16 33 17 34 78 35 18 36 77 37
REMARK SMILES IDX 19 38 20 39 21 40 71 41 22 42 76 43 70 44 72 45 23 46 75 47
REMARK SMILES IDX 69 48 68 49 24 51 56 52 36 53 55 54 37 55 40 56 54 57 73 58
REMARK SMILES IDX 38 59 39 60 53 62 74 63 41 64 25 65 26 66 34 67 27 68 28 69
REMARK SMILES IDX 32 70 35 71 29 72 30 73 33 74 31 75 57 76 58 77 66 78 59 79
REMARK SMILES IDX 60 80 64 81 67 82 61 83 62 84 65 85 63 86 42 87 43 88 51 89
REMARK SMILES IDX 44 90 45 91 49 92 52 93 46 94 47 95 50 96 48 97
REMARK H PARENT 8 5 4 12 4 13 13 31 72 50 40 61
REMARK Flexibility Score: inf
ROOT
ATOM      1  C   UNL A   1      33.167  30.045  25.887  1.00  0.00     0.116 C 
ENDROOT
BRANCH   1   2
ATOM      2  N   UNL A   1      33.244  29.482  24.532  1.00  0.00    -0.351 N 
ATOM      3  C   UNL A   1      32.650  28.508  23.778  1.00  0.00     0.281 C 
ATOM      4  O   UNL A   1      32.580  28.846  22.578  1.00  0.00    -0.268 OA
ATOM      5  H   UNL A   1      33.934  29.948  24.007  1.00  0.00     0.163 HD
BRANCH   3   6
ATOM      6  C   UNL A   1      32.233  27.016  24.185  1.00  0.00     0.178 C 
ATOM      7  C   UNL A   1      33.488  26.529  24.961  1.00  0.00     0.079 C 
ATOM      8  C   UNL A   1      31.100  27.014  25.197  1.00  0.00     0.061 C 
ATOM      9  C   UNL A   1      33.002  25.579  26.022  1.00  0.00     0.008 C 
ATOM     10  C   UNL A   1      31.573  26.039  26.328  1.00  0.00     0.011 C 
BRANCH   6  11
ATOM     11  N   UNL A   1      31.966  26.078  23.052  1.00  0.00    -0.331 N 
ATOM     12  H   UNL A   1      31.474  25.281  23.454  1.00  0.00     0.347 HD
ATOM     13  H   UNL A   1      31.485  26.685  22.388  1.00  0.00     0.347 HD
BRANCH  11  14
ATOM     14  C   UNL A   1      33.050  25.510  22.211  1.00  0.00     0.176 C 
ATOM     15  C   UNL A   1      33.305  23.994  22.414  1.00  0.00     0.075 C 
ATOM     16  C   UNL A   1      32.694  25.678  20.734  1.00  0.00     0.075 C 
ENDBRANCH  11  14
ENDBRANCH   6  11
BRANCH   8  17
ATOM     17  C   UNL A   1      29.686  26.685  24.636  1.00  0.00     0.022 C 
BRANCH  17  18
ATOM     18  C   UNL A   1      28.971  27.416  23.428  1.00  0.00     0.077 C 
BRANCH  18  19
ATOM     19  S   UNL A   1      27.506  28.649  23.151  1.00  0.00    -0.105 SA
BRANCH  19  20
ATOM     20  C   UNL A   1      27.886  30.219  22.335  1.00  0.00     0.114 A 
ATOM     21  C   UNL A   1      27.900  31.386  23.118  1.00  0.00     0.146 A 
ATOM     22  N   UNL A   1      28.043  30.302  21.001  1.00  0.00    -0.247 NA
ATOM     23  N   UNL A   1      27.923  32.652  22.616  1.00  0.00    -0.260 NA
ATOM     24  C   UNL A   1      28.063  31.579  20.494  1.00  0.00     0.132 A 
ATOM     25  C   UNL A   1      27.950  32.720  21.273  1.00  0.00     0.131 A 
ENDBRANCH  19  20
ENDBRANCH  18  19
ENDBRANCH  17  18
ENDBRANCH   8  17
ENDBRANCH   3   6
ENDBRANCH   1   2
BRANCH   1  26
ATOM     26  C   UNL A   1      31.751  30.376  26.395  1.00  0.00     0.023 C 
BRANCH  26  27
ATOM     27  C   UNL A   1      31.516  31.865  26.725  1.00  0.00     0.023 C 
BRANCH  27  28
ATOM     28  C   UNL A   1      32.715  32.674  27.232  1.00  0.00     0.116 C 
BRANCH  28  29
ATOM     29  N   UNL A   1      32.404  34.061  27.547  1.00  0.00    -0.352 N 
ATOM     30  C   UNL A   1      32.989  34.894  28.490  1.00  0.00     0.251 C 
ATOM     31  H   UNL A   1      31.678  34.465  27.018  1.00  0.00     0.163 HD
ATOM     32  O   UNL A   1      32.550  36.008  28.692  1.00  0.00    -0.269 OA
BRANCH  30  33
ATOM     33  C   UNL A   1      34.143  34.399  29.286  1.00  0.00     0.039 A 
ATOM     34  C   UNL A   1      33.902  33.637  30.435  1.00  0.00     0.014 A 
ATOM     35  C   UNL A   1      35.454  34.667  28.890  1.00  0.00     0.014 A 
ATOM     36  C   UNL A   1      34.976  33.074  31.135  1.00  0.00     0.010 A 
ATOM     37  C   UNL A   1      36.518  34.052  29.548  1.00  0.00     0.010 A 
ATOM     38  C   UNL A   1      36.292  33.244  30.674  1.00  0.00    -0.014 A 
BRANCH  38  39
ATOM     39  C   UNL A   1      37.442  32.596  31.361  1.00  0.00     0.031 A 
ATOM     40  C   UNL A   1      38.159  31.444  30.710  1.00  0.00     0.074 A 
ATOM     41  C   UNL A   1      37.800  32.992  32.599  1.00  0.00     0.049 A 
ATOM     42  N   UNL A   1      39.143  30.711  31.168  1.00  0.00    -0.248 NA
ATOM     43  C   UNL A   1      37.684  31.043  29.377  1.00  0.00     0.031 C 
ATOM     44  C   UNL A   1      37.148  34.054  33.368  1.00  0.00     0.029 A 
ATOM     45  N   UNL A   1      38.795  32.544  33.433  1.00  0.00    -0.354 N 
ATOM     46  C   UNL A   1      39.390  29.755  30.190  1.00  0.00     0.074 A 
ATOM     47  C   UNL A   1      38.414  29.962  29.142  1.00  0.00     0.031 C 
ATOM     48  C   UNL A   1      37.776  34.192  34.548  1.00  0.00     0.029 A 
ATOM     49  C   UNL A   1      38.855  33.213  34.632  1.00  0.00     0.049 A 
ATOM     50  H   UNL A   1      39.408  31.811  33.194  1.00  0.00     0.167 HD
ATOM     51  C   UNL A   1      40.359  28.809  30.152  1.00  0.00     0.037 A 
ATOM     52  C   UNL A   1      39.692  33.058  35.676  1.00  0.00     0.037 A 
ATOM     53  C   UNL A   1      41.349  28.625  31.180  1.00  0.00     0.049 A 
ATOM     54  C   UNL A   1      40.779  32.019  35.599  1.00  0.00     0.074 A 
ATOM     55  C   UNL A   1      42.405  27.731  31.214  1.00  0.00     0.029 A 
ATOM     56  N   UNL A   1      41.406  29.354  32.359  1.00  0.00    -0.354 N 
ATOM     57  N   UNL A   1      41.047  31.170  34.637  1.00  0.00    -0.248 NA
ATOM     58  C   UNL A   1      41.692  31.928  36.749  1.00  0.00     0.031 C 
ATOM     59  C   UNL A   1      43.080  27.896  32.428  1.00  0.00     0.029 A 
ATOM     60  C   UNL A   1      42.474  28.925  33.130  1.00  0.00     0.049 A 
ATOM     61  H   UNL A   1      40.779  30.070  32.611  1.00  0.00     0.167 HD
ATOM     62  C   UNL A   1      42.176  30.473  35.045  1.00  0.00     0.074 A 
ATOM     63  C   UNL A   1      42.551  31.005  36.339  1.00  0.00     0.031 C 
ATOM     64  C   UNL A   1      42.844  29.480  34.406  1.00  0.00     0.037 A 
BRANCH  51  65
ATOM     65  C   UNL A   1      40.399  27.910  28.950  1.00  0.00     0.064 A 
ATOM     66  C   UNL A   1      41.159  28.234  27.815  1.00  0.00     0.173 A 
ATOM     67  C   UNL A   1      39.685  26.702  28.936  1.00  0.00     0.173 A 
ATOM     68  F   UNL A   1      41.851  29.382  27.772  1.00  0.00    -0.203 F 
ATOM     69  C   UNL A   1      41.172  27.404  26.697  1.00  0.00     0.198 A 
ATOM     70  C   UNL A   1      39.725  25.859  27.828  1.00  0.00     0.198 A 
ATOM     71  F   UNL A   1      38.948  26.339  29.996  1.00  0.00    -0.203 F 
ATOM     72  F   UNL A   1      41.856  27.766  25.604  1.00  0.00    -0.200 F 
ATOM     73  C   UNL A   1      40.460  26.215  26.707  1.00  0.00     0.200 A 
ATOM     74  F   UNL A   1      39.048  24.702  27.844  1.00  0.00    -0.200 F 
ATOM     75  F   UNL A   1      40.474  25.415  25.632  1.00  0.00    -0.200 F 
ENDBRANCH  51  65
BRANCH  52  76
ATOM     76  C   UNL A   1      39.571  33.941  36.868  1.00  0.00     0.064 A 
ATOM     77  C   UNL A   1      40.255  35.164  36.926  1.00  0.00     0.173 A 
ATOM     78  C   UNL A   1      38.787  33.579  37.972  1.00  0.00     0.173 A 
ATOM     79  F   UNL A   1      41.035  35.544  35.904  1.00  0.00    -0.203 F 
ATOM     80  C   UNL A   1      40.179  35.979  38.053  1.00  0.00     0.198 A 
ATOM     81  C   UNL A   1      38.689  34.409  39.087  1.00  0.00     0.198 A 
ATOM     82  F   UNL A   1      38.109  32.423  37.965  1.00  0.00    -0.203 F 
ATOM     83  F   UNL A   1      40.882  37.119  38.102  1.00  0.00    -0.200 F 
ATOM     84  C   UNL A   1      39.392  35.605  39.132  1.00  0.00     0.200 A 
ATOM     85  F   UNL A   1      37.917  34.050  40.123  1.00  0.00    -0.200 F 
ATOM     86  F   UNL A   1      39.318  36.389  40.215  1.00  0.00    -0.200 F 
ENDBRANCH  52  76
BRANCH  64  87
ATOM     87  C   UNL A   1      44.078  28.944  35.071  1.00  0.00     0.064 A 
ATOM     88  C   UNL A   1      44.032  27.845  35.941  1.00  0.00     0.173 A 
ATOM     89  C   UNL A   1      45.331  29.518  34.803  1.00  0.00     0.173 A 
ATOM     90  F   UNL A   1      42.858  27.269  36.240  1.00  0.00    -0.203 F 
ATOM     91  C   UNL A   1      45.191  27.360  36.543  1.00  0.00     0.198 A 
ATOM     92  C   UNL A   1      46.491  29.011  35.382  1.00  0.00     0.198 A 
ATOM     93  F   UNL A   1      45.430  30.567  33.972  1.00  0.00    -0.203 F 
ATOM     94  F   UNL A   1      45.116  26.341  37.411  1.00  0.00    -0.200 F 
ATOM     95  C   UNL A   1      46.418  27.938  36.257  1.00  0.00     0.200 A 
ATOM     96  F   UNL A   1      47.677  29.563  35.095  1.00  0.00    -0.200 F 
ATOM     97  F   UNL A   1      47.532  27.467  36.834  1.00  0.00    -0.200 F 
ENDBRANCH  64  87
ENDBRANCH  38  39
ENDBRANCH  30  33
ENDBRANCH  28  29
ENDBRANCH  27  28
ENDBRANCH  26  27
ENDBRANCH   1  26
TORSDOF 17
ENDMDL
MODEL 3
REMARK VINA RESULT:     -11.6      1.649      8.010
REMARK SMILES CC(C)[NH2+][C@]1(C(=O)NCCCCNC(=O)c2ccc(-c3c4nc(c(-c5c(F)c(F)c(F)c(F)c5F)c5ccc([nH]5)c(-c5c(F)c(F)c(F)c(F)c5F)c5nc(c(-c6c(F)c(F)c(F)c(F)c6F)c6ccc3[nH]6)C=C5)C=C4)cc2)CCC[C@@H]1CCSc1cnccn1
REMARK SMILES IDX 9 1 8 2 6 3 7 4 5 6 79 7 82 8 80 9 81 10 4 11 2 14 1 15 3 16
REMARK SMILES IDX 83 17 84 18 85 19 86 20 87 21 91 22 88 23 90 24 89 25 10 26
REMARK SMILES IDX 11 27 12 28 13 29 14 30 15 32 16 33 17 34 78 35 18 36 77 37
REMARK SMILES IDX 19 38 20 39 21 40 71 41 22 42 76 43 70 44 72 45 23 46 75 47
REMARK SMILES IDX 69 48 68 49 24 51 56 52 36 53 55 54 37 55 40 56 54 57 73 58
REMARK SMILES IDX 38 59 39 60 53 62 74 63 41 64 25 65 26 66 34 67 27 68 28 69
REMARK SMILES IDX 32 70 35 71 29 72 30 73 33 74 31 75 57 76 58 77 66 78 59 79
REMARK SMILES IDX 60 80 64 81 67 82 61 83 62 84 65 85 63 86 42 87 43 88 51 89
REMARK SMILES IDX 44 90 45 91 49 92 52 93 46 94 47 95 50 96 48 97
REMARK H PARENT 8 5 4 12 4 13 13 31 72 50 40 61
REMARK Flexibility Score: inf
ROOT
ATOM      1  C   UNL A   1      33.133  29.976  26.419  1.00  0.00     0.116 C 
ENDROOT
BRANCH   1   2
ATOM      2  N   UNL A   1      33.650  29.598  25.097  1.00  0.00    -0.351 N 
ATOM      3  C   UNL A   1      33.279  28.856  24.011  1.00  0.00     0.281 C 
ATOM      4  O   UNL A   1      33.705  29.362  22.952  1.00  0.00    -0.268 OA
ATOM      5  H   UNL A   1      34.536  30.002  24.948  1.00  0.00     0.163 HD
BRANCH   3   6
ATOM      6  C   UNL A   1      32.574  27.419  23.950  1.00  0.00     0.178 C 
ATOM      7  C   UNL A   1      32.651  27.084  22.435  1.00  0.00     0.079 C 
ATOM      8  C   UNL A   1      33.413  26.361  24.646  1.00  0.00     0.061 C 
ATOM      9  C   UNL A   1      32.795  25.589  22.326  1.00  0.00     0.008 C 
ATOM     10  C   UNL A   1      33.487  25.173  23.628  1.00  0.00     0.011 C 
BRANCH   6  11
ATOM     11  N   UNL A   1      31.145  27.370  24.389  1.00  0.00    -0.331 N 
ATOM     12  H   UNL A   1      31.051  26.527  24.954  1.00  0.00     0.347 HD
ATOM     13  H   UNL A   1      31.030  28.285  24.824  1.00  0.00     0.347 HD
BRANCH  11  14
ATOM     14  C   UNL A   1      30.014  27.349  23.428  1.00  0.00     0.176 C 
ATOM     15  C   UNL A   1      28.783  26.527  23.891  1.00  0.00     0.075 C 
ATOM     16  C   UNL A   1      29.504  28.772  23.205  1.00  0.00     0.075 C 
ENDBRANCH  11  14
ENDBRANCH   6  11
BRANCH   8  17
ATOM     17  C   UNL A   1      32.939  25.941  26.067  1.00  0.00     0.022 C 
BRANCH  17  18
ATOM     18  C   UNL A   1      31.888  24.806  26.400  1.00  0.00     0.077 C 
BRANCH  18  19
ATOM     19  S   UNL A   1      31.345  23.090  25.692  1.00  0.00    -0.105 SA
BRANCH  19  20
ATOM     20  C   UNL A   1      32.657  21.940  25.206  1.00  0.00     0.114 A 
ATOM     21  C   UNL A   1      32.287  20.747  24.562  1.00  0.00     0.146 A 
ATOM     22  N   UNL A   1      33.943  22.152  25.542  1.00  0.00    -0.247 NA
ATOM     23  N   UNL A   1      33.119  19.688  24.360  1.00  0.00    -0.260 NA
ATOM     24  C   UNL A   1      34.781  21.082  25.343  1.00  0.00     0.132 A 
ATOM     25  C   UNL A   1      34.371  19.867  24.820  1.00  0.00     0.131 A 
ENDBRANCH  19  20
ENDBRANCH  18  19
ENDBRANCH  17  18
ENDBRANCH   8  17
ENDBRANCH   3   6
ENDBRANCH   1   2
BRANCH   1  26
ATOM     26  C   UNL A   1      31.679  30.482  26.450  1.00  0.00     0.023 C 
BRANCH  26  27
ATOM     27  C   UNL A   1      31.532  32.010  26.606  1.00  0.00     0.023 C 
BRANCH  27  28
ATOM     28  C   UNL A   1      32.678  32.764  27.289  1.00  0.00     0.116 C 
BRANCH  28  29
ATOM     29  N   UNL A   1      32.362  34.145  27.626  1.00  0.00    -0.352 N 
ATOM     30  C   UNL A   1      32.956  34.970  28.569  1.00  0.00     0.251 C 
ATOM     31  H   UNL A   1      31.626  34.550  27.113  1.00  0.00     0.163 HD
ATOM     32  O   UNL A   1      32.513  36.079  28.791  1.00  0.00    -0.269 OA
BRANCH  30  33
ATOM     33  C   UNL A   1      34.126  34.474  29.342  1.00  0.00     0.039 A 
ATOM     34  C   UNL A   1      33.913  33.868  30.585  1.00  0.00     0.014 A 
ATOM     35  C   UNL A   1      35.420  34.587  28.834  1.00  0.00     0.014 A 
ATOM     36  C   UNL A   1      34.992  33.300  31.276  1.00  0.00     0.010 A 
ATOM     37  C   UNL A   1      36.481  33.964  29.489  1.00  0.00     0.010 A 
ATOM     38  C   UNL A   1      36.279  33.309  30.715  1.00  0.00    -0.014 A 
BRANCH  38  39
ATOM     39  C   UNL A   1      37.425  32.649  31.397  1.00  0.00     0.031 A 
ATOM     40  C   UNL A   1      38.148  31.510  30.730  1.00  0.00     0.074 A 
ATOM     41  C   UNL A   1      37.774  33.023  32.645  1.00  0.00     0.049 A 
ATOM     42  N   UNL A   1      39.129  30.769  31.181  1.00  0.00    -0.248 NA
ATOM     43  C   UNL A   1      37.682  31.133  29.386  1.00  0.00     0.031 C 
ATOM     44  C   UNL A   1      37.116  34.069  33.429  1.00  0.00     0.029 A 
ATOM     45  N   UNL A   1      38.764  32.560  33.477  1.00  0.00    -0.354 N 
ATOM     46  C   UNL A   1      39.383  29.831  30.187  1.00  0.00     0.074 A 
ATOM     47  C   UNL A   1      38.414  30.058  29.137  1.00  0.00     0.031 C 
ATOM     48  C   UNL A   1      37.736  34.186  34.615  1.00  0.00     0.029 A 
ATOM     49  C   UNL A   1      38.815  33.206  34.689  1.00  0.00     0.049 A 
ATOM     50  H   UNL A   1      39.379  31.832  33.229  1.00  0.00     0.167 HD
ATOM     51  C   UNL A   1      40.354  28.887  30.139  1.00  0.00     0.037 A 
ATOM     52  C   UNL A   1      39.645  33.032  35.735  1.00  0.00     0.037 A 
ATOM     53  C   UNL A   1      41.337  28.684  31.169  1.00  0.00     0.049 A 
ATOM     54  C   UNL A   1      40.734  31.996  35.646  1.00  0.00     0.074 A 
ATOM     55  C   UNL A   1      42.393  27.791  31.194  1.00  0.00     0.029 A 
ATOM     56  N   UNL A   1      41.385  29.392  32.362  1.00  0.00    -0.354 N 
ATOM     57  N   UNL A   1      41.009  31.165  34.670  1.00  0.00    -0.248 NA
ATOM     58  C   UNL A   1      41.638  31.885  36.800  1.00  0.00     0.031 C 
ATOM     59  C   UNL A   1      43.060  27.934  32.415  1.00  0.00     0.029 A 
ATOM     60  C   UNL A   1      42.448  28.949  33.132  1.00  0.00     0.049 A 
ATOM     61  H   UNL A   1      40.756  30.103  32.622  1.00  0.00     0.167 HD
ATOM     62  C   UNL A   1      42.135  30.461  35.074  1.00  0.00     0.074 A 
ATOM     63  C   UNL A   1      42.501  30.970  36.380  1.00  0.00     0.031 C 
ATOM     64  C   UNL A   1      42.808  29.481  34.421  1.00  0.00     0.037 A 
BRANCH  51  65
ATOM     65  C   UNL A   1      40.403  28.010  28.920  1.00  0.00     0.064 A 
ATOM     66  C   UNL A   1      39.706  26.793  28.862  1.00  0.00     0.173 A 
ATOM     67  C   UNL A   1      41.139  28.397  27.789  1.00  0.00     0.173 A 
ATOM     68  F   UNL A   1      38.996  26.372  29.920  1.00  0.00    -0.203 F 
ATOM     69  C   UNL A   1      39.776  25.977  27.736  1.00  0.00     0.198 A 
ATOM     70  C   UNL A   1      41.181  27.593  26.653  1.00  0.00     0.198 A 
ATOM     71  F   UNL A   1      41.818  29.553  27.787  1.00  0.00    -0.203 F 
ATOM     72  F   UNL A   1      39.151  24.793  27.729  1.00  0.00    -0.200 F 
ATOM     73  C   UNL A   1      40.508  26.381  26.630  1.00  0.00     0.200 A 
ATOM     74  F   UNL A   1      41.878  27.991  25.578  1.00  0.00    -0.200 F 
ATOM     75  F   UNL A   1      40.573  25.597  25.545  1.00  0.00    -0.200 F 
ENDBRANCH  51  65
BRANCH  52  76
ATOM     76  C   UNL A   1      39.515  33.893  36.942  1.00  0.00     0.064 A 
ATOM     77  C   UNL A   1      38.794  33.453  38.062  1.00  0.00     0.173 A 
ATOM     78  C   UNL A   1      40.091  35.169  36.999  1.00  0.00     0.173 A 
ATOM     79  F   UNL A   1      38.206  32.248  38.049  1.00  0.00    -0.203 F 
ATOM     80  C   UNL A   1      38.634  34.267  39.182  1.00  0.00     0.198 A 
ATOM     81  C   UNL A   1      39.954  35.971  38.130  1.00  0.00     0.198 A 
ATOM     82  F   UNL A   1      40.795  35.636  35.957  1.00  0.00    -0.203 F 
ATOM     83  F   UNL A   1      37.899  33.840  40.218  1.00  0.00    -0.200 F 
ATOM     84  C   UNL A   1      39.218  35.524  39.218  1.00  0.00     0.200 A 
ATOM     85  F   UNL A   1      40.531  37.181  38.167  1.00  0.00    -0.200 F 
ATOM     86  F   UNL A   1      39.065  36.306  40.294  1.00  0.00    -0.200 F 
ENDBRANCH  52  76
BRANCH  64  87
ATOM     87  C   UNL A   1      44.039  28.933  35.084  1.00  0.00     0.064 A 
ATOM     88  C   UNL A   1      45.309  29.486  34.860  1.00  0.00     0.173 A 
ATOM     89  C   UNL A   1      43.938  27.860  35.983  1.00  0.00     0.173 A 
ATOM     90  F   UNL A   1      45.460  30.503  33.998  1.00  0.00    -0.203 F 
ATOM     91  C   UNL A   1      46.436  28.965  35.489  1.00  0.00     0.198 A 
ATOM     92  C   UNL A   1      45.063  27.363  36.635  1.00  0.00     0.198 A 
ATOM     93  F   UNL A   1      42.745  27.301  36.238  1.00  0.00    -0.203 F 
ATOM     94  F   UNL A   1      47.646  29.475  35.221  1.00  0.00    -0.200 F 
ATOM     95  C   UNL A   1      46.312  27.909  36.380  1.00  0.00     0.200 A 
ATOM     96  F   UNL A   1      44.939  26.352  37.505  1.00  0.00    -0.200 F 
ATOM     97  F   UNL A   1      47.398  27.412  36.988  1.00  0.00    -0.200 F 
ENDBRANCH  64  87
ENDBRANCH  38  39
ENDBRANCH  30  33
ENDBRANCH  28  29
ENDBRANCH  27  28
ENDBRANCH  26  27
ENDBRANCH   1  26
TORSDOF 17
ENDMDL
