MODEL 1
REMARK VINA RESULT:     -12.8      0.000      0.000
REMARK SMILES C[C@H](C(=O)NC1CCCC1)[N@H+]1CCn2nc(CCC(=O)NCCCCNC(=O)c3ccc(-c4c5nc(c(-c6c(F)c(F)c(F)c(F)c6F)c6ccc([nH]6)c(-c6c(F)c(F)c(F)c(F)c6F)c6nc(c(-c7c(F)c(F)c(F)c(F)c7F)c7ccc4[nH]7)C=C6)C=C5)cc3)cc2C1
REMARK SMILES IDX 22 1 21 2 19 3 20 4 18 6 17 7 16 8 11 9 12 10 94 11 13 13
REMARK SMILES IDX 93 14 14 15 92 16 15 17 2 18 1 19 3 20 4 21 5 22 6 24 7 25
REMARK SMILES IDX 10 26 8 27 9 28 23 29 24 30 25 31 26 32 27 33 28 35 29 36
REMARK SMILES IDX 30 37 91 38 31 39 90 40 32 41 33 42 34 43 84 44 35 45 89 46
REMARK SMILES IDX 83 47 85 48 36 49 88 50 82 51 81 52 37 54 69 55 49 56 68 57
REMARK SMILES IDX 50 58 53 59 67 60 86 61 51 62 52 63 66 65 87 66 54 67 38 68
REMARK SMILES IDX 39 69 47 70 40 71 41 72 45 73 48 74 42 75 43 76 46 77 44 78
REMARK SMILES IDX 70 79 71 80 79 81 72 82 73 83 77 84 80 85 74 86 75 87 78 88
REMARK SMILES IDX 76 89 55 90 56 91 64 92 57 93 58 94 62 95 65 96 59 97 60 98
REMARK SMILES IDX 63 99 61 100
REMARK H PARENT 21 5 11 12 5 23 26 34 85 53 53 64
REMARK Flexibility Score: inf
ROOT
ATOM      1  C   UNL A   1      38.708  22.136  26.279  1.00  0.00     0.116 C 
ENDROOT
BRANCH   1   2
ATOM      2  N   UNL A   1      38.143  22.532  25.000  1.00  0.00    -0.356 N 
ATOM      3  C   UNL A   1      36.899  22.305  24.488  1.00  0.00     0.220 C 
ATOM      4  O   UNL A   1      36.701  22.579  23.301  1.00  0.00    -0.275 OA
ATOM      5  H   UNL A   1      38.750  23.041  24.415  1.00  0.00     0.163 HD
BRANCH   3   6
ATOM      6  C   UNL A   1      35.770  21.778  25.352  1.00  0.00     0.106 C 
BRANCH   6   7
ATOM      7  C   UNL A   1      34.619  21.152  24.548  1.00  0.00     0.068 C 
BRANCH   7   8
ATOM      8  C   UNL A   1      33.346  21.923  24.679  1.00  0.00     0.063 A 
ATOM      9  N   UNL A   1      30.759  25.553  24.798  1.00  0.00    -0.318 N 
ATOM     10  C   UNL A   1      30.295  25.002  26.082  1.00  0.00     0.287 C 
ATOM     11  C   UNL A   1      30.954  24.515  23.802  1.00  0.00     0.319 C 
ATOM     12  H   UNL A   1      31.668  25.951  25.038  1.00  0.00     0.349 HD
ATOM     13  C   UNL A   1      31.162  23.838  26.637  1.00  0.00     0.206 C 
ATOM     14  C   UNL A   1      31.796  23.421  24.280  1.00  0.00     0.093 A 
ATOM     15  N   UNL A   1      31.817  23.072  25.592  1.00  0.00    -0.258 N 
ATOM     16  C   UNL A   1      32.686  22.608  23.635  1.00  0.00     0.055 A 
ATOM     17  N   UNL A   1      32.741  22.124  25.865  1.00  0.00    -0.177 NA
BRANCH   9  18
ATOM     18  C   UNL A   1      30.042  26.751  24.259  1.00  0.00     0.271 C 
ATOM     19  C   UNL A   1      28.562  26.703  23.873  1.00  0.00     0.086 C 
BRANCH  18  20
ATOM     20  C   UNL A   1      30.852  27.629  23.257  1.00  0.00     0.278 C 
ATOM     21  O   UNL A   1      30.490  27.661  22.069  1.00  0.00    -0.268 OA
ATOM     22  N   UNL A   1      31.945  28.391  23.526  1.00  0.00    -0.348 N 
ATOM     23  H   UNL A   1      32.355  28.698  22.685  1.00  0.00     0.163 HD
BRANCH  22  24
ATOM     24  C   UNL A   1      32.712  28.904  24.669  1.00  0.00     0.082 C 
ATOM     25  C   UNL A   1      31.861  29.677  25.697  1.00  0.00     0.025 C 
ATOM     26  C   UNL A   1      33.572  27.943  25.467  1.00  0.00     0.025 C 
ATOM     27  C   UNL A   1      32.351  29.255  27.084  1.00  0.00     0.002 C 
ATOM     28  C   UNL A   1      33.674  28.539  26.860  1.00  0.00     0.002 C 
ENDBRANCH  22  24
ENDBRANCH  18  20
ENDBRANCH   9  18
ENDBRANCH   7   8
ENDBRANCH   6   7
ENDBRANCH   3   6
ENDBRANCH   1   2
BRANCH   1  29
ATOM     29  C   UNL A   1      40.197  21.834  26.146  1.00  0.00     0.023 C 
BRANCH  29  30
ATOM     30  C   UNL A   1      40.713  20.524  26.739  1.00  0.00     0.023 C 
BRANCH  30  31
ATOM     31  C   UNL A   1      42.192  20.566  27.094  1.00  0.00     0.116 C 
BRANCH  31  32
ATOM     32  N   UNL A   1      43.034  19.764  26.197  1.00  0.00    -0.352 N 
ATOM     33  C   UNL A   1      43.828  20.202  25.148  1.00  0.00     0.251 C 
ATOM     34  H   UNL A   1      43.035  18.793  26.361  1.00  0.00     0.163 HD
ATOM     35  O   UNL A   1      44.176  19.472  24.241  1.00  0.00    -0.269 OA
BRANCH  33  36
ATOM     36  C   UNL A   1      44.210  21.620  25.164  1.00  0.00     0.039 A 
ATOM     37  C   UNL A   1      43.350  22.579  24.626  1.00  0.00     0.014 A 
ATOM     38  C   UNL A   1      45.247  21.956  26.020  1.00  0.00     0.014 A 
ATOM     39  C   UNL A   1      43.412  23.876  25.127  1.00  0.00     0.010 A 
ATOM     40  C   UNL A   1      45.183  23.185  26.629  1.00  0.00     0.010 A 
ATOM     41  C   UNL A   1      44.269  24.155  26.203  1.00  0.00    -0.014 A 
BRANCH  41  42
ATOM     42  C   UNL A   1      44.084  25.375  26.996  1.00  0.00     0.031 A 
ATOM     43  C   UNL A   1      44.993  26.538  26.715  1.00  0.00     0.074 A 
ATOM     44  C   UNL A   1      42.996  25.610  27.759  1.00  0.00     0.049 A 
ATOM     45  N   UNL A   1      45.809  27.122  27.534  1.00  0.00    -0.248 NA
ATOM     46  C   UNL A   1      45.013  27.113  25.361  1.00  0.00     0.031 C 
ATOM     47  C   UNL A   1      41.797  24.790  27.959  1.00  0.00     0.029 A 
ATOM     48  N   UNL A   1      42.693  26.751  28.434  1.00  0.00    -0.354 N 
ATOM     49  C   UNL A   1      46.356  28.215  26.857  1.00  0.00     0.074 A 
ATOM     50  C   UNL A   1      45.901  28.104  25.493  1.00  0.00     0.031 C 
ATOM     51  C   UNL A   1      40.809  25.555  28.466  1.00  0.00     0.029 A 
ATOM     52  C   UNL A   1      41.372  26.841  28.826  1.00  0.00     0.049 A 
ATOM     53  H   UNL A   1      43.358  27.452  28.626  1.00  0.00     0.167 HD
ATOM     54  C   UNL A   1      47.023  29.214  27.508  1.00  0.00     0.037 A 
ATOM     55  C   UNL A   1      40.771  27.902  29.405  1.00  0.00     0.037 A 
ATOM     56  C   UNL A   1      47.369  28.837  28.853  1.00  0.00     0.049 A 
ATOM     57  C   UNL A   1      41.838  28.711  30.047  1.00  0.00     0.074 A 
ATOM     58  C   UNL A   1      48.106  27.807  29.407  1.00  0.00     0.029 A 
ATOM     59  N   UNL A   1      46.631  29.344  29.894  1.00  0.00    -0.354 N 
ATOM     60  N   UNL A   1      42.558  28.292  31.055  1.00  0.00    -0.248 NA
ATOM     61  C   UNL A   1      42.414  29.810  29.287  1.00  0.00     0.031 C 
ATOM     62  C   UNL A   1      47.355  27.406  30.553  1.00  0.00     0.029 A 
ATOM     63  C   UNL A   1      46.255  28.261  30.648  1.00  0.00     0.049 A 
ATOM     64  H   UNL A   1      46.416  30.290  30.065  1.00  0.00     0.167 HD
ATOM     65  C   UNL A   1      43.835  28.769  30.803  1.00  0.00     0.074 A 
ATOM     66  C   UNL A   1      43.662  29.781  29.763  1.00  0.00     0.031 C 
ATOM     67  C   UNL A   1      44.950  28.114  31.249  1.00  0.00     0.037 A 
BRANCH  54  68
ATOM     68  C   UNL A   1      47.145  30.643  27.039  1.00  0.00     0.064 A 
ATOM     69  C   UNL A   1      48.403  31.285  27.054  1.00  0.00     0.173 A 
ATOM     70  C   UNL A   1      46.036  31.489  26.846  1.00  0.00     0.173 A 
ATOM     71  F   UNL A   1      49.527  30.583  27.262  1.00  0.00    -0.203 F 
ATOM     72  C   UNL A   1      48.530  32.673  26.938  1.00  0.00     0.198 A 
ATOM     73  C   UNL A   1      46.169  32.868  26.677  1.00  0.00     0.198 A 
ATOM     74  F   UNL A   1      44.780  31.028  26.924  1.00  0.00    -0.203 F 
ATOM     75  F   UNL A   1      49.734  33.247  27.070  1.00  0.00    -0.200 F 
ATOM     76  C   UNL A   1      47.412  33.464  26.749  1.00  0.00     0.200 A 
ATOM     77  F   UNL A   1      45.072  33.623  26.518  1.00  0.00    -0.200 F 
ATOM     78  F   UNL A   1      47.524  34.798  26.690  1.00  0.00    -0.200 F 
ENDBRANCH  54  68
BRANCH  55  79
ATOM     79  C   UNL A   1      39.373  28.339  29.215  1.00  0.00     0.064 A 
ATOM     80  C   UNL A   1      38.481  28.411  30.292  1.00  0.00     0.173 A 
ATOM     81  C   UNL A   1      38.944  28.912  28.000  1.00  0.00     0.173 A 
ATOM     82  F   UNL A   1      38.833  27.932  31.492  1.00  0.00    -0.203 F 
ATOM     83  C   UNL A   1      37.233  29.030  30.163  1.00  0.00     0.198 A 
ATOM     84  C   UNL A   1      37.695  29.517  27.869  1.00  0.00     0.198 A 
ATOM     85  F   UNL A   1      39.760  28.972  26.937  1.00  0.00    -0.203 F 
ATOM     86  F   UNL A   1      36.425  29.128  31.228  1.00  0.00    -0.200 F 
ATOM     87  C   UNL A   1      36.843  29.585  28.955  1.00  0.00     0.200 A 
ATOM     88  F   UNL A   1      37.345  30.078  26.702  1.00  0.00    -0.200 F 
ATOM     89  F   UNL A   1      35.667  30.220  28.846  1.00  0.00    -0.200 F 
ENDBRANCH  55  79
BRANCH  67  90
ATOM     90  C   UNL A   1      44.785  26.971  32.217  1.00  0.00     0.064 A 
ATOM     91  C   UNL A   1      44.654  25.627  31.826  1.00  0.00     0.173 A 
ATOM     92  C   UNL A   1      44.957  27.218  33.586  1.00  0.00     0.173 A 
ATOM     93  F   UNL A   1      44.596  25.286  30.535  1.00  0.00    -0.203 F 
ATOM     94  C   UNL A   1      44.652  24.590  32.756  1.00  0.00     0.198 A 
ATOM     95  C   UNL A   1      44.993  26.177  34.513  1.00  0.00     0.198 A 
ATOM     96  F   UNL A   1      45.153  28.473  34.024  1.00  0.00    -0.203 F 
ATOM     97  F   UNL A   1      44.521  23.320  32.346  1.00  0.00    -0.200 F 
ATOM     98  C   UNL A   1      44.832  24.866  34.099  1.00  0.00     0.200 A 
ATOM     99  F   UNL A   1      45.220  26.445  35.807  1.00  0.00    -0.200 F 
ATOM    100  F   UNL A   1      44.878  23.866  34.991  1.00  0.00    -0.200 F 
ENDBRANCH  67  90
ENDBRANCH  41  42
ENDBRANCH  33  36
ENDBRANCH  31  32
ENDBRANCH  30  31
ENDBRANCH  29  30
ENDBRANCH   1  29
TORSDOF 16
ENDMDL
MODEL 2
REMARK VINA RESULT:     -12.6      0.980      1.624
REMARK SMILES C[C@H](C(=O)NC1CCCC1)[N@H+]1CCn2nc(CCC(=O)NCCCCNC(=O)c3ccc(-c4c5nc(c(-c6c(F)c(F)c(F)c(F)c6F)c6ccc([nH]6)c(-c6c(F)c(F)c(F)c(F)c6F)c6nc(c(-c7c(F)c(F)c(F)c(F)c7F)c7ccc4[nH]7)C=C6)C=C5)cc3)cc2C1
REMARK SMILES IDX 22 1 21 2 19 3 20 4 18 6 17 7 16 8 11 9 12 10 94 11 13 13
REMARK SMILES IDX 93 14 14 15 92 16 15 17 2 18 1 19 3 20 4 21 5 22 6 24 7 25
REMARK SMILES IDX 10 26 8 27 9 28 23 29 24 30 25 31 26 32 27 33 28 35 29 36
REMARK SMILES IDX 30 37 91 38 31 39 90 40 32 41 33 42 34 43 84 44 35 45 89 46
REMARK SMILES IDX 83 47 85 48 36 49 88 50 82 51 81 52 37 54 69 55 49 56 68 57
REMARK SMILES IDX 50 58 53 59 67 60 86 61 51 62 52 63 66 65 87 66 54 67 38 68
REMARK SMILES IDX 39 69 47 70 40 71 41 72 45 73 48 74 42 75 43 76 46 77 44 78
REMARK SMILES IDX 70 79 71 80 79 81 72 82 73 83 77 84 80 85 74 86 75 87 78 88
REMARK SMILES IDX 76 89 55 90 56 91 64 92 57 93 58 94 62 95 65 96 59 97 60 98
REMARK SMILES IDX 63 99 61 100
REMARK H PARENT 21 5 11 12 5 23 26 34 85 53 53 64
REMARK Flexibility Score: inf
ROOT
ATOM      1  C   UNL A   1      38.896  22.537  26.258  1.00  0.00     0.116 C 
ENDROOT
BRANCH   1   2
ATOM      2  N   UNL A   1      38.458  21.410  25.452  1.00  0.00    -0.356 N 
ATOM      3  C   UNL A   1      37.216  20.860  25.324  1.00  0.00     0.220 C 
ATOM      4  O   UNL A   1      37.115  19.789  24.720  1.00  0.00    -0.275 OA
ATOM      5  H   UNL A   1      39.164  20.979  24.918  1.00  0.00     0.163 HD
BRANCH   3   6
ATOM      6  C   UNL A   1      35.981  21.557  25.861  1.00  0.00     0.106 C 
BRANCH   6   7
ATOM      7  C   UNL A   1      34.663  20.961  25.340  1.00  0.00     0.068 C 
BRANCH   7   8
ATOM      8  C   UNL A   1      33.945  21.889  24.413  1.00  0.00     0.063 A 
ATOM      9  N   UNL A   1      32.332  25.787  22.970  1.00  0.00    -0.318 N 
ATOM     10  C   UNL A   1      31.060  25.055  22.862  1.00  0.00     0.287 C 
ATOM     11  C   UNL A   1      33.461  24.974  22.555  1.00  0.00     0.319 C 
ATOM     12  H   UNL A   1      32.407  25.964  23.972  1.00  0.00     0.349 HD
ATOM     13  C   UNL A   1      31.050  23.668  23.564  1.00  0.00     0.206 C 
ATOM     14  C   UNL A   1      33.502  23.677  23.225  1.00  0.00     0.093 A 
ATOM     15  N   UNL A   1      32.363  23.050  23.615  1.00  0.00    -0.258 N 
ATOM     16  C   UNL A   1      34.547  22.886  23.617  1.00  0.00     0.055 A 
ATOM     17  N   UNL A   1      32.602  21.924  24.322  1.00  0.00    -0.177 NA
BRANCH   9  18
ATOM     18  C   UNL A   1      32.381  27.177  22.418  1.00  0.00     0.271 C 
ATOM     19  C   UNL A   1      33.684  27.976  22.348  1.00  0.00     0.086 C 
BRANCH  18  20
ATOM     20  C   UNL A   1      31.181  28.098  22.798  1.00  0.00     0.278 C 
ATOM     21  O   UNL A   1      30.252  28.227  21.985  1.00  0.00    -0.268 OA
ATOM     22  N   UNL A   1      31.018  28.806  23.947  1.00  0.00    -0.348 N 
ATOM     23  H   UNL A   1      30.263  29.431  23.851  1.00  0.00     0.163 HD
BRANCH  22  24
ATOM     24  C   UNL A   1      31.605  28.936  25.288  1.00  0.00     0.082 C 
ATOM     25  C   UNL A   1      31.673  27.611  26.073  1.00  0.00     0.025 C 
ATOM     26  C   UNL A   1      32.967  29.586  25.432  1.00  0.00     0.025 C 
ATOM     27  C   UNL A   1      33.029  27.587  26.784  1.00  0.00     0.002 C 
ATOM     28  C   UNL A   1      33.569  29.006  26.700  1.00  0.00     0.002 C 
ENDBRANCH  22  24
ENDBRANCH  18  20
ENDBRANCH   9  18
ENDBRANCH   7   8
ENDBRANCH   6   7
ENDBRANCH   3   6
ENDBRANCH   1   2
BRANCH   1  29
ATOM     29  C   UNL A   1      40.314  22.317  26.775  1.00  0.00     0.023 C 
BRANCH  29  30
ATOM     30  C   UNL A   1      40.841  20.884  26.822  1.00  0.00     0.023 C 
BRANCH  30  31
ATOM     31  C   UNL A   1      42.302  20.794  27.236  1.00  0.00     0.116 C 
BRANCH  31  32
ATOM     32  N   UNL A   1      43.139  20.058  26.279  1.00  0.00    -0.352 N 
ATOM     33  C   UNL A   1      43.898  20.567  25.237  1.00  0.00     0.251 C 
ATOM     34  H   UNL A   1      43.164  19.080  26.393  1.00  0.00     0.163 HD
ATOM     35  O   UNL A   1      44.238  19.892  24.285  1.00  0.00    -0.269 OA
BRANCH  33  36
ATOM     36  C   UNL A   1      44.250  21.990  25.317  1.00  0.00     0.039 A 
ATOM     37  C   UNL A   1      43.388  22.951  24.786  1.00  0.00     0.014 A 
ATOM     38  C   UNL A   1      45.252  22.313  26.218  1.00  0.00     0.014 A 
ATOM     39  C   UNL A   1      43.407  24.229  25.337  1.00  0.00     0.010 A 
ATOM     40  C   UNL A   1      45.143  23.518  26.869  1.00  0.00     0.010 A 
ATOM     41  C   UNL A   1      44.223  24.485  26.449  1.00  0.00    -0.014 A 
BRANCH  41  42
ATOM     42  C   UNL A   1      43.988  25.671  27.279  1.00  0.00     0.031 A 
ATOM     43  C   UNL A   1      44.890  26.856  27.081  1.00  0.00     0.074 A 
ATOM     44  C   UNL A   1      42.866  25.862  28.006  1.00  0.00     0.049 A 
ATOM     45  N   UNL A   1      45.663  27.419  27.955  1.00  0.00    -0.248 NA
ATOM     46  C   UNL A   1      44.957  27.483  25.752  1.00  0.00     0.031 C 
ATOM     47  C   UNL A   1      41.672  25.019  28.125  1.00  0.00     0.029 A 
ATOM     48  N   UNL A   1      42.519  26.972  28.710  1.00  0.00    -0.354 N 
ATOM     49  C   UNL A   1      46.221  28.544  27.344  1.00  0.00     0.074 A 
ATOM     50  C   UNL A   1      45.824  28.480  25.958  1.00  0.00     0.031 C 
ATOM     51  C   UNL A   1      40.653  25.751  28.619  1.00  0.00     0.029 A 
ATOM     52  C   UNL A   1      41.182  27.029  29.050  1.00  0.00     0.049 A 
ATOM     53  H   UNL A   1      43.165  27.673  28.957  1.00  0.00     0.167 HD
ATOM     54  C   UNL A   1      46.846  29.526  28.059  1.00  0.00     0.037 A 
ATOM     55  C   UNL A   1      40.542  28.058  29.644  1.00  0.00     0.037 A 
ATOM     56  C   UNL A   1      47.142  29.101  29.401  1.00  0.00     0.049 A 
ATOM     57  C   UNL A   1      41.570  28.856  30.361  1.00  0.00     0.074 A 
ATOM     58  C   UNL A   1      47.871  28.060  29.947  1.00  0.00     0.029 A 
ATOM     59  N   UNL A   1      46.355  29.558  30.430  1.00  0.00    -0.354 N 
ATOM     60  N   UNL A   1      42.254  28.408  31.381  1.00  0.00    -0.248 NA
ATOM     61  C   UNL A   1      42.160  29.991  29.667  1.00  0.00     0.031 C 
ATOM     62  C   UNL A   1      47.081  27.606  31.044  1.00  0.00     0.029 A 
ATOM     63  C   UNL A   1      45.965  28.442  31.126  1.00  0.00     0.049 A 
ATOM     64  H   UNL A   1      46.119  30.493  30.628  1.00  0.00     0.167 HD
ATOM     65  C   UNL A   1      43.534  28.911  31.200  1.00  0.00     0.074 A 
ATOM     66  C   UNL A   1      43.388  29.960  30.193  1.00  0.00     0.031 C 
ATOM     67  C   UNL A   1      44.638  28.255  31.667  1.00  0.00     0.037 A 
BRANCH  54  68
ATOM     68  C   UNL A   1      46.966  30.974  27.651  1.00  0.00     0.064 A 
ATOM     69  C   UNL A   1      45.812  31.706  27.300  1.00  0.00     0.173 A 
ATOM     70  C   UNL A   1      48.193  31.582  27.321  1.00  0.00     0.173 A 
ATOM     71  F   UNL A   1      44.587  31.209  27.538  1.00  0.00    -0.203 F 
ATOM     72  C   UNL A   1      45.884  32.928  26.624  1.00  0.00     0.198 A 
ATOM     73  C   UNL A   1      48.264  32.827  26.693  1.00  0.00     0.198 A 
ATOM     74  F   UNL A   1      49.360  30.947  27.494  1.00  0.00    -0.203 F 
ATOM     75  F   UNL A   1      44.759  33.532  26.212  1.00  0.00    -0.200 F 
ATOM     76  C   UNL A   1      47.111  33.488  26.320  1.00  0.00     0.200 A 
ATOM     77  F   UNL A   1      49.462  33.344  26.386  1.00  0.00    -0.200 F 
ATOM     78  F   UNL A   1      47.185  34.631  25.626  1.00  0.00    -0.200 F 
ENDBRANCH  54  68
BRANCH  55  79
ATOM     79  C   UNL A   1      39.147  28.484  29.414  1.00  0.00     0.064 A 
ATOM     80  C   UNL A   1      38.244  28.623  30.475  1.00  0.00     0.173 A 
ATOM     81  C   UNL A   1      38.731  28.980  28.160  1.00  0.00     0.173 A 
ATOM     82  F   UNL A   1      38.584  28.220  31.706  1.00  0.00    -0.203 F 
ATOM     83  C   UNL A   1      36.998  29.234  30.295  1.00  0.00     0.198 A 
ATOM     84  C   UNL A   1      37.484  29.577  27.980  1.00  0.00     0.198 A 
ATOM     85  F   UNL A   1      39.557  28.973  27.104  1.00  0.00    -0.203 F 
ATOM     86  F   UNL A   1      36.180  29.399  31.344  1.00  0.00    -0.200 F 
ATOM     87  C   UNL A   1      36.622  29.714  29.051  1.00  0.00     0.200 A 
ATOM     88  F   UNL A   1      37.147  30.065  26.777  1.00  0.00    -0.200 F 
ATOM     89  F   UNL A   1      35.448  30.341  28.891  1.00  0.00    -0.200 F 
ENDBRANCH  55  79
BRANCH  67  90
ATOM     90  C   UNL A   1      44.451  27.072  32.582  1.00  0.00     0.064 A 
ATOM     91  C   UNL A   1      44.407  25.739  32.140  1.00  0.00     0.173 A 
ATOM     92  C   UNL A   1      44.511  27.278  33.967  1.00  0.00     0.173 A 
ATOM     93  F   UNL A   1      44.459  25.441  30.839  1.00  0.00    -0.203 F 
ATOM     94  C   UNL A   1      44.380  24.671  33.034  1.00  0.00     0.198 A 
ATOM     95  C   UNL A   1      44.522  26.208  34.862  1.00  0.00     0.198 A 
ATOM     96  F   UNL A   1      44.620  28.524  34.458  1.00  0.00    -0.203 F 
ATOM     97  F   UNL A   1      44.334  23.411  32.575  1.00  0.00    -0.200 F 
ATOM     98  C   UNL A   1      44.448  24.906  34.395  1.00  0.00     0.200 A 
ATOM     99  F   UNL A   1      44.641  26.439  36.176  1.00  0.00    -0.200 F 
ATOM    100  F   UNL A   1      44.470  23.879  35.256  1.00  0.00    -0.200 F 
ENDBRANCH  67  90
ENDBRANCH  41  42
ENDBRANCH  33  36
ENDBRANCH  31  32
ENDBRANCH  30  31
ENDBRANCH  29  30
ENDBRANCH   1  29
TORSDOF 16
ENDMDL
MODEL 3
REMARK VINA RESULT:     -12.1      4.246      9.863
REMARK SMILES C[C@H](C(=O)NC1CCCC1)[N@H+]1CCn2nc(CCC(=O)NCCCCNC(=O)c3ccc(-c4c5nc(c(-c6c(F)c(F)c(F)c(F)c6F)c6ccc([nH]6)c(-c6c(F)c(F)c(F)c(F)c6F)c6nc(c(-c7c(F)c(F)c(F)c(F)c7F)c7ccc4[nH]7)C=C6)C=C5)cc3)cc2C1
REMARK SMILES IDX 22 1 21 2 19 3 20 4 18 6 17 7 16 8 11 9 12 10 94 11 13 13
REMARK SMILES IDX 93 14 14 15 92 16 15 17 2 18 1 19 3 20 4 21 5 22 6 24 7 25
REMARK SMILES IDX 10 26 8 27 9 28 23 29 24 30 25 31 26 32 27 33 28 35 29 36
REMARK SMILES IDX 30 37 91 38 31 39 90 40 32 41 33 42 34 43 84 44 35 45 89 46
REMARK SMILES IDX 83 47 85 48 36 49 88 50 82 51 81 52 37 54 69 55 49 56 68 57
REMARK SMILES IDX 50 58 53 59 67 60 86 61 51 62 52 63 66 65 87 66 54 67 38 68
REMARK SMILES IDX 39 69 47 70 40 71 41 72 45 73 48 74 42 75 43 76 46 77 44 78
REMARK SMILES IDX 70 79 71 80 79 81 72 82 73 83 77 84 80 85 74 86 75 87 78 88
REMARK SMILES IDX 76 89 55 90 56 91 64 92 57 93 58 94 62 95 65 96 59 97 60 98
REMARK SMILES IDX 63 99 61 100
REMARK H PARENT 21 5 11 12 5 23 26 34 85 53 53 64
REMARK Flexibility Score: inf
ROOT
ATOM      1  C   UNL A   1      34.500  32.036  27.634  1.00  0.00     0.116 C 
ENDROOT
BRANCH   1   2
ATOM      2  N   UNL A   1      35.207  30.790  27.390  1.00  0.00    -0.356 N 
ATOM      3  C   UNL A   1      34.721  29.521  27.267  1.00  0.00     0.220 C 
ATOM      4  O   UNL A   1      35.530  28.590  27.243  1.00  0.00    -0.275 OA
ATOM      5  H   UNL A   1      36.184  30.875  27.299  1.00  0.00     0.163 HD
BRANCH   3   6
ATOM      6  C   UNL A   1      33.237  29.252  27.115  1.00  0.00     0.106 C 
BRANCH   6   7
ATOM      7  C   UNL A   1      32.887  28.409  25.878  1.00  0.00     0.068 C 
BRANCH   7   8
ATOM      8  C   UNL A   1      32.817  26.948  26.184  1.00  0.00     0.063 A 
ATOM      9  N   UNL A   1      32.635  22.585  25.279  1.00  0.00    -0.318 N 
ATOM     10  C   UNL A   1      31.461  22.599  26.167  1.00  0.00     0.287 C 
ATOM     11  C   UNL A   1      33.696  23.446  25.773  1.00  0.00     0.319 C 
ATOM     12  H   UNL A   1      32.269  22.982  24.414  1.00  0.00     0.349 HD
ATOM     13  C   UNL A   1      30.928  24.017  26.513  1.00  0.00     0.206 C 
ATOM     14  C   UNL A   1      33.235  24.799  26.073  1.00  0.00     0.093 A 
ATOM     15  N   UNL A   1      31.965  25.032  26.493  1.00  0.00    -0.258 N 
ATOM     16  C   UNL A   1      33.857  26.014  25.984  1.00  0.00     0.055 A 
ATOM     17  N   UNL A   1      31.686  26.350  26.603  1.00  0.00    -0.177 NA
BRANCH   9  18
ATOM     18  C   UNL A   1      33.135  21.255  24.811  1.00  0.00     0.271 C 
ATOM     19  C   UNL A   1      34.618  20.882  24.865  1.00  0.00     0.086 C 
BRANCH  18  20
ATOM     20  C   UNL A   1      32.466  20.699  23.517  1.00  0.00     0.278 C 
ATOM     21  O   UNL A   1      32.152  21.500  22.621  1.00  0.00    -0.268 OA
ATOM     22  N   UNL A   1      32.170  19.403  23.234  1.00  0.00    -0.348 N 
ATOM     23  H   UNL A   1      31.599  19.357  22.432  1.00  0.00     0.163 HD
BRANCH  22  24
ATOM     24  C   UNL A   1      32.428  18.048  23.740  1.00  0.00     0.082 C 
ATOM     25  C   UNL A   1      33.641  17.356  23.085  1.00  0.00     0.025 C 
ATOM     26  C   UNL A   1      32.575  17.839  25.234  1.00  0.00     0.025 C 
ATOM     27  C   UNL A   1      34.392  16.629  24.204  1.00  0.00     0.002 C 
ATOM     28  C   UNL A   1      33.446  16.605  25.394  1.00  0.00     0.002 C 
ENDBRANCH  22  24
ENDBRANCH  18  20
ENDBRANCH   9  18
ENDBRANCH   7   8
ENDBRANCH   6   7
ENDBRANCH   3   6
ENDBRANCH   1   2
BRANCH   1  29
ATOM     29  C   UNL A   1      35.480  33.191  27.816  1.00  0.00     0.023 C 
BRANCH  29  30
ATOM     30  C   UNL A   1      35.197  34.193  28.934  1.00  0.00     0.023 C 
BRANCH  30  31
ATOM     31  C   UNL A   1      33.942  33.867  29.730  1.00  0.00     0.116 C 
BRANCH  31  32
ATOM     32  N   UNL A   1      33.490  34.969  30.591  1.00  0.00    -0.352 N 
ATOM     33  C   UNL A   1      33.619  35.089  31.965  1.00  0.00     0.251 C 
ATOM     34  H   UNL A   1      33.038  35.714  30.133  1.00  0.00     0.163 HD
ATOM     35  O   UNL A   1      32.904  35.814  32.629  1.00  0.00    -0.269 OA
BRANCH  33  36
ATOM     36  C   UNL A   1      34.654  34.263  32.601  1.00  0.00     0.039 A 
ATOM     37  C   UNL A   1      34.626  32.876  32.452  1.00  0.00     0.014 A 
ATOM     38  C   UNL A   1      35.788  34.938  33.025  1.00  0.00     0.014 A 
ATOM     39  C   UNL A   1      35.828  32.180  32.533  1.00  0.00     0.010 A 
ATOM     40  C   UNL A   1      36.985  34.271  32.929  1.00  0.00     0.010 A 
ATOM     41  C   UNL A   1      37.026  32.895  32.676  1.00  0.00    -0.014 A 
BRANCH  41  42
ATOM     42  C   UNL A   1      38.310  32.250  32.380  1.00  0.00     0.031 A 
ATOM     43  C   UNL A   1      39.186  31.867  33.539  1.00  0.00     0.074 A 
ATOM     44  C   UNL A   1      38.629  31.746  31.169  1.00  0.00     0.049 A 
ATOM     45  N   UNL A   1      40.391  32.271  33.790  1.00  0.00    -0.248 NA
ATOM     46  C   UNL A   1      38.660  30.936  34.549  1.00  0.00     0.031 C 
ATOM     47  C   UNL A   1      37.832  31.685  29.940  1.00  0.00     0.029 A 
ATOM     48  N   UNL A   1      39.742  31.039  30.838  1.00  0.00    -0.354 N 
ATOM     49  C   UNL A   1      40.835  31.564  34.909  1.00  0.00     0.074 A 
ATOM     50  C   UNL A   1      39.694  30.824  35.390  1.00  0.00     0.031 C 
ATOM     51  C   UNL A   1      38.360  30.767  29.106  1.00  0.00     0.029 A 
ATOM     52  C   UNL A   1      39.638  30.348  29.647  1.00  0.00     0.049 A 
ATOM     53  H   UNL A   1      40.552  31.022  31.398  1.00  0.00     0.167 HD
ATOM     54  C   UNL A   1      42.153  31.523  35.268  1.00  0.00     0.037 A 
ATOM     55  C   UNL A   1      40.537  29.482  29.133  1.00  0.00     0.037 A 
ATOM     56  C   UNL A   1      42.923  32.529  34.586  1.00  0.00     0.049 A 
ATOM     57  C   UNL A   1      41.853  29.809  29.740  1.00  0.00     0.074 A 
ATOM     58  C   UNL A   1      42.854  33.908  34.505  1.00  0.00     0.029 A 
ATOM     59  N   UNL A   1      43.723  32.153  33.535  1.00  0.00    -0.354 N 
ATOM     60  N   UNL A   1      42.489  30.932  29.531  1.00  0.00    -0.248 NA
ATOM     61  C   UNL A   1      42.255  29.080  30.934  1.00  0.00     0.031 C 
ATOM     62  C   UNL A   1      43.118  34.200  33.134  1.00  0.00     0.029 A 
ATOM     63  C   UNL A   1      43.393  32.988  32.497  1.00  0.00     0.049 A 
ATOM     64  H   UNL A   1      44.395  31.434  33.527  1.00  0.00     0.167 HD
ATOM     65  C   UNL A   1      43.049  31.257  30.758  1.00  0.00     0.074 A 
ATOM     66  C   UNL A   1      42.962  30.033  31.549  1.00  0.00     0.031 C 
ATOM     67  C   UNL A   1      43.278  32.555  31.123  1.00  0.00     0.037 A 
BRANCH  54  68
ATOM     68  C   UNL A   1      42.824  30.411  36.036  1.00  0.00     0.064 A 
ATOM     69  C   UNL A   1      43.665  30.716  37.128  1.00  0.00     0.173 A 
ATOM     70  C   UNL A   1      42.896  29.084  35.568  1.00  0.00     0.173 A 
ATOM     71  F   UNL A   1      43.703  31.957  37.637  1.00  0.00    -0.203 F 
ATOM     72  C   UNL A   1      44.548  29.776  37.671  1.00  0.00     0.198 A 
ATOM     73  C   UNL A   1      43.739  28.133  36.146  1.00  0.00     0.198 A 
ATOM     74  F   UNL A   1      42.237  28.691  34.469  1.00  0.00    -0.203 F 
ATOM     75  F   UNL A   1      45.407  30.144  38.632  1.00  0.00    -0.200 F 
ATOM     76  C   UNL A   1      44.585  28.485  37.179  1.00  0.00     0.200 A 
ATOM     77  F   UNL A   1      43.779  26.892  35.641  1.00  0.00    -0.200 F 
ATOM     78  F   UNL A   1      45.465  27.598  37.660  1.00  0.00    -0.200 F 
ENDBRANCH  54  68
BRANCH  55  79
ATOM     79  C   UNL A   1      40.246  28.272  28.340  1.00  0.00     0.064 A 
ATOM     80  C   UNL A   1      40.806  28.080  27.072  1.00  0.00     0.173 A 
ATOM     81  C   UNL A   1      39.582  27.165  28.911  1.00  0.00     0.173 A 
ATOM     82  F   UNL A   1      41.493  29.067  26.482  1.00  0.00    -0.203 F 
ATOM     83  C   UNL A   1      40.716  26.848  26.414  1.00  0.00     0.198 A 
ATOM     84  C   UNL A   1      39.481  25.942  28.249  1.00  0.00     0.198 A 
ATOM     85  F   UNL A   1      39.090  27.221  30.158  1.00  0.00    -0.203 F 
ATOM     86  F   UNL A   1      41.309  26.684  25.224  1.00  0.00    -0.200 F 
ATOM     87  C   UNL A   1      40.058  25.781  27.005  1.00  0.00     0.200 A 
ATOM     88  F   UNL A   1      38.870  24.909  28.848  1.00  0.00    -0.200 F 
ATOM     89  F   UNL A   1      40.014  24.588  26.394  1.00  0.00    -0.200 F 
ENDBRANCH  55  79
BRANCH  67  90
ATOM     90  C   UNL A   1      43.119  33.642  30.092  1.00  0.00     0.064 A 
ATOM     91  C   UNL A   1      41.896  34.269  29.797  1.00  0.00     0.173 A 
ATOM     92  C   UNL A   1      44.271  34.200  29.521  1.00  0.00     0.173 A 
ATOM     93  F   UNL A   1      40.760  33.877  30.380  1.00  0.00    -0.203 F 
ATOM     94  C   UNL A   1      41.824  35.368  28.944  1.00  0.00     0.198 A 
ATOM     95  C   UNL A   1      44.203  35.323  28.697  1.00  0.00     0.198 A 
ATOM     96  F   UNL A   1      45.480  33.692  29.811  1.00  0.00    -0.203 F 
ATOM     97  F   UNL A   1      40.639  35.939  28.682  1.00  0.00    -0.200 F 
ATOM     98  C   UNL A   1      42.980  35.900  28.402  1.00  0.00     0.200 A 
ATOM     99  F   UNL A   1      45.330  35.867  28.217  1.00  0.00    -0.200 F 
ATOM    100  F   UNL A   1      42.917  36.987  27.618  1.00  0.00    -0.200 F 
ENDBRANCH  67  90
ENDBRANCH  41  42
ENDBRANCH  33  36
ENDBRANCH  31  32
ENDBRANCH  30  31
ENDBRANCH  29  30
ENDBRANCH   1  29
TORSDOF 16
ENDMDL
