MODEL 1
REMARK VINA RESULT:     -13.0      0.000      0.000
REMARK SMILES Cc1cccc(OCC(=O)Nc2cc(C(=O)NCCCCNC(=O)c3ccc(-c4c5nc(c(-c6c(F)c(F)c(F)c(F)c6F)c6ccc([nH]6)c(-c6c(F)c(F)c(F)c(F)c6F)c6nc(c(-c7c(F)c(F)c(F)c(F)c7F)c7ccc4[nH]7)C=C6)C=C5)cc3)c(Cl)cc2Cl)c1
REMARK SMILES IDX 18 1 17 2 15 3 16 4 14 6 12 7 13 8 91 9 90 10 92 11 88 12
REMARK SMILES IDX 89 13 11 14 9 15 10 16 8 18 7 19 6 20 1 21 2 22 3 23 93 24
REMARK SMILES IDX 4 25 5 26 19 27 20 28 21 29 22 30 23 31 24 33 25 34 26 35
REMARK SMILES IDX 87 36 27 37 86 38 28 39 29 40 30 41 80 42 31 43 85 44 79 45
REMARK SMILES IDX 81 46 32 47 84 48 78 49 77 50 33 52 65 53 45 54 64 55 46 56
REMARK SMILES IDX 49 57 63 58 82 59 47 60 48 61 62 63 83 64 50 65 34 66 35 67
REMARK SMILES IDX 43 68 36 69 37 70 41 71 44 72 38 73 39 74 42 75 40 76 66 77
REMARK SMILES IDX 67 78 75 79 68 80 69 81 73 82 76 83 70 84 71 85 74 86 72 87
REMARK SMILES IDX 51 88 52 89 60 90 53 91 54 92 58 93 61 94 55 95 56 96 59 97
REMARK SMILES IDX 57 98
REMARK H PARENT 17 5 11 17 22 32 81 51 49 62
REMARK Flexibility Score: inf
ROOT
ATOM      1  C   UNL A   1      32.038  29.838  25.611  1.00  0.00     0.116 C 
ENDROOT
BRANCH   1   2
ATOM      2  N   UNL A   1      33.135  29.465  24.745  1.00  0.00    -0.352 N 
ATOM      3  C   UNL A   1      33.369  28.262  24.112  1.00  0.00     0.252 C 
ATOM      4  O   UNL A   1      34.166  28.232  23.177  1.00  0.00    -0.269 OA
ATOM      5  H   UNL A   1      33.807  30.167  24.586  1.00  0.00     0.163 HD
BRANCH   3   6
ATOM      6  C   UNL A   1      32.713  26.998  24.547  1.00  0.00     0.060 A 
ATOM      7  C   UNL A   1      32.655  25.006  25.965  1.00  0.00     0.061 A 
ATOM      8  C   UNL A   1      33.242  26.226  25.610  1.00  0.00     0.043 A 
ATOM      9  C   UNL A   1      31.464  24.624  25.308  1.00  0.00     0.066 A 
ATOM     10  C   UNL A   1      30.894  25.414  24.312  1.00  0.00     0.044 A 
ATOM     11  Cl  UNL A   1      30.653  23.145  25.712  1.00  0.00    -0.082 Cl
ATOM     12  C   UNL A   1      31.527  26.591  23.915  1.00  0.00     0.055 A 
ATOM     13  Cl  UNL A   1      30.800  27.450  22.601  1.00  0.00    -0.083 Cl
BRANCH   7  14
ATOM     14  N   UNL A   1      33.180  24.078  26.890  1.00  0.00    -0.322 N 
ATOM     15  C   UNL A   1      34.271  23.275  26.991  1.00  0.00     0.262 C 
ATOM     16  O   UNL A   1      34.311  22.519  27.971  1.00  0.00    -0.271 OA
ATOM     17  H   UNL A   1      32.595  23.987  27.677  1.00  0.00     0.170 HD
BRANCH  15  18
ATOM     18  C   UNL A   1      35.453  23.328  26.030  1.00  0.00     0.329 C 
BRANCH  18  19
ATOM     19  O   UNL A   1      35.456  22.463  24.911  1.00  0.00    -0.484 OA
BRANCH  19  20
ATOM     20  C   UNL A   1      34.463  22.578  23.981  1.00  0.00     0.120 A 
ATOM     21  C   UNL A   1      32.903  24.657  21.204  1.00  0.00     0.044 C 
ATOM     22  C   UNL A   1      33.205  23.523  22.137  1.00  0.00    -0.047 A 
ATOM     23  C   UNL A   1      32.341  22.421  22.150  1.00  0.00     0.003 A 
ATOM     24  C   UNL A   1      34.278  23.591  23.048  1.00  0.00     0.049 A 
ATOM     25  C   UNL A   1      32.502  21.431  23.100  1.00  0.00     0.004 A 
ATOM     26  C   UNL A   1      33.533  21.543  24.024  1.00  0.00     0.046 A 
ENDBRANCH  19  20
ENDBRANCH  18  19
ENDBRANCH  15  18
ENDBRANCH   7  14
ENDBRANCH   3   6
ENDBRANCH   1   2
BRANCH   1  27
ATOM     27  C   UNL A   1      32.290  29.732  27.119  1.00  0.00     0.023 C 
BRANCH  27  28
ATOM     28  C   UNL A   1      33.716  29.967  27.626  1.00  0.00     0.023 C 
BRANCH  28  29
ATOM     29  C   UNL A   1      34.312  31.372  27.471  1.00  0.00     0.116 C 
BRANCH  29  30
ATOM     30  N   UNL A   1      34.808  31.987  28.701  1.00  0.00    -0.352 N 
ATOM     31  C   UNL A   1      35.900  31.613  29.499  1.00  0.00     0.251 C 
ATOM     32  H   UNL A   1      34.305  32.773  29.014  1.00  0.00     0.163 HD
ATOM     33  O   UNL A   1      36.277  32.313  30.412  1.00  0.00    -0.269 OA
BRANCH  31  34
ATOM     34  C   UNL A   1      36.645  30.374  29.142  1.00  0.00     0.039 A 
ATOM     35  C   UNL A   1      36.712  29.328  30.066  1.00  0.00     0.014 A 
ATOM     36  C   UNL A   1      37.432  30.362  28.004  1.00  0.00     0.014 A 
ATOM     37  C   UNL A   1      37.778  28.429  29.984  1.00  0.00     0.010 A 
ATOM     38  C   UNL A   1      38.560  29.567  28.001  1.00  0.00     0.010 A 
ATOM     39  C   UNL A   1      38.778  28.650  29.035  1.00  0.00    -0.014 A 
BRANCH  39  40
ATOM     40  C   UNL A   1      40.144  28.143  29.173  1.00  0.00     0.031 A 
ATOM     41  C   UNL A   1      40.526  26.793  28.691  1.00  0.00     0.074 A 
ATOM     42  C   UNL A   1      41.107  29.006  29.574  1.00  0.00     0.049 A 
ATOM     43  N   UNL A   1      41.632  26.191  28.987  1.00  0.00    -0.248 NA
ATOM     44  C   UNL A   1      39.645  25.980  27.864  1.00  0.00     0.031 C 
ATOM     45  C   UNL A   1      42.552  28.886  29.379  1.00  0.00     0.029 A 
ATOM     46  N   UNL A   1      40.964  30.111  30.433  1.00  0.00    -0.354 N 
ATOM     47  C   UNL A   1      41.731  25.064  28.198  1.00  0.00     0.074 A 
ATOM     48  C   UNL A   1      40.440  24.950  27.564  1.00  0.00     0.031 C 
ATOM     49  C   UNL A   1      43.179  29.674  30.267  1.00  0.00     0.029 A 
ATOM     50  C   UNL A   1      42.161  30.168  31.181  1.00  0.00     0.049 A 
ATOM     51  H   UNL A   1      40.192  30.718  30.499  1.00  0.00     0.167 HD
ATOM     52  C   UNL A   1      42.939  24.435  28.079  1.00  0.00     0.037 A 
ATOM     53  C   UNL A   1      42.180  29.961  32.529  1.00  0.00     0.037 A 
ATOM     54  C   UNL A   1      43.927  25.017  28.987  1.00  0.00     0.049 A 
ATOM     55  C   UNL A   1      43.117  28.870  32.985  1.00  0.00     0.074 A 
ATOM     56  C   UNL A   1      44.962  25.919  28.800  1.00  0.00     0.029 A 
ATOM     57  N   UNL A   1      43.756  24.894  30.363  1.00  0.00    -0.354 N 
ATOM     58  N   UNL A   1      43.507  27.883  32.231  1.00  0.00    -0.248 NA
ATOM     59  C   UNL A   1      43.615  28.773  34.353  1.00  0.00     0.031 C 
ATOM     60  C   UNL A   1      45.397  26.361  30.073  1.00  0.00     0.029 A 
ATOM     61  C   UNL A   1      44.633  25.724  31.035  1.00  0.00     0.049 A 
ATOM     62  H   UNL A   1      43.103  24.300  30.797  1.00  0.00     0.167 HD
ATOM     63  C   UNL A   1      44.219  26.994  32.993  1.00  0.00     0.074 A 
ATOM     64  C   UNL A   1      44.296  27.616  34.301  1.00  0.00     0.031 C 
ATOM     65  C   UNL A   1      44.639  25.798  32.488  1.00  0.00     0.037 A 
BRANCH  52  66
ATOM     66  C   UNL A   1      43.319  23.499  26.939  1.00  0.00     0.064 A 
ATOM     67  C   UNL A   1      42.905  22.147  26.946  1.00  0.00     0.173 A 
ATOM     68  C   UNL A   1      44.152  23.835  25.856  1.00  0.00     0.173 A 
ATOM     69  F   UNL A   1      41.996  21.694  27.819  1.00  0.00    -0.203 F 
ATOM     70  C   UNL A   1      43.404  21.195  26.049  1.00  0.00     0.198 A 
ATOM     71  C   UNL A   1      44.694  22.878  24.990  1.00  0.00     0.198 A 
ATOM     72  F   UNL A   1      44.415  25.107  25.544  1.00  0.00    -0.203 F 
ATOM     73  F   UNL A   1      42.984  19.924  26.126  1.00  0.00    -0.200 F 
ATOM     74  C   UNL A   1      44.334  21.552  25.098  1.00  0.00     0.200 A 
ATOM     75  F   UNL A   1      45.564  23.258  24.044  1.00  0.00    -0.200 F 
ATOM     76  F   UNL A   1      44.851  20.636  24.270  1.00  0.00    -0.200 F 
ENDBRANCH  52  66
BRANCH  53  77
ATOM     77  C   UNL A   1      40.886  30.234  33.210  1.00  0.00     0.064 A 
ATOM     78  C   UNL A   1      40.601  31.534  33.662  1.00  0.00     0.173 A 
ATOM     79  C   UNL A   1      39.823  29.325  33.140  1.00  0.00     0.173 A 
ATOM     80  F   UNL A   1      41.589  32.434  33.766  1.00  0.00    -0.203 F 
ATOM     81  C   UNL A   1      39.294  31.933  33.932  1.00  0.00     0.198 A 
ATOM     82  C   UNL A   1      38.517  29.727  33.418  1.00  0.00     0.198 A 
ATOM     83  F   UNL A   1      40.028  28.071  32.710  1.00  0.00    -0.203 F 
ATOM     84  F   UNL A   1      39.038  33.197  34.292  1.00  0.00    -0.200 F 
ATOM     85  C   UNL A   1      38.250  31.038  33.781  1.00  0.00     0.200 A 
ATOM     86  F   UNL A   1      37.504  28.865  33.251  1.00  0.00    -0.200 F 
ATOM     87  F   UNL A   1      36.985  31.445  33.952  1.00  0.00    -0.200 F 
ENDBRANCH  53  77
BRANCH  65  88
ATOM     88  C   UNL A   1      45.160  24.630  33.292  1.00  0.00     0.064 A 
ATOM     89  C   UNL A   1      44.396  23.495  33.615  1.00  0.00     0.173 A 
ATOM     90  C   UNL A   1      46.528  24.558  33.645  1.00  0.00     0.173 A 
ATOM     91  F   UNL A   1      43.121  23.374  33.223  1.00  0.00    -0.203 F 
ATOM     92  C   UNL A   1      44.938  22.406  34.304  1.00  0.00     0.198 A 
ATOM     93  C   UNL A   1      47.081  23.444  34.279  1.00  0.00     0.198 A 
ATOM     94  F   UNL A   1      47.379  25.554  33.359  1.00  0.00    -0.203 F 
ATOM     95  F   UNL A   1      44.153  21.369  34.627  1.00  0.00    -0.200 F 
ATOM     96  C   UNL A   1      46.281  22.375  34.625  1.00  0.00     0.200 A 
ATOM     97  F   UNL A   1      48.397  23.405  34.531  1.00  0.00    -0.200 F 
ATOM     98  F   UNL A   1      46.807  21.309  35.242  1.00  0.00    -0.200 F 
ENDBRANCH  65  88
ENDBRANCH  39  40
ENDBRANCH  31  34
ENDBRANCH  29  30
ENDBRANCH  28  29
ENDBRANCH  27  28
ENDBRANCH   1  27
TORSDOF 15
ENDMDL
MODEL 2
REMARK VINA RESULT:     -12.7      3.641      9.832
REMARK SMILES Cc1cccc(OCC(=O)Nc2cc(C(=O)NCCCCNC(=O)c3ccc(-c4c5nc(c(-c6c(F)c(F)c(F)c(F)c6F)c6ccc([nH]6)c(-c6c(F)c(F)c(F)c(F)c6F)c6nc(c(-c7c(F)c(F)c(F)c(F)c7F)c7ccc4[nH]7)C=C6)C=C5)cc3)c(Cl)cc2Cl)c1
REMARK SMILES IDX 18 1 17 2 15 3 16 4 14 6 12 7 13 8 91 9 90 10 92 11 88 12
REMARK SMILES IDX 89 13 11 14 9 15 10 16 8 18 7 19 6 20 1 21 2 22 3 23 93 24
REMARK SMILES IDX 4 25 5 26 19 27 20 28 21 29 22 30 23 31 24 33 25 34 26 35
REMARK SMILES IDX 87 36 27 37 86 38 28 39 29 40 30 41 80 42 31 43 85 44 79 45
REMARK SMILES IDX 81 46 32 47 84 48 78 49 77 50 33 52 65 53 45 54 64 55 46 56
REMARK SMILES IDX 49 57 63 58 82 59 47 60 48 61 62 63 83 64 50 65 34 66 35 67
REMARK SMILES IDX 43 68 36 69 37 70 41 71 44 72 38 73 39 74 42 75 40 76 66 77
REMARK SMILES IDX 67 78 75 79 68 80 69 81 73 82 76 83 70 84 71 85 74 86 72 87
REMARK SMILES IDX 51 88 52 89 60 90 53 91 54 92 58 93 61 94 55 95 56 96 59 97
REMARK SMILES IDX 57 98
REMARK H PARENT 17 5 11 17 22 32 81 51 49 62
REMARK Flexibility Score: inf
ROOT
ATOM      1  C   UNL A   1      36.017  22.843  24.877  1.00  0.00     0.116 C 
ENDROOT
BRANCH   1   2
ATOM      2  N   UNL A   1      35.254  21.686  25.289  1.00  0.00    -0.352 N 
ATOM      3  C   UNL A   1      33.894  21.468  25.203  1.00  0.00     0.252 C 
ATOM      4  O   UNL A   1      33.472  20.319  25.305  1.00  0.00    -0.269 OA
ATOM      5  H   UNL A   1      35.777  20.952  25.685  1.00  0.00     0.163 HD
BRANCH   3   6
ATOM      6  C   UNL A   1      32.925  22.585  25.024  1.00  0.00     0.060 A 
ATOM      7  C   UNL A   1      31.753  24.180  23.587  1.00  0.00     0.061 A 
ATOM      8  C   UNL A   1      32.614  23.087  23.737  1.00  0.00     0.043 A 
ATOM      9  C   UNL A   1      31.123  24.693  24.742  1.00  0.00     0.066 A 
ATOM     10  C   UNL A   1      31.363  24.157  26.005  1.00  0.00     0.044 A 
ATOM     11  Cl  UNL A   1      30.014  26.024  24.641  1.00  0.00    -0.082 Cl
ATOM     12  C   UNL A   1      32.279  23.116  26.152  1.00  0.00     0.055 A 
ATOM     13  Cl  UNL A   1      32.589  22.587  27.769  1.00  0.00    -0.083 Cl
BRANCH   7  14
ATOM     14  N   UNL A   1      31.496  24.867  22.381  1.00  0.00    -0.322 N 
ATOM     15  C   UNL A   1      31.989  25.948  21.722  1.00  0.00     0.262 C 
ATOM     16  O   UNL A   1      31.398  26.279  20.685  1.00  0.00    -0.271 OA
ATOM     17  H   UNL A   1      30.758  24.449  21.881  1.00  0.00     0.170 HD
BRANCH  15  18
ATOM     18  C   UNL A   1      33.252  26.691  22.140  1.00  0.00     0.329 C 
BRANCH  18  19
ATOM     19  O   UNL A   1      33.129  28.010  22.636  1.00  0.00    -0.484 OA
BRANCH  19  20
ATOM     20  C   UNL A   1      33.126  28.213  23.986  1.00  0.00     0.120 A 
ATOM     21  C   UNL A   1      32.353  30.573  26.868  1.00  0.00     0.044 C 
ATOM     22  C   UNL A   1      32.717  29.342  26.092  1.00  0.00    -0.047 A 
ATOM     23  C   UNL A   1      33.193  28.227  26.793  1.00  0.00     0.003 A 
ATOM     24  C   UNL A   1      32.671  29.325  24.684  1.00  0.00     0.049 A 
ATOM     25  C   UNL A   1      33.679  27.134  26.101  1.00  0.00     0.004 A 
ATOM     26  C   UNL A   1      33.676  27.159  24.712  1.00  0.00     0.046 A 
ENDBRANCH  19  20
ENDBRANCH  18  19
ENDBRANCH  15  18
ENDBRANCH   7  14
ENDBRANCH   3   6
ENDBRANCH   1   2
BRANCH   1  27
ATOM     27  C   UNL A   1      37.322  23.108  25.636  1.00  0.00     0.023 C 
BRANCH  27  28
ATOM     28  C   UNL A   1      38.481  22.127  25.435  1.00  0.00     0.023 C 
BRANCH  28  29
ATOM     29  C   UNL A   1      39.471  21.936  26.591  1.00  0.00     0.116 C 
BRANCH  29  30
ATOM     30  N   UNL A   1      40.860  22.283  26.296  1.00  0.00    -0.352 N 
ATOM     31  C   UNL A   1      41.505  23.525  26.404  1.00  0.00     0.251 C 
ATOM     32  H   UNL A   1      41.423  21.542  25.975  1.00  0.00     0.163 HD
ATOM     33  O   UNL A   1      42.703  23.623  26.264  1.00  0.00    -0.269 OA
BRANCH  31  34
ATOM     34  C   UNL A   1      40.692  24.712  26.787  1.00  0.00     0.039 A 
ATOM     35  C   UNL A   1      40.762  25.868  26.006  1.00  0.00     0.014 A 
ATOM     36  C   UNL A   1      40.054  24.728  28.014  1.00  0.00     0.014 A 
ATOM     37  C   UNL A   1      40.448  27.095  26.595  1.00  0.00     0.010 A 
ATOM     38  C   UNL A   1      39.879  25.944  28.642  1.00  0.00     0.010 A 
ATOM     39  C   UNL A   1      40.152  27.135  27.959  1.00  0.00    -0.014 A 
BRANCH  39  40
ATOM     40  C   UNL A   1      40.323  28.331  28.785  1.00  0.00     0.031 A 
ATOM     41  C   UNL A   1      39.273  29.374  28.872  1.00  0.00     0.074 A 
ATOM     42  C   UNL A   1      41.383  28.378  29.627  1.00  0.00     0.049 A 
ATOM     43  N   UNL A   1      39.444  30.550  29.380  1.00  0.00    -0.248 NA
ATOM     44  C   UNL A   1      37.933  29.181  28.332  1.00  0.00     0.031 C 
ATOM     45  C   UNL A   1      41.539  29.210  30.819  1.00  0.00     0.029 A 
ATOM     46  N   UNL A   1      42.646  27.788  29.447  1.00  0.00    -0.354 N 
ATOM     47  C   UNL A   1      38.209  31.158  29.481  1.00  0.00     0.074 A 
ATOM     48  C   UNL A   1      37.315  30.285  28.759  1.00  0.00     0.031 C 
ATOM     49  C   UNL A   1      42.844  29.300  31.120  1.00  0.00     0.029 A 
ATOM     50  C   UNL A   1      43.572  28.690  30.018  1.00  0.00     0.049 A 
ATOM     51  H   UNL A   1      42.846  26.926  29.015  1.00  0.00     0.167 HD
ATOM     52  C   UNL A   1      38.070  32.262  30.275  1.00  0.00     0.037 A 
ATOM     53  C   UNL A   1      44.502  29.344  29.263  1.00  0.00     0.037 A 
ATOM     54  C   UNL A   1      39.366  32.716  30.778  1.00  0.00     0.049 A 
ATOM     55  C   UNL A   1      44.472  30.846  29.388  1.00  0.00     0.074 A 
ATOM     56  C   UNL A   1      40.011  32.561  31.994  1.00  0.00     0.029 A 
ATOM     57  N   UNL A   1      40.317  33.209  29.889  1.00  0.00    -0.354 N 
ATOM     58  N   UNL A   1      43.421  31.526  29.748  1.00  0.00    -0.248 NA
ATOM     59  C   UNL A   1      45.605  31.695  29.037  1.00  0.00     0.031 C 
ATOM     60  C   UNL A   1      41.365  32.939  31.827  1.00  0.00     0.029 A 
ATOM     61  C   UNL A   1      41.544  33.330  30.511  1.00  0.00     0.049 A 
ATOM     62  H   UNL A   1      40.140  33.439  28.948  1.00  0.00     0.167 HD
ATOM     63  C   UNL A   1      43.685  32.863  29.607  1.00  0.00     0.074 A 
ATOM     64  C   UNL A   1      45.077  32.919  29.202  1.00  0.00     0.031 C 
ATOM     65  C   UNL A   1      42.714  33.805  29.789  1.00  0.00     0.037 A 
BRANCH  52  66
ATOM     66  C   UNL A   1      36.746  32.758  30.844  1.00  0.00     0.064 A 
ATOM     67  C   UNL A   1      35.903  33.601  30.082  1.00  0.00     0.173 A 
ATOM     68  C   UNL A   1      36.284  32.518  32.151  1.00  0.00     0.173 A 
ATOM     69  F   UNL A   1      36.116  33.814  28.777  1.00  0.00    -0.203 F 
ATOM     70  C   UNL A   1      34.795  34.260  30.627  1.00  0.00     0.198 A 
ATOM     71  C   UNL A   1      35.208  33.215  32.714  1.00  0.00     0.198 A 
ATOM     72  F   UNL A   1      36.802  31.549  32.909  1.00  0.00    -0.203 F 
ATOM     73  F   UNL A   1      34.051  35.062  29.853  1.00  0.00    -0.200 F 
ATOM     74  C   UNL A   1      34.474  34.102  31.957  1.00  0.00     0.200 A 
ATOM     75  F   UNL A   1      34.888  33.011  34.000  1.00  0.00    -0.200 F 
ATOM     76  F   UNL A   1      33.445  34.768  32.495  1.00  0.00    -0.200 F 
ENDBRANCH  52  66
BRANCH  53  77
ATOM     77  C   UNL A   1      44.849  28.658  27.989  1.00  0.00     0.064 A 
ATOM     78  C   UNL A   1      45.870  27.693  27.976  1.00  0.00     0.173 A 
ATOM     79  C   UNL A   1      43.995  28.713  26.880  1.00  0.00     0.173 A 
ATOM     80  F   UNL A   1      46.725  27.616  29.007  1.00  0.00    -0.203 F 
ATOM     81  C   UNL A   1      45.967  26.759  26.948  1.00  0.00     0.198 A 
ATOM     82  C   UNL A   1      44.100  27.780  25.849  1.00  0.00     0.198 A 
ATOM     83  F   UNL A   1      42.997  29.606  26.834  1.00  0.00    -0.203 F 
ATOM     84  F   UNL A   1      46.904  25.804  26.994  1.00  0.00    -0.200 F 
ATOM     85  C   UNL A   1      45.064  26.785  25.900  1.00  0.00     0.200 A 
ATOM     86  F   UNL A   1      43.212  27.793  24.845  1.00  0.00    -0.200 F 
ATOM     87  F   UNL A   1      45.100  25.832  24.958  1.00  0.00    -0.200 F 
ENDBRANCH  53  77
BRANCH  65  88
ATOM     88  C   UNL A   1      42.801  35.257  29.381  1.00  0.00     0.064 A 
ATOM     89  C   UNL A   1      43.321  36.274  30.202  1.00  0.00     0.173 A 
ATOM     90  C   UNL A   1      42.485  35.650  28.059  1.00  0.00     0.173 A 
ATOM     91  F   UNL A   1      43.783  36.014  31.432  1.00  0.00    -0.203 F 
ATOM     92  C   UNL A   1      43.444  37.595  29.760  1.00  0.00     0.198 A 
ATOM     93  C   UNL A   1      42.666  36.956  27.602  1.00  0.00     0.198 A 
ATOM     94  F   UNL A   1      42.019  34.771  27.160  1.00  0.00    -0.203 F 
ATOM     95  F   UNL A   1      43.904  38.534  30.598  1.00  0.00    -0.200 F 
ATOM     96  C   UNL A   1      43.129  37.933  28.458  1.00  0.00     0.200 A 
ATOM     97  F   UNL A   1      42.411  37.254  26.320  1.00  0.00    -0.200 F 
ATOM     98  F   UNL A   1      43.294  39.189  28.024  1.00  0.00    -0.200 F 
ENDBRANCH  65  88
ENDBRANCH  39  40
ENDBRANCH  31  34
ENDBRANCH  29  30
ENDBRANCH  28  29
ENDBRANCH  27  28
ENDBRANCH   1  27
TORSDOF 15
ENDMDL
MODEL 3
REMARK VINA RESULT:     -12.5      3.379      9.338
REMARK SMILES Cc1cccc(OCC(=O)Nc2cc(C(=O)NCCCCNC(=O)c3ccc(-c4c5nc(c(-c6c(F)c(F)c(F)c(F)c6F)c6ccc([nH]6)c(-c6c(F)c(F)c(F)c(F)c6F)c6nc(c(-c7c(F)c(F)c(F)c(F)c7F)c7ccc4[nH]7)C=C6)C=C5)cc3)c(Cl)cc2Cl)c1
REMARK SMILES IDX 18 1 17 2 15 3 16 4 14 6 12 7 13 8 91 9 90 10 92 11 88 12
REMARK SMILES IDX 89 13 11 14 9 15 10 16 8 18 7 19 6 20 1 21 2 22 3 23 93 24
REMARK SMILES IDX 4 25 5 26 19 27 20 28 21 29 22 30 23 31 24 33 25 34 26 35
REMARK SMILES IDX 87 36 27 37 86 38 28 39 29 40 30 41 80 42 31 43 85 44 79 45
REMARK SMILES IDX 81 46 32 47 84 48 78 49 77 50 33 52 65 53 45 54 64 55 46 56
REMARK SMILES IDX 49 57 63 58 82 59 47 60 48 61 62 63 83 64 50 65 34 66 35 67
REMARK SMILES IDX 43 68 36 69 37 70 41 71 44 72 38 73 39 74 42 75 40 76 66 77
REMARK SMILES IDX 67 78 75 79 68 80 69 81 73 82 76 83 70 84 71 85 74 86 72 87
REMARK SMILES IDX 51 88 52 89 60 90 53 91 54 92 58 93 61 94 55 95 56 96 59 97
REMARK SMILES IDX 57 98
REMARK H PARENT 17 5 11 17 22 32 81 51 49 62
REMARK Flexibility Score: inf
ROOT
ATOM      1  C   UNL A   1      36.626  22.532  24.017  1.00  0.00     0.116 C 
ENDROOT
BRANCH   1   2
ATOM      2  N   UNL A   1      35.977  21.366  24.575  1.00  0.00    -0.352 N 
ATOM      3  C   UNL A   1      34.629  21.105  24.708  1.00  0.00     0.252 C 
ATOM      4  O   UNL A   1      34.268  19.948  24.906  1.00  0.00    -0.269 OA
ATOM      5  H   UNL A   1      36.580  20.662  24.905  1.00  0.00     0.163 HD
BRANCH   3   6
ATOM      6  C   UNL A   1      33.605  22.185  24.651  1.00  0.00     0.060 A 
ATOM      7  C   UNL A   1      32.274  23.796  23.379  1.00  0.00     0.061 A 
ATOM      8  C   UNL A   1      33.187  22.736  23.415  1.00  0.00     0.043 A 
ATOM      9  C   UNL A   1      31.703  24.224  24.599  1.00  0.00     0.066 A 
ATOM     10  C   UNL A   1      32.051  23.638  25.814  1.00  0.00     0.044 A 
ATOM     11  Cl  UNL A   1      30.538  25.508  24.639  1.00  0.00    -0.082 Cl
ATOM     12  C   UNL A   1      33.016  22.633  25.845  1.00  0.00     0.055 A 
ATOM     13  Cl  UNL A   1      33.458  22.040  27.409  1.00  0.00    -0.083 Cl
BRANCH   7  14
ATOM     14  N   UNL A   1      31.907  24.529  22.230  1.00  0.00    -0.322 N 
ATOM     15  C   UNL A   1      32.230  25.718  21.657  1.00  0.00     0.262 C 
ATOM     16  O   UNL A   1      31.586  26.037  20.649  1.00  0.00    -0.271 OA
ATOM     17  H   UNL A   1      31.234  24.046  21.698  1.00  0.00     0.170 HD
BRANCH  15  18
ATOM     18  C   UNL A   1      33.375  26.604  22.134  1.00  0.00     0.329 C 
BRANCH  18  19
ATOM     19  O   UNL A   1      33.071  27.889  22.641  1.00  0.00    -0.484 OA
BRANCH  19  20
ATOM     20  C   UNL A   1      33.142  28.105  23.988  1.00  0.00     0.120 A 
ATOM     21  C   UNL A   1      32.499  30.480  26.889  1.00  0.00     0.044 C 
ATOM     22  C   UNL A   1      32.837  29.248  26.104  1.00  0.00    -0.047 A 
ATOM     23  C   UNL A   1      33.370  28.147  26.786  1.00  0.00     0.003 A 
ATOM     24  C   UNL A   1      32.711  29.216  24.700  1.00  0.00     0.049 A 
ATOM     25  C   UNL A   1      33.832  27.055  26.076  1.00  0.00     0.004 A 
ATOM     26  C   UNL A   1      33.749  27.066  24.689  1.00  0.00     0.046 A 
ENDBRANCH  19  20
ENDBRANCH  18  19
ENDBRANCH  15  18
ENDBRANCH   7  14
ENDBRANCH   3   6
ENDBRANCH   1   2
BRANCH   1  27
ATOM     27  C   UNL A   1      36.764  23.747  24.942  1.00  0.00     0.023 C 
BRANCH  27  28
ATOM     28  C   UNL A   1      37.369  23.526  26.331  1.00  0.00     0.023 C 
BRANCH  28  29
ATOM     29  C   UNL A   1      38.897  23.472  26.451  1.00  0.00     0.116 C 
BRANCH  29  30
ATOM     30  N   UNL A   1      39.521  22.225  26.013  1.00  0.00    -0.352 N 
ATOM     31  C   UNL A   1      40.825  21.761  26.242  1.00  0.00     0.251 C 
ATOM     32  H   UNL A   1      38.947  21.628  25.482  1.00  0.00     0.163 HD
ATOM     33  O   UNL A   1      41.151  20.635  25.939  1.00  0.00    -0.269 OA
BRANCH  31  34
ATOM     34  C   UNL A   1      41.780  22.656  26.952  1.00  0.00     0.039 A 
ATOM     35  C   UNL A   1      41.859  22.602  28.345  1.00  0.00     0.014 A 
ATOM     36  C   UNL A   1      42.409  23.667  26.248  1.00  0.00     0.014 A 
ATOM     37  C   UNL A   1      42.323  23.726  29.034  1.00  0.00     0.010 A 
ATOM     38  C   UNL A   1      42.733  24.826  26.923  1.00  0.00     0.010 A 
ATOM     39  C   UNL A   1      42.616  24.887  28.316  1.00  0.00    -0.014 A 
BRANCH  39  40
ATOM     40  C   UNL A   1      42.593  26.226  28.907  1.00  0.00     0.031 A 
ATOM     41  C   UNL A   1      41.376  27.072  28.870  1.00  0.00     0.074 A 
ATOM     42  C   UNL A   1      43.649  26.607  29.664  1.00  0.00     0.049 A 
ATOM     43  N   UNL A   1      41.348  28.334  29.150  1.00  0.00    -0.248 NA
ATOM     44  C   UNL A   1      40.079  26.558  28.451  1.00  0.00     0.031 C 
ATOM     45  C   UNL A   1      43.686  27.659  30.679  1.00  0.00     0.029 A 
ATOM     46  N   UNL A   1      44.992  26.218  29.518  1.00  0.00    -0.354 N 
ATOM     47  C   UNL A   1      40.028  28.730  29.215  1.00  0.00     0.074 A 
ATOM     48  C   UNL A   1      39.285  27.599  28.712  1.00  0.00     0.031 C 
ATOM     49  C   UNL A   1      44.962  28.023  30.883  1.00  0.00     0.029 A 
ATOM     50  C   UNL A   1      45.757  27.355  29.865  1.00  0.00     0.049 A 
ATOM     51  H   UNL A   1      45.331  25.338  29.234  1.00  0.00     0.167 HD
ATOM     52  C   UNL A   1      39.715  29.921  29.808  1.00  0.00     0.037 A 
ATOM     53  C   UNL A   1      46.535  28.007  28.954  1.00  0.00     0.037 A 
ATOM     54  C   UNL A   1      40.922  30.675  30.146  1.00  0.00     0.049 A 
ATOM     55  C   UNL A   1      46.241  29.479  28.813  1.00  0.00     0.074 A 
ATOM     56  C   UNL A   1      41.616  30.858  31.331  1.00  0.00     0.029 A 
ATOM     57  N   UNL A   1      41.746  31.150  29.130  1.00  0.00    -0.354 N 
ATOM     58  N   UNL A   1      45.095  30.024  29.108  1.00  0.00    -0.248 NA
ATOM     59  C   UNL A   1      47.195  30.429  28.252  1.00  0.00     0.031 C 
ATOM     60  C   UNL A   1      42.877  31.424  31.021  1.00  0.00     0.029 A 
ATOM     61  C   UNL A   1      42.948  31.591  29.649  1.00  0.00     0.049 A 
ATOM     62  H   UNL A   1      41.507  31.170  28.176  1.00  0.00     0.167 HD
ATOM     63  C   UNL A   1      45.113  31.338  28.717  1.00  0.00     0.074 A 
ATOM     64  C   UNL A   1      46.462  31.554  28.228  1.00  0.00     0.031 C 
ATOM     65  C   UNL A   1      43.995  32.117  28.787  1.00  0.00     0.037 A 
BRANCH  52  66
ATOM     66  C   UNL A   1      38.340  30.281  30.356  1.00  0.00     0.064 A 
ATOM     67  C   UNL A   1      37.279  30.616  29.483  1.00  0.00     0.173 A 
ATOM     68  C   UNL A   1      38.015  30.398  31.720  1.00  0.00     0.173 A 
ATOM     69  F   UNL A   1      37.368  30.421  28.161  1.00  0.00    -0.203 F 
ATOM     70  C   UNL A   1      36.071  31.164  29.931  1.00  0.00     0.198 A 
ATOM     71  C   UNL A   1      36.831  30.993  32.169  1.00  0.00     0.198 A 
ATOM     72  F   UNL A   1      38.793  29.875  32.672  1.00  0.00    -0.203 F 
ATOM     73  F   UNL A   1      35.115  31.479  29.045  1.00  0.00    -0.200 F 
ATOM     74  C   UNL A   1      35.864  31.395  31.273  1.00  0.00     0.200 A 
ATOM     75  F   UNL A   1      36.633  31.168  33.484  1.00  0.00    -0.200 F 
ATOM     76  F   UNL A   1      34.730  31.964  31.701  1.00  0.00    -0.200 F 
ENDBRANCH  52  66
BRANCH  53  77
ATOM     77  C   UNL A   1      46.965  27.168  27.803  1.00  0.00     0.064 A 
ATOM     78  C   UNL A   1      48.111  26.363  27.921  1.00  0.00     0.173 A 
ATOM     79  C   UNL A   1      46.104  26.916  26.727  1.00  0.00     0.173 A 
ATOM     80  F   UNL A   1      48.975  26.579  28.922  1.00  0.00    -0.203 F 
ATOM     81  C   UNL A   1      48.330  25.289  27.062  1.00  0.00     0.198 A 
ATOM     82  C   UNL A   1      46.331  25.844  25.864  1.00  0.00     0.198 A 
ATOM     83  F   UNL A   1      44.991  27.644  26.562  1.00  0.00    -0.203 F 
ATOM     84  F   UNL A   1      49.391  24.492  27.238  1.00  0.00    -0.200 F 
ATOM     85  C   UNL A   1      47.424  25.013  26.052  1.00  0.00     0.200 A 
ATOM     86  F   UNL A   1      45.442  25.564  24.900  1.00  0.00    -0.200 F 
ATOM     87  F   UNL A   1      47.585  23.927  25.283  1.00  0.00    -0.200 F 
ENDBRANCH  53  77
BRANCH  65  88
ATOM     88  C   UNL A   1      43.811  33.463  28.125  1.00  0.00     0.064 A 
ATOM     89  C   UNL A   1      43.734  33.650  26.733  1.00  0.00     0.173 A 
ATOM     90  C   UNL A   1      43.554  34.615  28.904  1.00  0.00     0.173 A 
ATOM     91  F   UNL A   1      43.825  32.620  25.881  1.00  0.00    -0.203 F 
ATOM     92  C   UNL A   1      43.495  34.905  26.165  1.00  0.00     0.198 A 
ATOM     93  C   UNL A   1      43.255  35.854  28.335  1.00  0.00     0.198 A 
ATOM     94  F   UNL A   1      43.554  34.568  30.245  1.00  0.00    -0.203 F 
ATOM     95  F   UNL A   1      43.478  35.035  24.831  1.00  0.00    -0.200 F 
ATOM     96  C   UNL A   1      43.243  36.003  26.964  1.00  0.00     0.200 A 
ATOM     97  F   UNL A   1      42.956  36.895  29.124  1.00  0.00    -0.200 F 
ATOM     98  F   UNL A   1      42.967  37.192  26.416  1.00  0.00    -0.200 F 
ENDBRANCH  65  88
ENDBRANCH  39  40
ENDBRANCH  31  34
ENDBRANCH  29  30
ENDBRANCH  28  29
ENDBRANCH  27  28
ENDBRANCH   1  27
TORSDOF 15
ENDMDL
