MODEL 1
REMARK VINA RESULT:     -11.9      0.000      0.000
REMARK SMILES Cc1nnc(S[C@@H](C)CCO)c(C(=O)NCCCCNC(=O)c2ccc(-c3c4nc(c(-c5c(F)c(F)c(F)c(F)c5F)c5ccc([nH]5)c(-c5c(F)c(F)c(F)c(F)c5F)c5nc(c(-c6c(F)c(F)c(F)c(F)c6F)c6ccc3[nH]6)C=C5)C=C4)cc2)c1C
REMARK SMILES IDX 16 1 15 2 13 3 14 4 12 6 1 7 2 8 3 9 86 10 4 11 87 12 5 13
REMARK SMILES IDX 6 14 7 15 8 16 9 17 10 18 11 19 17 21 18 22 19 23 20 24
REMARK SMILES IDX 21 25 22 27 23 28 24 29 85 30 25 31 84 32 26 33 27 34 28 35
REMARK SMILES IDX 78 36 29 37 83 38 77 39 79 40 30 41 82 42 76 43 75 44 31 46
REMARK SMILES IDX 63 47 43 48 62 49 44 50 47 51 61 52 80 53 45 54 46 55 60 57
REMARK SMILES IDX 81 58 48 59 32 60 33 61 41 62 34 63 35 64 39 65 42 66 36 67
REMARK SMILES IDX 37 68 40 69 38 70 64 71 65 72 73 73 66 74 67 75 71 76 74 77
REMARK SMILES IDX 68 78 69 79 72 80 70 81 49 82 50 83 58 84 51 85 52 86 56 87
REMARK SMILES IDX 59 88 53 89 54 90 57 91 55 92
REMARK H PARENT 15 5 11 20 20 26 79 45 47 56
REMARK Flexibility Score: inf
ROOT
ATOM      1  C   UNL A   1      33.047  29.736  26.655  1.00  0.00     0.116 C 
ENDROOT
BRANCH   1   2
ATOM      2  N   UNL A   1      33.660  29.547  25.353  1.00  0.00    -0.352 N 
ATOM      3  C   UNL A   1      33.150  28.986  24.192  1.00  0.00     0.254 C 
ATOM      4  O   UNL A   1      33.643  29.362  23.134  1.00  0.00    -0.269 OA
ATOM      5  H   UNL A   1      34.588  29.867  25.283  1.00  0.00     0.163 HD
BRANCH   3   6
ATOM      6  C   UNL A   1      32.089  27.951  24.175  1.00  0.00     0.078 A 
ATOM      7  C   UNL A   1      31.366  24.320  25.221  1.00  0.00     0.069 C 
ATOM      8  C   UNL A   1      31.309  25.692  24.617  1.00  0.00     0.064 A 
ATOM      9  N   UNL A   1      30.159  25.970  23.990  1.00  0.00    -0.155 NA
ATOM     10  C   UNL A   1      32.308  26.663  24.752  1.00  0.00    -0.012 A 
ATOM     11  N   UNL A   1      29.905  27.241  23.565  1.00  0.00    -0.143 NA
ATOM     12  C   UNL A   1      33.524  26.313  25.568  1.00  0.00     0.047 C 
ATOM     13  C   UNL A   1      30.800  28.253  23.697  1.00  0.00     0.132 A 
BRANCH  13  14
ATOM     14  S   UNL A   1      29.868  29.762  23.496  1.00  0.00    -0.101 SA
BRANCH  14  15
ATOM     15  C   UNL A   1      28.445  29.651  22.346  1.00  0.00     0.052 C 
ATOM     16  C   UNL A   1      27.209  29.118  23.077  1.00  0.00     0.020 C 
BRANCH  15  17
ATOM     17  C   UNL A   1      28.209  30.798  21.360  1.00  0.00     0.043 C 
BRANCH  17  18
ATOM     18  C   UNL A   1      28.282  32.175  22.025  1.00  0.00     0.157 C 
BRANCH  18  19
ATOM     19  O   UNL A   1      27.700  33.167  21.185  1.00  0.00    -0.396 OA
ATOM     20  H   UNL A   1      28.011  34.045  21.457  1.00  0.00     0.210 HD
ENDBRANCH  18  19
ENDBRANCH  17  18
ENDBRANCH  15  17
ENDBRANCH  14  15
ENDBRANCH  13  14
ENDBRANCH   3   6
ENDBRANCH   1   2
BRANCH   1  21
ATOM     21  C   UNL A   1      31.684  30.420  26.685  1.00  0.00     0.023 C 
BRANCH  21  22
ATOM     22  C   UNL A   1      31.630  31.943  26.575  1.00  0.00     0.023 C 
BRANCH  22  23
ATOM     23  C   UNL A   1      32.721  32.748  27.271  1.00  0.00     0.116 C 
BRANCH  23  24
ATOM     24  N   UNL A   1      32.331  34.089  27.677  1.00  0.00    -0.352 N 
ATOM     25  C   UNL A   1      32.958  34.941  28.565  1.00  0.00     0.251 C 
ATOM     26  H   UNL A   1      31.509  34.437  27.262  1.00  0.00     0.163 HD
ATOM     27  O   UNL A   1      32.523  36.056  28.786  1.00  0.00    -0.269 OA
BRANCH  25  28
ATOM     28  C   UNL A   1      34.143  34.445  29.290  1.00  0.00     0.039 A 
ATOM     29  C   UNL A   1      33.947  33.698  30.453  1.00  0.00     0.014 A 
ATOM     30  C   UNL A   1      35.421  34.622  28.751  1.00  0.00     0.014 A 
ATOM     31  C   UNL A   1      35.033  33.043  31.032  1.00  0.00     0.010 A 
ATOM     32  C   UNL A   1      36.487  33.914  29.294  1.00  0.00     0.010 A 
ATOM     33  C   UNL A   1      36.299  33.114  30.432  1.00  0.00    -0.014 A 
BRANCH  33  34
ATOM     34  C   UNL A   1      37.454  32.388  31.010  1.00  0.00     0.031 A 
ATOM     35  C   UNL A   1      37.947  32.772  32.374  1.00  0.00     0.074 A 
ATOM     36  C   UNL A   1      38.070  31.422  30.303  1.00  0.00     0.049 A 
ATOM     37  N   UNL A   1      38.962  32.302  33.050  1.00  0.00    -0.248 NA
ATOM     38  C   UNL A   1      37.208  33.843  33.063  1.00  0.00     0.031 C 
ATOM     39  C   UNL A   1      37.692  30.983  28.958  1.00  0.00     0.029 A 
ATOM     40  N   UNL A   1      39.148  30.632  30.618  1.00  0.00    -0.354 N 
ATOM     41  C   UNL A   1      38.979  33.014  34.240  1.00  0.00     0.074 A 
ATOM     42  C   UNL A   1      37.921  33.996  34.168  1.00  0.00     0.031 C 
ATOM     43  C   UNL A   1      38.504  29.982  28.578  1.00  0.00     0.029 A 
ATOM     44  C   UNL A   1      39.477  29.728  29.637  1.00  0.00     0.049 A 
ATOM     45  H   UNL A   1      39.638  30.705  31.469  1.00  0.00     0.167 HD
ATOM     46  C   UNL A   1      39.782  32.838  35.314  1.00  0.00     0.037 A 
ATOM     47  C   UNL A   1      40.451  28.798  29.606  1.00  0.00     0.037 A 
ATOM     48  C   UNL A   1      40.821  31.849  35.387  1.00  0.00     0.049 A 
ATOM     49  C   UNL A   1      41.363  28.657  30.798  1.00  0.00     0.074 A 
ATOM     50  C   UNL A   1      41.679  31.576  36.437  1.00  0.00     0.029 A 
ATOM     51  N   UNL A   1      41.136  30.965  34.367  1.00  0.00    -0.354 N 
ATOM     52  N   UNL A   1      41.344  29.309  31.935  1.00  0.00    -0.248 NA
ATOM     53  C   UNL A   1      42.430  27.650  30.700  1.00  0.00     0.031 C 
ATOM     54  C   UNL A   1      42.536  30.546  36.039  1.00  0.00     0.029 A 
ATOM     55  C   UNL A   1      42.185  30.151  34.758  1.00  0.00     0.049 A 
ATOM     56  H   UNL A   1      40.681  30.922  33.495  1.00  0.00     0.167 HD
ATOM     57  C   UNL A   1      42.372  28.774  32.699  1.00  0.00     0.074 A 
ATOM     58  C   UNL A   1      42.990  27.736  31.899  1.00  0.00     0.031 C 
ATOM     59  C   UNL A   1      42.770  29.112  33.949  1.00  0.00     0.037 A 
BRANCH  46  60
ATOM     60  C   UNL A   1      39.542  33.716  36.504  1.00  0.00     0.064 A 
ATOM     61  C   UNL A   1      38.751  33.280  37.578  1.00  0.00     0.173 A 
ATOM     62  C   UNL A   1      40.125  34.988  36.589  1.00  0.00     0.173 A 
ATOM     63  F   UNL A   1      38.156  32.079  37.535  1.00  0.00    -0.203 F 
ATOM     64  C   UNL A   1      38.537  34.095  38.686  1.00  0.00     0.198 A 
ATOM     65  C   UNL A   1      39.930  35.789  37.710  1.00  0.00     0.198 A 
ATOM     66  F   UNL A   1      40.887  35.451  35.586  1.00  0.00    -0.203 F 
ATOM     67  F   UNL A   1      37.743  33.674  39.681  1.00  0.00    -0.200 F 
ATOM     68  C   UNL A   1      39.134  35.344  38.755  1.00  0.00     0.200 A 
ATOM     69  F   UNL A   1      40.514  36.993  37.780  1.00  0.00    -0.200 F 
ATOM     70  F   UNL A   1      38.934  36.124  39.827  1.00  0.00    -0.200 F 
ENDBRANCH  46  60
BRANCH  47  71
ATOM     71  C   UNL A   1      40.588  27.896  28.434  1.00  0.00     0.064 A 
ATOM     72  C   UNL A   1      41.336  28.288  27.314  1.00  0.00     0.173 A 
ATOM     73  C   UNL A   1      39.976  26.635  28.397  1.00  0.00     0.173 A 
ATOM     74  F   UNL A   1      41.923  29.494  27.292  1.00  0.00    -0.203 F 
ATOM     75  C   UNL A   1      41.453  27.463  26.198  1.00  0.00     0.198 A 
ATOM     76  C   UNL A   1      40.112  25.800  27.289  1.00  0.00     0.198 A 
ATOM     77  F   UNL A   1      39.249  26.211  29.442  1.00  0.00    -0.203 F 
ATOM     78  F   UNL A   1      42.142  27.880  25.127  1.00  0.00    -0.200 F 
ATOM     79  C   UNL A   1      40.845  26.217  26.188  1.00  0.00     0.200 A 
ATOM     80  F   UNL A   1      39.531  24.592  27.287  1.00  0.00    -0.200 F 
ATOM     81  F   UNL A   1      40.959  25.421  25.116  1.00  0.00    -0.200 F 
ENDBRANCH  47  71
BRANCH  59  82
ATOM     82  C   UNL A   1      43.908  28.342  34.548  1.00  0.00     0.064 A 
ATOM     83  C   UNL A   1      45.223  28.822  34.495  1.00  0.00     0.173 A 
ATOM     84  C   UNL A   1      43.664  27.157  35.261  1.00  0.00     0.173 A 
ATOM     85  F   UNL A   1      45.505  29.944  33.816  1.00  0.00    -0.203 F 
ATOM     86  C   UNL A   1      46.257  28.140  35.130  1.00  0.00     0.198 A 
ATOM     87  C   UNL A   1      44.695  26.492  35.916  1.00  0.00     0.198 A 
ATOM     88  F   UNL A   1      42.419  26.663  35.346  1.00  0.00    -0.203 F 
ATOM     89  F   UNL A   1      47.513  28.602  35.047  1.00  0.00    -0.200 F 
ATOM     90  C   UNL A   1      45.990  26.983  35.848  1.00  0.00     0.200 A 
ATOM     91  F   UNL A   1      44.434  25.384  36.622  1.00  0.00    -0.200 F 
ATOM     92  F   UNL A   1      46.984  26.339  36.476  1.00  0.00    -0.200 F 
ENDBRANCH  59  82
ENDBRANCH  33  34
ENDBRANCH  25  28
ENDBRANCH  23  24
ENDBRANCH  22  23
ENDBRANCH  21  22
ENDBRANCH   1  21
TORSDOF 16
ENDMDL
MODEL 2
REMARK VINA RESULT:     -11.8      6.259     11.574
REMARK SMILES Cc1nnc(S[C@@H](C)CCO)c(C(=O)NCCCCNC(=O)c2ccc(-c3c4nc(c(-c5c(F)c(F)c(F)c(F)c5F)c5ccc([nH]5)c(-c5c(F)c(F)c(F)c(F)c5F)c5nc(c(-c6c(F)c(F)c(F)c(F)c6F)c6ccc3[nH]6)C=C5)C=C4)cc2)c1C
REMARK SMILES IDX 16 1 15 2 13 3 14 4 12 6 1 7 2 8 3 9 86 10 4 11 87 12 5 13
REMARK SMILES IDX 6 14 7 15 8 16 9 17 10 18 11 19 17 21 18 22 19 23 20 24
REMARK SMILES IDX 21 25 22 27 23 28 24 29 85 30 25 31 84 32 26 33 27 34 28 35
REMARK SMILES IDX 78 36 29 37 83 38 77 39 79 40 30 41 82 42 76 43 75 44 31 46
REMARK SMILES IDX 63 47 43 48 62 49 44 50 47 51 61 52 80 53 45 54 46 55 60 57
REMARK SMILES IDX 81 58 48 59 32 60 33 61 41 62 34 63 35 64 39 65 42 66 36 67
REMARK SMILES IDX 37 68 40 69 38 70 64 71 65 72 73 73 66 74 67 75 71 76 74 77
REMARK SMILES IDX 68 78 69 79 72 80 70 81 49 82 50 83 58 84 51 85 52 86 56 87
REMARK SMILES IDX 59 88 53 89 54 90 57 91 55 92
REMARK H PARENT 15 5 11 20 20 26 79 45 47 56
REMARK Flexibility Score: inf
ROOT
ATOM      1  C   UNL A   1      37.029  22.597  25.382  1.00  0.00     0.116 C 
ENDROOT
BRANCH   1   2
ATOM      2  N   UNL A   1      36.083  22.475  26.476  1.00  0.00    -0.352 N 
ATOM      3  C   UNL A   1      34.798  21.957  26.500  1.00  0.00     0.254 C 
ATOM      4  O   UNL A   1      34.395  21.525  27.576  1.00  0.00    -0.269 OA
ATOM      5  H   UNL A   1      36.406  22.817  27.341  1.00  0.00     0.163 HD
BRANCH   3   6
ATOM      6  C   UNL A   1      33.896  21.937  25.323  1.00  0.00     0.078 A 
ATOM      7  C   UNL A   1      31.989  24.253  22.915  1.00  0.00     0.069 C 
ATOM      8  C   UNL A   1      32.511  23.074  23.682  1.00  0.00     0.064 A 
ATOM      9  N   UNL A   1      32.080  21.889  23.230  1.00  0.00    -0.155 NA
ATOM     10  C   UNL A   1      33.440  23.151  24.725  1.00  0.00    -0.012 A 
ATOM     11  N   UNL A   1      32.625  20.736  23.715  1.00  0.00    -0.143 NA
ATOM     12  C   UNL A   1      33.964  24.512  25.102  1.00  0.00     0.047 C 
ATOM     13  C   UNL A   1      33.564  20.723  24.695  1.00  0.00     0.132 A 
BRANCH  13  14
ATOM     14  S   UNL A   1      34.323  19.108  24.625  1.00  0.00    -0.101 SA
BRANCH  14  15
ATOM     15  C   UNL A   1      33.218  17.752  24.078  1.00  0.00     0.052 C 
ATOM     16  C   UNL A   1      33.952  16.828  23.101  1.00  0.00     0.020 C 
BRANCH  15  17
ATOM     17  C   UNL A   1      32.326  17.069  25.118  1.00  0.00     0.043 C 
BRANCH  17  18
ATOM     18  C   UNL A   1      32.816  15.668  25.491  1.00  0.00     0.157 C 
BRANCH  18  19
ATOM     19  O   UNL A   1      31.727  14.751  25.529  1.00  0.00    -0.396 OA
ATOM     20  H   UNL A   1      30.945  15.160  25.126  1.00  0.00     0.210 HD
ENDBRANCH  18  19
ENDBRANCH  17  18
ENDBRANCH  15  17
ENDBRANCH  14  15
ENDBRANCH  13  14
ENDBRANCH   3   6
ENDBRANCH   1   2
BRANCH   1  21
ATOM     21  C   UNL A   1      37.278  21.348  24.541  1.00  0.00     0.023 C 
BRANCH  21  22
ATOM     22  C   UNL A   1      37.949  20.145  25.203  1.00  0.00     0.023 C 
BRANCH  22  23
ATOM     23  C   UNL A   1      39.246  20.383  25.967  1.00  0.00     0.116 C 
BRANCH  23  24
ATOM     24  N   UNL A   1      40.227  19.315  25.862  1.00  0.00    -0.352 N 
ATOM     25  C   UNL A   1      41.587  19.362  26.094  1.00  0.00     0.251 C 
ATOM     26  H   UNL A   1      39.873  18.438  25.587  1.00  0.00     0.163 HD
ATOM     27  O   UNL A   1      42.283  18.369  25.989  1.00  0.00    -0.269 OA
BRANCH  25  28
ATOM     28  C   UNL A   1      42.194  20.667  26.419  1.00  0.00     0.039 A 
ATOM     29  C   UNL A   1      42.463  21.554  25.375  1.00  0.00     0.014 A 
ATOM     30  C   UNL A   1      42.380  21.044  27.753  1.00  0.00     0.014 A 
ATOM     31  C   UNL A   1      42.834  22.865  25.673  1.00  0.00     0.010 A 
ATOM     32  C   UNL A   1      42.686  22.367  28.046  1.00  0.00     0.010 A 
ATOM     33  C   UNL A   1      42.907  23.289  27.009  1.00  0.00    -0.014 A 
BRANCH  33  34
ATOM     34  C   UNL A   1      43.256  24.689  27.342  1.00  0.00     0.031 A 
ATOM     35  C   UNL A   1      44.658  25.166  27.104  1.00  0.00     0.074 A 
ATOM     36  C   UNL A   1      42.334  25.507  27.883  1.00  0.00     0.049 A 
ATOM     37  N   UNL A   1      45.191  26.331  27.362  1.00  0.00    -0.248 NA
ATOM     38  C   UNL A   1      45.592  24.193  26.514  1.00  0.00     0.031 C 
ATOM     39  C   UNL A   1      40.948  25.143  28.180  1.00  0.00     0.029 A 
ATOM     40  N   UNL A   1      42.424  26.819  28.279  1.00  0.00    -0.354 N 
ATOM     41  C   UNL A   1      46.516  26.232  26.960  1.00  0.00     0.074 A 
ATOM     42  C   UNL A   1      46.727  24.875  26.510  1.00  0.00     0.031 C 
ATOM     43  C   UNL A   1      40.310  26.215  28.683  1.00  0.00     0.029 A 
ATOM     44  C   UNL A   1      41.248  27.332  28.768  1.00  0.00     0.049 A 
ATOM     45  H   UNL A   1      43.255  27.344  28.216  1.00  0.00     0.167 HD
ATOM     46  C   UNL A   1      47.461  27.199  26.933  1.00  0.00     0.037 A 
ATOM     47  C   UNL A   1      40.964  28.566  29.228  1.00  0.00     0.037 A 
ATOM     48  C   UNL A   1      47.241  28.551  27.366  1.00  0.00     0.049 A 
ATOM     49  C   UNL A   1      42.050  29.610  29.232  1.00  0.00     0.074 A 
ATOM     50  C   UNL A   1      48.127  29.612  27.364  1.00  0.00     0.029 A 
ATOM     51  N   UNL A   1      46.041  29.026  27.874  1.00  0.00    -0.354 N 
ATOM     52  N   UNL A   1      43.288  29.516  28.813  1.00  0.00    -0.248 NA
ATOM     53  C   UNL A   1      41.698  30.931  29.774  1.00  0.00     0.031 C 
ATOM     54  C   UNL A   1      47.472  30.724  27.900  1.00  0.00     0.029 A 
ATOM     55  C   UNL A   1      46.167  30.366  28.198  1.00  0.00     0.049 A 
ATOM     56  H   UNL A   1      45.222  28.492  27.985  1.00  0.00     0.167 HD
ATOM     57  C   UNL A   1      43.854  30.768  29.010  1.00  0.00     0.074 A 
ATOM     58  C   UNL A   1      42.821  31.609  29.579  1.00  0.00     0.031 C 
ATOM     59  C   UNL A   1      45.117  31.185  28.747  1.00  0.00     0.037 A 
BRANCH  46  60
ATOM     60  C   UNL A   1      48.807  26.830  26.390  1.00  0.00     0.064 A 
ATOM     61  C   UNL A   1      49.794  26.271  27.216  1.00  0.00     0.173 A 
ATOM     62  C   UNL A   1      49.108  27.006  25.032  1.00  0.00     0.173 A 
ATOM     63  F   UNL A   1      49.561  26.101  28.526  1.00  0.00    -0.203 F 
ATOM     64  C   UNL A   1      51.041  25.921  26.707  1.00  0.00     0.198 A 
ATOM     65  C   UNL A   1      50.346  26.630  24.521  1.00  0.00     0.198 A 
ATOM     66  F   UNL A   1      48.198  27.538  24.201  1.00  0.00    -0.203 F 
ATOM     67  F   UNL A   1      51.982  25.429  27.524  1.00  0.00    -0.200 F 
ATOM     68  C   UNL A   1      51.313  26.093  25.358  1.00  0.00     0.200 A 
ATOM     69  F   UNL A   1      50.606  26.788  23.215  1.00  0.00    -0.200 F 
ATOM     70  F   UNL A   1      52.511  25.747  24.867  1.00  0.00    -0.200 F 
ENDBRANCH  46  60
BRANCH  47  71
ATOM     71  C   UNL A   1      39.587  28.901  29.675  1.00  0.00     0.064 A 
ATOM     72  C   UNL A   1      39.188  28.664  30.998  1.00  0.00     0.173 A 
ATOM     73  C   UNL A   1      38.640  29.451  28.799  1.00  0.00     0.173 A 
ATOM     74  F   UNL A   1      40.051  28.118  31.868  1.00  0.00    -0.203 F 
ATOM     75  C   UNL A   1      37.893  28.949  31.426  1.00  0.00     0.198 A 
ATOM     76  C   UNL A   1      37.351  29.758  29.233  1.00  0.00     0.198 A 
ATOM     77  F   UNL A   1      38.970  29.698  27.522  1.00  0.00    -0.203 F 
ATOM     78  F   UNL A   1      37.529  28.677  32.686  1.00  0.00    -0.200 F 
ATOM     79  C   UNL A   1      36.977  29.502  30.544  1.00  0.00     0.200 A 
ATOM     80  F   UNL A   1      36.471  30.302  28.380  1.00  0.00    -0.200 F 
ATOM     81  F   UNL A   1      35.732  29.779  30.954  1.00  0.00    -0.200 F 
ENDBRANCH  47  71
BRANCH  59  82
ATOM     82  C   UNL A   1      45.451  32.616  29.040  1.00  0.00     0.064 A 
ATOM     83  C   UNL A   1      46.057  32.992  30.247  1.00  0.00     0.173 A 
ATOM     84  C   UNL A   1      45.247  33.606  28.066  1.00  0.00     0.173 A 
ATOM     85  F   UNL A   1      46.261  32.082  31.211  1.00  0.00    -0.203 F 
ATOM     86  C   UNL A   1      46.441  34.311  30.471  1.00  0.00     0.198 A 
ATOM     87  C   UNL A   1      45.656  34.918  28.284  1.00  0.00     0.198 A 
ATOM     88  F   UNL A   1      44.679  33.292  26.892  1.00  0.00    -0.203 F 
ATOM     89  F   UNL A   1      46.996  34.655  31.642  1.00  0.00    -0.200 F 
ATOM     90  C   UNL A   1      46.251  35.269  29.486  1.00  0.00     0.200 A 
ATOM     91  F   UNL A   1      45.486  35.838  27.325  1.00  0.00    -0.200 F 
ATOM     92  F   UNL A   1      46.640  36.534  29.697  1.00  0.00    -0.200 F 
ENDBRANCH  59  82
ENDBRANCH  33  34
ENDBRANCH  25  28
ENDBRANCH  23  24
ENDBRANCH  22  23
ENDBRANCH  21  22
ENDBRANCH   1  21
TORSDOF 16
ENDMDL
MODEL 3
REMARK VINA RESULT:     -11.7      0.314      1.997
REMARK SMILES Cc1nnc(S[C@@H](C)CCO)c(C(=O)NCCCCNC(=O)c2ccc(-c3c4nc(c(-c5c(F)c(F)c(F)c(F)c5F)c5ccc([nH]5)c(-c5c(F)c(F)c(F)c(F)c5F)c5nc(c(-c6c(F)c(F)c(F)c(F)c6F)c6ccc3[nH]6)C=C5)C=C4)cc2)c1C
REMARK SMILES IDX 16 1 15 2 13 3 14 4 12 6 1 7 2 8 3 9 86 10 4 11 87 12 5 13
REMARK SMILES IDX 6 14 7 15 8 16 9 17 10 18 11 19 17 21 18 22 19 23 20 24
REMARK SMILES IDX 21 25 22 27 23 28 24 29 85 30 25 31 84 32 26 33 27 34 28 35
REMARK SMILES IDX 78 36 29 37 83 38 77 39 79 40 30 41 82 42 76 43 75 44 31 46
REMARK SMILES IDX 63 47 43 48 62 49 44 50 47 51 61 52 80 53 45 54 46 55 60 57
REMARK SMILES IDX 81 58 48 59 32 60 33 61 41 62 34 63 35 64 39 65 42 66 36 67
REMARK SMILES IDX 37 68 40 69 38 70 64 71 65 72 73 73 66 74 67 75 71 76 74 77
REMARK SMILES IDX 68 78 69 79 72 80 70 81 49 82 50 83 58 84 51 85 52 86 56 87
REMARK SMILES IDX 59 88 53 89 54 90 57 91 55 92
REMARK H PARENT 15 5 11 20 20 26 79 45 47 56
REMARK Flexibility Score: inf
ROOT
ATOM      1  C   UNL A   1      33.116  29.675  26.708  1.00  0.00     0.116 C 
ENDROOT
BRANCH   1   2
ATOM      2  N   UNL A   1      33.705  29.522  25.391  1.00  0.00    -0.352 N 
ATOM      3  C   UNL A   1      33.199  28.935  24.242  1.00  0.00     0.254 C 
ATOM      4  O   UNL A   1      33.644  29.338  23.173  1.00  0.00    -0.269 OA
ATOM      5  H   UNL A   1      34.612  29.895  25.299  1.00  0.00     0.163 HD
BRANCH   3   6
ATOM      6  C   UNL A   1      32.198  27.841  24.250  1.00  0.00     0.078 A 
ATOM      7  C   UNL A   1      31.699  24.184  25.335  1.00  0.00     0.069 C 
ATOM      8  C   UNL A   1      31.555  25.546  24.721  1.00  0.00     0.064 A 
ATOM      9  N   UNL A   1      30.382  25.752  24.110  1.00  0.00    -0.155 NA
ATOM     10  C   UNL A   1      32.498  26.573  24.833  1.00  0.00    -0.012 A 
ATOM     11  N   UNL A   1      30.050  27.003  23.678  1.00  0.00    -0.143 NA
ATOM     12  C   UNL A   1      33.745  26.299  25.634  1.00  0.00     0.047 C 
ATOM     13  C   UNL A   1      30.888  28.065  23.788  1.00  0.00     0.132 A 
BRANCH  13  14
ATOM     14  S   UNL A   1      29.869  29.517  23.589  1.00  0.00    -0.101 SA
BRANCH  14  15
ATOM     15  C   UNL A   1      28.470  29.332  22.419  1.00  0.00     0.052 C 
ATOM     16  C   UNL A   1      27.243  28.766  23.140  1.00  0.00     0.020 C 
BRANCH  15  17
ATOM     17  C   UNL A   1      28.208  30.452  21.409  1.00  0.00     0.043 C 
BRANCH  17  18
ATOM     18  C   UNL A   1      28.136  31.835  22.062  1.00  0.00     0.157 C 
BRANCH  18  19
ATOM     19  O   UNL A   1      29.405  32.480  22.010  1.00  0.00    -0.396 OA
ATOM     20  H   UNL A   1      29.833  32.280  21.163  1.00  0.00     0.210 HD
ENDBRANCH  18  19
ENDBRANCH  17  18
ENDBRANCH  15  17
ENDBRANCH  14  15
ENDBRANCH  13  14
ENDBRANCH   3   6
ENDBRANCH   1   2
BRANCH   1  21
ATOM     21  C   UNL A   1      31.763  30.378  26.783  1.00  0.00     0.023 C 
BRANCH  21  22
ATOM     22  C   UNL A   1      31.716  31.893  26.587  1.00  0.00     0.023 C 
BRANCH  22  23
ATOM     23  C   UNL A   1      32.807  32.731  27.243  1.00  0.00     0.116 C 
BRANCH  23  24
ATOM     24  N   UNL A   1      32.386  34.052  27.685  1.00  0.00    -0.352 N 
ATOM     25  C   UNL A   1      32.989  34.891  28.600  1.00  0.00     0.251 C 
ATOM     26  H   UNL A   1      31.559  34.394  27.274  1.00  0.00     0.163 HD
ATOM     27  O   UNL A   1      32.529  35.989  28.851  1.00  0.00    -0.269 OA
BRANCH  25  28
ATOM     28  C   UNL A   1      34.180  34.399  29.319  1.00  0.00     0.039 A 
ATOM     29  C   UNL A   1      33.993  33.596  30.446  1.00  0.00     0.014 A 
ATOM     30  C   UNL A   1      35.458  34.639  28.806  1.00  0.00     0.014 A 
ATOM     31  C   UNL A   1      35.091  32.949  31.010  1.00  0.00     0.010 A 
ATOM     32  C   UNL A   1      36.539  33.941  29.332  1.00  0.00     0.010 A 
ATOM     33  C   UNL A   1      36.362  33.086  30.431  1.00  0.00    -0.014 A 
BRANCH  33  34
ATOM     34  C   UNL A   1      37.532  32.371  30.992  1.00  0.00     0.031 A 
ATOM     35  C   UNL A   1      38.037  32.755  32.351  1.00  0.00     0.074 A 
ATOM     36  C   UNL A   1      38.150  31.414  30.274  1.00  0.00     0.049 A 
ATOM     37  N   UNL A   1      39.066  32.294  33.013  1.00  0.00    -0.248 NA
ATOM     38  C   UNL A   1      37.295  33.815  33.053  1.00  0.00     0.031 C 
ATOM     39  C   UNL A   1      37.760  30.976  28.933  1.00  0.00     0.029 A 
ATOM     40  N   UNL A   1      39.240  30.634  30.573  1.00  0.00    -0.354 N 
ATOM     41  C   UNL A   1      39.089  33.002  34.206  1.00  0.00     0.074 A 
ATOM     42  C   UNL A   1      38.020  33.973  34.150  1.00  0.00     0.031 C 
ATOM     43  C   UNL A   1      38.579  29.985  28.538  1.00  0.00     0.029 A 
ATOM     44  C   UNL A   1      39.567  29.737  29.585  1.00  0.00     0.049 A 
ATOM     45  H   UNL A   1      39.740  30.710  31.418  1.00  0.00     0.167 HD
ATOM     46  C   UNL A   1      39.907  32.831  35.269  1.00  0.00     0.037 A 
ATOM     47  C   UNL A   1      40.551  28.819  29.539  1.00  0.00     0.037 A 
ATOM     48  C   UNL A   1      40.958  31.853  35.326  1.00  0.00     0.049 A 
ATOM     49  C   UNL A   1      41.478  28.684  30.719  1.00  0.00     0.074 A 
ATOM     50  C   UNL A   1      41.832  31.586  36.364  1.00  0.00     0.029 A 
ATOM     51  N   UNL A   1      41.270  30.976  34.298  1.00  0.00    -0.354 N 
ATOM     52  N   UNL A   1      41.467  29.331  31.858  1.00  0.00    -0.248 NA
ATOM     53  C   UNL A   1      42.556  27.689  30.604  1.00  0.00     0.031 C 
ATOM     54  C   UNL A   1      42.695  30.567  35.952  1.00  0.00     0.029 A 
ATOM     55  C   UNL A   1      42.333  30.173  34.674  1.00  0.00     0.049 A 
ATOM     56  H   UNL A   1      40.805  30.931  33.432  1.00  0.00     0.167 HD
ATOM     57  C   UNL A   1      42.510  28.805  32.608  1.00  0.00     0.074 A 
ATOM     58  C   UNL A   1      43.130  27.777  31.797  1.00  0.00     0.031 C 
ATOM     59  C   UNL A   1      42.920  29.144  33.854  1.00  0.00     0.037 A 
BRANCH  46  60
ATOM     60  C   UNL A   1      39.672  33.702  36.465  1.00  0.00     0.064 A 
ATOM     61  C   UNL A   1      40.261  34.972  36.564  1.00  0.00     0.173 A 
ATOM     62  C   UNL A   1      38.832  33.283  37.506  1.00  0.00     0.173 A 
ATOM     63  F   UNL A   1      41.088  35.408  35.602  1.00  0.00    -0.203 F 
ATOM     64  C   UNL A   1      40.034  35.782  37.671  1.00  0.00     0.198 A 
ATOM     65  C   UNL A   1      38.586  34.108  38.600  1.00  0.00     0.198 A 
ATOM     66  F   UNL A   1      38.247  32.077  37.460  1.00  0.00    -0.203 F 
ATOM     67  F   UNL A   1      40.642  36.973  37.763  1.00  0.00    -0.200 F 
ATOM     68  C   UNL A   1      39.190  35.353  38.684  1.00  0.00     0.200 A 
ATOM     69  F   UNL A   1      37.763  33.697  39.575  1.00  0.00    -0.200 F 
ATOM     70  F   UNL A   1      38.965  36.139  39.747  1.00  0.00    -0.200 F 
ENDBRANCH  46  60
BRANCH  47  71
ATOM     71  C   UNL A   1      40.684  27.922  28.361  1.00  0.00     0.064 A 
ATOM     72  C   UNL A   1      40.073  26.660  28.352  1.00  0.00     0.173 A 
ATOM     73  C   UNL A   1      41.423  28.295  27.230  1.00  0.00     0.173 A 
ATOM     74  F   UNL A   1      39.373  26.248  29.420  1.00  0.00    -0.203 F 
ATOM     75  C   UNL A   1      40.209  25.798  27.266  1.00  0.00     0.198 A 
ATOM     76  C   UNL A   1      41.540  27.442  26.133  1.00  0.00     0.198 A 
ATOM     77  F   UNL A   1      42.027  29.492  27.187  1.00  0.00    -0.203 F 
ATOM     78  F   UNL A   1      39.647  24.583  27.301  1.00  0.00    -0.200 F 
ATOM     79  C   UNL A   1      40.938  26.193  26.154  1.00  0.00     0.200 A 
ATOM     80  F   UNL A   1      42.237  27.831  25.056  1.00  0.00    -0.200 F 
ATOM     81  F   UNL A   1      41.068  25.367  25.108  1.00  0.00    -0.200 F 
ENDBRANCH  47  71
BRANCH  59  82
ATOM     82  C   UNL A   1      44.073  28.383  34.437  1.00  0.00     0.064 A 
ATOM     83  C   UNL A   1      43.881  27.173  35.116  1.00  0.00     0.173 A 
ATOM     84  C   UNL A   1      45.390  28.826  34.231  1.00  0.00     0.173 A 
ATOM     85  F   UNL A   1      42.641  26.717  35.345  1.00  0.00    -0.203 F 
ATOM     86  C   UNL A   1      44.967  26.434  35.576  1.00  0.00     0.198 A 
ATOM     87  C   UNL A   1      46.473  28.071  34.670  1.00  0.00     0.198 A 
ATOM     88  F   UNL A   1      45.623  29.975  33.579  1.00  0.00    -0.203 F 
ATOM     89  F   UNL A   1      44.762  25.291  36.246  1.00  0.00    -0.200 F 
ATOM     90  C   UNL A   1      46.261  26.878  35.343  1.00  0.00     0.200 A 
ATOM     91  F   UNL A   1      47.721  28.494  34.430  1.00  0.00    -0.200 F 
ATOM     92  F   UNL A   1      47.305  26.154  35.769  1.00  0.00    -0.200 F 
ENDBRANCH  59  82
ENDBRANCH  33  34
ENDBRANCH  25  28
ENDBRANCH  23  24
ENDBRANCH  22  23
ENDBRANCH  21  22
ENDBRANCH   1  21
TORSDOF 16
ENDMDL
