MODEL 1
REMARK VINA RESULT:     -13.3      0.000      0.000
REMARK SMILES Cc1ccc(CNc2ccc(C(=O)NCCCCNC(=O)c3ccc(-c4c5nc(c(-c6c(F)c(F)c(F)c(F)c6F)c6ccc([nH]6)c(-c6c(F)c(F)c(F)c(F)c6F)c6nc(c(-c7c(F)c(F)c(F)c(F)c7F)c7ccc4[nH]7)C=C6)C=C5)cc3)cc2Br)cc1
REMARK SMILES IDX 16 1 15 2 14 3 12 4 13 5 11 7 8 8 9 9 86 10 10 11 85 12
REMARK SMILES IDX 87 13 7 14 6 16 5 17 1 18 2 19 3 20 89 21 4 22 88 23 17 24
REMARK SMILES IDX 18 25 19 26 20 27 21 29 22 30 23 31 84 32 24 33 83 34 25 35
REMARK SMILES IDX 26 36 27 37 77 38 28 39 82 40 76 41 78 42 29 43 81 44 75 45
REMARK SMILES IDX 74 46 30 48 62 49 42 50 61 51 43 52 46 53 60 54 79 55 44 56
REMARK SMILES IDX 45 57 59 59 80 60 47 61 31 62 32 63 40 64 33 65 34 66 38 67
REMARK SMILES IDX 41 68 35 69 36 70 39 71 37 72 63 73 64 74 72 75 65 76 66 77
REMARK SMILES IDX 70 78 73 79 67 80 68 81 71 82 69 83 48 84 49 85 57 86 50 87
REMARK SMILES IDX 51 88 55 89 58 90 52 91 53 92 56 93 54 94
REMARK H PARENT 14 6 7 15 19 28 78 47 46 58
REMARK Flexibility Score: inf
ROOT
ATOM      1  C   UNL A   1      36.578  21.918  24.353  1.00  0.00     0.023 C 
ENDROOT
BRANCH   1   2
ATOM      2  C   UNL A   1      35.922  21.126  25.484  1.00  0.00     0.116 C 
BRANCH   2   3
ATOM      3  N   UNL A   1      35.074  20.031  25.034  1.00  0.00    -0.352 N 
ATOM      4  C   UNL A   1      33.772  19.953  24.598  1.00  0.00     0.251 C 
ATOM      5  O   UNL A   1      33.317  18.835  24.353  1.00  0.00    -0.269 OA
ATOM      6  H   UNL A   1      35.531  19.158  25.045  1.00  0.00     0.163 HD
BRANCH   4   7
ATOM      7  C   UNL A   1      32.884  21.133  24.435  1.00  0.00     0.041 A 
ATOM      8  C   UNL A   1      31.160  23.391  24.229  1.00  0.00     0.049 A 
ATOM      9  C   UNL A   1      31.972  22.987  23.167  1.00  0.00     0.028 A 
ATOM     10  C   UNL A   1      31.210  22.610  25.401  1.00  0.00     0.041 A 
ATOM     11  C   UNL A   1      32.767  21.841  23.245  1.00  0.00     0.016 A 
ATOM     12  C   UNL A   1      32.066  21.504  25.510  1.00  0.00     0.031 A 
ATOM     13  Br  UNL A   1      30.073  22.999  26.879  1.00  0.00    -0.049 Br
BRANCH   8  14
ATOM     14  N   UNL A   1      30.325  24.490  24.133  1.00  0.00    -0.380 N 
ATOM     15  H   UNL A   1      29.414  24.399  24.495  1.00  0.00     0.160 HD
BRANCH  14  16
ATOM     16  C   UNL A   1      30.682  25.765  23.540  1.00  0.00     0.148 C 
BRANCH  16  17
ATOM     17  C   UNL A   1      31.534  26.565  24.494  1.00  0.00    -0.029 A 
ATOM     18  C   UNL A   1      34.009  28.785  27.244  1.00  0.00     0.044 C 
ATOM     19  C   UNL A   1      33.154  27.995  26.300  1.00  0.00    -0.051 A 
ATOM     20  C   UNL A   1      33.551  27.837  24.968  1.00  0.00     0.004 A 
ATOM     21  C   UNL A   1      31.952  27.420  26.727  1.00  0.00     0.004 A 
ATOM     22  C   UNL A   1      32.753  27.122  24.076  1.00  0.00     0.006 A 
ATOM     23  C   UNL A   1      31.151  26.708  25.832  1.00  0.00     0.006 A 
ENDBRANCH  16  17
ENDBRANCH  14  16
ENDBRANCH   8  14
ENDBRANCH   4   7
ENDBRANCH   2   3
ENDBRANCH   1   2
BRANCH   1  24
ATOM     24  C   UNL A   1      37.791  22.757  24.745  1.00  0.00     0.023 C 
BRANCH  24  25
ATOM     25  C   UNL A   1      38.351  22.471  26.133  1.00  0.00     0.116 C 
BRANCH  25  26
ATOM     26  N   UNL A   1      39.802  22.511  26.250  1.00  0.00    -0.352 N 
ATOM     27  C   UNL A   1      40.648  23.600  26.436  1.00  0.00     0.251 C 
ATOM     28  H   UNL A   1      40.252  21.638  26.188  1.00  0.00     0.163 HD
ATOM     29  O   UNL A   1      41.855  23.444  26.402  1.00  0.00    -0.269 OA
BRANCH  27  30
ATOM     30  C   UNL A   1      40.083  24.924  26.821  1.00  0.00     0.039 A 
ATOM     31  C   UNL A   1      40.521  26.057  26.119  1.00  0.00     0.014 A 
ATOM     32  C   UNL A   1      39.311  25.081  27.965  1.00  0.00     0.014 A 
ATOM     33  C   UNL A   1      40.420  27.315  26.713  1.00  0.00     0.010 A 
ATOM     34  C   UNL A   1      39.317  26.299  28.612  1.00  0.00     0.010 A 
ATOM     35  C   UNL A   1      39.936  27.401  28.016  1.00  0.00    -0.014 A 
BRANCH  35  36
ATOM     36  C   UNL A   1      40.158  28.549  28.887  1.00  0.00     0.031 A 
ATOM     37  C   UNL A   1      39.117  29.584  29.059  1.00  0.00     0.074 A 
ATOM     38  C   UNL A   1      41.269  28.566  29.658  1.00  0.00     0.049 A 
ATOM     39  N   UNL A   1      39.339  30.776  29.497  1.00  0.00    -0.248 NA
ATOM     40  C   UNL A   1      37.722  29.352  28.713  1.00  0.00     0.031 C 
ATOM     41  C   UNL A   1      41.532  29.408  30.821  1.00  0.00     0.029 A 
ATOM     42  N   UNL A   1      42.489  27.909  29.421  1.00  0.00    -0.354 N 
ATOM     43  C   UNL A   1      38.120  31.367  29.753  1.00  0.00     0.074 A 
ATOM     44  C   UNL A   1      37.148  30.460  29.186  1.00  0.00     0.031 C 
ATOM     45  C   UNL A   1      42.858  29.461  31.028  1.00  0.00     0.029 A 
ATOM     46  C   UNL A   1      43.488  28.783  29.908  1.00  0.00     0.049 A 
ATOM     47  H   UNL A   1      42.620  27.026  29.006  1.00  0.00     0.167 HD
ATOM     48  C   UNL A   1      38.071  32.486  30.535  1.00  0.00     0.037 A 
ATOM     49  C   UNL A   1      44.400  29.355  29.068  1.00  0.00     0.037 A 
ATOM     50  C   UNL A   1      39.417  32.924  30.904  1.00  0.00     0.049 A 
ATOM     51  C   UNL A   1      44.367  30.865  29.064  1.00  0.00     0.074 A 
ATOM     52  C   UNL A   1      40.181  32.723  32.043  1.00  0.00     0.029 A 
ATOM     53  N   UNL A   1      40.283  33.402  29.927  1.00  0.00    -0.354 N 
ATOM     54  N   UNL A   1      43.352  31.569  29.477  1.00  0.00    -0.248 NA
ATOM     55  C   UNL A   1      45.454  31.696  28.552  1.00  0.00     0.031 C 
ATOM     56  C   UNL A   1      41.527  33.025  31.727  1.00  0.00     0.029 A 
ATOM     57  C   UNL A   1      41.580  33.429  30.405  1.00  0.00     0.049 A 
ATOM     58  H   UNL A   1      40.011  33.681  29.023  1.00  0.00     0.167 HD
ATOM     59  C   UNL A   1      43.606  32.897  29.270  1.00  0.00     0.074 A 
ATOM     60  C   UNL A   1      44.943  32.929  28.709  1.00  0.00     0.031 C 
ATOM     61  C   UNL A   1      42.684  33.860  29.563  1.00  0.00     0.037 A 
BRANCH  48  62
ATOM     62  C   UNL A   1      36.816  32.993  31.223  1.00  0.00     0.064 A 
ATOM     63  C   UNL A   1      35.871  33.775  30.519  1.00  0.00     0.173 A 
ATOM     64  C   UNL A   1      36.512  32.803  32.582  1.00  0.00     0.173 A 
ATOM     65  F   UNL A   1      35.942  33.935  29.191  1.00  0.00    -0.203 F 
ATOM     66  C   UNL A   1      34.807  34.426  31.152  1.00  0.00     0.198 A 
ATOM     67  C   UNL A   1      35.481  33.497  33.229  1.00  0.00     0.198 A 
ATOM     68  F   UNL A   1      37.154  31.890  33.319  1.00  0.00    -0.203 F 
ATOM     69  F   UNL A   1      33.956  35.166  30.429  1.00  0.00    -0.200 F 
ATOM     70  C   UNL A   1      34.639  34.323  32.517  1.00  0.00     0.200 A 
ATOM     71  F   UNL A   1      35.312  33.353  34.552  1.00  0.00    -0.200 F 
ATOM     72  F   UNL A   1      33.651  34.985  33.133  1.00  0.00    -0.200 F 
ENDBRANCH  48  62
BRANCH  49  73
ATOM     73  C   UNL A   1      44.711  28.515  27.881  1.00  0.00     0.064 A 
ATOM     74  C   UNL A   1      45.490  27.357  28.069  1.00  0.00     0.173 A 
ATOM     75  C   UNL A   1      43.964  28.610  26.702  1.00  0.00     0.173 A 
ATOM     76  F   UNL A   1      46.222  27.214  29.186  1.00  0.00    -0.203 F 
ATOM     77  C   UNL A   1      45.429  26.291  27.175  1.00  0.00     0.198 A 
ATOM     78  C   UNL A   1      43.917  27.544  25.800  1.00  0.00     0.198 A 
ATOM     79  F   UNL A   1      43.185  29.677  26.475  1.00  0.00    -0.203 F 
ATOM     80  F   UNL A   1      46.091  25.155  27.442  1.00  0.00    -0.200 F 
ATOM     81  C   UNL A   1      44.619  26.375  26.055  1.00  0.00     0.200 A 
ATOM     82  F   UNL A   1      43.107  27.610  24.733  1.00  0.00    -0.200 F 
ATOM     83  F   UNL A   1      44.480  25.315  25.247  1.00  0.00    -0.200 F 
ENDBRANCH  49  73
BRANCH  61  84
ATOM     84  C   UNL A   1      42.781  35.309  29.166  1.00  0.00     0.064 A 
ATOM     85  C   UNL A   1      42.118  35.856  28.056  1.00  0.00     0.173 A 
ATOM     86  C   UNL A   1      43.446  36.236  30.003  1.00  0.00     0.173 A 
ATOM     87  F   UNL A   1      41.361  35.095  27.254  1.00  0.00    -0.203 F 
ATOM     88  C   UNL A   1      42.169  37.222  27.766  1.00  0.00     0.198 A 
ATOM     89  C   UNL A   1      43.448  37.604  29.742  1.00  0.00     0.198 A 
ATOM     90  F   UNL A   1      44.090  35.838  31.110  1.00  0.00    -0.203 F 
ATOM     91  F   UNL A   1      41.554  37.691  26.672  1.00  0.00    -0.200 F 
ATOM     92  C   UNL A   1      42.823  38.096  28.614  1.00  0.00     0.200 A 
ATOM     93  F   UNL A   1      44.044  38.445  30.599  1.00  0.00    -0.200 F 
ATOM     94  F   UNL A   1      42.833  39.410  28.355  1.00  0.00    -0.200 F 
ENDBRANCH  61  84
ENDBRANCH  35  36
ENDBRANCH  27  30
ENDBRANCH  25  26
ENDBRANCH  24  25
ENDBRANCH   1  24
TORSDOF 14
ENDMDL
MODEL 2
REMARK VINA RESULT:     -13.2      3.875     10.228
REMARK SMILES Cc1ccc(CNc2ccc(C(=O)NCCCCNC(=O)c3ccc(-c4c5nc(c(-c6c(F)c(F)c(F)c(F)c6F)c6ccc([nH]6)c(-c6c(F)c(F)c(F)c(F)c6F)c6nc(c(-c7c(F)c(F)c(F)c(F)c7F)c7ccc4[nH]7)C=C6)C=C5)cc3)cc2Br)cc1
REMARK SMILES IDX 16 1 15 2 14 3 12 4 13 5 11 7 8 8 9 9 86 10 10 11 85 12
REMARK SMILES IDX 87 13 7 14 6 16 5 17 1 18 2 19 3 20 89 21 4 22 88 23 17 24
REMARK SMILES IDX 18 25 19 26 20 27 21 29 22 30 23 31 84 32 24 33 83 34 25 35
REMARK SMILES IDX 26 36 27 37 77 38 28 39 82 40 76 41 78 42 29 43 81 44 75 45
REMARK SMILES IDX 74 46 30 48 62 49 42 50 61 51 43 52 46 53 60 54 79 55 44 56
REMARK SMILES IDX 45 57 59 59 80 60 47 61 31 62 32 63 40 64 33 65 34 66 38 67
REMARK SMILES IDX 41 68 35 69 36 70 39 71 37 72 63 73 64 74 72 75 65 76 66 77
REMARK SMILES IDX 70 78 73 79 67 80 68 81 71 82 69 83 48 84 49 85 57 86 50 87
REMARK SMILES IDX 51 88 55 89 58 90 52 91 53 92 56 93 54 94
REMARK H PARENT 14 6 7 15 19 28 78 47 46 58
REMARK Flexibility Score: inf
ROOT
ATOM      1  C   UNL A   1      31.747  30.540  25.932  1.00  0.00     0.023 C 
ENDROOT
BRANCH   1   2
ATOM      2  C   UNL A   1      31.693  29.357  24.965  1.00  0.00     0.116 C 
BRANCH   2   3
ATOM      3  N   UNL A   1      32.763  29.344  23.977  1.00  0.00    -0.352 N 
ATOM      4  C   UNL A   1      33.628  28.375  23.524  1.00  0.00     0.251 C 
ATOM      5  O   UNL A   1      34.489  28.712  22.710  1.00  0.00    -0.269 OA
ATOM      6  H   UNL A   1      32.896  30.216  23.539  1.00  0.00     0.163 HD
BRANCH   4   7
ATOM      7  C   UNL A   1      33.597  26.962  23.982  1.00  0.00     0.041 A 
ATOM      8  C   UNL A   1      33.543  24.221  24.756  1.00  0.00     0.049 A 
ATOM      9  C   UNL A   1      33.693  25.246  25.692  1.00  0.00     0.028 A 
ATOM     10  C   UNL A   1      33.387  24.608  23.409  1.00  0.00     0.041 A 
ATOM     11  C   UNL A   1      33.653  26.592  25.321  1.00  0.00     0.016 A 
ATOM     12  C   UNL A   1      33.425  25.956  23.023  1.00  0.00     0.031 A 
ATOM     13  Br  UNL A   1      33.070  23.306  22.055  1.00  0.00    -0.049 Br
BRANCH   8  14
ATOM     14  N   UNL A   1      33.519  22.889  25.129  1.00  0.00    -0.380 N 
ATOM     15  H   UNL A   1      32.647  22.432  25.121  1.00  0.00     0.160 HD
BRANCH  14  16
ATOM     16  C   UNL A   1      34.676  22.111  25.531  1.00  0.00     0.148 C 
BRANCH  16  17
ATOM     17  C   UNL A   1      34.509  20.671  25.114  1.00  0.00    -0.029 A 
ATOM     18  C   UNL A   1      34.039  16.575  23.843  1.00  0.00     0.044 C 
ATOM     19  C   UNL A   1      34.196  18.004  24.263  1.00  0.00    -0.051 A 
ATOM     20  C   UNL A   1      35.465  18.499  24.585  1.00  0.00     0.004 A 
ATOM     21  C   UNL A   1      33.089  18.855  24.353  1.00  0.00     0.004 A 
ATOM     22  C   UNL A   1      35.620  19.821  24.998  1.00  0.00     0.006 A 
ATOM     23  C   UNL A   1      33.245  20.178  24.771  1.00  0.00     0.006 A 
ENDBRANCH  16  17
ENDBRANCH  14  16
ENDBRANCH   8  14
ENDBRANCH   4   7
ENDBRANCH   2   3
ENDBRANCH   1   2
BRANCH   1  24
ATOM     24  C   UNL A   1      32.471  30.288  27.252  1.00  0.00     0.023 C 
BRANCH  24  25
ATOM     25  C   UNL A   1      33.986  30.441  27.194  1.00  0.00     0.116 C 
BRANCH  25  26
ATOM     26  N   UNL A   1      34.570  31.336  28.183  1.00  0.00    -0.352 N 
ATOM     27  C   UNL A   1      35.623  31.119  29.066  1.00  0.00     0.251 C 
ATOM     28  H   UNL A   1      34.157  32.228  28.236  1.00  0.00     0.163 HD
ATOM     29  O   UNL A   1      35.899  31.961  29.901  1.00  0.00    -0.269 OA
BRANCH  27  30
ATOM     30  C   UNL A   1      36.502  29.927  28.898  1.00  0.00     0.039 A 
ATOM     31  C   UNL A   1      36.778  29.146  30.029  1.00  0.00     0.014 A 
ATOM     32  C   UNL A   1      37.202  29.701  27.719  1.00  0.00     0.014 A 
ATOM     33  C   UNL A   1      37.922  28.349  30.052  1.00  0.00     0.010 A 
ATOM     34  C   UNL A   1      38.397  29.015  27.775  1.00  0.00     0.010 A 
ATOM     35  C   UNL A   1      38.792  28.399  28.965  1.00  0.00    -0.014 A 
BRANCH  35  36
ATOM     36  C   UNL A   1      40.183  27.964  29.022  1.00  0.00     0.031 A 
ATOM     37  C   UNL A   1      40.586  26.638  28.510  1.00  0.00     0.074 A 
ATOM     38  C   UNL A   1      41.120  28.861  29.403  1.00  0.00     0.049 A 
ATOM     39  N   UNL A   1      41.677  26.032  28.832  1.00  0.00    -0.248 NA
ATOM     40  C   UNL A   1      39.750  25.868  27.598  1.00  0.00     0.031 C 
ATOM     41  C   UNL A   1      42.566  28.770  29.216  1.00  0.00     0.029 A 
ATOM     42  N   UNL A   1      40.946  29.995  30.216  1.00  0.00    -0.354 N 
ATOM     43  C   UNL A   1      41.828  24.954  27.986  1.00  0.00     0.074 A 
ATOM     44  C   UNL A   1      40.570  24.862  27.282  1.00  0.00     0.031 C 
ATOM     45  C   UNL A   1      43.169  29.587  30.095  1.00  0.00     0.029 A 
ATOM     46  C   UNL A   1      42.134  30.101  30.975  1.00  0.00     0.049 A 
ATOM     47  H   UNL A   1      40.162  30.590  30.248  1.00  0.00     0.167 HD
ATOM     48  C   UNL A   1      43.050  24.352  27.885  1.00  0.00     0.037 A 
ATOM     49  C   UNL A   1      42.124  29.953  32.332  1.00  0.00     0.037 A 
ATOM     50  C   UNL A   1      44.006  24.948  28.817  1.00  0.00     0.049 A 
ATOM     51  C   UNL A   1      42.989  28.820  32.831  1.00  0.00     0.074 A 
ATOM     52  C   UNL A   1      44.983  25.917  28.654  1.00  0.00     0.029 A 
ATOM     53  N   UNL A   1      43.824  24.798  30.187  1.00  0.00    -0.354 N 
ATOM     54  N   UNL A   1      43.387  27.829  32.084  1.00  0.00    -0.248 NA
ATOM     55  C   UNL A   1      43.430  28.689  34.217  1.00  0.00     0.031 C 
ATOM     56  C   UNL A   1      45.347  26.393  29.936  1.00  0.00     0.029 A 
ATOM     57  C   UNL A   1      44.607  25.703  30.879  1.00  0.00     0.049 A 
ATOM     58  H   UNL A   1      43.222  24.140  30.605  1.00  0.00     0.167 HD
ATOM     59  C   UNL A   1      44.085  26.935  32.850  1.00  0.00     0.074 A 
ATOM     60  C   UNL A   1      44.103  27.527  34.174  1.00  0.00     0.031 C 
ATOM     61  C   UNL A   1      44.574  25.771  32.331  1.00  0.00     0.037 A 
BRANCH  48  62
ATOM     62  C   UNL A   1      43.465  23.452  26.734  1.00  0.00     0.064 A 
ATOM     63  C   UNL A   1      43.037  22.106  26.676  1.00  0.00     0.173 A 
ATOM     64  C   UNL A   1      44.331  23.828  25.691  1.00  0.00     0.173 A 
ATOM     65  F   UNL A   1      42.106  21.630  27.513  1.00  0.00    -0.203 F 
ATOM     66  C   UNL A   1      43.546  21.189  25.752  1.00  0.00     0.198 A 
ATOM     67  C   UNL A   1      44.885  22.901  24.800  1.00  0.00     0.198 A 
ATOM     68  F   UNL A   1      44.621  25.112  25.455  1.00  0.00    -0.203 F 
ATOM     69  F   UNL A   1      43.110  19.922  25.762  1.00  0.00    -0.200 F 
ATOM     70  C   UNL A   1      44.506  21.577  24.841  1.00  0.00     0.200 A 
ATOM     71  F   UNL A   1      45.790  23.308  23.897  1.00  0.00    -0.200 F 
ATOM     72  F   UNL A   1      45.032  20.690  23.987  1.00  0.00    -0.200 F 
ENDBRANCH  48  62
BRANCH  49  73
ATOM     73  C   UNL A   1      40.843  30.376  32.958  1.00  0.00     0.064 A 
ATOM     74  C   UNL A   1      40.563  31.753  33.039  1.00  0.00     0.173 A 
ATOM     75  C   UNL A   1      39.774  29.486  33.107  1.00  0.00     0.173 A 
ATOM     76  F   UNL A   1      41.553  32.649  32.898  1.00  0.00    -0.203 F 
ATOM     77  C   UNL A   1      39.255  32.221  33.144  1.00  0.00     0.198 A 
ATOM     78  C   UNL A   1      38.464  29.959  33.226  1.00  0.00     0.198 A 
ATOM     79  F   UNL A   1      39.972  28.163  33.018  1.00  0.00    -0.203 F 
ATOM     80  F   UNL A   1      39.011  33.539  33.099  1.00  0.00    -0.200 F 
ATOM     81  C   UNL A   1      38.204  31.322  33.208  1.00  0.00     0.200 A 
ATOM     82  F   UNL A   1      37.443  29.090  33.255  1.00  0.00    -0.200 F 
ATOM     83  F   UNL A   1      36.940  31.766  33.207  1.00  0.00    -0.200 F 
ENDBRANCH  49  73
BRANCH  61  84
ATOM     84  C   UNL A   1      45.150  24.635  33.132  1.00  0.00     0.064 A 
ATOM     85  C   UNL A   1      46.452  24.637  33.658  1.00  0.00     0.173 A 
ATOM     86  C   UNL A   1      44.331  23.549  33.524  1.00  0.00     0.173 A 
ATOM     87  F   UNL A   1      47.283  25.668  33.451  1.00  0.00    -0.203 F 
ATOM     88  C   UNL A   1      46.923  23.598  34.464  1.00  0.00     0.198 A 
ATOM     89  C   UNL A   1      44.786  22.543  34.373  1.00  0.00     0.198 A 
ATOM     90  F   UNL A   1      43.059  23.451  33.111  1.00  0.00    -0.203 F 
ATOM     91  F   UNL A   1      48.186  23.625  34.909  1.00  0.00    -0.200 F 
ATOM     92  C   UNL A   1      46.088  22.559  34.831  1.00  0.00     0.200 A 
ATOM     93  F   UNL A   1      43.951  21.569  34.759  1.00  0.00    -0.200 F 
ATOM     94  F   UNL A   1      46.531  21.587  35.639  1.00  0.00    -0.200 F 
ENDBRANCH  61  84
ENDBRANCH  35  36
ENDBRANCH  27  30
ENDBRANCH  25  26
ENDBRANCH  24  25
ENDBRANCH   1  24
TORSDOF 14
ENDMDL
MODEL 3
REMARK VINA RESULT:     -13.2      1.687      2.018
REMARK SMILES Cc1ccc(CNc2ccc(C(=O)NCCCCNC(=O)c3ccc(-c4c5nc(c(-c6c(F)c(F)c(F)c(F)c6F)c6ccc([nH]6)c(-c6c(F)c(F)c(F)c(F)c6F)c6nc(c(-c7c(F)c(F)c(F)c(F)c7F)c7ccc4[nH]7)C=C6)C=C5)cc3)cc2Br)cc1
REMARK SMILES IDX 16 1 15 2 14 3 12 4 13 5 11 7 8 8 9 9 86 10 10 11 85 12
REMARK SMILES IDX 87 13 7 14 6 16 5 17 1 18 2 19 3 20 89 21 4 22 88 23 17 24
REMARK SMILES IDX 18 25 19 26 20 27 21 29 22 30 23 31 84 32 24 33 83 34 25 35
REMARK SMILES IDX 26 36 27 37 77 38 28 39 82 40 76 41 78 42 29 43 81 44 75 45
REMARK SMILES IDX 74 46 30 48 62 49 42 50 61 51 43 52 46 53 60 54 79 55 44 56
REMARK SMILES IDX 45 57 59 59 80 60 47 61 31 62 32 63 40 64 33 65 34 66 38 67
REMARK SMILES IDX 41 68 35 69 36 70 39 71 37 72 63 73 64 74 72 75 65 76 66 77
REMARK SMILES IDX 70 78 73 79 67 80 68 81 71 82 69 83 48 84 49 85 57 86 50 87
REMARK SMILES IDX 51 88 55 89 58 90 52 91 53 92 56 93 54 94
REMARK H PARENT 14 6 7 15 19 28 78 47 46 58
REMARK Flexibility Score: inf
ROOT
ATOM      1  C   UNL A   1      36.430  21.960  24.301  1.00  0.00     0.023 C 
ENDROOT
BRANCH   1   2
ATOM      2  C   UNL A   1      35.049  21.363  24.572  1.00  0.00     0.116 C 
BRANCH   2   3
ATOM      3  N   UNL A   1      34.712  21.255  25.985  1.00  0.00    -0.352 N 
ATOM      4  C   UNL A   1      33.853  21.939  26.813  1.00  0.00     0.251 C 
ATOM      5  O   UNL A   1      33.854  21.641  28.009  1.00  0.00    -0.269 OA
ATOM      6  H   UNL A   1      35.204  20.537  26.446  1.00  0.00     0.163 HD
BRANCH   4   7
ATOM      7  C   UNL A   1      32.954  23.028  26.353  1.00  0.00     0.041 A 
ATOM      8  C   UNL A   1      31.318  25.178  25.449  1.00  0.00     0.049 A 
ATOM      9  C   UNL A   1      30.790  23.912  25.711  1.00  0.00     0.028 A 
ATOM     10  C   UNL A   1      32.697  25.352  25.683  1.00  0.00     0.041 A 
ATOM     11  C   UNL A   1      31.579  22.877  26.217  1.00  0.00     0.016 A 
ATOM     12  C   UNL A   1      33.508  24.293  26.117  1.00  0.00     0.031 A 
ATOM     13  Br  UNL A   1      33.512  27.060  25.463  1.00  0.00    -0.049 Br
BRANCH   8  14
ATOM     14  N   UNL A   1      30.526  26.223  25.008  1.00  0.00    -0.380 N 
ATOM     15  H   UNL A   1      30.173  26.842  25.687  1.00  0.00     0.160 HD
BRANCH  14  16
ATOM     16  C   UNL A   1      30.172  26.480  23.624  1.00  0.00     0.148 C 
BRANCH  16  17
ATOM     17  C   UNL A   1      29.531  27.839  23.491  1.00  0.00    -0.029 A 
ATOM     18  C   UNL A   1      27.717  31.727  23.033  1.00  0.00     0.044 C 
ATOM     19  C   UNL A   1      28.360  30.380  23.174  1.00  0.00    -0.051 A 
ATOM     20  C   UNL A   1      27.594  29.223  22.997  1.00  0.00     0.004 A 
ATOM     21  C   UNL A   1      29.716  30.259  23.493  1.00  0.00     0.004 A 
ATOM     22  C   UNL A   1      28.176  27.965  23.145  1.00  0.00     0.006 A 
ATOM     23  C   UNL A   1      30.298  28.999  23.647  1.00  0.00     0.006 A 
ENDBRANCH  16  17
ENDBRANCH  14  16
ENDBRANCH   8  14
ENDBRANCH   4   7
ENDBRANCH   2   3
ENDBRANCH   1   2
BRANCH   1  24
ATOM     24  C   UNL A   1      37.445  21.831  25.434  1.00  0.00     0.023 C 
BRANCH  24  25
ATOM     25  C   UNL A   1      38.188  23.115  25.782  1.00  0.00     0.116 C 
BRANCH  25  26
ATOM     26  N   UNL A   1      39.562  22.948  26.235  1.00  0.00    -0.352 N 
ATOM     27  C   UNL A   1      40.441  23.885  26.770  1.00  0.00     0.251 C 
ATOM     28  H   UNL A   1      39.923  22.037  26.149  1.00  0.00     0.163 HD
ATOM     29  O   UNL A   1      41.597  23.576  26.991  1.00  0.00    -0.269 OA
BRANCH  27  30
ATOM     30  C   UNL A   1      39.934  25.217  27.206  1.00  0.00     0.039 A 
ATOM     31  C   UNL A   1      40.281  26.338  26.439  1.00  0.00     0.014 A 
ATOM     32  C   UNL A   1      39.317  25.392  28.438  1.00  0.00     0.014 A 
ATOM     33  C   UNL A   1      40.262  27.604  27.024  1.00  0.00     0.010 A 
ATOM     34  C   UNL A   1      39.410  26.618  29.063  1.00  0.00     0.010 A 
ATOM     35  C   UNL A   1      39.951  27.709  28.378  1.00  0.00    -0.014 A 
BRANCH  35  36
ATOM     36  C   UNL A   1      40.287  28.868  29.197  1.00  0.00     0.031 A 
ATOM     37  C   UNL A   1      39.273  29.896  29.509  1.00  0.00     0.074 A 
ATOM     38  C   UNL A   1      41.497  28.900  29.798  1.00  0.00     0.049 A 
ATOM     39  N   UNL A   1      39.545  31.095  29.900  1.00  0.00    -0.248 NA
ATOM     40  C   UNL A   1      37.844  29.651  29.370  1.00  0.00     0.031 C 
ATOM     41  C   UNL A   1      41.919  29.755  30.904  1.00  0.00     0.029 A 
ATOM     42  N   UNL A   1      42.676  28.249  29.393  1.00  0.00    -0.354 N 
ATOM     43  C   UNL A   1      38.371  31.679  30.325  1.00  0.00     0.074 A 
ATOM     44  C   UNL A   1      37.335  30.760  29.913  1.00  0.00     0.031 C 
ATOM     45  C   UNL A   1      43.260  29.819  30.916  1.00  0.00     0.029 A 
ATOM     46  C   UNL A   1      43.727  29.135  29.722  1.00  0.00     0.049 A 
ATOM     47  H   UNL A   1      42.753  27.363  28.971  1.00  0.00     0.167 HD
ATOM     48  C   UNL A   1      38.427  32.805  31.096  1.00  0.00     0.037 A 
ATOM     49  C   UNL A   1      44.503  29.705  28.754  1.00  0.00     0.037 A 
ATOM     50  C   UNL A   1      39.808  33.256  31.262  1.00  0.00     0.049 A 
ATOM     51  C   UNL A   1      44.457  31.215  28.742  1.00  0.00     0.074 A 
ATOM     52  C   UNL A   1      40.731  33.072  32.280  1.00  0.00     0.029 A 
ATOM     53  N   UNL A   1      40.520  33.731  30.166  1.00  0.00    -0.354 N 
ATOM     54  N   UNL A   1      43.506  31.915  29.291  1.00  0.00    -0.248 NA
ATOM     55  C   UNL A   1      45.451  32.049  28.071  1.00  0.00     0.031 C 
ATOM     56  C   UNL A   1      42.014  33.381  31.769  1.00  0.00     0.029 A 
ATOM     57  C   UNL A   1      41.872  33.772  30.450  1.00  0.00     0.049 A 
ATOM     58  H   UNL A   1      40.117  33.999  29.308  1.00  0.00     0.167 HD
ATOM     59  C   UNL A   1      43.716  33.244  29.038  1.00  0.00     0.074 A 
ATOM     60  C   UNL A   1      44.957  33.279  28.289  1.00  0.00     0.031 C 
ATOM     61  C   UNL A   1      42.838  34.202  29.453  1.00  0.00     0.037 A 
BRANCH  48  62
ATOM     62  C   UNL A   1      37.281  33.310  31.954  1.00  0.00     0.064 A 
ATOM     63  C   UNL A   1      36.202  34.020  31.376  1.00  0.00     0.173 A 
ATOM     64  C   UNL A   1      37.209  33.188  33.353  1.00  0.00     0.173 A 
ATOM     65  F   UNL A   1      36.050  34.107  30.049  1.00  0.00    -0.203 F 
ATOM     66  C   UNL A   1      35.230  34.671  32.141  1.00  0.00     0.198 A 
ATOM     67  C   UNL A   1      36.269  33.884  34.124  1.00  0.00     0.198 A 
ATOM     68  F   UNL A   1      37.999  32.340  34.020  1.00  0.00    -0.203 F 
ATOM     69  F   UNL A   1      34.243  35.342  31.531  1.00  0.00    -0.200 F 
ATOM     70  C   UNL A   1      35.289  34.640  33.518  1.00  0.00     0.200 A 
ATOM     71  F   UNL A   1      36.324  33.810  35.462  1.00  0.00    -0.200 F 
ATOM     72  F   UNL A   1      34.388  35.305  34.254  1.00  0.00    -0.200 F 
ENDBRANCH  48  62
BRANCH  49  73
ATOM     73  C   UNL A   1      44.646  28.856  27.542  1.00  0.00     0.064 A 
ATOM     74  C   UNL A   1      45.493  27.733  27.610  1.00  0.00     0.173 A 
ATOM     75  C   UNL A   1      43.708  28.899  26.504  1.00  0.00     0.173 A 
ATOM     76  F   UNL A   1      46.407  27.641  28.590  1.00  0.00    -0.203 F 
ATOM     77  C   UNL A   1      45.329  26.649  26.752  1.00  0.00     0.198 A 
ATOM     78  C   UNL A   1      43.556  27.815  25.636  1.00  0.00     0.198 A 
ATOM     79  F   UNL A   1      42.858  29.930  26.399  1.00  0.00    -0.203 F 
ATOM     80  F   UNL A   1      46.073  25.546  26.918  1.00  0.00    -0.200 F 
ATOM     81  C   UNL A   1      44.339  26.679  25.783  1.00  0.00     0.200 A 
ATOM     82  F   UNL A   1      42.577  27.829  24.720  1.00  0.00    -0.200 F 
ATOM     83  F   UNL A   1      44.112  25.600  25.023  1.00  0.00    -0.200 F 
ENDBRANCH  49  73
BRANCH  61  84
ATOM     84  C   UNL A   1      42.865  35.648  29.034  1.00  0.00     0.064 A 
ATOM     85  C   UNL A   1      42.180  36.144  27.913  1.00  0.00     0.173 A 
ATOM     86  C   UNL A   1      43.478  36.620  29.859  1.00  0.00     0.173 A 
ATOM     87  F   UNL A   1      41.466  35.333  27.120  1.00  0.00    -0.203 F 
ATOM     88  C   UNL A   1      42.164  37.506  27.602  1.00  0.00     0.198 A 
ATOM     89  C   UNL A   1      43.413  37.983  29.577  1.00  0.00     0.198 A 
ATOM     90  F   UNL A   1      44.136  36.273  30.975  1.00  0.00    -0.203 F 
ATOM     91  F   UNL A   1      41.531  37.927  26.499  1.00  0.00    -0.200 F 
ATOM     92  C   UNL A   1      42.770  38.425  28.439  1.00  0.00     0.200 A 
ATOM     93  F   UNL A   1      43.962  38.866  30.423  1.00  0.00    -0.200 F 
ATOM     94  F   UNL A   1      42.715  39.734  28.159  1.00  0.00    -0.200 F 
ENDBRANCH  61  84
ENDBRANCH  35  36
ENDBRANCH  27  30
ENDBRANCH  25  26
ENDBRANCH  24  25
ENDBRANCH   1  24
TORSDOF 14
ENDMDL
