MODEL 1
REMARK VINA RESULT:     -13.3      0.000      0.000
REMARK SMILES Cc1cc(Cl)cc2c1O[C@H](C(F)(F)F)C(C(=O)NCCCCNC(=O)c1ccc(-c3c4nc(c(-c5c(F)c(F)c(F)c(F)c5F)c5ccc([nH]5)c(-c5c(F)c(F)c(F)c(F)c5F)c5nc(c(-c6c(F)c(F)c(F)c(F)c6F)c6ccc3[nH]6)C=C5)C=C4)cc1)=C2
REMARK SMILES IDX 21 1 20 2 19 3 18 4 16 5 17 6 15 8 1 9 2 10 3 11 8 12 4 13
REMARK SMILES IDX 7 14 9 15 5 16 6 17 89 18 10 19 11 20 12 21 13 22 14 23
REMARK SMILES IDX 22 24 23 25 24 26 25 28 26 29 27 30 88 31 28 32 87 33 29 34
REMARK SMILES IDX 30 35 31 36 81 37 32 38 86 39 80 40 82 41 33 42 85 43 79 44
REMARK SMILES IDX 78 45 34 47 66 48 46 49 65 50 47 51 50 52 64 53 83 54 48 55
REMARK SMILES IDX 49 56 63 58 84 59 51 60 35 61 36 62 44 63 37 64 38 65 42 66
REMARK SMILES IDX 45 67 39 68 40 69 43 70 41 71 67 72 68 73 76 74 69 75 70 76
REMARK SMILES IDX 74 77 77 78 71 79 72 80 75 81 73 82 52 83 53 84 61 85 54 86
REMARK SMILES IDX 55 87 59 88 62 89 56 90 57 91 60 92 58 93
REMARK H PARENT 18 7 23 27 82 46 50 57
REMARK Flexibility Score: inf
ROOT
ATOM      1  C   UNL A   1      31.696  31.926  26.694  1.00  0.00     0.023 C 
ENDROOT
BRANCH   1   2
ATOM      2  C   UNL A   1      31.811  30.410  26.880  1.00  0.00     0.023 C 
BRANCH   2   3
ATOM      3  C   UNL A   1      33.242  29.885  26.836  1.00  0.00     0.116 C 
BRANCH   3   4
ATOM      4  N   UNL A   1      33.652  29.544  25.486  1.00  0.00    -0.352 N 
ATOM      5  C   UNL A   1      33.613  28.451  24.689  1.00  0.00     0.251 C 
ATOM      6  O   UNL A   1      34.107  28.607  23.567  1.00  0.00    -0.270 OA
ATOM      7  H   UNL A   1      34.070  30.311  25.031  1.00  0.00     0.163 HD
BRANCH   5   8
ATOM      8  C   UNL A   1      33.032  27.128  25.063  1.00  0.00     0.067 C 
ATOM      9  C   UNL A   1      30.279  23.138  26.875  1.00  0.00     0.048 C 
ATOM     10  C   UNL A   1      31.622  23.332  26.231  1.00  0.00    -0.007 A 
ATOM     11  C   UNL A   1      32.407  22.205  25.947  1.00  0.00     0.027 A 
ATOM     12  C   UNL A   1      32.116  24.598  25.886  1.00  0.00     0.131 A 
ATOM     13  C   UNL A   1      33.656  22.349  25.344  1.00  0.00     0.042 A 
ATOM     14  C   UNL A   1      33.372  24.744  25.285  1.00  0.00     0.019 A 
ATOM     15  O   UNL A   1      31.351  25.685  26.208  1.00  0.00    -0.475 OA
ATOM     16  Cl  UNL A   1      34.606  20.953  25.013  1.00  0.00    -0.084 Cl
ATOM     17  C   UNL A   1      34.144  23.611  25.014  1.00  0.00     0.032 A 
ATOM     18  C   UNL A   1      33.872  26.080  24.977  1.00  0.00     0.025 C 
ATOM     19  C   UNL A   1      31.603  26.909  25.468  1.00  0.00     0.314 C 
BRANCH  19  20
ATOM     20  C   UNL A   1      30.625  26.993  24.281  1.00  0.00     0.429 C 
ATOM     21  F   UNL A   1      29.424  26.460  24.618  1.00  0.00    -0.167 F 
ATOM     22  F   UNL A   1      30.381  28.270  23.901  1.00  0.00    -0.167 F 
ATOM     23  F   UNL A   1      31.070  26.335  23.188  1.00  0.00    -0.167 F 
ENDBRANCH  19  20
ENDBRANCH   5   8
ENDBRANCH   3   4
ENDBRANCH   2   3
ENDBRANCH   1   2
BRANCH   1  24
ATOM     24  C   UNL A   1      32.816  32.751  27.323  1.00  0.00     0.116 C 
BRANCH  24  25
ATOM     25  N   UNL A   1      32.438  34.125  27.627  1.00  0.00    -0.352 N 
ATOM     26  C   UNL A   1      33.000  34.974  28.549  1.00  0.00     0.251 C 
ATOM     27  H   UNL A   1      31.686  34.489  27.108  1.00  0.00     0.163 HD
ATOM     28  O   UNL A   1      32.528  36.087  28.750  1.00  0.00    -0.269 OA
BRANCH  26  29
ATOM     29  C   UNL A   1      34.159  34.504  29.329  1.00  0.00     0.039 A 
ATOM     30  C   UNL A   1      33.936  33.921  30.578  1.00  0.00     0.014 A 
ATOM     31  C   UNL A   1      35.447  34.580  28.792  1.00  0.00     0.014 A 
ATOM     32  C   UNL A   1      35.003  33.343  31.263  1.00  0.00     0.010 A 
ATOM     33  C   UNL A   1      36.499  33.952  29.449  1.00  0.00     0.010 A 
ATOM     34  C   UNL A   1      36.283  33.323  30.686  1.00  0.00    -0.014 A 
BRANCH  34  35
ATOM     35  C   UNL A   1      37.415  32.647  31.360  1.00  0.00     0.031 A 
ATOM     36  C   UNL A   1      38.112  31.505  30.684  1.00  0.00     0.074 A 
ATOM     37  C   UNL A   1      37.768  33.023  32.604  1.00  0.00     0.049 A 
ATOM     38  N   UNL A   1      39.066  30.734  31.137  1.00  0.00    -0.248 NA
ATOM     39  C   UNL A   1      37.656  31.168  29.326  1.00  0.00     0.031 C 
ATOM     40  C   UNL A   1      37.136  34.094  33.376  1.00  0.00     0.029 A 
ATOM     41  N   UNL A   1      38.743  32.540  33.441  1.00  0.00    -0.354 N 
ATOM     42  C   UNL A   1      39.315  29.815  30.129  1.00  0.00     0.074 A 
ATOM     43  C   UNL A   1      38.383  30.092  29.058  1.00  0.00     0.031 C 
ATOM     44  C   UNL A   1      37.756  34.203  34.563  1.00  0.00     0.029 A 
ATOM     45  C   UNL A   1      38.804  33.190  34.647  1.00  0.00     0.049 A 
ATOM     46  H   UNL A   1      39.340  31.796  33.198  1.00  0.00     0.167 HD
ATOM     47  C   UNL A   1      40.256  28.842  30.090  1.00  0.00     0.037 A 
ATOM     48  C   UNL A   1      39.618  32.991  35.702  1.00  0.00     0.037 A 
ATOM     49  C   UNL A   1      41.202  28.590  31.143  1.00  0.00     0.049 A 
ATOM     50  C   UNL A   1      40.654  31.905  35.634  1.00  0.00     0.074 A 
ATOM     51  C   UNL A   1      42.227  27.662  31.179  1.00  0.00     0.029 A 
ATOM     52  N   UNL A   1      41.239  29.277  32.348  1.00  0.00    -0.354 N 
ATOM     53  N   UNL A   1      40.911  31.068  34.658  1.00  0.00    -0.248 NA
ATOM     54  C   UNL A   1      41.515  31.735  36.812  1.00  0.00     0.031 C 
ATOM     55  C   UNL A   1      42.868  27.767  32.417  1.00  0.00     0.029 A 
ATOM     56  C   UNL A   1      42.264  28.782  33.139  1.00  0.00     0.049 A 
ATOM     57  H   UNL A   1      40.629  30.006  32.603  1.00  0.00     0.167 HD
ATOM     58  C   UNL A   1      41.969  30.284  35.094  1.00  0.00     0.074 A 
ATOM     59  C   UNL A   1      42.318  30.754  36.420  1.00  0.00     0.031 C 
ATOM     60  C   UNL A   1      42.594  29.266  34.455  1.00  0.00     0.037 A 
BRANCH  47  61
ATOM     61  C   UNL A   1      40.315  27.988  28.861  1.00  0.00     0.064 A 
ATOM     62  C   UNL A   1      41.069  28.371  27.742  1.00  0.00     0.173 A 
ATOM     63  C   UNL A   1      39.637  26.762  28.810  1.00  0.00     0.173 A 
ATOM     64  F   UNL A   1      41.722  29.543  27.737  1.00  0.00    -0.203 F 
ATOM     65  C   UNL A   1      41.125  27.568  26.607  1.00  0.00     0.198 A 
ATOM     66  C   UNL A   1      39.716  25.948  27.683  1.00  0.00     0.198 A 
ATOM     67  F   UNL A   1      38.904  26.350  29.854  1.00  0.00    -0.203 F 
ATOM     68  F   UNL A   1      41.818  27.973  25.534  1.00  0.00    -0.200 F 
ATOM     69  C   UNL A   1      40.455  26.353  26.581  1.00  0.00     0.200 A 
ATOM     70  F   UNL A   1      39.075  24.772  27.661  1.00  0.00    -0.200 F 
ATOM     71  F   UNL A   1      40.514  25.578  25.491  1.00  0.00    -0.200 F 
ENDBRANCH  47  61
BRANCH  48  72
ATOM     72  C   UNL A   1      39.504  33.867  36.894  1.00  0.00     0.064 A 
ATOM     73  C   UNL A   1      40.152  35.108  36.930  1.00  0.00     0.173 A 
ATOM     74  C   UNL A   1      38.734  33.497  38.005  1.00  0.00     0.173 A 
ATOM     75  F   UNL A   1      40.915  35.495  35.897  1.00  0.00    -0.203 F 
ATOM     76  C   UNL A   1      40.038  35.947  38.037  1.00  0.00     0.198 A 
ATOM     77  C   UNL A   1      38.604  34.346  39.103  1.00  0.00     0.198 A 
ATOM     78  F   UNL A   1      38.091  32.321  38.016  1.00  0.00    -0.203 F 
ATOM     79  F   UNL A   1      40.689  37.119  38.057  1.00  0.00    -0.200 F 
ATOM     80  C   UNL A   1      39.259  35.568  39.119  1.00  0.00     0.200 A 
ATOM     81  F   UNL A   1      37.841  33.982  40.143  1.00  0.00    -0.200 F 
ATOM     82  F   UNL A   1      39.143  36.379  40.180  1.00  0.00    -0.200 F 
ENDBRANCH  48  72
BRANCH  60  83
ATOM     83  C   UNL A   1      43.726  28.594  35.172  1.00  0.00     0.064 A 
ATOM     84  C   UNL A   1      43.509  27.474  35.987  1.00  0.00     0.173 A 
ATOM     85  C   UNL A   1      45.045  29.032  34.986  1.00  0.00     0.173 A 
ATOM     86  F   UNL A   1      42.263  27.029  36.206  1.00  0.00    -0.203 F 
ATOM     87  C   UNL A   1      44.575  26.822  36.600  1.00  0.00     0.198 A 
ATOM     88  C   UNL A   1      46.110  28.362  35.580  1.00  0.00     0.198 A 
ATOM     89  F   UNL A   1      45.301  30.095  34.210  1.00  0.00    -0.203 F 
ATOM     90  F   UNL A   1      44.345  25.769  37.397  1.00  0.00    -0.200 F 
ATOM     91  C   UNL A   1      45.875  27.261  36.389  1.00  0.00     0.200 A 
ATOM     92  F   UNL A   1      47.366  28.780  35.368  1.00  0.00    -0.200 F 
ATOM     93  F   UNL A   1      46.901  26.621  36.968  1.00  0.00    -0.200 F 
ENDBRANCH  60  83
ENDBRANCH  34  35
ENDBRANCH  26  29
ENDBRANCH  24  25
ENDBRANCH   1  24
TORSDOF 12
ENDMDL
MODEL 2
REMARK VINA RESULT:     -13.3      0.111      1.596
REMARK SMILES Cc1cc(Cl)cc2c1O[C@H](C(F)(F)F)C(C(=O)NCCCCNC(=O)c1ccc(-c3c4nc(c(-c5c(F)c(F)c(F)c(F)c5F)c5ccc([nH]5)c(-c5c(F)c(F)c(F)c(F)c5F)c5nc(c(-c6c(F)c(F)c(F)c(F)c6F)c6ccc3[nH]6)C=C5)C=C4)cc1)=C2
REMARK SMILES IDX 21 1 20 2 19 3 18 4 16 5 17 6 15 8 1 9 2 10 3 11 8 12 4 13
REMARK SMILES IDX 7 14 9 15 5 16 6 17 89 18 10 19 11 20 12 21 13 22 14 23
REMARK SMILES IDX 22 24 23 25 24 26 25 28 26 29 27 30 88 31 28 32 87 33 29 34
REMARK SMILES IDX 30 35 31 36 81 37 32 38 86 39 80 40 82 41 33 42 85 43 79 44
REMARK SMILES IDX 78 45 34 47 66 48 46 49 65 50 47 51 50 52 64 53 83 54 48 55
REMARK SMILES IDX 49 56 63 58 84 59 51 60 35 61 36 62 44 63 37 64 38 65 42 66
REMARK SMILES IDX 45 67 39 68 40 69 43 70 41 71 67 72 68 73 76 74 69 75 70 76
REMARK SMILES IDX 74 77 77 78 71 79 72 80 75 81 73 82 52 83 53 84 61 85 54 86
REMARK SMILES IDX 55 87 59 88 62 89 56 90 57 91 60 92 58 93
REMARK H PARENT 18 7 23 27 82 46 50 57
REMARK Flexibility Score: inf
ROOT
ATOM      1  C   UNL A   1      31.663  31.922  26.763  1.00  0.00     0.023 C 
ENDROOT
BRANCH   1   2
ATOM      2  C   UNL A   1      31.842  30.406  26.876  1.00  0.00     0.023 C 
BRANCH   2   3
ATOM      3  C   UNL A   1      33.292  29.942  26.770  1.00  0.00     0.116 C 
BRANCH   3   4
ATOM      4  N   UNL A   1      33.653  29.602  25.405  1.00  0.00    -0.352 N 
ATOM      5  C   UNL A   1      33.579  28.513  24.606  1.00  0.00     0.251 C 
ATOM      6  O   UNL A   1      34.036  28.669  23.469  1.00  0.00    -0.270 OA
ATOM      7  H   UNL A   1      34.060  30.368  24.938  1.00  0.00     0.163 HD
BRANCH   5   8
ATOM      8  C   UNL A   1      33.003  27.192  24.996  1.00  0.00     0.067 C 
ATOM      9  C   UNL A   1      30.277  23.214  26.876  1.00  0.00     0.048 C 
ATOM     10  C   UNL A   1      31.607  23.403  26.203  1.00  0.00    -0.007 A 
ATOM     11  C   UNL A   1      32.383  22.273  25.906  1.00  0.00     0.027 A 
ATOM     12  C   UNL A   1      32.097  24.667  25.844  1.00  0.00     0.131 A 
ATOM     13  C   UNL A   1      33.619  22.411  25.276  1.00  0.00     0.042 A 
ATOM     14  C   UNL A   1      33.341  24.807  25.217  1.00  0.00     0.019 A 
ATOM     15  O   UNL A   1      31.342  25.756  26.180  1.00  0.00    -0.475 OA
ATOM     16  Cl  UNL A   1      34.558  21.012  24.928  1.00  0.00    -0.084 Cl
ATOM     17  C   UNL A   1      34.104  23.672  24.932  1.00  0.00     0.032 A 
ATOM     18  C   UNL A   1      33.837  26.141  24.895  1.00  0.00     0.025 C 
ATOM     19  C   UNL A   1      31.581  26.977  25.432  1.00  0.00     0.314 C 
BRANCH  19  20
ATOM     20  C   UNL A   1      30.580  27.062  24.266  1.00  0.00     0.429 C 
ATOM     21  F   UNL A   1      29.413  26.454  24.599  1.00  0.00    -0.167 F 
ATOM     22  F   UNL A   1      30.264  28.339  23.944  1.00  0.00    -0.167 F 
ATOM     23  F   UNL A   1      31.037  26.473  23.138  1.00  0.00    -0.167 F 
ENDBRANCH  19  20
ENDBRANCH   5   8
ENDBRANCH   3   4
ENDBRANCH   2   3
ENDBRANCH   1   2
BRANCH   1  24
ATOM     24  C   UNL A   1      32.804  32.762  27.333  1.00  0.00     0.116 C 
BRANCH  24  25
ATOM     25  N   UNL A   1      32.430  34.138  27.633  1.00  0.00    -0.352 N 
ATOM     26  C   UNL A   1      32.996  34.987  28.552  1.00  0.00     0.251 C 
ATOM     27  H   UNL A   1      31.680  34.504  27.112  1.00  0.00     0.163 HD
ATOM     28  O   UNL A   1      32.528  36.103  28.750  1.00  0.00    -0.269 OA
BRANCH  26  29
ATOM     29  C   UNL A   1      34.153  34.516  29.334  1.00  0.00     0.039 A 
ATOM     30  C   UNL A   1      33.927  33.944  30.587  1.00  0.00     0.014 A 
ATOM     31  C   UNL A   1      35.441  34.578  28.795  1.00  0.00     0.014 A 
ATOM     32  C   UNL A   1      34.991  33.363  31.276  1.00  0.00     0.010 A 
ATOM     33  C   UNL A   1      36.489  33.949  29.455  1.00  0.00     0.010 A 
ATOM     34  C   UNL A   1      36.270  33.330  30.697  1.00  0.00    -0.014 A 
BRANCH  34  35
ATOM     35  C   UNL A   1      37.398  32.651  31.374  1.00  0.00     0.031 A 
ATOM     36  C   UNL A   1      38.096  31.509  30.699  1.00  0.00     0.074 A 
ATOM     37  C   UNL A   1      37.748  33.026  32.620  1.00  0.00     0.049 A 
ATOM     38  N   UNL A   1      39.047  30.736  31.155  1.00  0.00    -0.248 NA
ATOM     39  C   UNL A   1      37.645  31.174  29.339  1.00  0.00     0.031 C 
ATOM     40  C   UNL A   1      37.115  34.096  33.391  1.00  0.00     0.029 A 
ATOM     41  N   UNL A   1      38.719  32.539  33.459  1.00  0.00    -0.354 N 
ATOM     42  C   UNL A   1      39.299  29.817  30.146  1.00  0.00     0.074 A 
ATOM     43  C   UNL A   1      38.370  30.097  29.073  1.00  0.00     0.031 C 
ATOM     44  C   UNL A   1      37.731  34.203  34.580  1.00  0.00     0.029 A 
ATOM     45  C   UNL A   1      38.778  33.188  34.667  1.00  0.00     0.049 A 
ATOM     46  H   UNL A   1      39.316  31.795  33.218  1.00  0.00     0.167 HD
ATOM     47  C   UNL A   1      40.237  28.843  30.110  1.00  0.00     0.037 A 
ATOM     48  C   UNL A   1      39.587  32.986  35.724  1.00  0.00     0.037 A 
ATOM     49  C   UNL A   1      41.179  28.587  31.166  1.00  0.00     0.049 A 
ATOM     50  C   UNL A   1      40.622  31.898  35.658  1.00  0.00     0.074 A 
ATOM     51  C   UNL A   1      42.202  27.658  31.204  1.00  0.00     0.029 A 
ATOM     52  N   UNL A   1      41.213  29.273  32.372  1.00  0.00    -0.354 N 
ATOM     53  N   UNL A   1      40.880  31.062  34.683  1.00  0.00    -0.248 NA
ATOM     54  C   UNL A   1      41.478  31.725  36.840  1.00  0.00     0.031 C 
ATOM     55  C   UNL A   1      42.839  27.760  32.445  1.00  0.00     0.029 A 
ATOM     56  C   UNL A   1      42.234  28.776  33.166  1.00  0.00     0.049 A 
ATOM     57  H   UNL A   1      40.604  30.003  32.626  1.00  0.00     0.167 HD
ATOM     58  C   UNL A   1      41.935  30.276  35.122  1.00  0.00     0.074 A 
ATOM     59  C   UNL A   1      42.280  30.744  36.450  1.00  0.00     0.031 C 
ATOM     60  C   UNL A   1      42.560  29.257  34.484  1.00  0.00     0.037 A 
BRANCH  47  61
ATOM     61  C   UNL A   1      40.299  27.990  28.880  1.00  0.00     0.064 A 
ATOM     62  C   UNL A   1      41.048  28.379  27.759  1.00  0.00     0.173 A 
ATOM     63  C   UNL A   1      39.630  26.759  28.830  1.00  0.00     0.173 A 
ATOM     64  F   UNL A   1      41.691  29.556  27.754  1.00  0.00    -0.203 F 
ATOM     65  C   UNL A   1      41.106  27.577  26.624  1.00  0.00     0.198 A 
ATOM     66  C   UNL A   1      39.712  25.946  27.703  1.00  0.00     0.198 A 
ATOM     67  F   UNL A   1      38.903  26.341  29.876  1.00  0.00    -0.203 F 
ATOM     68  F   UNL A   1      41.793  27.988  25.549  1.00  0.00    -0.200 F 
ATOM     69  C   UNL A   1      40.444  26.357  26.599  1.00  0.00     0.200 A 
ATOM     70  F   UNL A   1      39.079  24.765  27.682  1.00  0.00    -0.200 F 
ATOM     71  F   UNL A   1      40.507  25.583  25.508  1.00  0.00    -0.200 F 
ENDBRANCH  47  61
BRANCH  48  72
ATOM     72  C   UNL A   1      39.470  33.861  36.917  1.00  0.00     0.064 A 
ATOM     73  C   UNL A   1      38.713  33.460  38.024  1.00  0.00     0.173 A 
ATOM     74  C   UNL A   1      40.126  35.098  36.985  1.00  0.00     0.173 A 
ATOM     75  F   UNL A   1      38.053  32.292  37.995  1.00  0.00    -0.203 F 
ATOM     76  C   UNL A   1      38.610  34.265  39.156  1.00  0.00     0.198 A 
ATOM     77  C   UNL A   1      40.039  35.895  38.126  1.00  0.00     0.198 A 
ATOM     78  F   UNL A   1      40.866  35.525  35.952  1.00  0.00    -0.203 F 
ATOM     79  F   UNL A   1      37.858  33.868  40.192  1.00  0.00    -0.200 F 
ATOM     80  C   UNL A   1      39.279  35.479  39.208  1.00  0.00     0.200 A 
ATOM     81  F   UNL A   1      40.696  37.062  38.178  1.00  0.00    -0.200 F 
ATOM     82  F   UNL A   1      39.187  36.249  40.301  1.00  0.00    -0.200 F 
ENDBRANCH  48  72
BRANCH  60  83
ATOM     83  C   UNL A   1      43.688  28.582  35.204  1.00  0.00     0.064 A 
ATOM     84  C   UNL A   1      45.005  29.052  35.098  1.00  0.00     0.173 A 
ATOM     85  C   UNL A   1      43.438  27.500  36.062  1.00  0.00     0.173 A 
ATOM     86  F   UNL A   1      45.293  30.074  34.279  1.00  0.00    -0.203 F 
ATOM     87  C   UNL A   1      46.035  28.454  35.818  1.00  0.00     0.198 A 
ATOM     88  C   UNL A   1      44.467  26.922  36.798  1.00  0.00     0.198 A 
ATOM     89  F   UNL A   1      42.194  27.021  36.200  1.00  0.00    -0.203 F 
ATOM     90  F   UNL A   1      47.292  28.901  35.682  1.00  0.00    -0.200 F 
ATOM     91  C   UNL A   1      45.764  27.396  36.675  1.00  0.00     0.200 A 
ATOM     92  F   UNL A   1      44.203  25.907  37.633  1.00  0.00    -0.200 F 
ATOM     93  F   UNL A   1      46.756  26.832  37.379  1.00  0.00    -0.200 F 
ENDBRANCH  60  83
ENDBRANCH  34  35
ENDBRANCH  26  29
ENDBRANCH  24  25
ENDBRANCH   1  24
TORSDOF 12
ENDMDL
MODEL 3
REMARK VINA RESULT:     -13.2      0.470      7.506
REMARK SMILES Cc1cc(Cl)cc2c1O[C@H](C(F)(F)F)C(C(=O)NCCCCNC(=O)c1ccc(-c3c4nc(c(-c5c(F)c(F)c(F)c(F)c5F)c5ccc([nH]5)c(-c5c(F)c(F)c(F)c(F)c5F)c5nc(c(-c6c(F)c(F)c(F)c(F)c6F)c6ccc3[nH]6)C=C5)C=C4)cc1)=C2
REMARK SMILES IDX 21 1 20 2 19 3 18 4 16 5 17 6 15 8 1 9 2 10 3 11 8 12 4 13
REMARK SMILES IDX 7 14 9 15 5 16 6 17 89 18 10 19 11 20 12 21 13 22 14 23
REMARK SMILES IDX 22 24 23 25 24 26 25 28 26 29 27 30 88 31 28 32 87 33 29 34
REMARK SMILES IDX 30 35 31 36 81 37 32 38 86 39 80 40 82 41 33 42 85 43 79 44
REMARK SMILES IDX 78 45 34 47 66 48 46 49 65 50 47 51 50 52 64 53 83 54 48 55
REMARK SMILES IDX 49 56 63 58 84 59 51 60 35 61 36 62 44 63 37 64 38 65 42 66
REMARK SMILES IDX 45 67 39 68 40 69 43 70 41 71 67 72 68 73 76 74 69 75 70 76
REMARK SMILES IDX 74 77 77 78 71 79 72 80 75 81 73 82 52 83 53 84 61 85 54 86
REMARK SMILES IDX 55 87 59 88 62 89 56 90 57 91 60 92 58 93
REMARK H PARENT 18 7 23 27 82 46 50 57
REMARK Flexibility Score: inf
ROOT
ATOM      1  C   UNL A   1      31.492  32.009  26.821  1.00  0.00     0.023 C 
ENDROOT
BRANCH   1   2
ATOM      2  C   UNL A   1      31.734  30.508  26.637  1.00  0.00     0.023 C 
BRANCH   2   3
ATOM      3  C   UNL A   1      33.205  30.107  26.663  1.00  0.00     0.116 C 
BRANCH   3   4
ATOM      4  N   UNL A   1      33.671  29.674  25.358  1.00  0.00    -0.352 N 
ATOM      5  C   UNL A   1      33.676  28.525  24.643  1.00  0.00     0.251 C 
ATOM      6  O   UNL A   1      34.211  28.605  23.532  1.00  0.00    -0.270 OA
ATOM      7  H   UNL A   1      34.095  30.411  24.863  1.00  0.00     0.163 HD
BRANCH   5   8
ATOM      8  C   UNL A   1      33.099  27.224  25.093  1.00  0.00     0.067 C 
ATOM      9  C   UNL A   1      30.234  23.313  26.906  1.00  0.00     0.048 C 
ATOM     10  C   UNL A   1      31.673  23.527  26.525  1.00  0.00    -0.007 A 
ATOM     11  C   UNL A   1      32.557  22.440  26.585  1.00  0.00     0.027 A 
ATOM     12  C   UNL A   1      32.162  24.768  26.095  1.00  0.00     0.131 A 
ATOM     13  C   UNL A   1      33.897  22.601  26.233  1.00  0.00     0.042 A 
ATOM     14  C   UNL A   1      33.508  24.932  25.746  1.00  0.00     0.019 A 
ATOM     15  O   UNL A   1      31.289  25.821  26.082  1.00  0.00    -0.475 OA
ATOM     16  Cl  UNL A   1      34.967  21.257  26.323  1.00  0.00    -0.084 Cl
ATOM     17  C   UNL A   1      34.378  23.841  25.817  1.00  0.00     0.032 A 
ATOM     18  C   UNL A   1      33.991  26.248  25.343  1.00  0.00     0.025 C 
ATOM     19  C   UNL A   1      31.629  26.945  25.228  1.00  0.00     0.314 C 
BRANCH  19  20
ATOM     20  C   UNL A   1      30.924  26.780  23.869  1.00  0.00     0.429 C 
ATOM     21  F   UNL A   1      31.773  26.239  22.959  1.00  0.00    -0.167 F 
ATOM     22  F   UNL A   1      29.858  25.947  23.936  1.00  0.00    -0.167 F 
ATOM     23  F   UNL A   1      30.479  27.951  23.364  1.00  0.00    -0.167 F 
ENDBRANCH  19  20
ENDBRANCH   5   8
ENDBRANCH   3   4
ENDBRANCH   2   3
ENDBRANCH   1   2
BRANCH   1  24
ATOM     24  C   UNL A   1      32.706  32.817  27.275  1.00  0.00     0.116 C 
BRANCH  24  25
ATOM     25  N   UNL A   1      32.395  34.194  27.637  1.00  0.00    -0.352 N 
ATOM     26  C   UNL A   1      33.017  34.984  28.574  1.00  0.00     0.251 C 
ATOM     27  H   UNL A   1      31.648  34.609  27.151  1.00  0.00     0.163 HD
ATOM     28  O   UNL A   1      32.599  36.108  28.827  1.00  0.00    -0.269 OA
BRANCH  26  29
ATOM     29  C   UNL A   1      34.173  34.437  29.307  1.00  0.00     0.039 A 
ATOM     30  C   UNL A   1      33.943  33.721  30.483  1.00  0.00     0.014 A 
ATOM     31  C   UNL A   1      35.464  34.574  28.791  1.00  0.00     0.014 A 
ATOM     32  C   UNL A   1      35.009  33.076  31.110  1.00  0.00     0.010 A 
ATOM     33  C   UNL A   1      36.514  33.883  29.383  1.00  0.00     0.010 A 
ATOM     34  C   UNL A   1      36.292  33.123  30.543  1.00  0.00    -0.014 A 
BRANCH  34  35
ATOM     35  C   UNL A   1      37.422  32.382  31.148  1.00  0.00     0.031 A 
ATOM     36  C   UNL A   1      37.910  32.751  32.517  1.00  0.00     0.074 A 
ATOM     37  C   UNL A   1      38.046  31.424  30.436  1.00  0.00     0.049 A 
ATOM     38  N   UNL A   1      38.930  32.282  33.185  1.00  0.00    -0.248 NA
ATOM     39  C   UNL A   1      37.164  33.809  33.217  1.00  0.00     0.031 C 
ATOM     40  C   UNL A   1      37.686  31.008  29.080  1.00  0.00     0.029 A 
ATOM     41  N   UNL A   1      39.121  30.632  30.754  1.00  0.00    -0.354 N 
ATOM     42  C   UNL A   1      38.958  32.993  34.376  1.00  0.00     0.074 A 
ATOM     43  C   UNL A   1      37.882  33.959  34.321  1.00  0.00     0.031 C 
ATOM     44  C   UNL A   1      38.509  30.019  28.692  1.00  0.00     0.029 A 
ATOM     45  C   UNL A   1      39.473  29.756  29.758  1.00  0.00     0.049 A 
ATOM     46  H   UNL A   1      39.595  30.687  31.615  1.00  0.00     0.167 HD
ATOM     47  C   UNL A   1      39.792  32.838  35.430  1.00  0.00     0.037 A 
ATOM     48  C   UNL A   1      40.462  28.844  29.711  1.00  0.00     0.037 A 
ATOM     49  C   UNL A   1      40.841  31.856  35.494  1.00  0.00     0.049 A 
ATOM     50  C   UNL A   1      41.374  28.690  30.896  1.00  0.00     0.074 A 
ATOM     51  C   UNL A   1      41.706  31.584  36.538  1.00  0.00     0.029 A 
ATOM     52  N   UNL A   1      41.161  30.979  34.467  1.00  0.00    -0.354 N 
ATOM     53  N   UNL A   1      41.365  29.339  32.035  1.00  0.00    -0.248 NA
ATOM     54  C   UNL A   1      42.433  27.677  30.790  1.00  0.00     0.031 C 
ATOM     55  C   UNL A   1      42.570  30.561  36.134  1.00  0.00     0.029 A 
ATOM     56  C   UNL A   1      42.221  30.174  34.850  1.00  0.00     0.049 A 
ATOM     57  H   UNL A   1      40.703  30.936  33.597  1.00  0.00     0.167 HD
ATOM     58  C   UNL A   1      42.401  28.805  32.787  1.00  0.00     0.074 A 
ATOM     59  C   UNL A   1      43.012  27.767  31.980  1.00  0.00     0.031 C 
ATOM     60  C   UNL A   1      42.812  29.146  34.032  1.00  0.00     0.037 A 
BRANCH  47  61
ATOM     61  C   UNL A   1      39.593  33.743  36.607  1.00  0.00     0.064 A 
ATOM     62  C   UNL A   1      38.796  33.359  37.696  1.00  0.00     0.173 A 
ATOM     63  C   UNL A   1      40.226  34.993  36.663  1.00  0.00     0.173 A 
ATOM     64  F   UNL A   1      38.157  32.180  37.682  1.00  0.00    -0.203 F 
ATOM     65  C   UNL A   1      38.623  34.202  38.789  1.00  0.00     0.198 A 
ATOM     66  C   UNL A   1      40.071  35.824  37.769  1.00  0.00     0.198 A 
ATOM     67  F   UNL A   1      40.999  35.405  35.648  1.00  0.00    -0.203 F 
ATOM     68  F   UNL A   1      37.823  33.833  39.799  1.00  0.00    -0.200 F 
ATOM     69  C   UNL A   1      39.266  35.431  38.828  1.00  0.00     0.200 A 
ATOM     70  F   UNL A   1      40.699  37.006  37.810  1.00  0.00    -0.200 F 
ATOM     71  F   UNL A   1      39.103  36.240  39.883  1.00  0.00    -0.200 F 
ENDBRANCH  47  61
BRANCH  48  72
ATOM     72  C   UNL A   1      40.611  27.982  28.513  1.00  0.00     0.064 A 
ATOM     73  C   UNL A   1      39.972  26.737  28.446  1.00  0.00     0.173 A 
ATOM     74  C   UNL A   1      41.371  28.388  27.407  1.00  0.00     0.173 A 
ATOM     75  F   UNL A   1      39.250  26.299  29.488  1.00  0.00    -0.203 F 
ATOM     76  C   UNL A   1      40.091  25.927  27.319  1.00  0.00     0.198 A 
ATOM     77  C   UNL A   1      41.473  27.586  26.272  1.00  0.00     0.198 A 
ATOM     78  F   UNL A   1      41.998  29.573  27.422  1.00  0.00    -0.203 F 
ATOM     79  F   UNL A   1      39.489  24.729  27.290  1.00  0.00    -0.200 F 
ATOM     80  C   UNL A   1      40.836  26.355  26.231  1.00  0.00     0.200 A 
ATOM     81  F   UNL A   1      42.184  28.008  25.217  1.00  0.00    -0.200 F 
ATOM     82  F   UNL A   1      40.943  25.580  25.143  1.00  0.00    -0.200 F 
ENDBRANCH  48  72
BRANCH  60  83
ATOM     83  C   UNL A   1      43.968  28.387  34.608  1.00  0.00     0.064 A 
ATOM     84  C   UNL A   1      45.283  28.857  34.484  1.00  0.00     0.173 A 
ATOM     85  C   UNL A   1      43.751  27.216  35.350  1.00  0.00     0.173 A 
ATOM     86  F   UNL A   1      45.540  29.964  33.772  1.00  0.00    -0.203 F 
ATOM     87  C   UNL A   1      46.343  28.175  35.075  1.00  0.00     0.198 A 
ATOM     88  C   UNL A   1      44.811  26.551  35.959  1.00  0.00     0.198 A 
ATOM     89  F   UNL A   1      42.510  26.732  35.501  1.00  0.00    -0.203 F 
ATOM     90  F   UNL A   1      47.596  28.627  34.922  1.00  0.00    -0.200 F 
ATOM     91  C   UNL A   1      46.105  27.028  35.819  1.00  0.00     0.200 A 
ATOM     92  F   UNL A   1      44.579  25.449  36.686  1.00  0.00    -0.200 F 
ATOM     93  F   UNL A   1      47.126  26.382  36.400  1.00  0.00    -0.200 F 
ENDBRANCH  60  83
ENDBRANCH  34  35
ENDBRANCH  26  29
ENDBRANCH  24  25
ENDBRANCH   1  24
TORSDOF 12
ENDMDL
