MODEL 1
REMARK VINA RESULT:     -15.5      0.000      0.000
REMARK SMILES O=C(Cn1nc(C(=O)NCCCCNC(=O)c2ccc(-c3c4nc(c(-c5c(F)c(F)c(F)c(F)c5F)c5ccc([nH]5)c(-c5c(F)c(F)c(F)c(F)c5F)c5nc(c(-c6c(F)c(F)c(F)c(F)c6F)c6ccc3[nH]6)C=C5)C=C4)cc2)c2ccccc2c1=O)Nc1ccc2c(c1)C(=O)c1ccccc1C2=O
REMARK SMILES IDX 11 1 10 2 9 3 7 4 8 5 6 7 4 8 5 9 86 10 85 11 87 12 80 13
REMARK SMILES IDX 84 14 81 15 83 16 82 17 3 18 2 19 1 20 88 21 89 23 90 24
REMARK SMILES IDX 94 25 91 26 93 27 92 28 95 29 103 30 96 31 97 32 102 33
REMARK SMILES IDX 104 34 98 35 101 36 99 37 100 38 12 39 13 40 14 41 15 42
REMARK SMILES IDX 16 44 17 45 18 46 79 47 19 48 78 49 20 50 21 51 22 52 72 53
REMARK SMILES IDX 23 54 77 55 71 56 73 57 24 58 76 59 70 60 69 61 25 63 57 64
REMARK SMILES IDX 37 65 56 66 38 67 41 68 55 69 74 70 39 71 40 72 54 74 75 75
REMARK SMILES IDX 42 76 26 77 27 78 35 79 28 80 29 81 33 82 36 83 30 84 31 85
REMARK SMILES IDX 34 86 32 87 58 88 59 89 67 90 60 91 61 92 65 93 68 94 62 95
REMARK SMILES IDX 63 96 66 97 64 98 43 99 44 100 52 101 45 102 46 103 50 104
REMARK SMILES IDX 53 105 47 106 48 107 51 108 49 109
REMARK H PARENT 9 6 88 22 14 43 73 62 41 73
REMARK Flexibility Score: inf
ROOT
ATOM      1  C   UNL A   1      31.733  30.240  26.709  1.00  0.00     0.023 C 
ENDROOT
BRANCH   1   2
ATOM      2  C   UNL A   1      33.112  29.599  26.581  1.00  0.00     0.116 C 
BRANCH   2   3
ATOM      3  N   UNL A   1      33.578  29.504  25.213  1.00  0.00    -0.351 N 
ATOM      4  C   UNL A   1      32.984  29.024  24.066  1.00  0.00     0.272 C 
ATOM      5  O   UNL A   1      33.585  29.244  23.018  1.00  0.00    -0.267 OA
ATOM      6  H   UNL A   1      34.491  29.846  25.078  1.00  0.00     0.163 HD
BRANCH   4   7
ATOM      7  C   UNL A   1      31.630  28.264  24.063  1.00  0.00     0.156 A 
ATOM      8  N   UNL A   1      30.359  26.498  24.893  1.00  0.00    -0.219 N 
ATOM      9  N   UNL A   1      31.553  27.172  24.771  1.00  0.00    -0.163 NA
ATOM     10  C   UNL A   1      29.174  26.907  24.297  1.00  0.00     0.275 A 
ATOM     11  C   UNL A   1      29.252  28.104  23.442  1.00  0.00     0.051 A 
ATOM     12  O   UNL A   1      28.107  26.312  24.414  1.00  0.00    -0.267 OA
ATOM     13  C   UNL A   1      30.461  28.784  23.293  1.00  0.00     0.020 A 
ATOM     14  C   UNL A   1      28.096  28.525  22.758  1.00  0.00     0.014 A 
ATOM     15  C   UNL A   1      30.497  29.883  22.419  1.00  0.00     0.011 A 
ATOM     16  C   UNL A   1      28.145  29.626  21.908  1.00  0.00     0.001 A 
ATOM     17  C   UNL A   1      29.348  30.301  21.736  1.00  0.00     0.001 A 
BRANCH   8  18
ATOM     18  C   UNL A   1      30.346  25.344  25.798  1.00  0.00     0.248 C 
BRANCH  18  19
ATOM     19  C   UNL A   1      31.787  24.885  26.031  1.00  0.00     0.246 C 
ATOM     20  O   UNL A   1      32.736  25.665  26.006  1.00  0.00    -0.273 OA
ATOM     21  N   UNL A   1      31.908  23.501  26.132  1.00  0.00    -0.324 N 
ATOM     22  H   UNL A   1      31.251  23.021  26.688  1.00  0.00     0.169 HD
BRANCH  21  23
ATOM     23  C   UNL A   1      32.911  22.739  25.492  1.00  0.00     0.042 A 
ATOM     24  C   UNL A   1      34.212  22.780  26.018  1.00  0.00     0.027 A 
ATOM     25  C   UNL A   1      32.590  21.778  24.532  1.00  0.00     0.039 A 
ATOM     26  C   UNL A   1      35.149  21.796  25.678  1.00  0.00     0.015 A 
ATOM     27  C   UNL A   1      33.496  20.755  24.258  1.00  0.00     0.036 A 
ATOM     28  C   UNL A   1      34.759  20.743  24.846  1.00  0.00     0.034 A 
ATOM     29  C   UNL A   1      33.000  19.551  23.570  1.00  0.00     0.194 C 
ATOM     30  C   UNL A   1      35.569  19.507  24.767  1.00  0.00     0.194 C 
ATOM     31  O   UNL A   1      32.109  19.598  22.737  1.00  0.00    -0.289 OA
ATOM     32  C   UNL A   1      33.545  18.268  24.041  1.00  0.00     0.034 A 
ATOM     33  C   UNL A   1      34.820  18.238  24.603  1.00  0.00     0.034 A 
ATOM     34  O   UNL A   1      36.772  19.516  24.963  1.00  0.00    -0.289 OA
ATOM     35  C   UNL A   1      32.744  17.125  24.026  1.00  0.00     0.013 A 
ATOM     36  C   UNL A   1      35.318  17.043  25.126  1.00  0.00     0.013 A 
ATOM     37  C   UNL A   1      33.221  15.949  24.603  1.00  0.00     0.001 A 
ATOM     38  C   UNL A   1      34.507  15.904  25.145  1.00  0.00     0.001 A 
ENDBRANCH  21  23
ENDBRANCH  18  19
ENDBRANCH   8  18
ENDBRANCH   4   7
ENDBRANCH   2   3
ENDBRANCH   1   2
BRANCH   1  39
ATOM     39  C   UNL A   1      31.707  31.766  26.525  1.00  0.00     0.023 C 
BRANCH  39  40
ATOM     40  C   UNL A   1      32.764  32.550  27.309  1.00  0.00     0.116 C 
BRANCH  40  41
ATOM     41  N   UNL A   1      32.379  33.918  27.623  1.00  0.00    -0.352 N 
ATOM     42  C   UNL A   1      32.949  34.823  28.496  1.00  0.00     0.251 C 
ATOM     43  H   UNL A   1      31.589  34.249  27.138  1.00  0.00     0.163 HD
ATOM     44  O   UNL A   1      32.392  35.904  28.669  1.00  0.00    -0.269 OA
BRANCH  42  45
ATOM     45  C   UNL A   1      34.180  34.497  29.265  1.00  0.00     0.039 A 
ATOM     46  C   UNL A   1      35.452  34.690  28.734  1.00  0.00     0.014 A 
ATOM     47  C   UNL A   1      34.061  33.977  30.561  1.00  0.00     0.014 A 
ATOM     48  C   UNL A   1      36.584  34.223  29.397  1.00  0.00     0.010 A 
ATOM     49  C   UNL A   1      35.201  33.543  31.255  1.00  0.00     0.010 A 
ATOM     50  C   UNL A   1      36.462  33.600  30.643  1.00  0.00    -0.014 A 
BRANCH  50  51
ATOM     51  C   UNL A   1      37.626  32.844  31.174  1.00  0.00     0.031 A 
ATOM     52  C   UNL A   1      38.089  33.138  32.578  1.00  0.00     0.074 A 
ATOM     53  C   UNL A   1      38.163  31.814  30.496  1.00  0.00     0.049 A 
ATOM     54  N   UNL A   1      39.061  32.593  33.265  1.00  0.00    -0.248 NA
ATOM     55  C   UNL A   1      37.342  34.173  33.313  1.00  0.00     0.031 C 
ATOM     56  C   UNL A   1      37.739  31.356  29.176  1.00  0.00     0.029 A 
ATOM     57  N   UNL A   1      39.159  30.936  30.851  1.00  0.00    -0.354 N 
ATOM     58  C   UNL A   1      39.054  33.233  34.497  1.00  0.00     0.074 A 
ATOM     59  C   UNL A   1      37.991  34.212  34.466  1.00  0.00     0.031 C 
ATOM     60  C   UNL A   1      38.436  30.253  28.850  1.00  0.00     0.029 A 
ATOM     61  C   UNL A   1      39.386  29.954  29.921  1.00  0.00     0.049 A 
ATOM     62  H   UNL A   1      39.664  31.006  31.695  1.00  0.00     0.167 HD
ATOM     63  C   UNL A   1      39.854  33.020  35.567  1.00  0.00     0.037 A 
ATOM     64  C   UNL A   1      40.262  28.931  29.932  1.00  0.00     0.037 A 
ATOM     65  C   UNL A   1      40.899  32.038  35.620  1.00  0.00     0.049 A 
ATOM     66  C   UNL A   1      41.197  28.764  31.101  1.00  0.00     0.074 A 
ATOM     67  C   UNL A   1      41.809  31.796  36.633  1.00  0.00     0.029 A 
ATOM     68  N   UNL A   1      41.160  31.121  34.614  1.00  0.00    -0.354 N 
ATOM     69  N   UNL A   1      41.240  29.433  32.226  1.00  0.00    -0.248 NA
ATOM     70  C   UNL A   1      42.220  27.713  30.989  1.00  0.00     0.031 C 
ATOM     71  C   UNL A   1      42.631  30.737  36.235  1.00  0.00     0.029 A 
ATOM     72  C   UNL A   1      42.218  30.309  34.982  1.00  0.00     0.049 A 
ATOM     73  H   UNL A   1      40.666  31.057  33.765  1.00  0.00     0.167 HD
ATOM     74  C   UNL A   1      42.287  28.884  32.956  1.00  0.00     0.074 A 
ATOM     75  C   UNL A   1      42.844  27.815  32.155  1.00  0.00     0.031 C 
ATOM     76  C   UNL A   1      42.751  29.245  34.176  1.00  0.00     0.037 A 
BRANCH  63  77
ATOM     77  C   UNL A   1      39.638  33.894  36.762  1.00  0.00     0.064 A 
ATOM     78  C   UNL A   1      40.247  35.151  36.865  1.00  0.00     0.173 A 
ATOM     79  C   UNL A   1      38.814  33.466  37.812  1.00  0.00     0.173 A 
ATOM     80  F   UNL A   1      41.064  35.587  35.894  1.00  0.00    -0.203 F 
ATOM     81  C   UNL A   1      40.049  35.947  37.989  1.00  0.00     0.198 A 
ATOM     82  C   UNL A   1      38.606  34.271  38.928  1.00  0.00     0.198 A 
ATOM     83  F   UNL A   1      38.218  32.266  37.759  1.00  0.00    -0.203 F 
ATOM     84  F   UNL A   1      40.669  37.131  38.087  1.00  0.00    -0.200 F 
ATOM     85  C   UNL A   1      39.227  35.509  39.018  1.00  0.00     0.200 A 
ATOM     86  F   UNL A   1      37.813  33.846  39.921  1.00  0.00    -0.200 F 
ATOM     87  F   UNL A   1      39.042  36.274  40.101  1.00  0.00    -0.200 F 
ENDBRANCH  63  77
BRANCH  64  88
ATOM     88  C   UNL A   1      40.305  27.975  28.796  1.00  0.00     0.064 A 
ATOM     89  C   UNL A   1      39.604  26.764  28.852  1.00  0.00     0.173 A 
ATOM     90  C   UNL A   1      41.056  28.246  27.643  1.00  0.00     0.173 A 
ATOM     91  F   UNL A   1      38.895  26.451  29.947  1.00  0.00    -0.203 F 
ATOM     92  C   UNL A   1      39.654  25.855  27.796  1.00  0.00     0.198 A 
ATOM     93  C   UNL A   1      41.091  27.345  26.581  1.00  0.00     0.198 A 
ATOM     94  F   UNL A   1      41.754  29.387  27.550  1.00  0.00    -0.203 F 
ATOM     95  F   UNL A   1      38.999  24.690  27.886  1.00  0.00    -0.200 F 
ATOM     96  C   UNL A   1      40.393  26.149  26.661  1.00  0.00     0.200 A 
ATOM     97  F   UNL A   1      41.806  27.632  25.486  1.00  0.00    -0.200 F 
ATOM     98  F   UNL A   1      40.442  25.275  25.646  1.00  0.00    -0.200 F 
ENDBRANCH  64  88
BRANCH  76  99
ATOM     99  C   UNL A   1      43.912  28.481  34.732  1.00  0.00     0.064 A 
ATOM    100  C   UNL A   1      45.224  28.942  34.565  1.00  0.00     0.173 A 
ATOM    101  C   UNL A   1      43.703  27.337  35.514  1.00  0.00     0.173 A 
ATOM    102  F   UNL A   1      45.468  30.029  33.818  1.00  0.00    -0.203 F 
ATOM    103  C   UNL A   1      46.293  28.281  35.164  1.00  0.00     0.198 A 
ATOM    104  C   UNL A   1      44.772  26.685  36.122  1.00  0.00     0.198 A 
ATOM    105  F   UNL A   1      42.462  26.864  35.704  1.00  0.00    -0.203 F 
ATOM    106  F   UNL A   1      47.542  28.731  34.985  1.00  0.00    -0.200 F 
ATOM    107  C   UNL A   1      46.065  27.159  35.948  1.00  0.00     0.200 A 
ATOM    108  F   UNL A   1      44.552  25.606  36.886  1.00  0.00    -0.200 F 
ATOM    109  F   UNL A   1      47.094  26.532  36.536  1.00  0.00    -0.200 F 
ENDBRANCH  76  99
ENDBRANCH  50  51
ENDBRANCH  42  45
ENDBRANCH  40  41
ENDBRANCH  39  40
ENDBRANCH   1  39
TORSDOF 14
ENDMDL
MODEL 2
REMARK VINA RESULT:     -15.2      2.854      4.523
REMARK SMILES O=C(Cn1nc(C(=O)NCCCCNC(=O)c2ccc(-c3c4nc(c(-c5c(F)c(F)c(F)c(F)c5F)c5ccc([nH]5)c(-c5c(F)c(F)c(F)c(F)c5F)c5nc(c(-c6c(F)c(F)c(F)c(F)c6F)c6ccc3[nH]6)C=C5)C=C4)cc2)c2ccccc2c1=O)Nc1ccc2c(c1)C(=O)c1ccccc1C2=O
REMARK SMILES IDX 11 1 10 2 9 3 7 4 8 5 6 7 4 8 5 9 86 10 85 11 87 12 80 13
REMARK SMILES IDX 84 14 81 15 83 16 82 17 3 18 2 19 1 20 88 21 89 23 90 24
REMARK SMILES IDX 94 25 91 26 93 27 92 28 95 29 103 30 96 31 97 32 102 33
REMARK SMILES IDX 104 34 98 35 101 36 99 37 100 38 12 39 13 40 14 41 15 42
REMARK SMILES IDX 16 44 17 45 18 46 79 47 19 48 78 49 20 50 21 51 22 52 72 53
REMARK SMILES IDX 23 54 77 55 71 56 73 57 24 58 76 59 70 60 69 61 25 63 57 64
REMARK SMILES IDX 37 65 56 66 38 67 41 68 55 69 74 70 39 71 40 72 54 74 75 75
REMARK SMILES IDX 42 76 26 77 27 78 35 79 28 80 29 81 33 82 36 83 30 84 31 85
REMARK SMILES IDX 34 86 32 87 58 88 59 89 67 90 60 91 61 92 65 93 68 94 62 95
REMARK SMILES IDX 63 96 66 97 64 98 43 99 44 100 52 101 45 102 46 103 50 104
REMARK SMILES IDX 53 105 47 106 48 107 51 108 49 109
REMARK H PARENT 9 6 88 22 14 43 73 62 41 73
REMARK Flexibility Score: inf
ROOT
ATOM      1  C   UNL A   1      32.182  29.054  27.235  1.00  0.00     0.023 C 
ENDROOT
BRANCH   1   2
ATOM      2  C   UNL A   1      31.906  28.015  26.151  1.00  0.00     0.116 C 
BRANCH   2   3
ATOM      3  N   UNL A   1      31.427  26.752  26.672  1.00  0.00    -0.351 N 
ATOM      4  C   UNL A   1      31.896  25.462  26.543  1.00  0.00     0.272 C 
ATOM      5  O   UNL A   1      31.358  24.622  27.257  1.00  0.00    -0.267 OA
ATOM      6  H   UNL A   1      30.614  26.829  27.220  1.00  0.00     0.163 HD
BRANCH   4   7
ATOM      7  C   UNL A   1      33.046  25.068  25.576  1.00  0.00     0.156 A 
ATOM      8  N   UNL A   1      35.275  24.450  25.313  1.00  0.00    -0.219 N 
ATOM      9  N   UNL A   1      34.230  24.892  26.091  1.00  0.00    -0.163 NA
ATOM     10  C   UNL A   1      35.165  24.161  23.959  1.00  0.00     0.275 A 
ATOM     11  C   UNL A   1      33.851  24.412  23.342  1.00  0.00     0.051 A 
ATOM     12  O   UNL A   1      36.095  23.757  23.266  1.00  0.00    -0.267 OA
ATOM     13  C   UNL A   1      32.789  24.880  24.117  1.00  0.00     0.020 A 
ATOM     14  C   UNL A   1      33.699  24.202  21.959  1.00  0.00     0.014 A 
ATOM     15  C   UNL A   1      31.575  25.162  23.470  1.00  0.00     0.011 A 
ATOM     16  C   UNL A   1      32.485  24.471  21.337  1.00  0.00     0.001 A 
ATOM     17  C   UNL A   1      31.424  24.955  22.093  1.00  0.00     0.001 A 
BRANCH   8  18
ATOM     18  C   UNL A   1      36.540  24.177  26.004  1.00  0.00     0.248 C 
BRANCH  18  19
ATOM     19  C   UNL A   1      36.860  22.687  25.874  1.00  0.00     0.246 C 
ATOM     20  O   UNL A   1      36.123  21.816  26.330  1.00  0.00    -0.273 OA
ATOM     21  N   UNL A   1      38.114  22.446  25.319  1.00  0.00    -0.324 N 
ATOM     22  H   UNL A   1      38.376  22.971  24.528  1.00  0.00     0.169 HD
BRANCH  21  23
ATOM     23  C   UNL A   1      39.037  21.497  25.814  1.00  0.00     0.042 A 
ATOM     24  C   UNL A   1      38.847  20.148  25.473  1.00  0.00     0.027 A 
ATOM     25  C   UNL A   1      40.239  21.892  26.403  1.00  0.00     0.039 A 
ATOM     26  C   UNL A   1      39.892  19.225  25.610  1.00  0.00     0.015 A 
ATOM     27  C   UNL A   1      41.300  20.992  26.462  1.00  0.00     0.036 A 
ATOM     28  C   UNL A   1      41.142  19.673  26.043  1.00  0.00     0.034 A 
ATOM     29  C   UNL A   1      42.653  21.524  26.701  1.00  0.00     0.194 C 
ATOM     30  C   UNL A   1      42.350  18.840  25.844  1.00  0.00     0.194 C 
ATOM     31  O   UNL A   1      42.852  22.502  27.405  1.00  0.00    -0.289 OA
ATOM     32  C   UNL A   1      43.740  20.893  25.937  1.00  0.00     0.034 A 
ATOM     33  C   UNL A   1      43.607  19.564  25.538  1.00  0.00     0.034 A 
ATOM     34  O   UNL A   1      42.288  17.623  25.797  1.00  0.00    -0.289 OA
ATOM     35  C   UNL A   1      44.832  21.657  25.522  1.00  0.00     0.013 A 
ATOM     36  C   UNL A   1      44.594  18.977  24.745  1.00  0.00     0.013 A 
ATOM     37  C   UNL A   1      45.785  21.086  24.680  1.00  0.00     0.001 A 
ATOM     38  C   UNL A   1      45.672  19.747  24.299  1.00  0.00     0.001 A 
ENDBRANCH  21  23
ENDBRANCH  18  19
ENDBRANCH   8  18
ENDBRANCH   4   7
ENDBRANCH   2   3
ENDBRANCH   1   2
BRANCH   1  39
ATOM     39  C   UNL A   1      32.014  30.515  26.792  1.00  0.00     0.023 C 
BRANCH  39  40
ATOM     40  C   UNL A   1      33.109  31.482  27.253  1.00  0.00     0.116 C 
BRANCH  40  41
ATOM     41  N   UNL A   1      32.651  32.847  27.459  1.00  0.00    -0.352 N 
ATOM     42  C   UNL A   1      33.158  33.843  28.270  1.00  0.00     0.251 C 
ATOM     43  H   UNL A   1      31.854  33.101  26.938  1.00  0.00     0.163 HD
ATOM     44  O   UNL A   1      32.544  34.903  28.354  1.00  0.00    -0.269 OA
BRANCH  42  45
ATOM     45  C   UNL A   1      34.389  33.638  29.080  1.00  0.00     0.039 A 
ATOM     46  C   UNL A   1      35.654  33.936  28.583  1.00  0.00     0.014 A 
ATOM     47  C   UNL A   1      34.277  33.127  30.380  1.00  0.00     0.014 A 
ATOM     48  C   UNL A   1      36.803  33.580  29.286  1.00  0.00     0.010 A 
ATOM     49  C   UNL A   1      35.430  32.805  31.114  1.00  0.00     0.010 A 
ATOM     50  C   UNL A   1      36.698  32.965  30.538  1.00  0.00    -0.014 A 
BRANCH  50  51
ATOM     51  C   UNL A   1      37.908  32.323  31.115  1.00  0.00     0.031 A 
ATOM     52  C   UNL A   1      38.322  32.704  32.513  1.00  0.00     0.074 A 
ATOM     53  C   UNL A   1      38.535  31.314  30.485  1.00  0.00     0.049 A 
ATOM     54  N   UNL A   1      39.321  32.263  33.235  1.00  0.00    -0.248 NA
ATOM     55  C   UNL A   1      37.484  33.704  33.197  1.00  0.00     0.031 C 
ATOM     56  C   UNL A   1      38.171  30.775  29.177  1.00  0.00     0.029 A 
ATOM     57  N   UNL A   1      39.590  30.531  30.889  1.00  0.00    -0.354 N 
ATOM     58  C   UNL A   1      39.242  32.945  34.442  1.00  0.00     0.074 A 
ATOM     59  C   UNL A   1      38.107  33.837  34.358  1.00  0.00     0.031 C 
ATOM     60  C   UNL A   1      38.958  29.719  28.905  1.00  0.00     0.029 A 
ATOM     61  C   UNL A   1      39.908  29.535  30.000  1.00  0.00     0.049 A 
ATOM     62  H   UNL A   1      40.072  30.671  31.736  1.00  0.00     0.167 HD
ATOM     63  C   UNL A   1      40.037  32.835  35.530  1.00  0.00     0.037 A 
ATOM     64  C   UNL A   1      40.861  28.585  30.063  1.00  0.00     0.037 A 
ATOM     65  C   UNL A   1      41.154  31.941  35.636  1.00  0.00     0.049 A 
ATOM     66  C   UNL A   1      41.786  28.535  31.252  1.00  0.00     0.074 A 
ATOM     67  C   UNL A   1      42.062  31.809  36.671  1.00  0.00     0.029 A 
ATOM     68  N   UNL A   1      41.503  31.011  34.671  1.00  0.00    -0.354 N 
ATOM     69  N   UNL A   1      41.756  29.246  32.351  1.00  0.00    -0.248 NA
ATOM     70  C   UNL A   1      42.889  27.564  31.195  1.00  0.00     0.031 C 
ATOM     71  C   UNL A   1      42.971  30.803  36.327  1.00  0.00     0.029 A 
ATOM     72  C   UNL A   1      42.614  30.299  35.086  1.00  0.00     0.049 A 
ATOM     73  H   UNL A   1      41.031  30.877  33.817  1.00  0.00     0.167 HD
ATOM     74  C   UNL A   1      42.830  28.809  33.116  1.00  0.00     0.074 A 
ATOM     75  C   UNL A   1      43.482  27.758  32.366  1.00  0.00     0.031 C 
ATOM     76  C   UNL A   1      43.242  29.250  34.329  1.00  0.00     0.037 A 
BRANCH  63  77
ATOM     77  C   UNL A   1      39.733  33.734  36.687  1.00  0.00     0.064 A 
ATOM     78  C   UNL A   1      40.273  35.023  36.771  1.00  0.00     0.173 A 
ATOM     79  C   UNL A   1      38.893  33.296  37.722  1.00  0.00     0.173 A 
ATOM     80  F   UNL A   1      41.103  35.471  35.816  1.00  0.00    -0.203 F 
ATOM     81  C   UNL A   1      39.993  35.843  37.861  1.00  0.00     0.198 A 
ATOM     82  C   UNL A   1      38.603  34.124  38.802  1.00  0.00     0.198 A 
ATOM     83  F   UNL A   1      38.361  32.066  37.686  1.00  0.00    -0.203 F 
ATOM     84  F   UNL A   1      40.549  37.059  37.942  1.00  0.00    -0.200 F 
ATOM     85  C   UNL A   1      39.157  35.394  38.873  1.00  0.00     0.200 A 
ATOM     86  F   UNL A   1      37.796  33.689  39.780  1.00  0.00    -0.200 F 
ATOM     87  F   UNL A   1      38.893  36.183  39.924  1.00  0.00    -0.200 F 
ENDBRANCH  63  77
BRANCH  64  88
ATOM     88  C   UNL A   1      40.998  27.594  28.966  1.00  0.00     0.064 A 
ATOM     89  C   UNL A   1      41.996  27.736  27.993  1.00  0.00     0.173 A 
ATOM     90  C   UNL A   1      40.129  26.499  28.858  1.00  0.00     0.173 A 
ATOM     91  F   UNL A   1      42.832  28.784  28.040  1.00  0.00    -0.203 F 
ATOM     92  C   UNL A   1      42.118  26.819  26.950  1.00  0.00     0.198 A 
ATOM     93  C   UNL A   1      40.263  25.574  27.826  1.00  0.00     0.198 A 
ATOM     94  F   UNL A   1      39.151  26.329  29.759  1.00  0.00    -0.203 F 
ATOM     95  F   UNL A   1      43.062  26.993  26.016  1.00  0.00    -0.200 F 
ATOM     96  C   UNL A   1      41.256  25.737  26.871  1.00  0.00     0.200 A 
ATOM     97  F   UNL A   1      39.428  24.529  27.752  1.00  0.00    -0.200 F 
ATOM     98  F   UNL A   1      41.373  24.856  25.868  1.00  0.00    -0.200 F 
ENDBRANCH  64  88
BRANCH  76  99
ATOM     99  C   UNL A   1      44.449  28.601  34.930  1.00  0.00     0.064 A 
ATOM    100  C   UNL A   1      45.730  29.129  34.725  1.00  0.00     0.173 A 
ATOM    101  C   UNL A   1      44.313  27.502  35.792  1.00  0.00     0.173 A 
ATOM    102  F   UNL A   1      45.905  30.174  33.904  1.00  0.00    -0.203 F 
ATOM    103  C   UNL A   1      46.838  28.579  35.364  1.00  0.00     0.198 A 
ATOM    104  C   UNL A   1      45.421  26.963  36.438  1.00  0.00     0.198 A 
ATOM    105  F   UNL A   1      43.103  26.968  36.020  1.00  0.00    -0.203 F 
ATOM    106  F   UNL A   1      48.057  29.092  35.148  1.00  0.00    -0.200 F 
ATOM    107  C   UNL A   1      46.681  27.502  36.225  1.00  0.00     0.200 A 
ATOM    108  F   UNL A   1      45.269  25.928  37.277  1.00  0.00    -0.200 F 
ATOM    109  F   UNL A   1      47.747  26.984  36.851  1.00  0.00    -0.200 F 
ENDBRANCH  76  99
ENDBRANCH  50  51
ENDBRANCH  42  45
ENDBRANCH  40  41
ENDBRANCH  39  40
ENDBRANCH   1  39
TORSDOF 14
ENDMDL
MODEL 3
REMARK VINA RESULT:     -15.0     10.204     17.389
REMARK SMILES O=C(Cn1nc(C(=O)NCCCCNC(=O)c2ccc(-c3c4nc(c(-c5c(F)c(F)c(F)c(F)c5F)c5ccc([nH]5)c(-c5c(F)c(F)c(F)c(F)c5F)c5nc(c(-c6c(F)c(F)c(F)c(F)c6F)c6ccc3[nH]6)C=C5)C=C4)cc2)c2ccccc2c1=O)Nc1ccc2c(c1)C(=O)c1ccccc1C2=O
REMARK SMILES IDX 11 1 10 2 9 3 7 4 8 5 6 7 4 8 5 9 86 10 85 11 87 12 80 13
REMARK SMILES IDX 84 14 81 15 83 16 82 17 3 18 2 19 1 20 88 21 89 23 90 24
REMARK SMILES IDX 94 25 91 26 93 27 92 28 95 29 103 30 96 31 97 32 102 33
REMARK SMILES IDX 104 34 98 35 101 36 99 37 100 38 12 39 13 40 14 41 15 42
REMARK SMILES IDX 16 44 17 45 18 46 79 47 19 48 78 49 20 50 21 51 22 52 72 53
REMARK SMILES IDX 23 54 77 55 71 56 73 57 24 58 76 59 70 60 69 61 25 63 57 64
REMARK SMILES IDX 37 65 56 66 38 67 41 68 55 69 74 70 39 71 40 72 54 74 75 75
REMARK SMILES IDX 42 76 26 77 27 78 35 79 28 80 29 81 33 82 36 83 30 84 31 85
REMARK SMILES IDX 34 86 32 87 58 88 59 89 67 90 60 91 61 92 65 93 68 94 62 95
REMARK SMILES IDX 63 96 66 97 64 98 43 99 44 100 52 101 45 102 46 103 50 104
REMARK SMILES IDX 53 105 47 106 48 107 51 108 49 109
REMARK H PARENT 9 6 88 22 14 43 73 62 41 73
REMARK Flexibility Score: inf
ROOT
ATOM      1  C   UNL A   1      43.868  40.638  29.825  1.00  0.00     0.023 C 
ENDROOT
BRANCH   1   2
ATOM      2  C   UNL A   1      43.453  40.764  28.362  1.00  0.00     0.116 C 
BRANCH   2   3
ATOM      3  N   UNL A   1      44.257  39.963  27.463  1.00  0.00    -0.351 N 
ATOM      4  C   UNL A   1      44.808  40.230  26.228  1.00  0.00     0.272 C 
ATOM      5  O   UNL A   1      45.591  39.390  25.796  1.00  0.00    -0.267 OA
ATOM      6  H   UNL A   1      44.445  39.056  27.797  1.00  0.00     0.163 HD
BRANCH   4   7
ATOM      7  C   UNL A   1      44.491  41.516  25.416  1.00  0.00     0.156 A 
ATOM      8  N   UNL A   1      43.069  42.610  23.932  1.00  0.00    -0.219 N 
ATOM      9  N   UNL A   1      43.467  41.480  24.611  1.00  0.00    -0.163 NA
ATOM     10  C   UNL A   1      43.698  43.842  24.043  1.00  0.00     0.275 A 
ATOM     11  C   UNL A   1      44.895  43.891  24.900  1.00  0.00     0.051 A 
ATOM     12  O   UNL A   1      43.338  44.853  23.445  1.00  0.00    -0.267 OA
ATOM     13  C   UNL A   1      45.321  42.747  25.577  1.00  0.00     0.020 A 
ATOM     14  C   UNL A   1      45.613  45.097  24.996  1.00  0.00     0.014 A 
ATOM     15  C   UNL A   1      46.502  42.829  26.332  1.00  0.00     0.011 A 
ATOM     16  C   UNL A   1      46.772  45.165  25.762  1.00  0.00     0.001 A 
ATOM     17  C   UNL A   1      47.218  44.029  26.426  1.00  0.00     0.001 A 
BRANCH   8  18
ATOM     18  C   UNL A   1      41.842  42.499  23.135  1.00  0.00     0.248 C 
BRANCH  18  19
ATOM     19  C   UNL A   1      42.225  42.281  21.670  1.00  0.00     0.246 C 
ATOM     20  O   UNL A   1      43.249  41.688  21.342  1.00  0.00    -0.273 OA
ATOM     21  N   UNL A   1      41.373  42.934  20.782  1.00  0.00    -0.324 N 
ATOM     22  H   UNL A   1      40.404  42.873  20.945  1.00  0.00     0.169 HD
BRANCH  21  23
ATOM     23  C   UNL A   1      41.807  43.677  19.662  1.00  0.00     0.042 A 
ATOM     24  C   UNL A   1      40.848  44.065  18.712  1.00  0.00     0.027 A 
ATOM     25  C   UNL A   1      43.086  44.234  19.611  1.00  0.00     0.039 A 
ATOM     26  C   UNL A   1      41.127  45.088  17.796  1.00  0.00     0.015 A 
ATOM     27  C   UNL A   1      43.333  45.305  18.755  1.00  0.00     0.036 A 
ATOM     28  C   UNL A   1      42.354  45.752  17.870  1.00  0.00     0.034 A 
ATOM     29  C   UNL A   1      44.529  46.130  18.997  1.00  0.00     0.194 C 
ATOM     30  C   UNL A   1      42.544  47.057  17.198  1.00  0.00     0.194 C 
ATOM     31  O   UNL A   1      45.565  45.660  19.439  1.00  0.00    -0.289 OA
ATOM     32  C   UNL A   1      44.364  47.579  18.803  1.00  0.00     0.034 A 
ATOM     33  C   UNL A   1      43.409  48.038  17.898  1.00  0.00     0.034 A 
ATOM     34  O   UNL A   1      41.917  47.360  16.198  1.00  0.00    -0.289 OA
ATOM     35  C   UNL A   1      45.077  48.473  19.603  1.00  0.00     0.013 A 
ATOM     36  C   UNL A   1      43.187  49.410  17.762  1.00  0.00     0.013 A 
ATOM     37  C   UNL A   1      44.810  49.838  19.508  1.00  0.00     0.001 A 
ATOM     38  C   UNL A   1      43.873  50.307  18.585  1.00  0.00     0.001 A 
ENDBRANCH  21  23
ENDBRANCH  18  19
ENDBRANCH   8  18
ENDBRANCH   4   7
ENDBRANCH   2   3
ENDBRANCH   1   2
BRANCH   1  39
ATOM     39  C   UNL A   1      43.346  39.383  30.542  1.00  0.00     0.023 C 
BRANCH  39  40
ATOM     40  C   UNL A   1      44.194  38.118  30.374  1.00  0.00     0.116 C 
BRANCH  40  41
ATOM     41  N   UNL A   1      45.606  38.376  30.135  1.00  0.00    -0.352 N 
ATOM     42  C   UNL A   1      46.593  37.539  29.655  1.00  0.00     0.251 C 
ATOM     43  H   UNL A   1      45.903  39.290  30.347  1.00  0.00     0.163 HD
ATOM     44  O   UNL A   1      47.750  37.952  29.622  1.00  0.00    -0.269 OA
BRANCH  42  45
ATOM     45  C   UNL A   1      46.298  36.142  29.237  1.00  0.00     0.039 A 
ATOM     46  C   UNL A   1      45.663  35.854  28.032  1.00  0.00     0.014 A 
ATOM     47  C   UNL A   1      46.662  35.082  30.078  1.00  0.00     0.014 A 
ATOM     48  C   UNL A   1      45.241  34.561  27.736  1.00  0.00     0.010 A 
ATOM     49  C   UNL A   1      46.280  33.768  29.766  1.00  0.00     0.010 A 
ATOM     50  C   UNL A   1      45.503  33.514  28.625  1.00  0.00    -0.014 A 
BRANCH  50  51
ATOM     51  C   UNL A   1      44.783  32.227  28.439  1.00  0.00     0.031 A 
ATOM     52  C   UNL A   1      45.492  31.108  27.720  1.00  0.00     0.074 A 
ATOM     53  C   UNL A   1      43.595  31.997  29.026  1.00  0.00     0.049 A 
ATOM     54  N   UNL A   1      45.080  29.893  27.461  1.00  0.00    -0.248 NA
ATOM     55  C   UNL A   1      46.858  31.392  27.248  1.00  0.00     0.031 C 
ATOM     56  C   UNL A   1      42.851  32.956  29.838  1.00  0.00     0.029 A 
ATOM     57  N   UNL A   1      42.826  30.859  29.062  1.00  0.00    -0.354 N 
ATOM     58  C   UNL A   1      46.124  29.281  26.779  1.00  0.00     0.074 A 
ATOM     59  C   UNL A   1      47.185  30.255  26.654  1.00  0.00     0.031 C 
ATOM     60  C   UNL A   1      41.755  32.354  30.332  1.00  0.00     0.029 A 
ATOM     61  C   UNL A   1      41.699  30.980  29.836  1.00  0.00     0.049 A 
ATOM     62  H   UNL A   1      43.061  30.033  28.578  1.00  0.00     0.167 HD
ATOM     63  C   UNL A   1      46.199  28.016  26.306  1.00  0.00     0.037 A 
ATOM     64  C   UNL A   1      40.732  30.083  30.110  1.00  0.00     0.037 A 
ATOM     65  C   UNL A   1      45.163  27.033  26.439  1.00  0.00     0.049 A 
ATOM     66  C   UNL A   1      40.800  28.706  29.504  1.00  0.00     0.074 A 
ATOM     67  C   UNL A   1      45.119  25.748  25.931  1.00  0.00     0.029 A 
ATOM     68  N   UNL A   1      43.991  27.227  27.152  1.00  0.00    -0.354 N 
ATOM     69  N   UNL A   1      41.752  28.166  28.786  1.00  0.00    -0.248 NA
ATOM     70  C   UNL A   1      39.645  27.823  29.730  1.00  0.00     0.031 C 
ATOM     71  C   UNL A   1      43.910  25.165  26.327  1.00  0.00     0.029 A 
ATOM     72  C   UNL A   1      43.214  26.083  27.098  1.00  0.00     0.049 A 
ATOM     73  H   UNL A   1      43.747  28.055  27.626  1.00  0.00     0.167 HD
ATOM     74  C   UNL A   1      41.317  26.883  28.477  1.00  0.00     0.074 A 
ATOM     75  C   UNL A   1      40.022  26.717  29.101  1.00  0.00     0.031 C 
ATOM     76  C   UNL A   1      41.933  25.934  27.733  1.00  0.00     0.037 A 
BRANCH  63  77
ATOM     77  C   UNL A   1      47.447  27.640  25.571  1.00  0.00     0.064 A 
ATOM     78  C   UNL A   1      48.586  27.191  26.250  1.00  0.00     0.173 A 
ATOM     79  C   UNL A   1      47.500  27.731  24.172  1.00  0.00     0.173 A 
ATOM     80  F   UNL A   1      48.587  27.115  27.590  1.00  0.00    -0.203 F 
ATOM     81  C   UNL A   1      49.745  26.858  25.555  1.00  0.00     0.198 A 
ATOM     82  C   UNL A   1      48.655  27.382  23.479  1.00  0.00     0.198 A 
ATOM     83  F   UNL A   1      46.434  28.163  23.482  1.00  0.00    -0.203 F 
ATOM     84  F   UNL A   1      50.837  26.467  26.225  1.00  0.00    -0.200 F 
ATOM     85  C   UNL A   1      49.778  26.951  24.171  1.00  0.00     0.200 A 
ATOM     86  F   UNL A   1      48.685  27.473  22.143  1.00  0.00    -0.200 F 
ATOM     87  F   UNL A   1      50.896  26.635  23.503  1.00  0.00    -0.200 F 
ENDBRANCH  63  77
BRANCH  64  88
ATOM     88  C   UNL A   1      39.605  30.454  31.004  1.00  0.00     0.064 A 
ATOM     89  C   UNL A   1      38.489  31.136  30.504  1.00  0.00     0.173 A 
ATOM     90  C   UNL A   1      39.629  30.149  32.372  1.00  0.00     0.173 A 
ATOM     91  F   UNL A   1      38.437  31.474  29.207  1.00  0.00    -0.203 F 
ATOM     92  C   UNL A   1      37.437  31.503  31.341  1.00  0.00     0.198 A 
ATOM     93  C   UNL A   1      38.569  30.499  33.205  1.00  0.00     0.198 A 
ATOM     94  F   UNL A   1      40.682  29.508  32.898  1.00  0.00    -0.203 F 
ATOM     95  F   UNL A   1      36.393  32.181  30.845  1.00  0.00    -0.200 F 
ATOM     96  C   UNL A   1      37.475  31.180  32.689  1.00  0.00     0.200 A 
ATOM     97  F   UNL A   1      38.609  30.185  34.506  1.00  0.00    -0.200 F 
ATOM     98  F   UNL A   1      36.463  31.532  33.494  1.00  0.00    -0.200 F 
ENDBRANCH  64  88
BRANCH  76  99
ATOM     99  C   UNL A   1      41.227  24.627  27.552  1.00  0.00     0.064 A 
ATOM    100  C   UNL A   1      40.133  24.513  26.684  1.00  0.00     0.173 A 
ATOM    101  C   UNL A   1      41.706  23.466  28.174  1.00  0.00     0.173 A 
ATOM    102  F   UNL A   1      39.639  25.601  26.074  1.00  0.00    -0.203 F 
ATOM    103  C   UNL A   1      39.540  23.277  26.445  1.00  0.00     0.198 A 
ATOM    104  C   UNL A   1      41.119  22.230  27.923  1.00  0.00     0.198 A 
ATOM    105  F   UNL A   1      42.755  23.529  29.008  1.00  0.00    -0.203 F 
ATOM    106  F   UNL A   1      38.488  23.188  25.619  1.00  0.00    -0.200 F 
ATOM    107  C   UNL A   1      40.038  22.136  27.058  1.00  0.00     0.200 A 
ATOM    108  F   UNL A   1      41.605  21.126  28.508  1.00  0.00    -0.200 F 
ATOM    109  F   UNL A   1      39.475  20.944  26.814  1.00  0.00    -0.200 F 
ENDBRANCH  76  99
ENDBRANCH  50  51
ENDBRANCH  42  45
ENDBRANCH  40  41
ENDBRANCH  39  40
ENDBRANCH   1  39
TORSDOF 14
ENDMDL
