MODEL 1
REMARK VINA RESULT:     -13.3      0.000      0.000
REMARK SMILES O=C(CCC(=O)N1N=C(c2ccc(F)cc2)C[C@@H]1c1ccc2nccnc2c1)NCCCCNC(=O)c1ccc(-c2c3nc(c(-c4c(F)c(F)c(F)c(F)c4F)c4ccc([nH]4)c(-c4c(F)c(F)c(F)c(F)c4F)c4nc(c(-c5c(F)c(F)c(F)c(F)c5F)c5ccc2[nH]5)C=C4)C=C3)cc1
REMARK SMILES IDX 30 1 29 2 1 3 2 4 3 6 4 7 5 8 6 9 7 10 8 11 18 12 9 13 17 14
REMARK SMILES IDX 19 15 20 16 28 17 21 18 27 19 22 20 26 21 23 22 25 23 24 24
REMARK SMILES IDX 10 25 11 26 16 27 12 28 15 29 13 30 14 31 31 32 32 33 33 34
REMARK SMILES IDX 34 35 35 36 36 38 37 39 38 40 99 41 39 42 98 43 40 44 41 45
REMARK SMILES IDX 42 46 92 47 43 48 97 49 91 50 93 51 44 52 96 53 90 54 89 55
REMARK SMILES IDX 45 57 77 58 57 59 76 60 58 61 61 62 75 63 94 64 59 65 60 66
REMARK SMILES IDX 74 68 95 69 62 70 46 71 47 72 55 73 48 74 49 75 53 76 56 77
REMARK SMILES IDX 50 78 51 79 54 80 52 81 78 82 79 83 87 84 80 85 81 86 85 87
REMARK SMILES IDX 88 88 82 89 83 90 86 91 84 92 63 93 64 94 72 95 65 96 66 97
REMARK SMILES IDX 70 98 73 99 67 100 68 101 71 102 69 103
REMARK H PARENT 29 5 34 37 93 56 61 67
REMARK Flexibility Score: inf
ROOT
ATOM      1  C   UNL A   1      35.399  33.053  28.009  1.00  0.00     0.116 C 
ENDROOT
BRANCH   1   2
ATOM      2  N   UNL A   1      35.128  31.599  27.923  1.00  0.00    -0.356 N 
ATOM      3  O   UNL A   1      32.912  31.781  27.294  1.00  0.00    -0.275 OA
ATOM      4  C   UNL A   1      33.925  31.084  27.403  1.00  0.00     0.220 C 
ATOM      5  H   UNL A   1      35.814  30.970  28.241  1.00  0.00     0.163 HD
BRANCH   4   6
ATOM      6  C   UNL A   1      33.992  29.647  26.787  1.00  0.00     0.110 C 
BRANCH   6   7
ATOM      7  C   UNL A   1      33.190  28.576  27.600  1.00  0.00     0.112 C 
BRANCH   7   8
ATOM      8  C   UNL A   1      32.198  27.488  27.045  1.00  0.00     0.243 C 
ATOM      9  O   UNL A   1      31.053  27.446  27.505  1.00  0.00    -0.273 OA
BRANCH   8  10
ATOM     10  N   UNL A   1      32.547  26.746  25.925  1.00  0.00    -0.225 N 
ATOM     11  N   UNL A   1      33.869  26.270  25.773  1.00  0.00    -0.174 NA
ATOM     12  C   UNL A   1      31.625  25.954  25.174  1.00  0.00     0.147 C 
ATOM     13  C   UNL A   1      33.774  25.088  25.222  1.00  0.00     0.071 C 
ATOM     14  C   UNL A   1      32.361  24.640  25.047  1.00  0.00     0.091 C 
BRANCH  12  15
ATOM     15  C   UNL A   1      30.692  26.678  24.197  1.00  0.00    -0.021 A 
ATOM     16  C   UNL A   1      29.323  26.423  24.288  1.00  0.00     0.008 A 
ATOM     17  C   UNL A   1      31.010  27.807  23.430  1.00  0.00     0.036 A 
ATOM     18  C   UNL A   1      28.318  27.185  23.703  1.00  0.00     0.031 A 
ATOM     19  C   UNL A   1      30.017  28.615  22.815  1.00  0.00     0.089 A 
ATOM     20  C   UNL A   1      28.646  28.281  22.966  1.00  0.00     0.089 A 
ATOM     21  N   UNL A   1      30.338  29.722  22.116  1.00  0.00    -0.253 NA
ATOM     22  N   UNL A   1      27.632  28.996  22.451  1.00  0.00    -0.253 NA
ATOM     23  C   UNL A   1      29.310  30.444  21.597  1.00  0.00     0.132 A 
ATOM     24  C   UNL A   1      27.985  30.090  21.758  1.00  0.00     0.132 A 
ENDBRANCH  12  15
BRANCH  13  25
ATOM     25  C   UNL A   1      34.892  24.144  24.921  1.00  0.00    -0.002 A 
ATOM     26  C   UNL A   1      35.769  23.707  25.931  1.00  0.00     0.013 A 
ATOM     27  C   UNL A   1      35.101  23.681  23.620  1.00  0.00     0.013 A 
ATOM     28  C   UNL A   1      36.734  22.725  25.685  1.00  0.00     0.040 A 
ATOM     29  C   UNL A   1      36.106  22.737  23.360  1.00  0.00     0.040 A 
ATOM     30  C   UNL A   1      36.886  22.238  24.399  1.00  0.00     0.123 A 
ATOM     31  F   UNL A   1      37.791  21.281  24.158  1.00  0.00    -0.207 F 
ENDBRANCH  13  25
ENDBRANCH   8  10
ENDBRANCH   7   8
ENDBRANCH   6   7
ENDBRANCH   4   6
ENDBRANCH   1   2
BRANCH   1  32
ATOM     32  C   UNL A   1      34.705  34.083  29.030  1.00  0.00     0.023 C 
BRANCH  32  33
ATOM     33  C   UNL A   1      33.308  34.833  29.184  1.00  0.00     0.023 C 
BRANCH  33  34
ATOM     34  C   UNL A   1      33.001  36.313  29.577  1.00  0.00     0.116 C 
BRANCH  34  35
ATOM     35  N   UNL A   1      32.386  36.463  30.883  1.00  0.00    -0.352 N 
ATOM     36  C   UNL A   1      32.577  35.795  32.076  1.00  0.00     0.251 C 
ATOM     37  H   UNL A   1      31.706  37.174  30.927  1.00  0.00     0.163 HD
ATOM     38  O   UNL A   1      31.682  35.904  32.918  1.00  0.00    -0.269 OA
BRANCH  36  39
ATOM     39  C   UNL A   1      33.786  34.995  32.450  1.00  0.00     0.039 A 
ATOM     40  C   UNL A   1      35.043  35.617  32.322  1.00  0.00     0.014 A 
ATOM     41  C   UNL A   1      33.757  33.630  32.738  1.00  0.00     0.014 A 
ATOM     42  C   UNL A   1      36.235  34.894  32.478  1.00  0.00     0.010 A 
ATOM     43  C   UNL A   1      34.947  32.894  32.868  1.00  0.00     0.010 A 
ATOM     44  C   UNL A   1      36.194  33.521  32.750  1.00  0.00    -0.014 A 
BRANCH  44  45
ATOM     45  C   UNL A   1      37.429  32.777  33.108  1.00  0.00     0.031 A 
ATOM     46  C   UNL A   1      37.993  31.688  32.245  1.00  0.00     0.074 A 
ATOM     47  C   UNL A   1      37.994  33.070  34.294  1.00  0.00     0.049 A 
ATOM     48  N   UNL A   1      39.078  30.975  32.426  1.00  0.00    -0.248 NA
ATOM     49  C   UNL A   1      37.244  31.339  31.030  1.00  0.00     0.031 C 
ATOM     50  C   UNL A   1      37.480  34.072  35.231  1.00  0.00     0.029 A 
ATOM     51  N   UNL A   1      39.095  32.555  34.928  1.00  0.00    -0.354 N 
ATOM     52  C   UNL A   1      39.156  30.111  31.340  1.00  0.00     0.074 A 
ATOM     53  C   UNL A   1      37.982  30.355  30.528  1.00  0.00     0.031 C 
ATOM     54  C   UNL A   1      38.258  34.095  36.320  1.00  0.00     0.029 A 
ATOM     55  C   UNL A   1      39.320  33.107  36.165  1.00  0.00     0.049 A 
ATOM     56  H   UNL A   1      39.669  31.858  34.534  1.00  0.00     0.167 HD
ATOM     57  C   UNL A   1      40.132  29.213  31.054  1.00  0.00     0.037 A 
ATOM     58  C   UNL A   1      40.279  32.850  37.074  1.00  0.00     0.037 A 
ATOM     59  C   UNL A   1      41.278  28.970  31.899  1.00  0.00     0.049 A 
ATOM     60  C   UNL A   1      41.342  31.846  36.735  1.00  0.00     0.074 A 
ATOM     61  C   UNL A   1      42.352  28.125  31.677  1.00  0.00     0.029 A 
ATOM     62  N   UNL A   1      41.486  29.559  33.139  1.00  0.00    -0.354 N 
ATOM     63  N   UNL A   1      41.466  31.114  35.655  1.00  0.00    -0.248 NA
ATOM     64  C   UNL A   1      42.407  31.645  37.724  1.00  0.00     0.031 C 
ATOM     65  C   UNL A   1      43.177  28.158  32.805  1.00  0.00     0.029 A 
ATOM     66  C   UNL A   1      42.655  29.075  33.705  1.00  0.00     0.049 A 
ATOM     67  H   UNL A   1      40.891  30.224  33.555  1.00  0.00     0.167 HD
ATOM     68  C   UNL A   1      42.633  30.383  35.819  1.00  0.00     0.074 A 
ATOM     69  C   UNL A   1      43.189  30.773  37.100  1.00  0.00     0.031 C 
ATOM     70  C   UNL A   1      43.191  29.472  34.985  1.00  0.00     0.037 A 
BRANCH  57  71
ATOM     71  C   UNL A   1      40.036  28.434  29.770  1.00  0.00     0.064 A 
ATOM     72  C   UNL A   1      39.422  27.170  29.736  1.00  0.00     0.173 A 
ATOM     73  C   UNL A   1      40.657  28.885  28.595  1.00  0.00     0.173 A 
ATOM     74  F   UNL A   1      38.826  26.678  30.832  1.00  0.00    -0.203 F 
ATOM     75  C   UNL A   1      39.450  26.386  28.583  1.00  0.00     0.198 A 
ATOM     76  C   UNL A   1      40.659  28.110  27.436  1.00  0.00     0.198 A 
ATOM     77  F   UNL A   1      41.263  30.081  28.569  1.00  0.00    -0.203 F 
ATOM     78  F   UNL A   1      38.894  25.165  28.590  1.00  0.00    -0.200 F 
ATOM     79  C   UNL A   1      40.066  26.857  27.434  1.00  0.00     0.200 A 
ATOM     80  F   UNL A   1      41.245  28.573  26.323  1.00  0.00    -0.200 F 
ATOM     81  F   UNL A   1      40.093  26.101  26.327  1.00  0.00    -0.200 F 
ENDBRANCH  57  71
BRANCH  58  82
ATOM     82  C   UNL A   1      40.292  33.614  38.347  1.00  0.00     0.064 A 
ATOM     83  C   UNL A   1      39.465  33.255  39.423  1.00  0.00     0.173 A 
ATOM     84  C   UNL A   1      41.075  34.769  38.484  1.00  0.00     0.173 A 
ATOM     85  F   UNL A   1      38.683  32.170  39.335  1.00  0.00    -0.203 F 
ATOM     86  C   UNL A   1      39.403  34.036  40.575  1.00  0.00     0.198 A 
ATOM     87  C   UNL A   1      41.033  35.533  39.647  1.00  0.00     0.198 A 
ATOM     88  F   UNL A   1      41.887  35.148  37.486  1.00  0.00    -0.203 F 
ATOM     89  F   UNL A   1      38.566  33.700  41.567  1.00  0.00    -0.200 F 
ATOM     90  C   UNL A   1      40.189  35.172  40.688  1.00  0.00     0.200 A 
ATOM     91  F   UNL A   1      41.806  36.622  39.759  1.00  0.00    -0.200 F 
ATOM     92  F   UNL A   1      40.130  35.923  41.796  1.00  0.00    -0.200 F 
ENDBRANCH  58  82
BRANCH  70  93
ATOM     93  C   UNL A   1      44.479  28.837  35.421  1.00  0.00     0.064 A 
ATOM     94  C   UNL A   1      45.710  29.384  35.027  1.00  0.00     0.173 A 
ATOM     95  C   UNL A   1      44.495  27.648  36.164  1.00  0.00     0.173 A 
ATOM     96  F   UNL A   1      45.748  30.516  34.310  1.00  0.00    -0.203 F 
ATOM     97  C   UNL A   1      46.909  28.753  35.345  1.00  0.00     0.198 A 
ATOM     98  C   UNL A   1      45.697  27.037  36.509  1.00  0.00     0.198 A 
ATOM     99  F   UNL A   1      43.345  27.095  36.579  1.00  0.00    -0.203 F 
ATOM    100  F   UNL A   1      48.070  29.272  34.924  1.00  0.00    -0.200 F 
ATOM    101  C   UNL A   1      46.901  27.583  36.089  1.00  0.00     0.200 A 
ATOM    102  F   UNL A   1      45.691  25.922  37.252  1.00  0.00    -0.200 F 
ATOM    103  F   UNL A   1      48.057  26.982  36.405  1.00  0.00    -0.200 F 
ENDBRANCH  70  93
ENDBRANCH  44  45
ENDBRANCH  36  39
ENDBRANCH  34  35
ENDBRANCH  33  34
ENDBRANCH  32  33
ENDBRANCH   1  32
TORSDOF 16
ENDMDL
MODEL 2
REMARK VINA RESULT:     -13.2      0.344      6.973
REMARK SMILES O=C(CCC(=O)N1N=C(c2ccc(F)cc2)C[C@@H]1c1ccc2nccnc2c1)NCCCCNC(=O)c1ccc(-c2c3nc(c(-c4c(F)c(F)c(F)c(F)c4F)c4ccc([nH]4)c(-c4c(F)c(F)c(F)c(F)c4F)c4nc(c(-c5c(F)c(F)c(F)c(F)c5F)c5ccc2[nH]5)C=C4)C=C3)cc1
REMARK SMILES IDX 30 1 29 2 1 3 2 4 3 6 4 7 5 8 6 9 7 10 8 11 18 12 9 13 17 14
REMARK SMILES IDX 19 15 20 16 28 17 21 18 27 19 22 20 26 21 23 22 25 23 24 24
REMARK SMILES IDX 10 25 11 26 16 27 12 28 15 29 13 30 14 31 31 32 32 33 33 34
REMARK SMILES IDX 34 35 35 36 36 38 37 39 38 40 99 41 39 42 98 43 40 44 41 45
REMARK SMILES IDX 42 46 92 47 43 48 97 49 91 50 93 51 44 52 96 53 90 54 89 55
REMARK SMILES IDX 45 57 77 58 57 59 76 60 58 61 61 62 75 63 94 64 59 65 60 66
REMARK SMILES IDX 74 68 95 69 62 70 46 71 47 72 55 73 48 74 49 75 53 76 56 77
REMARK SMILES IDX 50 78 51 79 54 80 52 81 78 82 79 83 87 84 80 85 81 86 85 87
REMARK SMILES IDX 88 88 82 89 83 90 86 91 84 92 63 93 64 94 72 95 65 96 66 97
REMARK SMILES IDX 70 98 73 99 67 100 68 101 71 102 69 103
REMARK H PARENT 29 5 34 37 93 56 61 67
REMARK Flexibility Score: inf
ROOT
ATOM      1  C   UNL A   1      35.565  32.998  28.012  1.00  0.00     0.116 C 
ENDROOT
BRANCH   1   2
ATOM      2  N   UNL A   1      35.287  31.559  27.796  1.00  0.00    -0.356 N 
ATOM      3  O   UNL A   1      33.013  31.780  27.451  1.00  0.00    -0.275 OA
ATOM      4  C   UNL A   1      34.031  31.089  27.364  1.00  0.00     0.220 C 
ATOM      5  H   UNL A   1      36.006  30.908  27.960  1.00  0.00     0.163 HD
BRANCH   4   6
ATOM      6  C   UNL A   1      34.027  29.730  26.587  1.00  0.00     0.110 C 
BRANCH   6   7
ATOM      7  C   UNL A   1      33.471  28.529  27.424  1.00  0.00     0.112 C 
BRANCH   7   8
ATOM      8  C   UNL A   1      32.379  27.481  26.996  1.00  0.00     0.243 C 
ATOM      9  O   UNL A   1      31.259  27.554  27.513  1.00  0.00    -0.273 OA
BRANCH   8  10
ATOM     10  N   UNL A   1      32.615  26.641  25.916  1.00  0.00    -0.225 N 
ATOM     11  N   UNL A   1      33.886  26.048  25.745  1.00  0.00    -0.174 NA
ATOM     12  C   UNL A   1      31.599  25.881  25.259  1.00  0.00     0.147 C 
ATOM     13  C   UNL A   1      33.672  24.845  25.281  1.00  0.00     0.071 C 
ATOM     14  C   UNL A   1      32.221  24.505  25.193  1.00  0.00     0.091 C 
BRANCH  12  15
ATOM     15  C   UNL A   1      30.685  26.616  24.273  1.00  0.00    -0.021 A 
ATOM     16  C   UNL A   1      29.313  26.372  24.346  1.00  0.00     0.008 A 
ATOM     17  C   UNL A   1      31.021  27.744  23.512  1.00  0.00     0.036 A 
ATOM     18  C   UNL A   1      28.320  27.143  23.751  1.00  0.00     0.031 A 
ATOM     19  C   UNL A   1      30.042  28.561  22.887  1.00  0.00     0.089 A 
ATOM     20  C   UNL A   1      28.667  28.239  23.021  1.00  0.00     0.089 A 
ATOM     21  N   UNL A   1      30.380  29.667  22.195  1.00  0.00    -0.253 NA
ATOM     22  N   UNL A   1      27.665  28.963  22.496  1.00  0.00    -0.253 NA
ATOM     23  C   UNL A   1      29.365  30.399  21.666  1.00  0.00     0.132 A 
ATOM     24  C   UNL A   1      28.036  30.056  21.809  1.00  0.00     0.132 A 
ENDBRANCH  12  15
BRANCH  13  25
ATOM     25  C   UNL A   1      34.695  23.793  25.000  1.00  0.00    -0.002 A 
ATOM     26  C   UNL A   1      35.248  23.638  23.716  1.00  0.00     0.013 A 
ATOM     27  C   UNL A   1      35.118  22.925  26.010  1.00  0.00     0.013 A 
ATOM     28  C   UNL A   1      36.298  22.746  23.475  1.00  0.00     0.040 A 
ATOM     29  C   UNL A   1      36.133  21.990  25.756  1.00  0.00     0.040 A 
ATOM     30  C   UNL A   1      36.741  21.935  24.505  1.00  0.00     0.123 A 
ATOM     31  F   UNL A   1      37.761  21.094  24.292  1.00  0.00    -0.207 F 
ENDBRANCH  13  25
ENDBRANCH   8  10
ENDBRANCH   7   8
ENDBRANCH   6   7
ENDBRANCH   4   6
ENDBRANCH   1   2
BRANCH   1  32
ATOM     32  C   UNL A   1      34.803  33.961  29.050  1.00  0.00     0.023 C 
BRANCH  32  33
ATOM     33  C   UNL A   1      33.457  34.810  29.104  1.00  0.00     0.023 C 
BRANCH  33  34
ATOM     34  C   UNL A   1      33.211  36.272  29.597  1.00  0.00     0.116 C 
BRANCH  34  35
ATOM     35  N   UNL A   1      32.504  36.359  30.862  1.00  0.00    -0.352 N 
ATOM     36  C   UNL A   1      32.647  35.667  32.048  1.00  0.00     0.251 C 
ATOM     37  H   UNL A   1      31.792  37.038  30.877  1.00  0.00     0.163 HD
ATOM     38  O   UNL A   1      31.693  35.713  32.831  1.00  0.00    -0.269 OA
BRANCH  36  39
ATOM     39  C   UNL A   1      33.863  34.911  32.483  1.00  0.00     0.039 A 
ATOM     40  C   UNL A   1      35.114  35.534  32.307  1.00  0.00     0.014 A 
ATOM     41  C   UNL A   1      33.848  33.572  32.876  1.00  0.00     0.014 A 
ATOM     42  C   UNL A   1      36.313  34.837  32.519  1.00  0.00     0.010 A 
ATOM     43  C   UNL A   1      35.045  32.861  33.063  1.00  0.00     0.010 A 
ATOM     44  C   UNL A   1      36.286  33.489  32.897  1.00  0.00    -0.014 A 
BRANCH  44  45
ATOM     45  C   UNL A   1      37.528  32.787  33.311  1.00  0.00     0.031 A 
ATOM     46  C   UNL A   1      38.268  33.132  34.569  1.00  0.00     0.074 A 
ATOM     47  C   UNL A   1      38.017  31.863  32.463  1.00  0.00     0.049 A 
ATOM     48  N   UNL A   1      39.351  32.583  35.063  1.00  0.00    -0.248 NA
ATOM     49  C   UNL A   1      37.740  34.242  35.374  1.00  0.00     0.031 C 
ATOM     50  C   UNL A   1      37.399  31.504  31.185  1.00  0.00     0.029 A 
ATOM     51  N   UNL A   1      39.138  31.077  32.524  1.00  0.00    -0.354 N 
ATOM     52  C   UNL A   1      39.622  33.261  36.245  1.00  0.00     0.074 A 
ATOM     53  C   UNL A   1      38.617  34.296  36.371  1.00  0.00     0.031 C 
ATOM     54  C   UNL A   1      38.150  30.576  30.579  1.00  0.00     0.029 A 
ATOM     55  C   UNL A   1      39.304  30.278  31.420  1.00  0.00     0.049 A 
ATOM     56  H   UNL A   1      39.763  31.084  33.285  1.00  0.00     0.167 HD
ATOM     57  C   UNL A   1      40.614  33.020  37.139  1.00  0.00     0.037 A 
ATOM     58  C   UNL A   1      40.278  29.398  31.117  1.00  0.00     0.037 A 
ATOM     59  C   UNL A   1      41.620  31.999  36.971  1.00  0.00     0.049 A 
ATOM     60  C   UNL A   1      41.367  29.158  32.121  1.00  0.00     0.074 A 
ATOM     61  C   UNL A   1      42.635  31.634  37.840  1.00  0.00     0.029 A 
ATOM     62  N   UNL A   1      41.752  31.194  35.848  1.00  0.00    -0.354 N 
ATOM     63  N   UNL A   1      41.551  29.728  33.287  1.00  0.00    -0.248 NA
ATOM     64  C   UNL A   1      42.370  28.141  31.783  1.00  0.00     0.031 C 
ATOM     65  C   UNL A   1      43.413  30.652  37.219  1.00  0.00     0.029 A 
ATOM     66  C   UNL A   1      42.846  30.354  35.990  1.00  0.00     0.049 A 
ATOM     67  H   UNL A   1      41.155  31.214  35.065  1.00  0.00     0.167 HD
ATOM     68  C   UNL A   1      42.673  29.126  33.835  1.00  0.00     0.074 A 
ATOM     69  C   UNL A   1      43.120  28.133  32.877  1.00  0.00     0.031 C 
ATOM     70  C   UNL A   1      43.278  29.374  35.022  1.00  0.00     0.037 A 
BRANCH  57  71
ATOM     71  C   UNL A   1      40.663  33.848  38.396  1.00  0.00     0.064 A 
ATOM     72  C   UNL A   1      39.833  33.549  39.490  1.00  0.00     0.173 A 
ATOM     73  C   UNL A   1      41.446  35.010  38.474  1.00  0.00     0.173 A 
ATOM     74  F   UNL A   1      39.050  32.461  39.467  1.00  0.00    -0.203 F 
ATOM     75  C   UNL A   1      39.774  34.389  40.601  1.00  0.00     0.198 A 
ATOM     76  C   UNL A   1      41.405  35.833  39.597  1.00  0.00     0.198 A 
ATOM     77  F   UNL A   1      42.253  35.348  37.457  1.00  0.00    -0.203 F 
ATOM     78  F   UNL A   1      38.942  34.104  41.613  1.00  0.00    -0.200 F 
ATOM     79  C   UNL A   1      40.562  35.529  40.655  1.00  0.00     0.200 A 
ATOM     80  F   UNL A   1      42.176  36.928  39.653  1.00  0.00    -0.200 F 
ATOM     81  F   UNL A   1      40.503  36.336  41.723  1.00  0.00    -0.200 F 
ENDBRANCH  57  71
BRANCH  58  82
ATOM     82  C   UNL A   1      40.203  28.650  29.837  1.00  0.00     0.064 A 
ATOM     83  C   UNL A   1      39.518  27.429  29.744  1.00  0.00     0.173 A 
ATOM     84  C   UNL A   1      40.886  29.102  28.699  1.00  0.00     0.173 A 
ATOM     85  F   UNL A   1      38.864  26.943  30.809  1.00  0.00    -0.203 F 
ATOM     86  C   UNL A   1      39.539  26.678  28.570  1.00  0.00     0.198 A 
ATOM     87  C   UNL A   1      40.883  28.365  27.518  1.00  0.00     0.198 A 
ATOM     88  F   UNL A   1      41.550  30.267  28.737  1.00  0.00    -0.203 F 
ATOM     89  F   UNL A   1      38.918  25.491  28.524  1.00  0.00    -0.200 F 
ATOM     90  C   UNL A   1      40.218  27.149  27.457  1.00  0.00     0.200 A 
ATOM     91  F   UNL A   1      41.528  28.830  26.439  1.00  0.00    -0.200 F 
ATOM     92  F   UNL A   1      40.239  26.427  26.328  1.00  0.00    -0.200 F 
ENDBRANCH  58  82
BRANCH  70  93
ATOM     93  C   UNL A   1      44.486  28.552  35.365  1.00  0.00     0.064 A 
ATOM     94  C   UNL A   1      44.357  27.388  36.139  1.00  0.00     0.173 A 
ATOM     95  C   UNL A   1      45.776  28.955  34.994  1.00  0.00     0.173 A 
ATOM     96  F   UNL A   1      43.145  26.963  36.524  1.00  0.00    -0.203 F 
ATOM     97  C   UNL A   1      45.478  26.669  36.543  1.00  0.00     0.198 A 
ATOM     98  C   UNL A   1      46.893  28.215  35.373  1.00  0.00     0.198 A 
ATOM     99  F   UNL A   1      45.951  30.052  34.241  1.00  0.00    -0.203 F 
ATOM    100  F   UNL A   1      45.332  25.582  37.314  1.00  0.00    -0.200 F 
ATOM    101  C   UNL A   1      46.744  27.080  36.156  1.00  0.00     0.200 A 
ATOM    102  F   UNL A   1      48.114  28.598  34.975  1.00  0.00    -0.200 F 
ATOM    103  F   UNL A   1      47.822  26.381  36.536  1.00  0.00    -0.200 F 
ENDBRANCH  70  93
ENDBRANCH  44  45
ENDBRANCH  36  39
ENDBRANCH  34  35
ENDBRANCH  33  34
ENDBRANCH  32  33
ENDBRANCH   1  32
TORSDOF 16
ENDMDL
MODEL 3
REMARK VINA RESULT:     -13.0      4.018     10.189
REMARK SMILES O=C(CCC(=O)N1N=C(c2ccc(F)cc2)C[C@@H]1c1ccc2nccnc2c1)NCCCCNC(=O)c1ccc(-c2c3nc(c(-c4c(F)c(F)c(F)c(F)c4F)c4ccc([nH]4)c(-c4c(F)c(F)c(F)c(F)c4F)c4nc(c(-c5c(F)c(F)c(F)c(F)c5F)c5ccc2[nH]5)C=C4)C=C3)cc1
REMARK SMILES IDX 30 1 29 2 1 3 2 4 3 6 4 7 5 8 6 9 7 10 8 11 18 12 9 13 17 14
REMARK SMILES IDX 19 15 20 16 28 17 21 18 27 19 22 20 26 21 23 22 25 23 24 24
REMARK SMILES IDX 10 25 11 26 16 27 12 28 15 29 13 30 14 31 31 32 32 33 33 34
REMARK SMILES IDX 34 35 35 36 36 38 37 39 38 40 99 41 39 42 98 43 40 44 41 45
REMARK SMILES IDX 42 46 92 47 43 48 97 49 91 50 93 51 44 52 96 53 90 54 89 55
REMARK SMILES IDX 45 57 77 58 57 59 76 60 58 61 61 62 75 63 94 64 59 65 60 66
REMARK SMILES IDX 74 68 95 69 62 70 46 71 47 72 55 73 48 74 49 75 53 76 56 77
REMARK SMILES IDX 50 78 51 79 54 80 52 81 78 82 79 83 87 84 80 85 81 86 85 87
REMARK SMILES IDX 88 88 82 89 83 90 86 91 84 92 63 93 64 94 72 95 65 96 66 97
REMARK SMILES IDX 70 98 73 99 67 100 68 101 71 102 69 103
REMARK H PARENT 29 5 34 37 93 56 61 67
REMARK Flexibility Score: inf
ROOT
ATOM      1  C   UNL A   1      40.581  20.341  26.389  1.00  0.00     0.116 C 
ENDROOT
BRANCH   1   2
ATOM      2  N   UNL A   1      39.700  21.532  26.407  1.00  0.00    -0.356 N 
ATOM      3  O   UNL A   1      40.819  22.662  28.082  1.00  0.00    -0.275 OA
ATOM      4  C   UNL A   1      40.003  22.684  27.158  1.00  0.00     0.220 C 
ATOM      5  H   UNL A   1      38.873  21.517  25.873  1.00  0.00     0.163 HD
BRANCH   4   6
ATOM      6  C   UNL A   1      39.403  24.032  26.635  1.00  0.00     0.110 C 
BRANCH   6   7
ATOM      7  C   UNL A   1      37.838  24.045  26.578  1.00  0.00     0.112 C 
BRANCH   7   8
ATOM      8  C   UNL A   1      36.914  23.604  25.384  1.00  0.00     0.243 C 
ATOM      9  O   UNL A   1      37.375  22.832  24.538  1.00  0.00    -0.273 OA
BRANCH   8  10
ATOM     10  N   UNL A   1      35.561  23.912  25.411  1.00  0.00    -0.225 N 
ATOM     11  N   UNL A   1      35.131  25.178  25.868  1.00  0.00    -0.174 NA
ATOM     12  C   UNL A   1      34.591  23.320  24.545  1.00  0.00     0.147 C 
ATOM     13  C   UNL A   1      34.113  25.514  25.119  1.00  0.00     0.071 C 
ATOM     14  C   UNL A   1      33.841  24.528  24.032  1.00  0.00     0.091 C 
BRANCH  12  15
ATOM     15  C   UNL A   1      34.104  21.906  24.879  1.00  0.00    -0.021 A 
ATOM     16  C   UNL A   1      32.740  21.720  25.106  1.00  0.00     0.008 A 
ATOM     17  C   UNL A   1      34.814  20.715  24.675  1.00  0.00     0.036 A 
ATOM     18  C   UNL A   1      32.083  20.495  25.131  1.00  0.00     0.031 A 
ATOM     19  C   UNL A   1      34.186  19.441  24.690  1.00  0.00     0.089 A 
ATOM     20  C   UNL A   1      32.789  19.349  24.924  1.00  0.00     0.089 A 
ATOM     21  N   UNL A   1      34.875  18.308  24.450  1.00  0.00    -0.253 NA
ATOM     22  N   UNL A   1      32.097  18.197  24.929  1.00  0.00    -0.253 NA
ATOM     23  C   UNL A   1      34.172  17.145  24.453  1.00  0.00     0.132 A 
ATOM     24  C   UNL A   1      32.813  17.088  24.689  1.00  0.00     0.132 A 
ENDBRANCH  12  15
BRANCH  13  25
ATOM     25  C   UNL A   1      33.351  26.799  25.160  1.00  0.00    -0.002 A 
ATOM     26  C   UNL A   1      33.795  27.932  24.454  1.00  0.00     0.013 A 
ATOM     27  C   UNL A   1      32.182  26.908  25.915  1.00  0.00     0.013 A 
ATOM     28  C   UNL A   1      33.022  29.095  24.380  1.00  0.00     0.040 A 
ATOM     29  C   UNL A   1      31.433  28.094  25.888  1.00  0.00     0.040 A 
ATOM     30  C   UNL A   1      31.837  29.161  25.091  1.00  0.00     0.123 A 
ATOM     31  F   UNL A   1      31.078  30.262  25.009  1.00  0.00    -0.207 F 
ENDBRANCH  13  25
ENDBRANCH   8  10
ENDBRANCH   7   8
ENDBRANCH   6   7
ENDBRANCH   4   6
ENDBRANCH   1   2
BRANCH   1  32
ATOM     32  C   UNL A   1      42.160  20.340  26.085  1.00  0.00     0.023 C 
BRANCH  32  33
ATOM     33  C   UNL A   1      43.286  21.393  25.687  1.00  0.00     0.023 C 
BRANCH  33  34
ATOM     34  C   UNL A   1      43.166  22.756  24.933  1.00  0.00     0.116 C 
BRANCH  34  35
ATOM     35  N   UNL A   1      44.436  23.422  24.706  1.00  0.00    -0.352 N 
ATOM     36  C   UNL A   1      44.924  24.644  25.122  1.00  0.00     0.251 C 
ATOM     37  H   UNL A   1      45.065  22.906  24.152  1.00  0.00     0.163 HD
ATOM     38  O   UNL A   1      45.891  25.092  24.499  1.00  0.00    -0.269 OA
BRANCH  36  39
ATOM     39  C   UNL A   1      44.417  25.444  26.280  1.00  0.00     0.039 A 
ATOM     40  C   UNL A   1      43.448  24.846  27.110  1.00  0.00     0.014 A 
ATOM     41  C   UNL A   1      44.704  26.795  26.479  1.00  0.00     0.014 A 
ATOM     42  C   UNL A   1      42.788  25.579  28.108  1.00  0.00     0.010 A 
ATOM     43  C   UNL A   1      44.027  27.541  27.459  1.00  0.00     0.010 A 
ATOM     44  C   UNL A   1      43.073  26.939  28.287  1.00  0.00    -0.014 A 
BRANCH  44  45
ATOM     45  C   UNL A   1      42.533  27.684  29.453  1.00  0.00     0.031 A 
ATOM     46  C   UNL A   1      43.183  27.648  30.804  1.00  0.00     0.074 A 
ATOM     47  C   UNL A   1      41.376  28.346  29.270  1.00  0.00     0.049 A 
ATOM     48  N   UNL A   1      42.831  28.271  31.902  1.00  0.00    -0.248 NA
ATOM     49  C   UNL A   1      44.371  26.796  30.955  1.00  0.00     0.031 C 
ATOM     50  C   UNL A   1      40.637  28.386  28.006  1.00  0.00     0.029 A 
ATOM     51  N   UNL A   1      40.607  29.087  30.129  1.00  0.00    -0.354 N 
ATOM     52  C   UNL A   1      43.763  27.908  32.867  1.00  0.00     0.074 A 
ATOM     53  C   UNL A   1      44.671  26.972  32.237  1.00  0.00     0.031 C 
ATOM     54  C   UNL A   1      39.520  29.106  28.171  1.00  0.00     0.029 A 
ATOM     55  C   UNL A   1      39.459  29.573  29.553  1.00  0.00     0.049 A 
ATOM     56  H   UNL A   1      40.854  29.255  31.067  1.00  0.00     0.167 HD
ATOM     57  C   UNL A   1      43.850  28.338  34.151  1.00  0.00     0.037 A 
ATOM     58  C   UNL A   1      38.466  30.316  30.077  1.00  0.00     0.037 A 
ATOM     59  C   UNL A   1      42.912  29.252  34.760  1.00  0.00     0.049 A 
ATOM     60  C   UNL A   1      38.583  30.771  31.502  1.00  0.00     0.074 A 
ATOM     61  C   UNL A   1      42.937  29.795  36.034  1.00  0.00     0.029 A 
ATOM     62  N   UNL A   1      41.768  29.740  34.144  1.00  0.00    -0.354 N 
ATOM     63  N   UNL A   1      39.529  30.512  32.372  1.00  0.00    -0.248 NA
ATOM     64  C   UNL A   1      37.515  31.637  32.014  1.00  0.00     0.031 C 
ATOM     65  C   UNL A   1      41.782  30.562  36.207  1.00  0.00     0.029 A 
ATOM     66  C   UNL A   1      41.067  30.554  35.019  1.00  0.00     0.049 A 
ATOM     67  H   UNL A   1      41.495  29.539  33.219  1.00  0.00     0.167 HD
ATOM     68  C   UNL A   1      39.185  31.198  33.527  1.00  0.00     0.074 A 
ATOM     69  C   UNL A   1      37.950  31.901  33.239  1.00  0.00     0.031 C 
ATOM     70  C   UNL A   1      39.834  31.242  34.716  1.00  0.00     0.037 A 
BRANCH  57  71
ATOM     71  C   UNL A   1      45.002  27.857  34.992  1.00  0.00     0.064 A 
ATOM     72  C   UNL A   1      46.243  28.514  34.961  1.00  0.00     0.173 A 
ATOM     73  C   UNL A   1      44.913  26.673  35.741  1.00  0.00     0.173 A 
ATOM     74  F   UNL A   1      46.394  29.642  34.250  1.00  0.00    -0.203 F 
ATOM     75  C   UNL A   1      47.351  27.996  35.630  1.00  0.00     0.198 A 
ATOM     76  C   UNL A   1      46.015  26.172  36.431  1.00  0.00     0.198 A 
ATOM     77  F   UNL A   1      43.755  26.000  35.803  1.00  0.00    -0.203 F 
ATOM     78  F   UNL A   1      48.535  28.619  35.548  1.00  0.00    -0.200 F 
ATOM     79  C   UNL A   1      47.236  26.827  36.366  1.00  0.00     0.200 A 
ATOM     80  F   UNL A   1      45.899  25.049  37.152  1.00  0.00    -0.200 F 
ATOM     81  F   UNL A   1      48.302  26.329  37.008  1.00  0.00    -0.200 F 
ENDBRANCH  57  71
BRANCH  58  82
ATOM     82  C   UNL A   1      37.328  30.716  29.211  1.00  0.00     0.064 A 
ATOM     83  C   UNL A   1      37.202  32.029  28.731  1.00  0.00     0.173 A 
ATOM     84  C   UNL A   1      36.300  29.812  28.912  1.00  0.00     0.173 A 
ATOM     85  F   UNL A   1      38.149  32.938  29.004  1.00  0.00    -0.203 F 
ATOM     86  C   UNL A   1      36.080  32.427  28.006  1.00  0.00     0.198 A 
ATOM     87  C   UNL A   1      35.192  30.202  28.164  1.00  0.00     0.198 A 
ATOM     88  F   UNL A   1      36.379  28.544  29.342  1.00  0.00    -0.203 F 
ATOM     89  F   UNL A   1      35.960  33.699  27.604  1.00  0.00    -0.200 F 
ATOM     90  C   UNL A   1      35.078  31.512  27.721  1.00  0.00     0.200 A 
ATOM     91  F   UNL A   1      34.233  29.312  27.877  1.00  0.00    -0.200 F 
ATOM     92  F   UNL A   1      33.998  31.894  27.025  1.00  0.00    -0.200 F 
ENDBRANCH  58  82
BRANCH  70  93
ATOM     93  C   UNL A   1      39.231  32.087  35.800  1.00  0.00     0.064 A 
ATOM     94  C   UNL A   1      39.588  33.438  35.929  1.00  0.00     0.173 A 
ATOM     95  C   UNL A   1      38.359  31.543  36.754  1.00  0.00     0.173 A 
ATOM     96  F   UNL A   1      40.423  34.005  35.046  1.00  0.00    -0.203 F 
ATOM     97  C   UNL A   1      39.108  34.207  36.985  1.00  0.00     0.198 A 
ATOM     98  C   UNL A   1      37.855  32.324  37.790  1.00  0.00     0.198 A 
ATOM     99  F   UNL A   1      37.975  30.260  36.664  1.00  0.00    -0.203 F 
ATOM    100  F   UNL A   1      39.494  35.484  37.110  1.00  0.00    -0.200 F 
ATOM    101  C   UNL A   1      38.239  33.651  37.911  1.00  0.00     0.200 A 
ATOM    102  F   UNL A   1      36.994  31.793  38.668  1.00  0.00    -0.200 F 
ATOM    103  F   UNL A   1      37.769  34.396  38.921  1.00  0.00    -0.200 F 
ENDBRANCH  70  93
ENDBRANCH  44  45
ENDBRANCH  36  39
ENDBRANCH  34  35
ENDBRANCH  33  34
ENDBRANCH  32  33
ENDBRANCH   1  32
TORSDOF 16
ENDMDL
