MODEL 1
REMARK VINA RESULT:     -12.1      0.000      0.000
REMARK SMILES COc1ccc([C@@H]([NH3+])[C@](C)(C(N)=O)C(=O)NCCCCNC(=O)c2ccc(-c3c4nc(c(-c5c(F)c(F)c(F)c(F)c5F)c5ccc([nH]5)c(-c5c(F)c(F)c(F)c(F)c5F)c5nc(c(-c6c(F)c(F)c(F)c(F)c6F)c6ccc3[nH]6)C=C5)C=C4)cc2)cc1OC
REMARK SMILES IDX 18 1 17 2 16 3 14 4 15 5 9 7 10 8 7 9 6 10 3 11 4 12 88 13
REMARK SMILES IDX 5 14 87 15 2 16 1 17 89 18 90 19 8 20 11 24 12 25 13 26
REMARK SMILES IDX 19 29 20 30 21 31 22 32 23 34 24 35 25 36 86 37 26 38 85 39
REMARK SMILES IDX 27 40 28 41 29 42 79 43 30 44 84 45 78 46 80 47 31 48 83 49
REMARK SMILES IDX 77 50 76 51 32 53 64 54 44 55 63 56 45 57 48 58 62 59 81 60
REMARK SMILES IDX 46 61 47 62 61 64 82 65 49 66 33 67 34 68 42 69 35 70 36 71
REMARK SMILES IDX 40 72 43 73 37 74 38 75 41 76 39 77 65 78 66 79 74 80 67 81
REMARK SMILES IDX 68 82 72 83 75 84 69 85 70 86 73 87 71 88 50 89 51 90 59 91
REMARK SMILES IDX 52 92 53 93 57 94 60 95 54 96 55 97 58 98 56 99
REMARK H PARENT 16 6 8 21 8 22 8 23 12 27 12 28 21 33 80 52 48 63
REMARK Flexibility Score: inf
ROOT
ATOM      1  C   UNL A   1      31.905  30.549  26.832  1.00  0.00     0.023 C 
ENDROOT
BRANCH   1   2
ATOM      2  C   UNL A   1      31.534  29.889  25.509  1.00  0.00     0.116 C 
BRANCH   2   3
ATOM      3  N   UNL A   1      32.699  29.709  24.661  1.00  0.00    -0.355 N 
ATOM      4  C   UNL A   1      32.939  28.817  23.660  1.00  0.00     0.241 C 
ATOM      5  O   UNL A   1      34.085  28.814  23.199  1.00  0.00    -0.274 OA
ATOM      6  H   UNL A   1      33.437  30.336  24.839  1.00  0.00     0.163 HD
BRANCH   4   7
ATOM      7  C   UNL A   1      31.849  27.860  23.146  1.00  0.00     0.180 C 
ATOM      8  C   UNL A   1      31.060  27.310  24.359  1.00  0.00     0.039 C 
BRANCH   7   9
ATOM      9  C   UNL A   1      32.506  26.706  22.288  1.00  0.00     0.237 C 
BRANCH   9  10
ATOM     10  C   UNL A   1      32.785  25.407  23.045  1.00  0.00     0.015 A 
ATOM     11  C   UNL A   1      33.242  23.168  24.702  1.00  0.00     0.160 A 
ATOM     12  C   UNL A   1      32.145  23.202  23.834  1.00  0.00     0.051 A 
ATOM     13  C   UNL A   1      34.166  24.216  24.701  1.00  0.00     0.161 A 
ATOM     14  C   UNL A   1      31.918  24.312  23.013  1.00  0.00     0.014 A 
ATOM     15  C   UNL A   1      33.931  25.312  23.858  1.00  0.00     0.060 A 
BRANCH  11  16
ATOM     16  O   UNL A   1      33.424  22.048  25.468  1.00  0.00    -0.493 OA
ATOM     17  C   UNL A   1      34.000  20.981  24.711  1.00  0.00     0.278 C 
ENDBRANCH  11  16
BRANCH  13  18
ATOM     18  O   UNL A   1      35.312  24.356  25.436  1.00  0.00    -0.493 OA
ATOM     19  C   UNL A   1      36.502  23.749  24.960  1.00  0.00     0.278 C 
ENDBRANCH  13  18
ENDBRANCH   9  10
BRANCH   9  20
ATOM     20  N   UNL A   1      31.794  26.403  21.032  1.00  0.00    -0.350 N 
ATOM     21  H   UNL A   1      32.003  27.124  20.340  1.00  0.00     0.345 HD
ATOM     22  H   UNL A   1      30.789  26.381  21.207  1.00  0.00     0.345 HD
ATOM     23  H   UNL A   1      32.097  25.496  20.678  1.00  0.00     0.345 HD
ENDBRANCH   9  20
ENDBRANCH   7   9
BRANCH   7  24
ATOM     24  C   UNL A   1      30.805  28.614  22.313  1.00  0.00     0.239 C 
ATOM     25  N   UNL A   1      31.203  29.778  21.714  1.00  0.00    -0.369 N 
ATOM     26  O   UNL A   1      29.636  28.251  22.193  1.00  0.00    -0.274 OA
ATOM     27  H   UNL A   1      32.135  30.083  21.801  1.00  0.00     0.159 HD
ATOM     28  H   UNL A   1      30.558  30.311  21.197  1.00  0.00     0.159 HD
ENDBRANCH   7  24
ENDBRANCH   4   7
ENDBRANCH   2   3
ENDBRANCH   1   2
BRANCH   1  29
ATOM     29  C   UNL A   1      31.654  32.056  26.867  1.00  0.00     0.023 C 
BRANCH  29  30
ATOM     30  C   UNL A   1      32.862  32.893  27.269  1.00  0.00     0.116 C 
BRANCH  30  31
ATOM     31  N   UNL A   1      32.507  34.256  27.630  1.00  0.00    -0.352 N 
ATOM     32  C   UNL A   1      33.006  35.046  28.640  1.00  0.00     0.251 C 
ATOM     33  H   UNL A   1      31.811  34.673  27.073  1.00  0.00     0.163 HD
ATOM     34  O   UNL A   1      32.481  36.114  28.913  1.00  0.00    -0.269 OA
BRANCH  32  35
ATOM     35  C   UNL A   1      34.170  34.568  29.415  1.00  0.00     0.039 A 
ATOM     36  C   UNL A   1      33.956  33.998  30.672  1.00  0.00     0.014 A 
ATOM     37  C   UNL A   1      35.459  34.649  28.883  1.00  0.00     0.014 A 
ATOM     38  C   UNL A   1      35.032  33.440  31.363  1.00  0.00     0.010 A 
ATOM     39  C   UNL A   1      36.511  34.015  29.532  1.00  0.00     0.010 A 
ATOM     40  C   UNL A   1      36.310  33.407  30.780  1.00  0.00    -0.014 A 
BRANCH  40  41
ATOM     41  C   UNL A   1      37.449  32.741  31.459  1.00  0.00     0.031 A 
ATOM     42  C   UNL A   1      38.147  31.585  30.799  1.00  0.00     0.074 A 
ATOM     43  C   UNL A   1      37.809  33.130  32.698  1.00  0.00     0.049 A 
ATOM     44  N   UNL A   1      39.112  30.829  31.255  1.00  0.00    -0.248 NA
ATOM     45  C   UNL A   1      37.674  31.209  29.457  1.00  0.00     0.031 C 
ATOM     46  C   UNL A   1      37.176  34.204  33.464  1.00  0.00     0.029 A 
ATOM     47  N   UNL A   1      38.790  32.660  33.534  1.00  0.00    -0.354 N 
ATOM     48  C   UNL A   1      39.350  29.883  30.267  1.00  0.00     0.074 A 
ATOM     49  C   UNL A   1      38.386  30.119  29.214  1.00  0.00     0.031 C 
ATOM     50  C   UNL A   1      37.803  34.331  34.645  1.00  0.00     0.029 A 
ATOM     51  C   UNL A   1      38.852  33.320  34.737  1.00  0.00     0.049 A 
ATOM     52  H   UNL A   1      39.395  31.920  33.294  1.00  0.00     0.167 HD
ATOM     53  C   UNL A   1      40.303  28.922  30.228  1.00  0.00     0.037 A 
ATOM     54  C   UNL A   1      39.659  33.127  35.797  1.00  0.00     0.037 A 
ATOM     55  C   UNL A   1      41.274  28.706  31.270  1.00  0.00     0.049 A 
ATOM     56  C   UNL A   1      40.702  32.043  35.735  1.00  0.00     0.074 A 
ATOM     57  C   UNL A   1      42.320  27.801  31.300  1.00  0.00     0.029 A 
ATOM     58  N   UNL A   1      41.312  29.402  32.470  1.00  0.00    -0.354 N 
ATOM     59  N   UNL A   1      40.967  31.203  34.766  1.00  0.00    -0.248 NA
ATOM     60  C   UNL A   1      41.563  31.886  36.916  1.00  0.00     0.031 C 
ATOM     61  C   UNL A   1      42.956  27.911  32.541  1.00  0.00     0.029 A 
ATOM     62  C   UNL A   1      42.346  28.928  33.260  1.00  0.00     0.049 A 
ATOM     63  H   UNL A   1      40.695  30.127  32.722  1.00  0.00     0.167 HD
ATOM     64  C   UNL A   1      42.041  30.440  35.203  1.00  0.00     0.074 A 
ATOM     65  C   UNL A   1      42.388  30.927  36.522  1.00  0.00     0.031 C 
ATOM     66  C   UNL A   1      42.682  29.427  34.569  1.00  0.00     0.037 A 
BRANCH  53  67
ATOM     67  C   UNL A   1      40.340  28.030  29.020  1.00  0.00     0.064 A 
ATOM     68  C   UNL A   1      41.100  28.354  27.884  1.00  0.00     0.173 A 
ATOM     69  C   UNL A   1      39.621  26.825  29.003  1.00  0.00     0.173 A 
ATOM     70  F   UNL A   1      41.796  29.501  27.843  1.00  0.00    -0.203 F 
ATOM     71  C   UNL A   1      41.107  27.526  26.766  1.00  0.00     0.198 A 
ATOM     72  C   UNL A   1      39.661  25.982  27.896  1.00  0.00     0.198 A 
ATOM     73  F   UNL A   1      38.882  26.462  30.062  1.00  0.00    -0.203 F 
ATOM     74  F   UNL A   1      41.791  27.888  25.670  1.00  0.00    -0.200 F 
ATOM     75  C   UNL A   1      40.394  26.338  26.774  1.00  0.00     0.200 A 
ATOM     76  F   UNL A   1      38.981  24.826  27.911  1.00  0.00    -0.200 F 
ATOM     77  F   UNL A   1      40.406  25.539  25.697  1.00  0.00    -0.200 F 
ENDBRANCH  53  67
BRANCH  54  78
ATOM     78  C   UNL A   1      39.531  33.997  36.996  1.00  0.00     0.064 A 
ATOM     79  C   UNL A   1      40.171  35.243  37.052  1.00  0.00     0.173 A 
ATOM     80  C   UNL A   1      38.770  33.605  38.107  1.00  0.00     0.173 A 
ATOM     81  F   UNL A   1      40.927  35.654  36.023  1.00  0.00    -0.203 F 
ATOM     82  C   UNL A   1      40.070  36.055  38.180  1.00  0.00     0.198 A 
ATOM     83  C   UNL A   1      38.644  34.431  39.222  1.00  0.00     0.198 A 
ATOM     84  F   UNL A   1      38.132  32.425  38.102  1.00  0.00    -0.203 F 
ATOM     85  F   UNL A   1      40.729  37.221  38.224  1.00  0.00    -0.200 F 
ATOM     86  C   UNL A   1      39.302  35.652  39.260  1.00  0.00     0.200 A 
ATOM     87  F   UNL A   1      37.888  34.045  40.257  1.00  0.00    -0.200 F 
ATOM     88  F   UNL A   1      39.200  36.436  40.342  1.00  0.00    -0.200 F 
ENDBRANCH  54  78
BRANCH  66  89
ATOM     89  C   UNL A   1      43.850  28.800  35.277  1.00  0.00     0.064 A 
ATOM     90  C   UNL A   1      45.163  29.255  35.085  1.00  0.00     0.173 A 
ATOM     91  C   UNL A   1      43.645  27.755  36.192  1.00  0.00     0.173 A 
ATOM     92  F   UNL A   1      45.414  30.240  34.210  1.00  0.00    -0.203 F 
ATOM     93  C   UNL A   1      46.229  28.669  35.761  1.00  0.00     0.198 A 
ATOM     94  C   UNL A   1      44.710  27.196  36.893  1.00  0.00     0.198 A 
ATOM     95  F   UNL A   1      42.409  27.288  36.419  1.00  0.00    -0.203 F 
ATOM     96  F   UNL A   1      47.481  29.086  35.523  1.00  0.00    -0.200 F 
ATOM     97  C   UNL A   1      46.002  27.647  36.670  1.00  0.00     0.200 A 
ATOM     98  F   UNL A   1      44.485  26.219  37.783  1.00  0.00    -0.200 F 
ATOM     99  F   UNL A   1      47.029  27.092  37.327  1.00  0.00    -0.200 F 
ENDBRANCH  66  89
ENDBRANCH  40  41
ENDBRANCH  32  35
ENDBRANCH  30  31
ENDBRANCH  29  30
ENDBRANCH   1  29
TORSDOF 17
ENDMDL
MODEL 2
REMARK VINA RESULT:     -12.0      0.083      1.941
REMARK SMILES COc1ccc([C@@H]([NH3+])[C@](C)(C(N)=O)C(=O)NCCCCNC(=O)c2ccc(-c3c4nc(c(-c5c(F)c(F)c(F)c(F)c5F)c5ccc([nH]5)c(-c5c(F)c(F)c(F)c(F)c5F)c5nc(c(-c6c(F)c(F)c(F)c(F)c6F)c6ccc3[nH]6)C=C5)C=C4)cc2)cc1OC
REMARK SMILES IDX 18 1 17 2 16 3 14 4 15 5 9 7 10 8 7 9 6 10 3 11 4 12 88 13
REMARK SMILES IDX 5 14 87 15 2 16 1 17 89 18 90 19 8 20 11 24 12 25 13 26
REMARK SMILES IDX 19 29 20 30 21 31 22 32 23 34 24 35 25 36 86 37 26 38 85 39
REMARK SMILES IDX 27 40 28 41 29 42 79 43 30 44 84 45 78 46 80 47 31 48 83 49
REMARK SMILES IDX 77 50 76 51 32 53 64 54 44 55 63 56 45 57 48 58 62 59 81 60
REMARK SMILES IDX 46 61 47 62 61 64 82 65 49 66 33 67 34 68 42 69 35 70 36 71
REMARK SMILES IDX 40 72 43 73 37 74 38 75 41 76 39 77 65 78 66 79 74 80 67 81
REMARK SMILES IDX 68 82 72 83 75 84 69 85 70 86 73 87 71 88 50 89 51 90 59 91
REMARK SMILES IDX 52 92 53 93 57 94 60 95 54 96 55 97 58 98 56 99
REMARK H PARENT 16 6 8 21 8 22 8 23 12 27 12 28 21 33 80 52 48 63
REMARK Flexibility Score: inf
ROOT
ATOM      1  C   UNL A   1      31.811  30.548  26.858  1.00  0.00     0.023 C 
ENDROOT
BRANCH   1   2
ATOM      2  C   UNL A   1      31.475  29.831  25.556  1.00  0.00     0.116 C 
BRANCH   2   3
ATOM      3  N   UNL A   1      32.646  29.692  24.710  1.00  0.00    -0.355 N 
ATOM      4  C   UNL A   1      32.907  28.829  23.688  1.00  0.00     0.241 C 
ATOM      5  O   UNL A   1      34.054  28.858  23.232  1.00  0.00    -0.274 OA
ATOM      6  H   UNL A   1      33.373  30.328  24.906  1.00  0.00     0.163 HD
BRANCH   4   7
ATOM      7  C   UNL A   1      31.837  27.865  23.145  1.00  0.00     0.180 C 
ATOM      8  C   UNL A   1      31.030  27.299  24.339  1.00  0.00     0.039 C 
BRANCH   7   9
ATOM      9  C   UNL A   1      32.521  26.725  22.292  1.00  0.00     0.237 C 
BRANCH   9  10
ATOM     10  C   UNL A   1      32.832  25.435  23.054  1.00  0.00     0.015 A 
ATOM     11  C   UNL A   1      33.341  23.214  24.719  1.00  0.00     0.160 A 
ATOM     12  C   UNL A   1      32.248  23.215  23.844  1.00  0.00     0.051 A 
ATOM     13  C   UNL A   1      34.235  24.288  24.721  1.00  0.00     0.161 A 
ATOM     14  C   UNL A   1      31.995  24.317  23.019  1.00  0.00     0.014 A 
ATOM     15  C   UNL A   1      33.975  25.375  23.874  1.00  0.00     0.060 A 
BRANCH  11  16
ATOM     16  O   UNL A   1      33.549  22.101  25.489  1.00  0.00    -0.493 OA
ATOM     17  C   UNL A   1      33.973  20.988  24.699  1.00  0.00     0.278 C 
ENDBRANCH  11  16
BRANCH  13  18
ATOM     18  O   UNL A   1      35.372  24.462  25.463  1.00  0.00    -0.493 OA
ATOM     19  C   UNL A   1      36.551  23.778  25.068  1.00  0.00     0.278 C 
ENDBRANCH  13  18
ENDBRANCH   9  10
BRANCH   9  20
ATOM     20  N   UNL A   1      31.816  26.400  21.037  1.00  0.00    -0.350 N 
ATOM     21  H   UNL A   1      32.326  25.667  20.541  1.00  0.00     0.345 HD
ATOM     22  H   UNL A   1      31.764  27.233  20.451  1.00  0.00     0.345 HD
ATOM     23  H   UNL A   1      30.874  26.074  21.250  1.00  0.00     0.345 HD
ENDBRANCH   9  20
ENDBRANCH   7   9
BRANCH   7  24
ATOM     24  C   UNL A   1      30.801  28.616  22.299  1.00  0.00     0.239 C 
ATOM     25  N   UNL A   1      31.207  29.774  21.694  1.00  0.00    -0.369 N 
ATOM     26  O   UNL A   1      29.632  28.255  22.172  1.00  0.00    -0.274 OA
ATOM     27  H   UNL A   1      32.139  30.077  21.785  1.00  0.00     0.159 HD
ATOM     28  H   UNL A   1      30.567  30.304  21.167  1.00  0.00     0.159 HD
ENDBRANCH   7  24
ENDBRANCH   4   7
ENDBRANCH   2   3
ENDBRANCH   1   2
BRANCH   1  29
ATOM     29  C   UNL A   1      31.650  32.067  26.789  1.00  0.00     0.023 C 
BRANCH  29  30
ATOM     30  C   UNL A   1      32.849  32.858  27.295  1.00  0.00     0.116 C 
BRANCH  30  31
ATOM     31  N   UNL A   1      32.516  34.235  27.626  1.00  0.00    -0.352 N 
ATOM     32  C   UNL A   1      33.030  35.039  28.617  1.00  0.00     0.251 C 
ATOM     33  H   UNL A   1      31.826  34.650  27.061  1.00  0.00     0.163 HD
ATOM     34  O   UNL A   1      32.523  36.121  28.867  1.00  0.00    -0.269 OA
BRANCH  32  35
ATOM     35  C   UNL A   1      34.188  34.559  29.401  1.00  0.00     0.039 A 
ATOM     36  C   UNL A   1      33.959  33.916  30.619  1.00  0.00     0.014 A 
ATOM     37  C   UNL A   1      35.487  34.713  28.913  1.00  0.00     0.014 A 
ATOM     38  C   UNL A   1      35.034  33.359  31.312  1.00  0.00     0.010 A 
ATOM     39  C   UNL A   1      36.543  34.081  29.560  1.00  0.00     0.010 A 
ATOM     40  C   UNL A   1      36.328  33.400  30.767  1.00  0.00    -0.014 A 
BRANCH  40  41
ATOM     41  C   UNL A   1      37.471  32.738  31.444  1.00  0.00     0.031 A 
ATOM     42  C   UNL A   1      38.171  31.585  30.783  1.00  0.00     0.074 A 
ATOM     43  C   UNL A   1      37.831  33.129  32.682  1.00  0.00     0.049 A 
ATOM     44  N   UNL A   1      39.140  30.832  31.238  1.00  0.00    -0.248 NA
ATOM     45  C   UNL A   1      37.698  31.207  29.441  1.00  0.00     0.031 C 
ATOM     46  C   UNL A   1      37.196  34.200  33.449  1.00  0.00     0.029 A 
ATOM     47  N   UNL A   1      38.815  32.662  33.517  1.00  0.00    -0.354 N 
ATOM     48  C   UNL A   1      39.379  29.887  30.249  1.00  0.00     0.074 A 
ATOM     49  C   UNL A   1      38.413  30.119  29.198  1.00  0.00     0.031 C 
ATOM     50  C   UNL A   1      37.824  34.329  34.629  1.00  0.00     0.029 A 
ATOM     51  C   UNL A   1      38.877  33.321  34.720  1.00  0.00     0.049 A 
ATOM     52  H   UNL A   1      39.421  31.924  33.276  1.00  0.00     0.167 HD
ATOM     53  C   UNL A   1      40.335  28.929  30.208  1.00  0.00     0.037 A 
ATOM     54  C   UNL A   1      39.686  33.131  35.778  1.00  0.00     0.037 A 
ATOM     55  C   UNL A   1      41.309  28.716  31.249  1.00  0.00     0.049 A 
ATOM     56  C   UNL A   1      40.732  32.051  35.715  1.00  0.00     0.074 A 
ATOM     57  C   UNL A   1      42.357  27.815  31.278  1.00  0.00     0.029 A 
ATOM     58  N   UNL A   1      41.346  29.413  32.448  1.00  0.00    -0.354 N 
ATOM     59  N   UNL A   1      40.999  31.212  34.745  1.00  0.00    -0.248 NA
ATOM     60  C   UNL A   1      41.595  31.897  36.895  1.00  0.00     0.031 C 
ATOM     61  C   UNL A   1      42.995  27.926  32.517  1.00  0.00     0.029 A 
ATOM     62  C   UNL A   1      42.383  28.941  33.237  1.00  0.00     0.049 A 
ATOM     63  H   UNL A   1      40.727  30.135  32.702  1.00  0.00     0.167 HD
ATOM     64  C   UNL A   1      42.076  30.452  35.180  1.00  0.00     0.074 A 
ATOM     65  C   UNL A   1      42.423  30.940  36.499  1.00  0.00     0.031 C 
ATOM     66  C   UNL A   1      42.719  29.441  34.545  1.00  0.00     0.037 A 
BRANCH  53  67
ATOM     67  C   UNL A   1      40.373  28.037  29.001  1.00  0.00     0.064 A 
ATOM     68  C   UNL A   1      39.660  26.827  28.952  1.00  0.00     0.173 A 
ATOM     69  C   UNL A   1      41.115  28.402  27.868  1.00  0.00     0.173 A 
ATOM     70  F   UNL A   1      38.944  26.423  30.013  1.00  0.00    -0.203 F 
ATOM     71  C   UNL A   1      39.721  26.003  27.833  1.00  0.00     0.198 A 
ATOM     72  C   UNL A   1      41.144  27.592  26.736  1.00  0.00     0.198 A 
ATOM     73  F   UNL A   1      41.811  29.549  27.856  1.00  0.00    -0.203 F 
ATOM     74  F   UNL A   1      39.081  24.824  27.835  1.00  0.00    -0.200 F 
ATOM     75  C   UNL A   1      40.456  26.388  26.723  1.00  0.00     0.200 A 
ATOM     76  F   UNL A   1      41.845  27.973  25.659  1.00  0.00    -0.200 F 
ATOM     77  F   UNL A   1      40.510  25.594  25.644  1.00  0.00    -0.200 F 
ENDBRANCH  53  67
BRANCH  54  78
ATOM     78  C   UNL A   1      39.557  34.001  36.978  1.00  0.00     0.064 A 
ATOM     79  C   UNL A   1      38.799  33.594  38.084  1.00  0.00     0.173 A 
ATOM     80  C   UNL A   1      40.188  35.252  37.045  1.00  0.00     0.173 A 
ATOM     81  F   UNL A   1      38.161  32.415  38.060  1.00  0.00    -0.203 F 
ATOM     82  C   UNL A   1      38.661  34.412  39.203  1.00  0.00     0.198 A 
ATOM     83  C   UNL A   1      40.074  36.057  38.177  1.00  0.00     0.198 A 
ATOM     84  F   UNL A   1      40.930  35.687  36.016  1.00  0.00    -0.203 F 
ATOM     85  F   UNL A   1      37.892  34.017  40.228  1.00  0.00    -0.200 F 
ATOM     86  C   UNL A   1      39.303  35.639  39.251  1.00  0.00     0.200 A 
ATOM     87  F   UNL A   1      40.710  37.235  38.226  1.00  0.00    -0.200 F 
ATOM     88  F   UNL A   1      39.175  36.423  40.331  1.00  0.00    -0.200 F 
ENDBRANCH  54  78
BRANCH  66  89
ATOM     89  C   UNL A   1      43.890  28.819  35.252  1.00  0.00     0.064 A 
ATOM     90  C   UNL A   1      43.737  27.728  36.120  1.00  0.00     0.173 A 
ATOM     91  C   UNL A   1      45.191  29.298  35.024  1.00  0.00     0.173 A 
ATOM     92  F   UNL A   1      42.514  27.243  36.384  1.00  0.00    -0.203 F 
ATOM     93  C   UNL A   1      44.837  27.157  36.753  1.00  0.00     0.198 A 
ATOM     94  C   UNL A   1      46.292  28.702  35.632  1.00  0.00     0.198 A 
ATOM     95  F   UNL A   1      45.394  30.334  34.197  1.00  0.00    -0.203 F 
ATOM     96  F   UNL A   1      44.660  26.149  37.619  1.00  0.00    -0.200 F 
ATOM     97  C   UNL A   1      46.113  27.638  36.504  1.00  0.00     0.200 A 
ATOM     98  F   UNL A   1      47.526  29.159  35.376  1.00  0.00    -0.200 F 
ATOM     99  F   UNL A   1      47.171  27.081  37.108  1.00  0.00    -0.200 F 
ENDBRANCH  66  89
ENDBRANCH  40  41
ENDBRANCH  32  35
ENDBRANCH  30  31
ENDBRANCH  29  30
ENDBRANCH   1  29
TORSDOF 17
ENDMDL
MODEL 3
REMARK VINA RESULT:     -11.9      5.573     10.118
REMARK SMILES COc1ccc([C@@H]([NH3+])[C@](C)(C(N)=O)C(=O)NCCCCNC(=O)c2ccc(-c3c4nc(c(-c5c(F)c(F)c(F)c(F)c5F)c5ccc([nH]5)c(-c5c(F)c(F)c(F)c(F)c5F)c5nc(c(-c6c(F)c(F)c(F)c(F)c6F)c6ccc3[nH]6)C=C5)C=C4)cc2)cc1OC
REMARK SMILES IDX 18 1 17 2 16 3 14 4 15 5 9 7 10 8 7 9 6 10 3 11 4 12 88 13
REMARK SMILES IDX 5 14 87 15 2 16 1 17 89 18 90 19 8 20 11 24 12 25 13 26
REMARK SMILES IDX 19 29 20 30 21 31 22 32 23 34 24 35 25 36 86 37 26 38 85 39
REMARK SMILES IDX 27 40 28 41 29 42 79 43 30 44 84 45 78 46 80 47 31 48 83 49
REMARK SMILES IDX 77 50 76 51 32 53 64 54 44 55 63 56 45 57 48 58 62 59 81 60
REMARK SMILES IDX 46 61 47 62 61 64 82 65 49 66 33 67 34 68 42 69 35 70 36 71
REMARK SMILES IDX 40 72 43 73 37 74 38 75 41 76 39 77 65 78 66 79 74 80 67 81
REMARK SMILES IDX 68 82 72 83 75 84 69 85 70 86 73 87 71 88 50 89 51 90 59 91
REMARK SMILES IDX 52 92 53 93 57 94 60 95 54 96 55 97 58 98 56 99
REMARK H PARENT 16 6 8 21 8 22 8 23 12 27 12 28 21 33 80 52 48 63
REMARK Flexibility Score: inf
ROOT
ATOM      1  C   UNL A   1      39.346  22.552  26.379  1.00  0.00     0.023 C 
ENDROOT
BRANCH   1   2
ATOM      2  C   UNL A   1      37.983  23.172  26.099  1.00  0.00     0.116 C 
BRANCH   2   3
ATOM      3  N   UNL A   1      37.713  23.239  24.674  1.00  0.00    -0.355 N 
ATOM      4  C   UNL A   1      36.641  22.808  23.952  1.00  0.00     0.241 C 
ATOM      5  O   UNL A   1      36.749  22.882  22.724  1.00  0.00    -0.274 OA
ATOM      6  H   UNL A   1      38.423  23.666  24.141  1.00  0.00     0.163 HD
BRANCH   4   7
ATOM      7  C   UNL A   1      35.376  22.250  24.628  1.00  0.00     0.180 C 
ATOM      8  C   UNL A   1      34.183  22.412  23.656  1.00  0.00     0.039 C 
BRANCH   7   9
ATOM      9  C   UNL A   1      35.131  22.987  26.004  1.00  0.00     0.237 C 
BRANCH   9  10
ATOM     10  C   UNL A   1      34.069  24.088  25.976  1.00  0.00     0.015 A 
ATOM     11  C   UNL A   1      32.123  26.116  26.235  1.00  0.00     0.160 A 
ATOM     12  C   UNL A   1      33.377  26.395  25.678  1.00  0.00     0.051 A 
ATOM     13  C   UNL A   1      31.798  24.808  26.602  1.00  0.00     0.161 A 
ATOM     14  C   UNL A   1      34.342  25.390  25.550  1.00  0.00     0.014 A 
ATOM     15  C   UNL A   1      32.772  23.809  26.449  1.00  0.00     0.060 A 
BRANCH  11  16
ATOM     16  O   UNL A   1      31.213  27.136  26.317  1.00  0.00    -0.493 OA
ATOM     17  C   UNL A   1      31.068  27.813  25.068  1.00  0.00     0.278 C 
ENDBRANCH  11  16
BRANCH  13  18
ATOM     18  O   UNL A   1      30.628  24.323  27.121  1.00  0.00    -0.493 OA
ATOM     19  C   UNL A   1      30.229  23.005  26.782  1.00  0.00     0.278 C 
ENDBRANCH  13  18
ENDBRANCH   9  10
BRANCH   9  20
ATOM     20  N   UNL A   1      34.875  22.082  27.141  1.00  0.00    -0.350 N 
ATOM     21  H   UNL A   1      35.739  21.602  27.395  1.00  0.00     0.345 HD
ATOM     22  H   UNL A   1      34.169  21.394  26.876  1.00  0.00     0.345 HD
ATOM     23  H   UNL A   1      34.539  22.622  27.938  1.00  0.00     0.345 HD
ENDBRANCH   9  20
ENDBRANCH   7   9
BRANCH   7  24
ATOM     24  C   UNL A   1      35.494  20.737  24.848  1.00  0.00     0.239 C 
ATOM     25  N   UNL A   1      34.367  19.986  24.657  1.00  0.00    -0.369 N 
ATOM     26  O   UNL A   1      36.526  20.179  25.218  1.00  0.00    -0.274 OA
ATOM     27  H   UNL A   1      33.533  20.416  24.360  1.00  0.00     0.159 HD
ATOM     28  H   UNL A   1      34.389  19.015  24.817  1.00  0.00     0.159 HD
ENDBRANCH   7  24
ENDBRANCH   4   7
ENDBRANCH   2   3
ENDBRANCH   1   2
BRANCH   1  29
ATOM     29  C   UNL A   1      39.598  21.241  25.634  1.00  0.00     0.023 C 
BRANCH  29  30
ATOM     30  C   UNL A   1      39.855  20.038  26.532  1.00  0.00     0.116 C 
BRANCH  30  31
ATOM     31  N   UNL A   1      40.951  19.206  26.057  1.00  0.00    -0.352 N 
ATOM     32  C   UNL A   1      42.269  19.541  25.852  1.00  0.00     0.251 C 
ATOM     33  H   UNL A   1      40.716  18.273  25.854  1.00  0.00     0.163 HD
ATOM     34  O   UNL A   1      43.029  18.766  25.291  1.00  0.00    -0.269 OA
BRANCH  32  35
ATOM     35  C   UNL A   1      42.749  20.868  26.292  1.00  0.00     0.039 A 
ATOM     36  C   UNL A   1      43.161  21.790  25.328  1.00  0.00     0.014 A 
ATOM     37  C   UNL A   1      42.753  21.207  27.647  1.00  0.00     0.014 A 
ATOM     38  C   UNL A   1      43.508  23.083  25.721  1.00  0.00     0.010 A 
ATOM     39  C   UNL A   1      43.013  22.520  28.025  1.00  0.00     0.010 A 
ATOM     40  C   UNL A   1      43.396  23.470  27.067  1.00  0.00    -0.014 A 
BRANCH  40  41
ATOM     41  C   UNL A   1      43.675  24.864  27.494  1.00  0.00     0.031 A 
ATOM     42  C   UNL A   1      45.095  25.333  27.649  1.00  0.00     0.074 A 
ATOM     43  C   UNL A   1      42.653  25.684  27.808  1.00  0.00     0.049 A 
ATOM     44  N   UNL A   1      45.545  26.484  28.076  1.00  0.00    -0.248 NA
ATOM     45  C   UNL A   1      46.150  24.365  27.308  1.00  0.00     0.031 C 
ATOM     46  C   UNL A   1      41.235  25.329  27.748  1.00  0.00     0.029 A 
ATOM     47  N   UNL A   1      42.652  26.983  28.251  1.00  0.00    -0.354 N 
ATOM     48  C   UNL A   1      46.929  26.374  28.069  1.00  0.00     0.074 A 
ATOM     49  C   UNL A   1      47.244  25.023  27.658  1.00  0.00     0.031 C 
ATOM     50  C   UNL A   1      40.500  26.393  28.110  1.00  0.00     0.029 A 
ATOM     51  C   UNL A   1      41.394  27.489  28.470  1.00  0.00     0.049 A 
ATOM     52  H   UNL A   1      43.475  27.504  28.397  1.00  0.00     0.167 HD
ATOM     53  C   UNL A   1      47.854  27.321  28.354  1.00  0.00     0.037 A 
ATOM     54  C   UNL A   1      41.006  28.698  28.916  1.00  0.00     0.037 A 
ATOM     55  C   UNL A   1      47.534  28.671  28.742  1.00  0.00     0.049 A 
ATOM     56  C   UNL A   1      42.054  29.730  29.239  1.00  0.00     0.074 A 
ATOM     57  C   UNL A   1      48.396  29.723  28.991  1.00  0.00     0.029 A 
ATOM     58  N   UNL A   1      46.248  29.149  28.942  1.00  0.00    -0.354 N 
ATOM     59  N   UNL A   1      43.359  29.639  29.158  1.00  0.00    -0.248 NA
ATOM     60  C   UNL A   1      41.572  31.036  29.710  1.00  0.00     0.031 C 
ATOM     61  C   UNL A   1      47.634  30.824  29.397  1.00  0.00     0.029 A 
ATOM     62  C   UNL A   1      46.293  30.476  29.340  1.00  0.00     0.049 A 
ATOM     63  H   UNL A   1      45.424  28.625  28.819  1.00  0.00     0.167 HD
ATOM     64  C   UNL A   1      43.853  30.879  29.536  1.00  0.00     0.074 A 
ATOM     65  C   UNL A   1      42.706  31.712  29.834  1.00  0.00     0.031 C 
ATOM     66  C   UNL A   1      45.142  31.293  29.628  1.00  0.00     0.037 A 
BRANCH  53  67
ATOM     67  C   UNL A   1      49.301  26.928  28.258  1.00  0.00     0.064 A 
ATOM     68  C   UNL A   1      50.030  26.509  29.384  1.00  0.00     0.173 A 
ATOM     69  C   UNL A   1      49.965  26.951  27.023  1.00  0.00     0.173 A 
ATOM     70  F   UNL A   1      49.447  26.481  30.593  1.00  0.00    -0.203 F 
ATOM     71  C   UNL A   1      51.374  26.167  29.282  1.00  0.00     0.198 A 
ATOM     72  C   UNL A   1      51.301  26.573  26.919  1.00  0.00     0.198 A 
ATOM     73  F   UNL A   1      49.317  27.337  25.913  1.00  0.00    -0.203 F 
ATOM     74  F   UNL A   1      52.064  25.831  30.382  1.00  0.00    -0.200 F 
ATOM     75  C   UNL A   1      52.008  26.192  28.049  1.00  0.00     0.200 A 
ATOM     76  F   UNL A   1      51.908  26.585  25.723  1.00  0.00    -0.200 F 
ATOM     77  F   UNL A   1      53.303  25.858  27.952  1.00  0.00    -0.200 F 
ENDBRANCH  53  67
BRANCH  54  78
ATOM     78  C   UNL A   1      39.559  29.009  29.058  1.00  0.00     0.064 A 
ATOM     79  C   UNL A   1      38.921  28.912  30.302  1.00  0.00     0.173 A 
ATOM     80  C   UNL A   1      38.786  29.410  27.958  1.00  0.00     0.173 A 
ATOM     81  F   UNL A   1      39.613  28.513  31.379  1.00  0.00    -0.203 F 
ATOM     82  C   UNL A   1      37.561  29.184  30.437  1.00  0.00     0.198 A 
ATOM     83  C   UNL A   1      37.433  29.712  28.100  1.00  0.00     0.198 A 
ATOM     84  F   UNL A   1      39.349  29.525  26.746  1.00  0.00    -0.203 F 
ATOM     85  F   UNL A   1      36.967  29.039  31.629  1.00  0.00    -0.200 F 
ATOM     86  C   UNL A   1      36.820  29.590  29.338  1.00  0.00     0.200 A 
ATOM     87  F   UNL A   1      36.725  30.120  27.039  1.00  0.00    -0.200 F 
ATOM     88  F   UNL A   1      35.514  29.859  29.471  1.00  0.00    -0.200 F 
ENDBRANCH  54  78
BRANCH  66  89
ATOM     89  C   UNL A   1      45.381  32.720  30.033  1.00  0.00     0.064 A 
ATOM     90  C   UNL A   1      45.589  33.085  31.371  1.00  0.00     0.173 A 
ATOM     91  C   UNL A   1      45.442  33.731  29.060  1.00  0.00     0.173 A 
ATOM     92  F   UNL A   1      45.525  32.160  32.340  1.00  0.00    -0.203 F 
ATOM     93  C   UNL A   1      45.822  34.411  31.722  1.00  0.00     0.198 A 
ATOM     94  C   UNL A   1      45.710  35.050  29.412  1.00  0.00     0.198 A 
ATOM     95  F   UNL A   1      45.257  33.435  27.764  1.00  0.00    -0.203 F 
ATOM     96  F   UNL A   1      45.967  34.745  33.013  1.00  0.00    -0.200 F 
ATOM     97  C   UNL A   1      45.891  35.391  30.743  1.00  0.00     0.200 A 
ATOM     98  F   UNL A   1      45.792  35.992  28.461  1.00  0.00    -0.200 F 
ATOM     99  F   UNL A   1      46.124  36.666  31.084  1.00  0.00    -0.200 F 
ENDBRANCH  66  89
ENDBRANCH  40  41
ENDBRANCH  32  35
ENDBRANCH  30  31
ENDBRANCH  29  30
ENDBRANCH   1  29
TORSDOF 17
ENDMDL
