MODEL 1
REMARK VINA RESULT:     -12.9      0.000      0.000
REMARK SMILES Cc1cccc(C[N@@H+](C)C[C@]2(C(=O)NCCCCNC(=O)c3ccc(-c4c5nc(c(-c6c(F)c(F)c(F)c(F)c6F)c6ccc([nH]6)c(-c6c(F)c(F)c(F)c(F)c6F)c6nc(c(-c7c(F)c(F)c(F)c(F)c7F)c7ccc4[nH]7)C=C6)C=C5)cc3)CCC[C@H](C)C2)n1
REMARK SMILES IDX 15 1 14 2 12 3 13 4 11 6 85 7 90 8 86 9 88 10 87 11 89 12
REMARK SMILES IDX 10 13 8 14 9 15 7 17 6 18 1 19 2 20 3 21 91 22 4 23 5 24
REMARK SMILES IDX 16 25 17 26 18 27 19 28 20 29 21 31 22 32 23 33 84 34 24 35
REMARK SMILES IDX 83 36 25 37 26 38 27 39 77 40 28 41 82 42 76 43 78 44 29 45
REMARK SMILES IDX 81 46 75 47 74 48 30 50 62 51 42 52 61 53 43 54 46 55 60 56
REMARK SMILES IDX 79 57 44 58 45 59 59 61 80 62 47 63 31 64 32 65 40 66 33 67
REMARK SMILES IDX 34 68 38 69 41 70 35 71 36 72 39 73 37 74 63 75 64 76 72 77
REMARK SMILES IDX 65 78 66 79 70 80 73 81 67 82 68 83 71 84 69 85 48 86 49 87
REMARK SMILES IDX 57 88 50 89 51 90 55 91 58 92 52 93 53 94 56 95 54 96
REMARK H PARENT 14 5 8 16 19 30 78 49 46 60
REMARK Flexibility Score: inf
ROOT
ATOM      1  C   UNL A   1      31.440  29.824  25.270  1.00  0.00     0.116 C 
ENDROOT
BRANCH   1   2
ATOM      2  N   UNL A   1      32.454  29.626  24.258  1.00  0.00    -0.355 N 
ATOM      3  C   UNL A   1      32.523  28.739  23.228  1.00  0.00     0.231 C 
ATOM      4  O   UNL A   1      33.380  28.994  22.371  1.00  0.00    -0.274 OA
ATOM      5  H   UNL A   1      33.225  30.235  24.326  1.00  0.00     0.163 HD
BRANCH   3   6
ATOM      6  C   UNL A   1      31.627  27.469  23.120  1.00  0.00     0.098 C 
ATOM      7  C   UNL A   1      32.260  26.519  22.038  1.00  0.00     0.023 C 
ATOM      8  C   UNL A   1      31.575  26.642  24.429  1.00  0.00     0.026 C 
ATOM      9  C   UNL A   1      33.600  25.895  22.440  1.00  0.00     0.002 C 
ATOM     10  C   UNL A   1      32.957  26.121  24.864  1.00  0.00    -0.013 C 
ATOM     11  C   UNL A   1      33.533  25.197  23.792  1.00  0.00     0.003 C 
ATOM     12  C   UNL A   1      32.864  25.398  26.208  1.00  0.00     0.007 C 
BRANCH   6  13
ATOM     13  C   UNL A   1      30.217  27.863  22.538  1.00  0.00     0.279 C 
BRANCH  13  14
ATOM     14  N   UNL A   1      29.068  27.872  23.459  1.00  0.00    -0.331 N 
ATOM     15  C   UNL A   1      28.603  26.520  23.783  1.00  0.00     0.333 C 
ATOM     16  H   UNL A   1      29.445  28.324  24.292  1.00  0.00     0.348 HD
BRANCH  14  17
ATOM     17  C   UNL A   1      27.907  28.677  23.006  1.00  0.00     0.319 C 
BRANCH  17  18
ATOM     18  C   UNL A   1      28.155  30.142  22.666  1.00  0.00     0.095 A 
ATOM     19  C   UNL A   1      27.905  32.329  19.710  1.00  0.00     0.067 C 
ATOM     20  C   UNL A   1      28.156  31.879  21.119  1.00  0.00     0.038 A 
ATOM     21  C   UNL A   1      28.522  32.802  22.094  1.00  0.00     0.023 A 
ATOM     22  N   UNL A   1      27.989  30.558  21.383  1.00  0.00    -0.252 NA
ATOM     23  C   UNL A   1      28.721  32.359  23.394  1.00  0.00     0.004 A 
ATOM     24  C   UNL A   1      28.534  31.015  23.688  1.00  0.00     0.030 A 
ENDBRANCH  17  18
ENDBRANCH  14  17
ENDBRANCH  13  14
ENDBRANCH   6  13
ENDBRANCH   3   6
ENDBRANCH   1   2
BRANCH   1  25
ATOM     25  C   UNL A   1      31.993  30.387  26.572  1.00  0.00     0.023 C 
BRANCH  25  26
ATOM     26  C   UNL A   1      31.680  31.858  26.813  1.00  0.00     0.023 C 
BRANCH  26  27
ATOM     27  C   UNL A   1      32.858  32.709  27.274  1.00  0.00     0.116 C 
BRANCH  27  28
ATOM     28  N   UNL A   1      32.491  34.071  27.644  1.00  0.00    -0.352 N 
ATOM     29  C   UNL A   1      33.037  34.888  28.609  1.00  0.00     0.251 C 
ATOM     30  H   UNL A   1      31.748  34.463  27.130  1.00  0.00     0.163 HD
ATOM     31  O   UNL A   1      32.566  35.984  28.848  1.00  0.00    -0.269 OA
BRANCH  29  32
ATOM     32  C   UNL A   1      34.187  34.384  29.392  1.00  0.00     0.039 A 
ATOM     33  C   UNL A   1      33.940  33.676  30.570  1.00  0.00     0.014 A 
ATOM     34  C   UNL A   1      35.490  34.547  28.918  1.00  0.00     0.014 A 
ATOM     35  C   UNL A   1      35.000  33.044  31.224  1.00  0.00     0.010 A 
ATOM     36  C   UNL A   1      36.530  33.853  29.527  1.00  0.00     0.010 A 
ATOM     37  C   UNL A   1      36.293  33.085  30.679  1.00  0.00    -0.014 A 
BRANCH  37  38
ATOM     38  C   UNL A   1      37.411  32.318  31.283  1.00  0.00     0.031 A 
ATOM     39  C   UNL A   1      37.917  32.681  32.650  1.00  0.00     0.074 A 
ATOM     40  C   UNL A   1      38.032  31.362  30.561  1.00  0.00     0.049 A 
ATOM     41  N   UNL A   1      38.948  32.207  33.303  1.00  0.00    -0.248 NA
ATOM     42  C   UNL A   1      37.190  33.743  33.365  1.00  0.00     0.031 C 
ATOM     43  C   UNL A   1      37.678  30.964  29.197  1.00  0.00     0.029 A 
ATOM     44  N   UNL A   1      39.106  30.564  30.870  1.00  0.00    -0.354 N 
ATOM     45  C   UNL A   1      39.010  32.932  34.486  1.00  0.00     0.074 A 
ATOM     46  C   UNL A   1      37.939  33.903  34.447  1.00  0.00     0.031 C 
ATOM     47  C   UNL A   1      38.510  29.991  28.792  1.00  0.00     0.029 A 
ATOM     48  C   UNL A   1      39.475  29.717  29.852  1.00  0.00     0.049 A 
ATOM     49  H   UNL A   1      39.567  30.594  31.739  1.00  0.00     0.167 HD
ATOM     50  C   UNL A   1      39.873  32.786  35.519  1.00  0.00     0.037 A 
ATOM     51  C   UNL A   1      40.485  28.830  29.780  1.00  0.00     0.037 A 
ATOM     52  C   UNL A   1      40.898  31.780  35.581  1.00  0.00     0.049 A 
ATOM     53  C   UNL A   1      41.399  28.660  30.965  1.00  0.00     0.074 A 
ATOM     54  C   UNL A   1      41.752  31.486  36.629  1.00  0.00     0.029 A 
ATOM     55  N   UNL A   1      41.205  30.902  34.554  1.00  0.00    -0.354 N 
ATOM     56  N   UNL A   1      41.388  29.288  32.114  1.00  0.00    -0.248 NA
ATOM     57  C   UNL A   1      42.462  27.651  30.844  1.00  0.00     0.031 C 
ATOM     58  C   UNL A   1      42.601  30.452  36.223  1.00  0.00     0.029 A 
ATOM     59  C   UNL A   1      42.249  30.077  34.937  1.00  0.00     0.049 A 
ATOM     60  H   UNL A   1      40.748  30.869  33.682  1.00  0.00     0.167 HD
ATOM     61  C   UNL A   1      42.417  28.732  32.862  1.00  0.00     0.074 A 
ATOM     62  C   UNL A   1      43.023  27.705  32.043  1.00  0.00     0.031 C 
ATOM     63  C   UNL A   1      42.825  29.045  34.116  1.00  0.00     0.037 A 
BRANCH  50  64
ATOM     64  C   UNL A   1      39.740  33.724  36.680  1.00  0.00     0.064 A 
ATOM     65  C   UNL A   1      40.371  34.976  36.689  1.00  0.00     0.173 A 
ATOM     66  C   UNL A   1      38.912  33.396  37.764  1.00  0.00     0.173 A 
ATOM     67  F   UNL A   1      41.181  35.331  35.680  1.00  0.00    -0.203 F 
ATOM     68  C   UNL A   1      40.190  35.861  37.749  1.00  0.00     0.198 A 
ATOM     69  C   UNL A   1      38.714  34.293  38.811  1.00  0.00     0.198 A 
ATOM     70  F   UNL A   1      38.283  32.212  37.801  1.00  0.00    -0.203 F 
ATOM     71  F   UNL A   1      40.828  37.039  37.751  1.00  0.00    -0.200 F 
ATOM     72  C   UNL A   1      39.356  35.522  38.803  1.00  0.00     0.200 A 
ATOM     73  F   UNL A   1      37.898  33.969  39.823  1.00  0.00    -0.200 F 
ATOM     74  F   UNL A   1      39.170  36.382  39.815  1.00  0.00    -0.200 F 
ENDBRANCH  50  64
BRANCH  51  75
ATOM     75  C   UNL A   1      40.686  28.016  28.553  1.00  0.00     0.064 A 
ATOM     76  C   UNL A   1      41.480  28.488  27.498  1.00  0.00     0.173 A 
ATOM     77  C   UNL A   1      40.061  26.770  28.393  1.00  0.00     0.173 A 
ATOM     78  F   UNL A   1      42.079  29.684  27.596  1.00  0.00    -0.203 F 
ATOM     79  C   UNL A   1      41.614  27.762  26.317  1.00  0.00     0.198 A 
ATOM     80  C   UNL A   1      40.220  26.032  27.221  1.00  0.00     0.198 A 
ATOM     81  F   UNL A   1      39.295  26.272  29.373  1.00  0.00    -0.203 F 
ATOM     82  F   UNL A   1      42.331  28.265  25.302  1.00  0.00    -0.200 F 
ATOM     83  C   UNL A   1      40.987  26.533  26.181  1.00  0.00     0.200 A 
ATOM     84  F   UNL A   1      39.621  24.840  27.098  1.00  0.00    -0.200 F 
ATOM     85  F   UNL A   1      41.110  25.838  25.042  1.00  0.00    -0.200 F 
ENDBRANCH  51  75
BRANCH  63  86
ATOM     86  C   UNL A   1      43.951  28.243  34.694  1.00  0.00     0.064 A 
ATOM     87  C   UNL A   1      45.289  28.622  34.518  1.00  0.00     0.173 A 
ATOM     88  C   UNL A   1      43.684  27.106  35.472  1.00  0.00     0.173 A 
ATOM     89  F   UNL A   1      45.594  29.693  33.769  1.00  0.00    -0.203 F 
ATOM     90  C   UNL A   1      46.322  27.880  35.083  1.00  0.00     0.198 A 
ATOM     91  C   UNL A   1      44.718  26.382  36.058  1.00  0.00     0.198 A 
ATOM     92  F   UNL A   1      42.420  26.707  35.676  1.00  0.00    -0.203 F 
ATOM     93  F   UNL A   1      47.595  28.236  34.868  1.00  0.00    -0.200 F 
ATOM     94  C   UNL A   1      46.035  26.766  35.859  1.00  0.00     0.200 A 
ATOM     95  F   UNL A   1      44.439  25.314  36.819  1.00  0.00    -0.200 F 
ATOM     96  F   UNL A   1      47.031  26.058  36.409  1.00  0.00    -0.200 F 
ENDBRANCH  63  86
ENDBRANCH  37  38
ENDBRANCH  29  32
ENDBRANCH  27  28
ENDBRANCH  26  27
ENDBRANCH  25  26
ENDBRANCH   1  25
TORSDOF 15
ENDMDL
MODEL 2
REMARK VINA RESULT:     -12.7      4.456      7.129
REMARK SMILES Cc1cccc(C[N@@H+](C)C[C@]2(C(=O)NCCCCNC(=O)c3ccc(-c4c5nc(c(-c6c(F)c(F)c(F)c(F)c6F)c6ccc([nH]6)c(-c6c(F)c(F)c(F)c(F)c6F)c6nc(c(-c7c(F)c(F)c(F)c(F)c7F)c7ccc4[nH]7)C=C6)C=C5)cc3)CCC[C@H](C)C2)n1
REMARK SMILES IDX 15 1 14 2 12 3 13 4 11 6 85 7 90 8 86 9 88 10 87 11 89 12
REMARK SMILES IDX 10 13 8 14 9 15 7 17 6 18 1 19 2 20 3 21 91 22 4 23 5 24
REMARK SMILES IDX 16 25 17 26 18 27 19 28 20 29 21 31 22 32 23 33 84 34 24 35
REMARK SMILES IDX 83 36 25 37 26 38 27 39 77 40 28 41 82 42 76 43 78 44 29 45
REMARK SMILES IDX 81 46 75 47 74 48 30 50 62 51 42 52 61 53 43 54 46 55 60 56
REMARK SMILES IDX 79 57 44 58 45 59 59 61 80 62 47 63 31 64 32 65 40 66 33 67
REMARK SMILES IDX 34 68 38 69 41 70 35 71 36 72 39 73 37 74 63 75 64 76 72 77
REMARK SMILES IDX 65 78 66 79 70 80 73 81 67 82 68 83 71 84 69 85 48 86 49 87
REMARK SMILES IDX 57 88 50 89 51 90 55 91 58 92 52 93 53 94 56 95 54 96
REMARK H PARENT 14 5 8 16 19 30 78 49 46 60
REMARK Flexibility Score: inf
ROOT
ATOM      1  C   UNL A   1      33.125  25.977  25.828  1.00  0.00     0.116 C 
ENDROOT
BRANCH   1   2
ATOM      2  N   UNL A   1      33.654  25.859  24.488  1.00  0.00    -0.355 N 
ATOM      3  C   UNL A   1      34.023  24.763  23.769  1.00  0.00     0.231 C 
ATOM      4  O   UNL A   1      34.178  24.958  22.556  1.00  0.00    -0.274 OA
ATOM      5  H   UNL A   1      33.768  26.716  24.015  1.00  0.00     0.163 HD
BRANCH   3   6
ATOM      6  C   UNL A   1      34.269  23.360  24.399  1.00  0.00     0.098 C 
ATOM      7  C   UNL A   1      35.057  22.490  23.352  1.00  0.00     0.023 C 
ATOM      8  C   UNL A   1      35.160  23.404  25.666  1.00  0.00     0.026 C 
ATOM      9  C   UNL A   1      36.496  22.948  23.093  1.00  0.00     0.002 C 
ATOM     10  C   UNL A   1      36.564  23.972  25.392  1.00  0.00    -0.013 C 
ATOM     11  C   UNL A   1      37.299  23.096  24.378  1.00  0.00     0.003 C 
ATOM     12  C   UNL A   1      37.365  24.086  26.689  1.00  0.00     0.007 C 
BRANCH   6  13
ATOM     13  C   UNL A   1      32.894  22.616  24.590  1.00  0.00     0.279 C 
BRANCH  13  14
ATOM     14  N   UNL A   1      32.746  21.277  23.995  1.00  0.00    -0.331 N 
ATOM     15  C   UNL A   1      31.905  21.290  22.794  1.00  0.00     0.333 C 
ATOM     16  H   UNL A   1      33.704  21.026  23.752  1.00  0.00     0.348 HD
BRANCH  14  17
ATOM     17  C   UNL A   1      32.237  20.233  24.918  1.00  0.00     0.319 C 
BRANCH  17  18
ATOM     18  C   UNL A   1      32.974  18.899  24.950  1.00  0.00     0.095 A 
ATOM     19  C   UNL A   1      32.241  15.408  25.873  1.00  0.00     0.067 C 
ATOM     20  C   UNL A   1      32.990  16.616  25.394  1.00  0.00     0.038 A 
ATOM     21  C   UNL A   1      34.290  16.490  24.916  1.00  0.00     0.023 A 
ATOM     22  N   UNL A   1      32.333  17.804  25.434  1.00  0.00    -0.252 NA
ATOM     23  C   UNL A   1      34.947  17.623  24.455  1.00  0.00     0.004 A 
ATOM     24  C   UNL A   1      34.283  18.843  24.468  1.00  0.00     0.030 A 
ENDBRANCH  17  18
ENDBRANCH  14  17
ENDBRANCH  13  14
ENDBRANCH   6  13
ENDBRANCH   3   6
ENDBRANCH   1   2
BRANCH   1  25
ATOM     25  C   UNL A   1      32.130  27.119  25.982  1.00  0.00     0.023 C 
BRANCH  25  26
ATOM     26  C   UNL A   1      32.759  28.503  26.075  1.00  0.00     0.023 C 
BRANCH  26  27
ATOM     27  C   UNL A   1      33.684  28.722  27.267  1.00  0.00     0.116 C 
BRANCH  27  28
ATOM     28  N   UNL A   1      33.688  30.093  27.765  1.00  0.00    -0.352 N 
ATOM     29  C   UNL A   1      34.701  30.791  28.383  1.00  0.00     0.251 C 
ATOM     30  H   UNL A   1      32.847  30.590  27.639  1.00  0.00     0.163 HD
ATOM     31  O   UNL A   1      34.523  31.917  28.809  1.00  0.00    -0.269 OA
BRANCH  29  32
ATOM     32  C   UNL A   1      36.009  30.124  28.565  1.00  0.00     0.039 A 
ATOM     33  C   UNL A   1      36.955  30.208  27.542  1.00  0.00     0.014 A 
ATOM     34  C   UNL A   1      36.317  29.490  29.770  1.00  0.00     0.014 A 
ATOM     35  C   UNL A   1      38.251  29.739  27.767  1.00  0.00     0.010 A 
ATOM     36  C   UNL A   1      37.627  29.095  30.019  1.00  0.00     0.010 A 
ATOM     37  C   UNL A   1      38.609  29.226  29.024  1.00  0.00    -0.014 A 
BRANCH  37  38
ATOM     38  C   UNL A   1      40.009  28.839  29.331  1.00  0.00     0.031 A 
ATOM     39  C   UNL A   1      40.900  29.784  30.087  1.00  0.00     0.074 A 
ATOM     40  C   UNL A   1      40.504  27.682  28.845  1.00  0.00     0.049 A 
ATOM     41  N   UNL A   1      42.176  29.679  30.358  1.00  0.00    -0.248 NA
ATOM     42  C   UNL A   1      40.284  31.029  30.573  1.00  0.00     0.031 C 
ATOM     43  C   UNL A   1      39.759  26.712  28.039  1.00  0.00     0.029 A 
ATOM     44  N   UNL A   1      41.760  27.135  28.942  1.00  0.00    -0.354 N 
ATOM     45  C   UNL A   1      42.519  30.852  31.016  1.00  0.00     0.074 A 
ATOM     46  C   UNL A   1      41.330  31.673  31.071  1.00  0.00     0.031 C 
ATOM     47  C   UNL A   1      40.567  25.686  27.727  1.00  0.00     0.029 A 
ATOM     48  C   UNL A   1      41.893  25.938  28.280  1.00  0.00     0.049 A 
ATOM     49  H   UNL A   1      42.495  27.561  29.440  1.00  0.00     0.167 HD
ATOM     50  C   UNL A   1      43.716  31.204  31.542  1.00  0.00     0.037 A 
ATOM     51  C   UNL A   1      42.968  25.142  28.129  1.00  0.00     0.037 A 
ATOM     52  C   UNL A   1      44.880  30.360  31.539  1.00  0.00     0.049 A 
ATOM     53  C   UNL A   1      44.273  25.540  28.767  1.00  0.00     0.074 A 
ATOM     54  C   UNL A   1      46.107  30.585  32.140  1.00  0.00     0.029 A 
ATOM     55  N   UNL A   1      44.961  29.129  30.910  1.00  0.00    -0.354 N 
ATOM     56  N   UNL A   1      44.559  26.610  29.466  1.00  0.00    -0.248 NA
ATOM     57  C   UNL A   1      45.404  24.614  28.600  1.00  0.00     0.031 C 
ATOM     58  C   UNL A   1      46.943  29.505  31.842  1.00  0.00     0.029 A 
ATOM     59  C   UNL A   1      46.224  28.590  31.091  1.00  0.00     0.049 A 
ATOM     60  H   UNL A   1      44.229  28.700  30.409  1.00  0.00     0.167 HD
ATOM     61  C   UNL A   1      45.887  26.473  29.847  1.00  0.00     0.074 A 
ATOM     62  C   UNL A   1      46.347  25.209  29.315  1.00  0.00     0.031 C 
ATOM     63  C   UNL A   1      46.657  27.320  30.572  1.00  0.00     0.037 A 
BRANCH  50  64
ATOM     64  C   UNL A   1      43.829  32.554  32.184  1.00  0.00     0.064 A 
ATOM     65  C   UNL A   1      43.563  32.743  33.547  1.00  0.00     0.173 A 
ATOM     66  C   UNL A   1      44.280  33.655  31.441  1.00  0.00     0.173 A 
ATOM     67  F   UNL A   1      43.119  31.722  34.296  1.00  0.00    -0.203 F 
ATOM     68  C   UNL A   1      43.730  33.990  34.142  1.00  0.00     0.198 A 
ATOM     69  C   UNL A   1      44.469  34.896  32.045  1.00  0.00     0.198 A 
ATOM     70  F   UNL A   1      44.552  33.524  30.134  1.00  0.00    -0.203 F 
ATOM     71  F   UNL A   1      43.439  34.156  35.440  1.00  0.00    -0.200 F 
ATOM     72  C   UNL A   1      44.191  35.063  33.393  1.00  0.00     0.200 A 
ATOM     73  F   UNL A   1      44.927  35.928  31.322  1.00  0.00    -0.200 F 
ATOM     74  F   UNL A   1      44.367  36.259  33.971  1.00  0.00    -0.200 F 
ENDBRANCH  50  64
BRANCH  51  75
ATOM     75  C   UNL A   1      42.864  23.876  27.357  1.00  0.00     0.064 A 
ATOM     76  C   UNL A   1      42.397  22.700  27.963  1.00  0.00     0.173 A 
ATOM     77  C   UNL A   1      43.262  23.805  26.014  1.00  0.00     0.173 A 
ATOM     78  F   UNL A   1      42.027  22.714  29.251  1.00  0.00    -0.203 F 
ATOM     79  C   UNL A   1      42.365  21.495  27.264  1.00  0.00     0.198 A 
ATOM     80  C   UNL A   1      43.201  22.604  25.309  1.00  0.00     0.198 A 
ATOM     81  F   UNL A   1      43.712  24.902  25.388  1.00  0.00    -0.203 F 
ATOM     82  F   UNL A   1      41.970  20.374  27.886  1.00  0.00    -0.200 F 
ATOM     83  C   UNL A   1      42.763  21.449  25.938  1.00  0.00     0.200 A 
ATOM     84  F   UNL A   1      43.578  22.566  24.024  1.00  0.00    -0.200 F 
ATOM     85  F   UNL A   1      42.739  20.288  25.269  1.00  0.00    -0.200 F 
ENDBRANCH  51  75
BRANCH  63  86
ATOM     86  C   UNL A   1      48.062  26.890  30.868  1.00  0.00     0.064 A 
ATOM     87  C   UNL A   1      48.363  26.063  31.958  1.00  0.00     0.173 A 
ATOM     88  C   UNL A   1      49.113  27.276  30.021  1.00  0.00     0.173 A 
ATOM     89  F   UNL A   1      47.394  25.682  32.804  1.00  0.00    -0.203 F 
ATOM     90  C   UNL A   1      49.670  25.652  32.204  1.00  0.00     0.198 A 
ATOM     91  C   UNL A   1      50.414  26.841  30.254  1.00  0.00     0.198 A 
ATOM     92  F   UNL A   1      48.875  28.061  28.961  1.00  0.00    -0.203 F 
ATOM     93  F   UNL A   1      49.942  24.895  33.275  1.00  0.00    -0.200 F 
ATOM     94  C   UNL A   1      50.693  26.035  31.347  1.00  0.00     0.200 A 
ATOM     95  F   UNL A   1      51.399  27.200  29.419  1.00  0.00    -0.200 F 
ATOM     96  F   UNL A   1      51.949  25.631  31.581  1.00  0.00    -0.200 F 
ENDBRANCH  63  86
ENDBRANCH  37  38
ENDBRANCH  29  32
ENDBRANCH  27  28
ENDBRANCH  26  27
ENDBRANCH  25  26
ENDBRANCH   1  25
TORSDOF 15
ENDMDL
MODEL 3
REMARK VINA RESULT:     -12.7      2.836      8.701
REMARK SMILES Cc1cccc(C[N@@H+](C)C[C@]2(C(=O)NCCCCNC(=O)c3ccc(-c4c5nc(c(-c6c(F)c(F)c(F)c(F)c6F)c6ccc([nH]6)c(-c6c(F)c(F)c(F)c(F)c6F)c6nc(c(-c7c(F)c(F)c(F)c(F)c7F)c7ccc4[nH]7)C=C6)C=C5)cc3)CCC[C@H](C)C2)n1
REMARK SMILES IDX 15 1 14 2 12 3 13 4 11 6 85 7 90 8 86 9 88 10 87 11 89 12
REMARK SMILES IDX 10 13 8 14 9 15 7 17 6 18 1 19 2 20 3 21 91 22 4 23 5 24
REMARK SMILES IDX 16 25 17 26 18 27 19 28 20 29 21 31 22 32 23 33 84 34 24 35
REMARK SMILES IDX 83 36 25 37 26 38 27 39 77 40 28 41 82 42 76 43 78 44 29 45
REMARK SMILES IDX 81 46 75 47 74 48 30 50 62 51 42 52 61 53 43 54 46 55 60 56
REMARK SMILES IDX 79 57 44 58 45 59 59 61 80 62 47 63 31 64 32 65 40 66 33 67
REMARK SMILES IDX 34 68 38 69 41 70 35 71 36 72 39 73 37 74 63 75 64 76 72 77
REMARK SMILES IDX 65 78 66 79 70 80 73 81 67 82 68 83 71 84 69 85 48 86 49 87
REMARK SMILES IDX 57 88 50 89 51 90 55 91 58 92 52 93 53 94 56 95 54 96
REMARK H PARENT 14 5 8 16 19 30 78 49 46 60
REMARK Flexibility Score: inf
ROOT
ATOM      1  C   UNL A   1      32.234  26.361  26.600  1.00  0.00     0.116 C 
ENDROOT
BRANCH   1   2
ATOM      2  N   UNL A   1      31.583  25.391  25.747  1.00  0.00    -0.355 N 
ATOM      3  C   UNL A   1      32.100  24.499  24.858  1.00  0.00     0.231 C 
ATOM      4  O   UNL A   1      31.317  23.617  24.482  1.00  0.00    -0.274 OA
ATOM      5  H   UNL A   1      30.602  25.373  25.821  1.00  0.00     0.163 HD
BRANCH   3   6
ATOM      6  C   UNL A   1      33.556  24.572  24.308  1.00  0.00     0.098 C 
ATOM      7  C   UNL A   1      33.593  23.814  22.930  1.00  0.00     0.023 C 
ATOM      8  C   UNL A   1      34.027  26.016  24.008  1.00  0.00     0.026 C 
ATOM      9  C   UNL A   1      32.822  24.505  21.800  1.00  0.00     0.002 C 
ATOM     10  C   UNL A   1      33.163  26.720  22.946  1.00  0.00    -0.013 C 
ATOM     11  C   UNL A   1      33.232  25.960  21.622  1.00  0.00     0.003 C 
ATOM     12  C   UNL A   1      33.608  28.171  22.760  1.00  0.00     0.007 C 
BRANCH   6  13
ATOM     13  C   UNL A   1      34.518  23.750  25.247  1.00  0.00     0.279 C 
BRANCH  13  14
ATOM     14  N   UNL A   1      33.995  22.519  25.864  1.00  0.00    -0.331 N 
ATOM     15  C   UNL A   1      33.893  22.626  27.322  1.00  0.00     0.333 C 
ATOM     16  H   UNL A   1      33.067  22.432  25.451  1.00  0.00     0.348 HD
BRANCH  14  17
ATOM     17  C   UNL A   1      34.745  21.283  25.531  1.00  0.00     0.319 C 
BRANCH  17  18
ATOM     18  C   UNL A   1      34.019  20.214  24.723  1.00  0.00     0.095 A 
ATOM     19  C   UNL A   1      34.381  16.612  24.034  1.00  0.00     0.067 C 
ATOM     20  C   UNL A   1      33.833  18.008  24.010  1.00  0.00     0.038 A 
ATOM     21  C   UNL A   1      32.648  18.284  23.334  1.00  0.00     0.023 A 
ATOM     22  N   UNL A   1      34.531  18.956  24.685  1.00  0.00    -0.252 NA
ATOM     23  C   UNL A   1      32.153  19.580  23.352  1.00  0.00     0.004 A 
ATOM     24  C   UNL A   1      32.842  20.559  24.056  1.00  0.00     0.030 A 
ENDBRANCH  17  18
ENDBRANCH  14  17
ENDBRANCH  13  14
ENDBRANCH   6  13
ENDBRANCH   3   6
ENDBRANCH   1   2
BRANCH   1  25
ATOM     25  C   UNL A   1      31.413  27.627  26.804  1.00  0.00     0.023 C 
BRANCH  25  26
ATOM     26  C   UNL A   1      31.633  28.706  25.752  1.00  0.00     0.023 C 
BRANCH  26  27
ATOM     27  C   UNL A   1      32.843  29.604  25.982  1.00  0.00     0.116 C 
BRANCH  27  28
ATOM     28  N   UNL A   1      32.500  30.949  26.431  1.00  0.00    -0.352 N 
ATOM     29  C   UNL A   1      33.213  31.805  27.241  1.00  0.00     0.251 C 
ATOM     30  H   UNL A   1      31.637  31.295  26.107  1.00  0.00     0.163 HD
ATOM     31  O   UNL A   1      32.753  32.878  27.586  1.00  0.00    -0.269 OA
BRANCH  29  32
ATOM     32  C   UNL A   1      34.541  31.372  27.730  1.00  0.00     0.039 A 
ATOM     33  C   UNL A   1      35.562  32.319  27.832  1.00  0.00     0.014 A 
ATOM     34  C   UNL A   1      34.744  30.058  28.154  1.00  0.00     0.014 A 
ATOM     35  C   UNL A   1      36.761  31.969  28.454  1.00  0.00     0.010 A 
ATOM     36  C   UNL A   1      35.908  29.734  28.842  1.00  0.00     0.010 A 
ATOM     37  C   UNL A   1      36.923  30.689  29.010  1.00  0.00    -0.014 A 
BRANCH  37  38
ATOM     38  C   UNL A   1      38.136  30.332  29.787  1.00  0.00     0.031 A 
ATOM     39  C   UNL A   1      39.132  29.362  29.218  1.00  0.00     0.074 A 
ATOM     40  C   UNL A   1      38.289  30.804  31.041  1.00  0.00     0.049 A 
ATOM     41  N   UNL A   1      40.193  28.840  29.781  1.00  0.00    -0.248 NA
ATOM     42  C   UNL A   1      38.885  28.886  27.847  1.00  0.00     0.031 C 
ATOM     43  C   UNL A   1      37.356  31.698  31.731  1.00  0.00     0.029 A 
ATOM     44  N   UNL A   1      39.278  30.580  31.968  1.00  0.00    -0.354 N 
ATOM     45  C   UNL A   1      40.718  27.957  28.847  1.00  0.00     0.074 A 
ATOM     46  C   UNL A   1      39.842  27.981  27.697  1.00  0.00     0.031 C 
ATOM     47  C   UNL A   1      37.823  31.956  32.964  1.00  0.00     0.029 A 
ATOM     48  C   UNL A   1      39.069  31.222  33.164  1.00  0.00     0.049 A 
ATOM     49  H   UNL A   1      40.063  30.013  31.790  1.00  0.00     0.167 HD
ATOM     50  C   UNL A   1      41.841  27.207  28.936  1.00  0.00     0.037 A 
ATOM     51  C   UNL A   1      39.795  31.210  34.298  1.00  0.00     0.037 A 
ATOM     52  C   UNL A   1      42.743  27.230  30.057  1.00  0.00     0.049 A 
ATOM     53  C   UNL A   1      41.064  30.400  34.348  1.00  0.00     0.074 A 
ATOM     54  C   UNL A   1      43.960  26.586  30.194  1.00  0.00     0.029 A 
ATOM     55  N   UNL A   1      42.528  27.938  31.228  1.00  0.00    -0.354 N 
ATOM     56  N   UNL A   1      41.598  29.642  33.424  1.00  0.00    -0.248 NA
ATOM     57  C   UNL A   1      41.836  30.453  35.599  1.00  0.00     0.031 C 
ATOM     58  C   UNL A   1      44.466  26.876  31.465  1.00  0.00     0.029 A 
ATOM     59  C   UNL A   1      43.582  27.731  32.102  1.00  0.00     0.049 A 
ATOM     60  H   UNL A   1      41.743  28.504  31.411  1.00  0.00     0.167 HD
ATOM     61  C   UNL A   1      42.778  29.153  33.967  1.00  0.00     0.074 A 
ATOM     62  C   UNL A   1      42.892  29.712  35.296  1.00  0.00     0.031 C 
ATOM     63  C   UNL A   1      43.688  28.314  33.413  1.00  0.00     0.037 A 
BRANCH  50  64
ATOM     64  C   UNL A   1      42.175  26.306  27.786  1.00  0.00     0.064 A 
ATOM     65  C   UNL A   1      43.097  26.686  26.800  1.00  0.00     0.173 A 
ATOM     66  C   UNL A   1      41.621  25.019  27.710  1.00  0.00     0.173 A 
ATOM     67  F   UNL A   1      43.646  27.910  26.824  1.00  0.00    -0.203 F 
ATOM     68  C   UNL A   1      43.442  25.815  25.770  1.00  0.00     0.198 A 
ATOM     69  C   UNL A   1      41.987  24.142  26.692  1.00  0.00     0.198 A 
ATOM     70  F   UNL A   1      40.738  24.608  28.632  1.00  0.00    -0.203 F 
ATOM     71  F   UNL A   1      44.301  26.210  24.821  1.00  0.00    -0.200 F 
ATOM     72  C   UNL A   1      42.894  24.542  25.722  1.00  0.00     0.200 A 
ATOM     73  F   UNL A   1      41.466  22.908  26.654  1.00  0.00    -0.200 F 
ATOM     74  F   UNL A   1      43.239  23.699  24.739  1.00  0.00    -0.200 F 
ENDBRANCH  50  64
BRANCH  51  75
ATOM     75  C   UNL A   1      39.358  31.998  35.480  1.00  0.00     0.064 A 
ATOM     76  C   UNL A   1      38.514  31.435  36.448  1.00  0.00     0.173 A 
ATOM     77  C   UNL A   1      39.744  33.336  35.648  1.00  0.00     0.173 A 
ATOM     78  F   UNL A   1      38.100  30.166  36.318  1.00  0.00    -0.203 F 
ATOM     79  C   UNL A   1      38.044  32.191  37.521  1.00  0.00     0.198 A 
ATOM     80  C   UNL A   1      39.296  34.081  36.738  1.00  0.00     0.198 A 
ATOM     81  F   UNL A   1      40.554  33.919  34.754  1.00  0.00    -0.203 F 
ATOM     82  F   UNL A   1      37.191  31.645  38.398  1.00  0.00    -0.200 F 
ATOM     83  C   UNL A   1      38.439  33.511  37.666  1.00  0.00     0.200 A 
ATOM     84  F   UNL A   1      39.688  35.354  36.881  1.00  0.00    -0.200 F 
ATOM     85  F   UNL A   1      37.981  34.240  38.694  1.00  0.00    -0.200 F 
ENDBRANCH  51  75
BRANCH  63  86
ATOM     86  C   UNL A   1      44.903  27.982  34.226  1.00  0.00     0.064 A 
ATOM     87  C   UNL A   1      46.067  28.758  34.155  1.00  0.00     0.173 A 
ATOM     88  C   UNL A   1      44.882  26.901  35.120  1.00  0.00     0.173 A 
ATOM     89  F   UNL A   1      46.139  29.793  33.303  1.00  0.00    -0.203 F 
ATOM     90  C   UNL A   1      47.178  28.452  34.936  1.00  0.00     0.198 A 
ATOM     91  C   UNL A   1      45.985  26.614  35.919  1.00  0.00     0.198 A 
ATOM     92  F   UNL A   1      43.789  26.133  35.229  1.00  0.00    -0.203 F 
ATOM     93  F   UNL A   1      48.296  29.182  34.823  1.00  0.00    -0.200 F 
ATOM     94  C   UNL A   1      47.133  27.385  35.823  1.00  0.00     0.200 A 
ATOM     95  F   UNL A   1      45.936  25.592  36.785  1.00  0.00    -0.200 F 
ATOM     96  F   UNL A   1      48.201  27.097  36.580  1.00  0.00    -0.200 F 
ENDBRANCH  63  86
ENDBRANCH  37  38
ENDBRANCH  29  32
ENDBRANCH  27  28
ENDBRANCH  26  27
ENDBRANCH  25  26
ENDBRANCH   1  25
TORSDOF 15
ENDMDL
