MODEL 1
REMARK VINA RESULT:     -11.8      0.000      0.000
REMARK SMILES CCC[C@@](C)(Nc1cc(C)cc(C)c1)C(=O)NCCCCNC(=O)c1ccc(-c2c3nc(c(-c4c(F)c(F)c(F)c(F)c4F)c4ccc([nH]4)c(-c4c(F)c(F)c(F)c(F)c4F)c4nc(c(-c5c(F)c(F)c(F)c(F)c5F)c5ccc2[nH]5)C=C4)C=C3)cc1
REMARK SMILES IDX 19 1 18 2 17 3 15 4 16 5 4 7 5 8 3 9 2 10 1 11 6 12 7 14
REMARK SMILES IDX 8 15 14 16 9 17 12 18 10 19 11 20 13 21 20 22 21 23 22 24
REMARK SMILES IDX 23 25 24 27 25 28 26 29 87 30 27 31 86 32 28 33 29 34 30 35
REMARK SMILES IDX 80 36 31 37 85 38 79 39 81 40 32 41 84 42 78 43 77 44 33 46
REMARK SMILES IDX 65 47 45 48 64 49 46 50 49 51 63 52 82 53 47 54 48 55 62 57
REMARK SMILES IDX 83 58 50 59 34 60 35 61 43 62 36 63 37 64 41 65 44 66 38 67
REMARK SMILES IDX 39 68 42 69 40 70 66 71 67 72 75 73 68 74 69 75 73 76 76 77
REMARK SMILES IDX 70 78 71 79 74 80 72 81 51 82 52 83 60 84 53 85 54 86 58 87
REMARK SMILES IDX 61 88 55 89 56 90 59 91 57 92
REMARK H PARENT 17 6 6 13 22 26 81 45 49 56
REMARK Flexibility Score: inf
ROOT
ATOM      1  C   UNL A   1      31.226  30.804  25.436  1.00  0.00     0.023 C 
ENDROOT
BRANCH   1   2
ATOM      2  C   UNL A   1      32.362  29.790  25.605  1.00  0.00     0.116 C 
BRANCH   2   3
ATOM      3  N   UNL A   1      33.250  29.703  24.459  1.00  0.00    -0.354 N 
ATOM      4  C   UNL A   1      33.367  28.774  23.467  1.00  0.00     0.245 C 
ATOM      5  O   UNL A   1      34.367  28.907  22.751  1.00  0.00    -0.272 OA
ATOM      6  H   UNL A   1      33.884  30.452  24.387  1.00  0.00     0.163 HD
BRANCH   4   7
ATOM      7  C   UNL A   1      32.342  27.624  23.261  1.00  0.00     0.114 C 
ATOM      8  C   UNL A   1      33.080  26.391  22.685  1.00  0.00     0.045 C 
BRANCH   7   9
ATOM      9  C   UNL A   1      31.650  27.205  24.601  1.00  0.00     0.038 C 
BRANCH   9  10
ATOM     10  C   UNL A   1      31.159  25.751  24.760  1.00  0.00    -0.000 C 
ATOM     11  C   UNL A   1      29.911  25.580  25.609  1.00  0.00     0.004 C 
ENDBRANCH   9  10
ENDBRANCH   7   9
BRANCH   7  12
ATOM     12  N   UNL A   1      31.241  27.967  22.315  1.00  0.00    -0.371 N 
ATOM     13  H   UNL A   1      31.332  27.569  21.418  1.00  0.00     0.161 HD
BRANCH  12  14
ATOM     14  C   UNL A   1      30.111  28.751  22.485  1.00  0.00     0.035 A 
ATOM     15  C   UNL A   1      29.974  30.078  22.068  1.00  0.00     0.029 A 
ATOM     16  C   UNL A   1      28.960  28.147  23.025  1.00  0.00     0.029 A 
ATOM     17  C   UNL A   1      28.733  30.743  22.064  1.00  0.00    -0.049 A 
ATOM     18  C   UNL A   1      27.730  28.820  23.126  1.00  0.00    -0.049 A 
ATOM     19  C   UNL A   1      28.586  32.075  21.386  1.00  0.00     0.044 C 
ATOM     20  C   UNL A   1      27.615  30.105  22.597  1.00  0.00     0.007 A 
ATOM     21  C   UNL A   1      26.529  28.151  23.724  1.00  0.00     0.044 C 
ENDBRANCH  12  14
ENDBRANCH   7  12
ENDBRANCH   4   7
ENDBRANCH   2   3
ENDBRANCH   1   2
BRANCH   1  22
ATOM     22  C   UNL A   1      31.152  31.895  26.501  1.00  0.00     0.023 C 
BRANCH  22  23
ATOM     23  C   UNL A   1      32.507  32.463  26.894  1.00  0.00     0.116 C 
BRANCH  23  24
ATOM     24  N   UNL A   1      32.407  33.845  27.338  1.00  0.00    -0.352 N 
ATOM     25  C   UNL A   1      33.027  34.492  28.375  1.00  0.00     0.251 C 
ATOM     26  H   UNL A   1      31.797  34.406  26.806  1.00  0.00     0.163 HD
ATOM     27  O   UNL A   1      32.608  35.594  28.736  1.00  0.00    -0.269 OA
BRANCH  25  28
ATOM     28  C   UNL A   1      34.183  33.891  29.075  1.00  0.00     0.039 A 
ATOM     29  C   UNL A   1      35.465  34.395  28.832  1.00  0.00     0.014 A 
ATOM     30  C   UNL A   1      34.027  32.792  29.922  1.00  0.00     0.014 A 
ATOM     31  C   UNL A   1      36.573  33.828  29.469  1.00  0.00     0.010 A 
ATOM     32  C   UNL A   1      35.112  32.303  30.642  1.00  0.00     0.010 A 
ATOM     33  C   UNL A   1      36.403  32.792  30.401  1.00  0.00    -0.014 A 
BRANCH  33  34
ATOM     34  C   UNL A   1      37.559  32.161  31.091  1.00  0.00     0.031 A 
ATOM     35  C   UNL A   1      38.371  31.108  30.380  1.00  0.00     0.074 A 
ATOM     36  C   UNL A   1      37.837  32.474  32.370  1.00  0.00     0.049 A 
ATOM     37  N   UNL A   1      39.339  30.353  30.839  1.00  0.00    -0.248 NA
ATOM     38  C   UNL A   1      38.019  30.835  28.976  1.00  0.00     0.031 C 
ATOM     39  C   UNL A   1      37.093  33.432  33.190  1.00  0.00     0.029 A 
ATOM     40  N   UNL A   1      38.817  32.008  33.212  1.00  0.00    -0.354 N 
ATOM     41  C   UNL A   1      39.673  29.495  29.798  1.00  0.00     0.074 A 
ATOM     42  C   UNL A   1      38.774  29.783  28.704  1.00  0.00     0.031 C 
ATOM     43  C   UNL A   1      37.661  33.506  34.404  1.00  0.00     0.029 A 
ATOM     44  C   UNL A   1      38.783  32.575  34.464  1.00  0.00     0.049 A 
ATOM     45  H   UNL A   1      39.481  31.333  32.944  1.00  0.00     0.167 HD
ATOM     46  C   UNL A   1      40.661  28.570  29.747  1.00  0.00     0.037 A 
ATOM     47  C   UNL A   1      39.568  32.362  35.536  1.00  0.00     0.037 A 
ATOM     48  C   UNL A   1      41.601  28.336  30.812  1.00  0.00     0.049 A 
ATOM     49  C   UNL A   1      40.693  31.369  35.438  1.00  0.00     0.074 A 
ATOM     50  C   UNL A   1      42.692  27.485  30.830  1.00  0.00     0.029 A 
ATOM     51  N   UNL A   1      41.563  28.967  32.045  1.00  0.00    -0.354 N 
ATOM     52  N   UNL A   1      41.039  30.608  34.428  1.00  0.00    -0.248 NA
ATOM     53  C   UNL A   1      41.542  31.211  36.627  1.00  0.00     0.031 C 
ATOM     54  C   UNL A   1      43.297  27.579  32.087  1.00  0.00     0.029 A 
ATOM     55  C   UNL A   1      42.607  28.517  32.838  1.00  0.00     0.049 A 
ATOM     56  H   UNL A   1      40.895  29.636  32.318  1.00  0.00     0.167 HD
ATOM     57  C   UNL A   1      42.155  29.900  34.848  1.00  0.00     0.074 A 
ATOM     58  C   UNL A   1      42.440  30.334  36.200  1.00  0.00     0.031 C 
ATOM     59  C   UNL A   1      42.879  28.971  34.177  1.00  0.00     0.037 A 
BRANCH  46  60
ATOM     60  C   UNL A   1      40.788  27.754  28.493  1.00  0.00     0.064 A 
ATOM     61  C   UNL A   1      40.124  26.527  28.339  1.00  0.00     0.173 A 
ATOM     62  C   UNL A   1      41.565  28.216  27.419  1.00  0.00     0.173 A 
ATOM     63  F   UNL A   1      39.378  26.034  29.339  1.00  0.00    -0.203 F 
ATOM     64  C   UNL A   1      40.261  25.778  27.173  1.00  0.00     0.198 A 
ATOM     65  C   UNL A   1      41.674  27.479  26.242  1.00  0.00     0.198 A 
ATOM     66  F   UNL A   1      42.216  29.386  27.509  1.00  0.00    -0.203 F 
ATOM     67  F   UNL A   1      39.663  24.583  27.074  1.00  0.00    -0.200 F 
ATOM     68  C   UNL A   1      41.030  26.257  26.125  1.00  0.00     0.200 A 
ATOM     69  F   UNL A   1      42.407  27.950  25.224  1.00  0.00    -0.200 F 
ATOM     70  F   UNL A   1      41.158  25.536  25.002  1.00  0.00    -0.200 F 
ENDBRANCH  46  60
BRANCH  47  71
ATOM     71  C   UNL A   1      39.339  33.137  36.784  1.00  0.00     0.064 A 
ATOM     72  C   UNL A   1      38.453  32.671  37.764  1.00  0.00     0.173 A 
ATOM     73  C   UNL A   1      40.007  34.346  37.028  1.00  0.00     0.173 A 
ATOM     74  F   UNL A   1      37.778  31.529  37.566  1.00  0.00    -0.203 F 
ATOM     75  C   UNL A   1      38.228  33.392  38.934  1.00  0.00     0.198 A 
ATOM     76  C   UNL A   1      39.802  35.053  38.211  1.00  0.00     0.198 A 
ATOM     77  F   UNL A   1      40.871  34.831  36.125  1.00  0.00    -0.203 F 
ATOM     78  F   UNL A   1      37.345  32.943  39.836  1.00  0.00    -0.200 F 
ATOM     79  C   UNL A   1      38.907  34.580  39.160  1.00  0.00     0.200 A 
ATOM     80  F   UNL A   1      40.470  36.193  38.432  1.00  0.00    -0.200 F 
ATOM     81  F   UNL A   1      38.696  35.270  40.288  1.00  0.00    -0.200 F 
ENDBRANCH  47  71
BRANCH  59  82
ATOM     82  C   UNL A   1      44.066  28.386  34.881  1.00  0.00     0.064 A 
ATOM     83  C   UNL A   1      45.310  29.032  34.882  1.00  0.00     0.173 A 
ATOM     84  C   UNL A   1      43.944  27.186  35.600  1.00  0.00     0.173 A 
ATOM     85  F   UNL A   1      45.478  30.173  34.197  1.00  0.00    -0.203 F 
ATOM     86  C   UNL A   1      46.397  28.488  35.560  1.00  0.00     0.198 A 
ATOM     87  C   UNL A   1      45.027  26.659  36.299  1.00  0.00     0.198 A 
ATOM     88  F   UNL A   1      42.774  26.534  35.634  1.00  0.00    -0.203 F 
ATOM     89  F   UNL A   1      47.588  29.100  35.514  1.00  0.00    -0.200 F 
ATOM     90  C   UNL A   1      46.253  27.306  36.274  1.00  0.00     0.200 A 
ATOM     91  F   UNL A   1      44.883  25.525  36.998  1.00  0.00    -0.200 F 
ATOM     92  F   UNL A   1      47.298  26.788  36.931  1.00  0.00    -0.200 F 
ENDBRANCH  59  82
ENDBRANCH  33  34
ENDBRANCH  25  28
ENDBRANCH  23  24
ENDBRANCH  22  23
ENDBRANCH   1  22
TORSDOF 15
ENDMDL
MODEL 2
REMARK VINA RESULT:     -11.8      2.272      3.884
REMARK SMILES CCC[C@@](C)(Nc1cc(C)cc(C)c1)C(=O)NCCCCNC(=O)c1ccc(-c2c3nc(c(-c4c(F)c(F)c(F)c(F)c4F)c4ccc([nH]4)c(-c4c(F)c(F)c(F)c(F)c4F)c4nc(c(-c5c(F)c(F)c(F)c(F)c5F)c5ccc2[nH]5)C=C4)C=C3)cc1
REMARK SMILES IDX 19 1 18 2 17 3 15 4 16 5 4 7 5 8 3 9 2 10 1 11 6 12 7 14
REMARK SMILES IDX 8 15 14 16 9 17 12 18 10 19 11 20 13 21 20 22 21 23 22 24
REMARK SMILES IDX 23 25 24 27 25 28 26 29 87 30 27 31 86 32 28 33 29 34 30 35
REMARK SMILES IDX 80 36 31 37 85 38 79 39 81 40 32 41 84 42 78 43 77 44 33 46
REMARK SMILES IDX 65 47 45 48 64 49 46 50 49 51 63 52 82 53 47 54 48 55 62 57
REMARK SMILES IDX 83 58 50 59 34 60 35 61 43 62 36 63 37 64 41 65 44 66 38 67
REMARK SMILES IDX 39 68 42 69 40 70 66 71 67 72 75 73 68 74 69 75 73 76 76 77
REMARK SMILES IDX 70 78 71 79 74 80 72 81 51 82 52 83 60 84 53 85 54 86 58 87
REMARK SMILES IDX 61 88 55 89 56 90 59 91 57 92
REMARK H PARENT 17 6 6 13 22 26 81 45 49 56
REMARK Flexibility Score: inf
ROOT
ATOM      1  C   UNL A   1      32.049  28.450  23.053  1.00  0.00     0.023 C 
ENDROOT
BRANCH   1   2
ATOM      2  C   UNL A   1      31.183  27.376  22.388  1.00  0.00     0.116 C 
BRANCH   2   3
ATOM      3  N   UNL A   1      31.868  26.625  21.351  1.00  0.00    -0.354 N 
ATOM      4  C   UNL A   1      32.532  25.433  21.378  1.00  0.00     0.245 C 
ATOM      5  O   UNL A   1      33.171  25.175  20.352  1.00  0.00    -0.272 OA
ATOM      6  H   UNL A   1      31.851  27.056  20.467  1.00  0.00     0.163 HD
BRANCH   4   7
ATOM      7  C   UNL A   1      32.508  24.481  22.607  1.00  0.00     0.114 C 
ATOM      8  C   UNL A   1      31.056  24.373  23.131  1.00  0.00     0.045 C 
BRANCH   7   9
ATOM      9  C   UNL A   1      33.012  23.042  22.247  1.00  0.00     0.038 C 
BRANCH   9  10
ATOM     10  C   UNL A   1      32.091  21.840  22.539  1.00  0.00    -0.000 C 
ATOM     11  C   UNL A   1      32.585  20.896  23.622  1.00  0.00     0.004 C 
ENDBRANCH   9  10
ENDBRANCH   7   9
BRANCH   7  12
ATOM     12  N   UNL A   1      33.358  24.947  23.740  1.00  0.00    -0.371 N 
ATOM     13  H   UNL A   1      33.403  25.925  23.844  1.00  0.00     0.161 HD
BRANCH  12  14
ATOM     14  C   UNL A   1      34.096  24.234  24.673  1.00  0.00     0.035 A 
ATOM     15  C   UNL A   1      35.491  24.143  24.706  1.00  0.00     0.029 A 
ATOM     16  C   UNL A   1      33.408  23.633  25.743  1.00  0.00     0.029 A 
ATOM     17  C   UNL A   1      36.185  23.598  25.802  1.00  0.00    -0.049 A 
ATOM     18  C   UNL A   1      34.073  22.994  26.804  1.00  0.00    -0.049 A 
ATOM     19  C   UNL A   1      37.677  23.739  25.904  1.00  0.00     0.044 C 
ATOM     20  C   UNL A   1      35.466  23.023  26.848  1.00  0.00     0.007 A 
ATOM     21  C   UNL A   1      33.306  22.349  27.920  1.00  0.00     0.044 C 
ENDBRANCH  12  14
ENDBRANCH   7  12
ENDBRANCH   4   7
ENDBRANCH   2   3
ENDBRANCH   1   2
BRANCH   1  22
ATOM     22  C   UNL A   1      32.374  28.217  24.526  1.00  0.00     0.023 C 
BRANCH  22  23
ATOM     23  C   UNL A   1      33.433  29.159  25.078  1.00  0.00     0.116 C 
BRANCH  23  24
ATOM     24  N   UNL A   1      32.849  30.391  25.586  1.00  0.00    -0.352 N 
ATOM     25  C   UNL A   1      33.128  31.104  26.723  1.00  0.00     0.251 C 
ATOM     26  H   UNL A   1      32.141  30.776  25.020  1.00  0.00     0.163 HD
ATOM     27  O   UNL A   1      32.343  31.978  27.097  1.00  0.00    -0.269 OA
BRANCH  25  28
ATOM     28  C   UNL A   1      34.349  30.839  27.516  1.00  0.00     0.039 A 
ATOM     29  C   UNL A   1      35.302  31.853  27.660  1.00  0.00     0.014 A 
ATOM     30  C   UNL A   1      34.596  29.580  28.068  1.00  0.00     0.014 A 
ATOM     31  C   UNL A   1      36.471  31.616  28.389  1.00  0.00     0.010 A 
ATOM     32  C   UNL A   1      35.701  29.380  28.889  1.00  0.00     0.010 A 
ATOM     33  C   UNL A   1      36.670  30.384  29.033  1.00  0.00    -0.014 A 
BRANCH  33  34
ATOM     34  C   UNL A   1      37.904  30.095  29.810  1.00  0.00     0.031 A 
ATOM     35  C   UNL A   1      38.947  29.168  29.241  1.00  0.00     0.074 A 
ATOM     36  C   UNL A   1      38.059  30.602  31.047  1.00  0.00     0.049 A 
ATOM     37  N   UNL A   1      40.033  28.693  29.799  1.00  0.00    -0.248 NA
ATOM     38  C   UNL A   1      38.716  28.670  27.874  1.00  0.00     0.031 C 
ATOM     39  C   UNL A   1      37.098  31.465  31.736  1.00  0.00     0.029 A 
ATOM     40  N   UNL A   1      39.081  30.454  31.953  1.00  0.00    -0.354 N 
ATOM     41  C   UNL A   1      40.581  27.814  28.873  1.00  0.00     0.074 A 
ATOM     42  C   UNL A   1      39.685  27.779  27.739  1.00  0.00     0.031 C 
ATOM     43  C   UNL A   1      37.589  31.795  32.942  1.00  0.00     0.029 A 
ATOM     44  C   UNL A   1      38.878  31.137  33.128  1.00  0.00     0.049 A 
ATOM     45  H   UNL A   1      39.882  29.911  31.776  1.00  0.00     0.167 HD
ATOM     46  C   UNL A   1      41.743  27.122  28.946  1.00  0.00     0.037 A 
ATOM     47  C   UNL A   1      39.647  31.219  34.230  1.00  0.00     0.037 A 
ATOM     48  C   UNL A   1      42.667  27.214  30.045  1.00  0.00     0.049 A 
ATOM     49  C   UNL A   1      40.959  30.484  34.266  1.00  0.00     0.074 A 
ATOM     50  C   UNL A   1      43.911  26.623  30.180  1.00  0.00     0.029 A 
ATOM     51  N   UNL A   1      42.449  27.957  31.194  1.00  0.00    -0.354 N 
ATOM     52  N   UNL A   1      41.497  29.705  33.359  1.00  0.00    -0.248 NA
ATOM     53  C   UNL A   1      41.775  30.645  35.478  1.00  0.00     0.031 C 
ATOM     54  C   UNL A   1      44.432  26.985  31.426  1.00  0.00     0.029 A 
ATOM     55  C   UNL A   1      43.531  27.832  32.050  1.00  0.00     0.049 A 
ATOM     56  H   UNL A   1      41.645  28.495  31.376  1.00  0.00     0.167 HD
ATOM     57  C   UNL A   1      42.720  29.303  33.876  1.00  0.00     0.074 A 
ATOM     58  C   UNL A   1      42.853  29.938  35.171  1.00  0.00     0.031 C 
ATOM     59  C   UNL A   1      43.648  28.481  33.330  1.00  0.00     0.037 A 
BRANCH  46  60
ATOM     60  C   UNL A   1      42.087  26.216  27.799  1.00  0.00     0.064 A 
ATOM     61  C   UNL A   1      41.501  24.949  27.655  1.00  0.00     0.173 A 
ATOM     62  C   UNL A   1      42.999  26.630  26.815  1.00  0.00     0.173 A 
ATOM     63  F   UNL A   1      40.632  24.500  28.573  1.00  0.00    -0.203 F 
ATOM     64  C   UNL A   1      41.841  24.118  26.591  1.00  0.00     0.198 A 
ATOM     65  C   UNL A   1      43.313  25.808  25.735  1.00  0.00     0.198 A 
ATOM     66  F   UNL A   1      43.586  27.834  26.899  1.00  0.00    -0.203 F 
ATOM     67  F   UNL A   1      41.310  22.889  26.508  1.00  0.00    -0.200 F 
ATOM     68  C   UNL A   1      42.740  24.549  25.630  1.00  0.00     0.200 A 
ATOM     69  F   UNL A   1      44.173  26.232  24.799  1.00  0.00    -0.200 F 
ATOM     70  F   UNL A   1      43.063  23.748  24.604  1.00  0.00    -0.200 F 
ENDBRANCH  46  60
BRANCH  47  71
ATOM     71  C   UNL A   1      39.212  32.062  35.373  1.00  0.00     0.064 A 
ATOM     72  C   UNL A   1      38.452  31.516  36.416  1.00  0.00     0.173 A 
ATOM     73  C   UNL A   1      39.553  33.420  35.454  1.00  0.00     0.173 A 
ATOM     74  F   UNL A   1      38.086  30.226  36.374  1.00  0.00    -0.203 F 
ATOM     75  C   UNL A   1      38.035  32.299  37.490  1.00  0.00     0.198 A 
ATOM     76  C   UNL A   1      39.158  34.196  36.542  1.00  0.00     0.198 A 
ATOM     77  F   UNL A   1      40.285  33.988  34.485  1.00  0.00    -0.203 F 
ATOM     78  F   UNL A   1      37.276  31.761  38.454  1.00  0.00    -0.200 F 
ATOM     79  C   UNL A   1      38.393  33.637  37.556  1.00  0.00     0.200 A 
ATOM     80  F   UNL A   1      39.518  35.485  36.609  1.00  0.00    -0.200 F 
ATOM     81  F   UNL A   1      37.998  34.388  38.592  1.00  0.00    -0.200 F 
ENDBRANCH  47  71
BRANCH  59  82
ATOM     82  C   UNL A   1      44.904  28.245  34.116  1.00  0.00     0.064 A 
ATOM     83  C   UNL A   1      46.014  29.093  33.996  1.00  0.00     0.173 A 
ATOM     84  C   UNL A   1      44.978  27.185  35.032  1.00  0.00     0.173 A 
ATOM     85  F   UNL A   1      45.995  30.110  33.122  1.00  0.00    -0.203 F 
ATOM     86  C   UNL A   1      47.163  28.874  34.750  1.00  0.00     0.198 A 
ATOM     87  C   UNL A   1      46.119  26.987  35.805  1.00  0.00     0.198 A 
ATOM     88  F   UNL A   1      43.940  26.351  35.188  1.00  0.00    -0.203 F 
ATOM     89  F   UNL A   1      48.229  29.671  34.590  1.00  0.00    -0.200 F 
ATOM     90  C   UNL A   1      47.213  27.827  35.658  1.00  0.00     0.200 A 
ATOM     91  F   UNL A   1      46.161  25.982  36.690  1.00  0.00    -0.200 F 
ATOM     92  F   UNL A   1      48.317  27.623  36.388  1.00  0.00    -0.200 F 
ENDBRANCH  59  82
ENDBRANCH  33  34
ENDBRANCH  25  28
ENDBRANCH  23  24
ENDBRANCH  22  23
ENDBRANCH   1  22
TORSDOF 15
ENDMDL
MODEL 3
REMARK VINA RESULT:     -11.7      0.459      7.317
REMARK SMILES CCC[C@@](C)(Nc1cc(C)cc(C)c1)C(=O)NCCCCNC(=O)c1ccc(-c2c3nc(c(-c4c(F)c(F)c(F)c(F)c4F)c4ccc([nH]4)c(-c4c(F)c(F)c(F)c(F)c4F)c4nc(c(-c5c(F)c(F)c(F)c(F)c5F)c5ccc2[nH]5)C=C4)C=C3)cc1
REMARK SMILES IDX 19 1 18 2 17 3 15 4 16 5 4 7 5 8 3 9 2 10 1 11 6 12 7 14
REMARK SMILES IDX 8 15 14 16 9 17 12 18 10 19 11 20 13 21 20 22 21 23 22 24
REMARK SMILES IDX 23 25 24 27 25 28 26 29 87 30 27 31 86 32 28 33 29 34 30 35
REMARK SMILES IDX 80 36 31 37 85 38 79 39 81 40 32 41 84 42 78 43 77 44 33 46
REMARK SMILES IDX 65 47 45 48 64 49 46 50 49 51 63 52 82 53 47 54 48 55 62 57
REMARK SMILES IDX 83 58 50 59 34 60 35 61 43 62 36 63 37 64 41 65 44 66 38 67
REMARK SMILES IDX 39 68 42 69 40 70 66 71 67 72 75 73 68 74 69 75 73 76 76 77
REMARK SMILES IDX 70 78 71 79 74 80 72 81 51 82 52 83 60 84 53 85 54 86 58 87
REMARK SMILES IDX 61 88 55 89 56 90 59 91 57 92
REMARK H PARENT 17 6 6 13 22 26 81 45 49 56
REMARK Flexibility Score: inf
ROOT
ATOM      1  C   UNL A   1      30.992  31.034  25.357  1.00  0.00     0.023 C 
ENDROOT
BRANCH   1   2
ATOM      2  C   UNL A   1      31.834  29.758  25.456  1.00  0.00     0.116 C 
BRANCH   2   3
ATOM      3  N   UNL A   1      32.916  29.690  24.490  1.00  0.00    -0.354 N 
ATOM      4  C   UNL A   1      33.232  28.759  23.543  1.00  0.00     0.245 C 
ATOM      5  O   UNL A   1      34.341  28.915  23.017  1.00  0.00    -0.272 OA
ATOM      6  H   UNL A   1      33.534  30.454  24.526  1.00  0.00     0.163 HD
BRANCH   4   7
ATOM      7  C   UNL A   1      32.290  27.583  23.166  1.00  0.00     0.114 C 
ATOM      8  C   UNL A   1      33.122  26.473  22.479  1.00  0.00     0.045 C 
BRANCH   7   9
ATOM      9  C   UNL A   1      31.585  26.967  24.422  1.00  0.00     0.038 C 
BRANCH   9  10
ATOM     10  C   UNL A   1      31.204  25.473  24.400  1.00  0.00    -0.000 C 
ATOM     11  C   UNL A   1      30.683  24.920  25.716  1.00  0.00     0.004 C 
ENDBRANCH   9  10
ENDBRANCH   7   9
BRANCH   7  12
ATOM     12  N   UNL A   1      31.198  27.969  22.225  1.00  0.00    -0.371 N 
ATOM     13  H   UNL A   1      31.300  27.615  21.312  1.00  0.00     0.161 HD
BRANCH  12  14
ATOM     14  C   UNL A   1      30.065  28.742  22.420  1.00  0.00     0.035 A 
ATOM     15  C   UNL A   1      29.901  30.063  21.995  1.00  0.00     0.029 A 
ATOM     16  C   UNL A   1      28.937  28.130  22.999  1.00  0.00     0.029 A 
ATOM     17  C   UNL A   1      28.653  30.714  22.021  1.00  0.00    -0.049 A 
ATOM     18  C   UNL A   1      27.702  28.790  23.127  1.00  0.00    -0.049 A 
ATOM     19  C   UNL A   1      28.472  32.038  21.335  1.00  0.00     0.044 C 
ATOM     20  C   UNL A   1      27.558  30.069  22.591  1.00  0.00     0.007 A 
ATOM     21  C   UNL A   1      26.526  28.113  23.765  1.00  0.00     0.044 C 
ENDBRANCH  12  14
ENDBRANCH   7  12
ENDBRANCH   4   7
ENDBRANCH   2   3
ENDBRANCH   1   2
BRANCH   1  22
ATOM     22  C   UNL A   1      31.058  31.964  26.566  1.00  0.00     0.023 C 
BRANCH  22  23
ATOM     23  C   UNL A   1      32.457  32.477  26.870  1.00  0.00     0.116 C 
BRANCH  23  24
ATOM     24  N   UNL A   1      32.437  33.852  27.348  1.00  0.00    -0.352 N 
ATOM     25  C   UNL A   1      33.118  34.444  28.380  1.00  0.00     0.251 C 
ATOM     26  H   UNL A   1      31.839  34.454  26.848  1.00  0.00     0.163 HD
ATOM     27  O   UNL A   1      32.764  35.556  28.778  1.00  0.00    -0.269 OA
BRANCH  25  28
ATOM     28  C   UNL A   1      34.264  33.771  29.030  1.00  0.00     0.039 A 
ATOM     29  C   UNL A   1      35.562  34.212  28.749  1.00  0.00     0.014 A 
ATOM     30  C   UNL A   1      34.079  32.668  29.866  1.00  0.00     0.014 A 
ATOM     31  C   UNL A   1      36.659  33.577  29.338  1.00  0.00     0.010 A 
ATOM     32  C   UNL A   1      35.160  32.112  30.541  1.00  0.00     0.010 A 
ATOM     33  C   UNL A   1      36.467  32.537  30.261  1.00  0.00    -0.014 A 
BRANCH  33  34
ATOM     34  C   UNL A   1      37.610  31.834  30.901  1.00  0.00     0.031 A 
ATOM     35  C   UNL A   1      38.027  32.204  32.302  1.00  0.00     0.074 A 
ATOM     36  C   UNL A   1      38.317  30.922  30.209  1.00  0.00     0.049 A 
ATOM     37  N   UNL A   1      39.063  31.801  32.996  1.00  0.00    -0.248 NA
ATOM     38  C   UNL A   1      37.193  33.196  33.001  1.00  0.00     0.031 C 
ATOM     39  C   UNL A   1      38.054  30.516  28.827  1.00  0.00     0.029 A 
ATOM     40  N   UNL A   1      39.413  30.177  30.570  1.00  0.00    -0.354 N 
ATOM     41  C   UNL A   1      39.024  32.520  34.184  1.00  0.00     0.074 A 
ATOM     42  C   UNL A   1      37.897  33.421  34.098  1.00  0.00     0.031 C 
ATOM     43  C   UNL A   1      38.942  29.574  28.469  1.00  0.00     0.029 A 
ATOM     44  C   UNL A   1      39.860  29.338  29.578  1.00  0.00     0.049 A 
ATOM     45  H   UNL A   1      39.836  30.237  31.456  1.00  0.00     0.167 HD
ATOM     46  C   UNL A   1      39.836  32.417  35.264  1.00  0.00     0.037 A 
ATOM     47  C   UNL A   1      40.896  28.479  29.567  1.00  0.00     0.037 A 
ATOM     48  C   UNL A   1      40.912  31.469  35.374  1.00  0.00     0.049 A 
ATOM     49  C   UNL A   1      41.751  28.343  30.797  1.00  0.00     0.074 A 
ATOM     50  C   UNL A   1      41.739  31.223  36.456  1.00  0.00     0.029 A 
ATOM     51  N   UNL A   1      41.301  30.601  34.366  1.00  0.00    -0.354 N 
ATOM     52  N   UNL A   1      41.667  28.984  31.938  1.00  0.00    -0.248 NA
ATOM     53  C   UNL A   1      42.841  27.358  30.741  1.00  0.00     0.031 C 
ATOM     54  C   UNL A   1      42.650  30.227  36.090  1.00  0.00     0.029 A 
ATOM     55  C   UNL A   1      42.365  29.824  34.795  1.00  0.00     0.049 A 
ATOM     56  H   UNL A   1      40.884  30.545  33.476  1.00  0.00     0.167 HD
ATOM     57  C   UNL A   1      42.673  28.467  32.741  1.00  0.00     0.074 A 
ATOM     58  C   UNL A   1      43.345  27.446  31.964  1.00  0.00     0.031 C 
ATOM     59  C   UNL A   1      43.012  28.807  34.009  1.00  0.00     0.037 A 
BRANCH  46  60
ATOM     60  C   UNL A   1      39.580  33.343  36.418  1.00  0.00     0.064 A 
ATOM     61  C   UNL A   1      38.738  32.982  37.482  1.00  0.00     0.173 A 
ATOM     62  C   UNL A   1      40.203  34.599  36.475  1.00  0.00     0.173 A 
ATOM     63  F   UNL A   1      38.108  31.798  37.472  1.00  0.00    -0.203 F 
ATOM     64  C   UNL A   1      38.503  33.857  38.539  1.00  0.00     0.198 A 
ATOM     65  C   UNL A   1      39.990  35.459  37.550  1.00  0.00     0.198 A 
ATOM     66  F   UNL A   1      41.022  34.993  35.488  1.00  0.00    -0.203 F 
ATOM     67  F   UNL A   1      37.650  33.512  39.514  1.00  0.00    -0.200 F 
ATOM     68  C   UNL A   1      39.133  35.091  38.576  1.00  0.00     0.200 A 
ATOM     69  F   UNL A   1      40.610  36.646  37.590  1.00  0.00    -0.200 F 
ATOM     70  F   UNL A   1      38.908  35.930  39.597  1.00  0.00    -0.200 F 
ENDBRANCH  46  60
BRANCH  47  71
ATOM     71  C   UNL A   1      41.157  27.650  28.361  1.00  0.00     0.064 A 
ATOM     72  C   UNL A   1      40.522  26.413  28.192  1.00  0.00     0.173 A 
ATOM     73  C   UNL A   1      42.031  28.080  27.352  1.00  0.00     0.173 A 
ATOM     74  F   UNL A   1      39.692  25.952  29.140  1.00  0.00    -0.203 F 
ATOM     75  C   UNL A   1      40.763  25.627  27.068  1.00  0.00     0.198 A 
ATOM     76  C   UNL A   1      42.251  27.305  26.215  1.00  0.00     0.198 A 
ATOM     77  F   UNL A   1      42.658  29.260  27.463  1.00  0.00    -0.203 F 
ATOM     78  F   UNL A   1      40.173  24.430  26.951  1.00  0.00    -0.200 F 
ATOM     79  C   UNL A   1      41.623  26.075  26.077  1.00  0.00     0.200 A 
ATOM     80  F   UNL A   1      43.071  27.748  25.253  1.00  0.00    -0.200 F 
ATOM     81  F   UNL A   1      41.850  25.323  24.993  1.00  0.00    -0.200 F 
ENDBRANCH  47  71
BRANCH  59  82
ATOM     82  C   UNL A   1      44.139  28.049  34.645  1.00  0.00     0.064 A 
ATOM     83  C   UNL A   1      45.458  28.522  34.602  1.00  0.00     0.173 A 
ATOM     84  C   UNL A   1      43.886  26.859  35.345  1.00  0.00     0.173 A 
ATOM     85  F   UNL A   1      45.749  29.648  33.933  1.00  0.00    -0.203 F 
ATOM     86  C   UNL A   1      46.489  27.819  35.218  1.00  0.00     0.198 A 
ATOM     87  C   UNL A   1      44.916  26.174  35.983  1.00  0.00     0.198 A 
ATOM     88  F   UNL A   1      42.641  26.369  35.420  1.00  0.00    -0.203 F 
ATOM     89  F   UNL A   1      47.749  28.267  35.130  1.00  0.00    -0.200 F 
ATOM     90  C   UNL A   1      46.217  26.650  35.914  1.00  0.00     0.200 A 
ATOM     91  F   UNL A   1      44.650  25.051  36.665  1.00  0.00    -0.200 F 
ATOM     92  F   UNL A   1      47.210  25.979  36.512  1.00  0.00    -0.200 F 
ENDBRANCH  59  82
ENDBRANCH  33  34
ENDBRANCH  25  28
ENDBRANCH  23  24
ENDBRANCH  22  23
ENDBRANCH   1  22
TORSDOF 15
ENDMDL
