MODEL 1
REMARK VINA RESULT:     -11.8      0.000      0.000
REMARK SMILES CC(C)[C@H]([NH2+][C@@H](C)C[C@@H]1CCCC[NH2+]1)C(=O)NCCCCNC(=O)c1ccc(-c2c3nc(c(-c4c(F)c(F)c(F)c(F)c4F)c4ccc([nH]4)c(-c4c(F)c(F)c(F)c(F)c4F)c4nc(c(-c5c(F)c(F)c(F)c(F)c5F)c5ccc2[nH]5)C=C4)C=C3)cc1
REMARK SMILES IDX 18 1 17 2 15 3 16 4 4 6 2 7 1 8 3 9 5 10 6 13 7 14 8 15 9 16
REMARK SMILES IDX 10 17 14 18 11 19 13 20 12 23 19 24 20 25 21 26 22 27 23 28
REMARK SMILES IDX 24 30 25 31 26 32 87 33 27 34 86 35 28 36 29 37 30 38 80 39
REMARK SMILES IDX 31 40 85 41 79 42 81 43 32 44 84 45 78 46 77 47 33 49 65 50
REMARK SMILES IDX 45 51 64 52 46 53 49 54 63 55 82 56 47 57 48 58 62 60 83 61
REMARK SMILES IDX 50 62 34 63 35 64 43 65 36 66 37 67 41 68 44 69 38 70 39 71
REMARK SMILES IDX 42 72 40 73 66 74 67 75 75 76 68 77 69 78 73 79 76 80 70 81
REMARK SMILES IDX 71 82 74 83 72 84 51 85 52 86 60 87 53 88 54 89 58 90 61 91
REMARK SMILES IDX 55 92 56 93 59 94 57 95
REMARK H PARENT 17 5 5 11 5 12 14 21 14 22 22 29 81 48 49 59
REMARK Flexibility Score: inf
ROOT
ATOM      1  C   UNL A   1      33.052  29.693  26.664  1.00  0.00     0.116 C 
ENDROOT
BRANCH   1   2
ATOM      2  N   UNL A   1      33.514  29.695  25.300  1.00  0.00    -0.351 N 
ATOM      3  C   UNL A   1      33.119  28.917  24.261  1.00  0.00     0.278 C 
ATOM      4  O   UNL A   1      33.623  29.161  23.159  1.00  0.00    -0.268 OA
ATOM      5  H   UNL A   1      34.215  30.354  25.092  1.00  0.00     0.163 HD
BRANCH   3   6
ATOM      6  C   UNL A   1      32.048  27.808  24.407  1.00  0.00     0.275 C 
BRANCH   6   7
ATOM      7  C   UNL A   1      32.530  26.511  25.143  1.00  0.00     0.051 C 
ATOM      8  C   UNL A   1      34.032  26.296  25.346  1.00  0.00     0.014 C 
ATOM      9  C   UNL A   1      31.792  26.294  26.469  1.00  0.00     0.014 C 
ENDBRANCH   6   7
BRANCH   6  10
ATOM     10  N   UNL A   1      31.339  27.592  23.129  1.00  0.00    -0.333 N 
ATOM     11  H   UNL A   1      31.370  26.592  22.930  1.00  0.00     0.347 HD
ATOM     12  H   UNL A   1      31.827  28.194  22.465  1.00  0.00     0.347 HD
BRANCH  10  13
ATOM     13  C   UNL A   1      29.932  28.013  23.038  1.00  0.00     0.185 C 
ATOM     14  C   UNL A   1      29.131  26.877  23.696  1.00  0.00     0.075 C 
BRANCH  13  15
ATOM     15  C   UNL A   1      29.600  29.340  23.771  1.00  0.00     0.129 C 
BRANCH  15  16
ATOM     16  C   UNL A   1      29.247  30.507  22.839  1.00  0.00     0.188 C 
ATOM     17  C   UNL A   1      28.791  31.761  23.589  1.00  0.00     0.065 C 
ATOM     18  N   UNL A   1      28.265  30.170  21.801  1.00  0.00    -0.344 N 
ATOM     19  C   UNL A   1      28.766  32.935  22.609  1.00  0.00     0.012 C 
ATOM     20  C   UNL A   1      28.263  31.228  20.778  1.00  0.00     0.260 C 
ATOM     21  H   UNL A   1      27.338  30.097  22.218  1.00  0.00     0.346 HD
ATOM     22  H   UNL A   1      28.512  29.278  21.372  1.00  0.00     0.346 HD
ATOM     23  C   UNL A   1      27.935  32.602  21.369  1.00  0.00     0.062 C 
ENDBRANCH  15  16
ENDBRANCH  13  15
ENDBRANCH  10  13
ENDBRANCH   6  10
ENDBRANCH   3   6
ENDBRANCH   1   2
BRANCH   1  24
ATOM     24  C   UNL A   1      31.754  30.463  26.844  1.00  0.00     0.023 C 
BRANCH  24  25
ATOM     25  C   UNL A   1      31.865  31.961  26.566  1.00  0.00     0.023 C 
BRANCH  25  26
ATOM     26  C   UNL A   1      32.869  32.707  27.440  1.00  0.00     0.116 C 
BRANCH  26  27
ATOM     27  N   UNL A   1      32.492  34.094  27.685  1.00  0.00    -0.352 N 
ATOM     28  C   UNL A   1      32.995  34.981  28.608  1.00  0.00     0.251 C 
ATOM     29  H   UNL A   1      31.776  34.445  27.108  1.00  0.00     0.163 HD
ATOM     30  O   UNL A   1      32.486  36.077  28.778  1.00  0.00    -0.269 OA
BRANCH  28  31
ATOM     31  C   UNL A   1      34.145  34.556  29.426  1.00  0.00     0.039 A 
ATOM     32  C   UNL A   1      33.912  34.031  30.698  1.00  0.00     0.014 A 
ATOM     33  C   UNL A   1      35.429  34.572  28.877  1.00  0.00     0.014 A 
ATOM     34  C   UNL A   1      34.959  33.414  31.381  1.00  0.00     0.010 A 
ATOM     35  C   UNL A   1      36.450  33.890  29.524  1.00  0.00     0.010 A 
ATOM     36  C   UNL A   1      36.218  33.285  30.771  1.00  0.00    -0.014 A 
BRANCH  36  37
ATOM     37  C   UNL A   1      37.301  32.484  31.389  1.00  0.00     0.031 A 
ATOM     38  C   UNL A   1      37.814  32.846  32.750  1.00  0.00     0.074 A 
ATOM     39  C   UNL A   1      37.889  31.502  30.679  1.00  0.00     0.049 A 
ATOM     40  N   UNL A   1      38.838  32.363  33.405  1.00  0.00    -0.248 NA
ATOM     41  C   UNL A   1      37.098  33.920  33.457  1.00  0.00     0.031 C 
ATOM     42  C   UNL A   1      37.506  31.085  29.329  1.00  0.00     0.029 A 
ATOM     43  N   UNL A   1      38.948  30.685  30.988  1.00  0.00    -0.354 N 
ATOM     44  C   UNL A   1      38.898  33.082  34.589  1.00  0.00     0.074 A 
ATOM     45  C   UNL A   1      37.842  34.071  34.542  1.00  0.00     0.031 C 
ATOM     46  C   UNL A   1      38.303  30.079  28.935  1.00  0.00     0.029 A 
ATOM     47  C   UNL A   1      39.281  29.811  29.984  1.00  0.00     0.049 A 
ATOM     48  H   UNL A   1      39.423  30.723  31.850  1.00  0.00     0.167 HD
ATOM     49  C   UNL A   1      39.744  32.916  35.633  1.00  0.00     0.037 A 
ATOM     50  C   UNL A   1      40.276  28.906  29.911  1.00  0.00     0.037 A 
ATOM     51  C   UNL A   1      40.776  31.916  35.685  1.00  0.00     0.049 A 
ATOM     52  C   UNL A   1      41.227  28.769  31.067  1.00  0.00     0.074 A 
ATOM     53  C   UNL A   1      41.637  31.616  36.726  1.00  0.00     0.029 A 
ATOM     54  N   UNL A   1      41.091  31.055  34.644  1.00  0.00    -0.354 N 
ATOM     55  N   UNL A   1      41.236  29.409  32.211  1.00  0.00    -0.248 NA
ATOM     56  C   UNL A   1      42.314  27.790  30.919  1.00  0.00     0.031 C 
ATOM     57  C   UNL A   1      42.501  30.602  36.299  1.00  0.00     0.029 A 
ATOM     58  C   UNL A   1      42.153  30.243  35.006  1.00  0.00     0.049 A 
ATOM     59  H   UNL A   1      40.627  31.025  33.775  1.00  0.00     0.167 HD
ATOM     60  C   UNL A   1      42.312  28.901  32.924  1.00  0.00     0.074 A 
ATOM     61  C   UNL A   1      42.927  27.888  32.090  1.00  0.00     0.031 C 
ATOM     62  C   UNL A   1      42.752  29.244  34.159  1.00  0.00     0.037 A 
BRANCH  49  63
ATOM     63  C   UNL A   1      39.580  33.839  36.804  1.00  0.00     0.064 A 
ATOM     64  C   UNL A   1      40.198  35.099  36.836  1.00  0.00     0.173 A 
ATOM     65  C   UNL A   1      38.790  33.467  37.901  1.00  0.00     0.173 A 
ATOM     66  F   UNL A   1      40.976  35.496  35.817  1.00  0.00    -0.203 F 
ATOM     67  C   UNL A   1      40.056  35.939  37.937  1.00  0.00     0.198 A 
ATOM     68  C   UNL A   1      38.627  34.321  38.988  1.00  0.00     0.198 A 
ATOM     69  F   UNL A   1      38.176  32.274  37.919  1.00  0.00    -0.203 F 
ATOM     70  F   UNL A   1      40.698  37.114  37.969  1.00  0.00    -0.200 F 
ATOM     71  C   UNL A   1      39.266  35.551  39.010  1.00  0.00     0.200 A 
ATOM     72  F   UNL A   1      37.856  33.950  40.020  1.00  0.00    -0.200 F 
ATOM     73  F   UNL A   1      39.131  36.360  40.070  1.00  0.00    -0.200 F 
ENDBRANCH  49  63
BRANCH  50  74
ATOM     74  C   UNL A   1      40.412  28.049  28.706  1.00  0.00     0.064 A 
ATOM     75  C   UNL A   1      39.778  26.800  28.643  1.00  0.00     0.173 A 
ATOM     76  C   UNL A   1      41.163  28.457  27.594  1.00  0.00     0.173 A 
ATOM     77  F   UNL A   1      39.067  26.358  29.692  1.00  0.00    -0.203 F 
ATOM     78  C   UNL A   1      39.899  25.988  27.519  1.00  0.00     0.198 A 
ATOM     79  C   UNL A   1      41.263  27.653  26.460  1.00  0.00     0.198 A 
ATOM     80  F   UNL A   1      41.786  29.645  27.604  1.00  0.00    -0.203 F 
ATOM     81  F   UNL A   1      39.310  24.784  27.498  1.00  0.00    -0.200 F 
ATOM     82  C   UNL A   1      40.636  26.418  26.425  1.00  0.00     0.200 A 
ATOM     83  F   UNL A   1      41.966  28.078  25.402  1.00  0.00    -0.200 F 
ATOM     84  F   UNL A   1      40.745  25.638  25.340  1.00  0.00    -0.200 F 
ENDBRANCH  50  74
BRANCH  62  85
ATOM     85  C   UNL A   1      43.948  28.511  34.690  1.00  0.00     0.064 A 
ATOM     86  C   UNL A   1      45.245  29.018  34.530  1.00  0.00     0.173 A 
ATOM     87  C   UNL A   1      43.789  27.320  35.414  1.00  0.00     0.173 A 
ATOM     88  F   UNL A   1      45.447  30.143  33.828  1.00  0.00    -0.203 F 
ATOM     89  C   UNL A   1      46.344  28.351  35.065  1.00  0.00     0.198 A 
ATOM     90  C   UNL A   1      44.887  26.670  35.970  1.00  0.00     0.198 A 
ATOM     91  F   UNL A   1      42.567  26.797  35.597  1.00  0.00    -0.203 F 
ATOM     92  F   UNL A   1      47.578  28.836  34.872  1.00  0.00    -0.200 F 
ATOM     93  C   UNL A   1      46.163  27.184  35.792  1.00  0.00     0.200 A 
ATOM     94  F   UNL A   1      44.710  25.548  36.681  1.00  0.00    -0.200 F 
ATOM     95  F   UNL A   1      47.220  26.550  36.318  1.00  0.00    -0.200 F 
ENDBRANCH  62  85
ENDBRANCH  36  37
ENDBRANCH  28  31
ENDBRANCH  26  27
ENDBRANCH  25  26
ENDBRANCH  24  25
ENDBRANCH   1  24
TORSDOF 16
ENDMDL
MODEL 2
REMARK VINA RESULT:     -11.7      0.597      7.433
REMARK SMILES CC(C)[C@H]([NH2+][C@@H](C)C[C@@H]1CCCC[NH2+]1)C(=O)NCCCCNC(=O)c1ccc(-c2c3nc(c(-c4c(F)c(F)c(F)c(F)c4F)c4ccc([nH]4)c(-c4c(F)c(F)c(F)c(F)c4F)c4nc(c(-c5c(F)c(F)c(F)c(F)c5F)c5ccc2[nH]5)C=C4)C=C3)cc1
REMARK SMILES IDX 18 1 17 2 15 3 16 4 4 6 2 7 1 8 3 9 5 10 6 13 7 14 8 15 9 16
REMARK SMILES IDX 10 17 14 18 11 19 13 20 12 23 19 24 20 25 21 26 22 27 23 28
REMARK SMILES IDX 24 30 25 31 26 32 87 33 27 34 86 35 28 36 29 37 30 38 80 39
REMARK SMILES IDX 31 40 85 41 79 42 81 43 32 44 84 45 78 46 77 47 33 49 65 50
REMARK SMILES IDX 45 51 64 52 46 53 49 54 63 55 82 56 47 57 48 58 62 60 83 61
REMARK SMILES IDX 50 62 34 63 35 64 43 65 36 66 37 67 41 68 44 69 38 70 39 71
REMARK SMILES IDX 42 72 40 73 66 74 67 75 75 76 68 77 69 78 73 79 76 80 70 81
REMARK SMILES IDX 71 82 74 83 72 84 51 85 52 86 60 87 53 88 54 89 58 90 61 91
REMARK SMILES IDX 55 92 56 93 59 94 57 95
REMARK H PARENT 17 5 5 11 5 12 14 21 14 22 22 29 81 48 49 59
REMARK Flexibility Score: inf
ROOT
ATOM      1  C   UNL A   1      33.302  28.769  26.982  1.00  0.00     0.116 C 
ENDROOT
BRANCH   1   2
ATOM      2  N   UNL A   1      33.885  28.902  25.673  1.00  0.00    -0.351 N 
ATOM      3  C   UNL A   1      33.566  28.254  24.524  1.00  0.00     0.278 C 
ATOM      4  O   UNL A   1      34.174  28.599  23.503  1.00  0.00    -0.268 OA
ATOM      5  H   UNL A   1      34.619  29.556  25.600  1.00  0.00     0.163 HD
BRANCH   3   6
ATOM      6  C   UNL A   1      32.460  27.175  24.453  1.00  0.00     0.275 C 
BRANCH   6   7
ATOM      7  C   UNL A   1      32.899  25.742  24.911  1.00  0.00     0.051 C 
ATOM      8  C   UNL A   1      34.391  25.453  25.095  1.00  0.00     0.014 C 
ATOM      9  C   UNL A   1      32.124  25.271  26.147  1.00  0.00     0.014 C 
ENDBRANCH   6   7
BRANCH   6  10
ATOM     10  N   UNL A   1      31.745  27.242  23.161  1.00  0.00    -0.333 N 
ATOM     11  H   UNL A   1      31.662  26.288  22.810  1.00  0.00     0.347 HD
ATOM     12  H   UNL A   1      32.305  27.878  22.594  1.00  0.00     0.347 HD
BRANCH  10  13
ATOM     13  C   UNL A   1      30.396  27.830  23.147  1.00  0.00     0.185 C 
ATOM     14  C   UNL A   1      29.506  26.810  23.876  1.00  0.00     0.075 C 
BRANCH  13  15
ATOM     15  C   UNL A   1      30.274  29.198  23.870  1.00  0.00     0.129 C 
BRANCH  15  16
ATOM     16  C   UNL A   1      29.337  30.198  23.180  1.00  0.00     0.188 C 
ATOM     17  C   UNL A   1      29.376  30.105  21.653  1.00  0.00     0.065 C 
ATOM     18  N   UNL A   1      29.535  31.592  23.595  1.00  0.00    -0.344 N 
ATOM     19  C   UNL A   1      28.203  30.905  21.084  1.00  0.00     0.012 C 
ATOM     20  C   UNL A   1      28.386  32.395  23.150  1.00  0.00     0.260 C 
ATOM     21  H   UNL A   1      30.389  31.955  23.173  1.00  0.00     0.346 HD
ATOM     22  H   UNL A   1      29.615  31.640  24.611  1.00  0.00     0.346 HD
ATOM     23  C   UNL A   1      28.192  32.333  21.631  1.00  0.00     0.062 C 
ENDBRANCH  15  16
ENDBRANCH  13  15
ENDBRANCH  10  13
ENDBRANCH   6  10
ENDBRANCH   3   6
ENDBRANCH   1   2
BRANCH   1  24
ATOM     24  C   UNL A   1      32.072  29.642  27.167  1.00  0.00     0.023 C 
BRANCH  24  25
ATOM     25  C   UNL A   1      32.212  31.057  26.611  1.00  0.00     0.023 C 
BRANCH  25  26
ATOM     26  C   UNL A   1      33.137  31.975  27.405  1.00  0.00     0.116 C 
BRANCH  26  27
ATOM     27  N   UNL A   1      32.639  33.341  27.503  1.00  0.00    -0.352 N 
ATOM     28  C   UNL A   1      33.052  34.360  28.330  1.00  0.00     0.251 C 
ATOM     29  H   UNL A   1      31.903  33.567  26.890  1.00  0.00     0.163 HD
ATOM     30  O   UNL A   1      32.449  35.419  28.382  1.00  0.00    -0.269 OA
BRANCH  28  31
ATOM     31  C   UNL A   1      34.225  34.124  29.191  1.00  0.00     0.039 A 
ATOM     32  C   UNL A   1      34.041  33.501  30.426  1.00  0.00     0.014 A 
ATOM     33  C   UNL A   1      35.504  34.415  28.714  1.00  0.00     0.014 A 
ATOM     34  C   UNL A   1      35.156  33.063  31.140  1.00  0.00     0.010 A 
ATOM     35  C   UNL A   1      36.609  33.910  29.387  1.00  0.00     0.010 A 
ATOM     36  C   UNL A   1      36.442  33.210  30.594  1.00  0.00    -0.014 A 
BRANCH  36  37
ATOM     37  C   UNL A   1      37.631  32.602  31.237  1.00  0.00     0.031 A 
ATOM     38  C   UNL A   1      38.351  31.474  30.561  1.00  0.00     0.074 A 
ATOM     39  C   UNL A   1      37.993  32.997  32.473  1.00  0.00     0.049 A 
ATOM     40  N   UNL A   1      39.321  30.721  31.013  1.00  0.00    -0.248 NA
ATOM     41  C   UNL A   1      37.897  31.123  29.206  1.00  0.00     0.031 C 
ATOM     42  C   UNL A   1      37.344  34.055  33.249  1.00  0.00     0.029 A 
ATOM     43  N   UNL A   1      38.987  32.542  33.303  1.00  0.00    -0.354 N 
ATOM     44  C   UNL A   1      39.581  29.803  30.007  1.00  0.00     0.074 A 
ATOM     45  C   UNL A   1      38.634  30.055  28.944  1.00  0.00     0.031 C 
ATOM     46  C   UNL A   1      37.968  34.182  34.431  1.00  0.00     0.029 A 
ATOM     47  C   UNL A   1      39.030  33.184  34.515  1.00  0.00     0.049 A 
ATOM     48  H   UNL A   1      39.610  31.822  33.052  1.00  0.00     0.167 HD
ATOM     49  C   UNL A   1      40.541  28.848  29.967  1.00  0.00     0.037 A 
ATOM     50  C   UNL A   1      39.826  32.980  35.581  1.00  0.00     0.037 A 
ATOM     51  C   UNL A   1      41.496  28.618  31.017  1.00  0.00     0.049 A 
ATOM     52  C   UNL A   1      40.858  31.888  35.527  1.00  0.00     0.074 A 
ATOM     53  C   UNL A   1      42.555  27.727  31.042  1.00  0.00     0.029 A 
ATOM     54  N   UNL A   1      41.501  29.282  32.235  1.00  0.00    -0.354 N 
ATOM     55  N   UNL A   1      41.140  31.066  34.546  1.00  0.00    -0.248 NA
ATOM     56  C   UNL A   1      41.676  31.688  36.731  1.00  0.00     0.031 C 
ATOM     57  C   UNL A   1      43.175  27.823  32.293  1.00  0.00     0.029 A 
ATOM     58  C   UNL A   1      42.528  28.800  33.032  1.00  0.00     0.049 A 
ATOM     59  H   UNL A   1      40.870  29.992  32.495  1.00  0.00     0.167 HD
ATOM     60  C   UNL A   1      42.175  30.264  35.004  1.00  0.00     0.074 A 
ATOM     61  C   UNL A   1      42.483  30.708  36.350  1.00  0.00     0.031 C 
ATOM     62  C   UNL A   1      42.814  29.252  34.369  1.00  0.00     0.037 A 
BRANCH  49  63
ATOM     63  C   UNL A   1      40.602  27.987  28.741  1.00  0.00     0.064 A 
ATOM     64  C   UNL A   1      41.366  28.357  27.623  1.00  0.00     0.173 A 
ATOM     65  C   UNL A   1      39.901  26.774  28.684  1.00  0.00     0.173 A 
ATOM     66  F   UNL A   1      42.044  29.515  27.621  1.00  0.00    -0.203 F 
ATOM     67  C   UNL A   1      41.399  27.560  26.482  1.00  0.00     0.198 A 
ATOM     68  C   UNL A   1      39.959  25.966  27.553  1.00  0.00     0.198 A 
ATOM     69  F   UNL A   1      39.158  26.373  29.728  1.00  0.00    -0.203 F 
ATOM     70  F   UNL A   1      42.091  27.960  25.406  1.00  0.00    -0.200 F 
ATOM     71  C   UNL A   1      40.700  26.362  26.450  1.00  0.00     0.200 A 
ATOM     72  F   UNL A   1      39.291  24.804  27.526  1.00  0.00    -0.200 F 
ATOM     73  F   UNL A   1      40.732  25.596  25.351  1.00  0.00    -0.200 F 
ENDBRANCH  49  63
BRANCH  50  74
ATOM     74  C   UNL A   1      39.690  33.840  36.784  1.00  0.00     0.064 A 
ATOM     75  C   UNL A   1      40.370  35.063  36.869  1.00  0.00     0.173 A 
ATOM     76  C   UNL A   1      38.876  33.469  37.865  1.00  0.00     0.173 A 
ATOM     77  F   UNL A   1      41.177  35.449  35.870  1.00  0.00    -0.203 F 
ATOM     78  C   UNL A   1      40.249  35.877  37.992  1.00  0.00     0.198 A 
ATOM     79  C   UNL A   1      38.737  34.295  38.978  1.00  0.00     0.198 A 
ATOM     80  F   UNL A   1      38.202  32.309  37.831  1.00  0.00    -0.203 F 
ATOM     81  F   UNL A   1      40.936  37.024  38.062  1.00  0.00    -0.200 F 
ATOM     82  C   UNL A   1      39.427  35.495  39.043  1.00  0.00     0.200 A 
ATOM     83  F   UNL A   1      37.934  33.929  39.986  1.00  0.00    -0.200 F 
ATOM     84  F   UNL A   1      39.306  36.283  40.121  1.00  0.00    -0.200 F 
ENDBRANCH  50  74
BRANCH  62  85
ATOM     85  C   UNL A   1      43.916  28.561  35.114  1.00  0.00     0.064 A 
ATOM     86  C   UNL A   1      45.237  29.027  35.062  1.00  0.00     0.173 A 
ATOM     87  C   UNL A   1      43.638  27.454  35.930  1.00  0.00     0.173 A 
ATOM     88  F   UNL A   1      45.554  30.070  34.280  1.00  0.00    -0.203 F 
ATOM     89  C   UNL A   1      46.244  28.403  35.793  1.00  0.00     0.198 A 
ATOM     90  C   UNL A   1      44.642  26.849  36.680  1.00  0.00     0.198 A 
ATOM     91  F   UNL A   1      42.389  26.973  36.016  1.00  0.00    -0.203 F 
ATOM     92  F   UNL A   1      47.506  28.845  35.704  1.00  0.00    -0.200 F 
ATOM     93  C   UNL A   1      45.944  27.321  36.608  1.00  0.00     0.200 A 
ATOM     94  F   UNL A   1      44.350  25.811  37.475  1.00  0.00    -0.200 F 
ATOM     95  F   UNL A   1      46.913  26.730  37.321  1.00  0.00    -0.200 F 
ENDBRANCH  62  85
ENDBRANCH  36  37
ENDBRANCH  28  31
ENDBRANCH  26  27
ENDBRANCH  25  26
ENDBRANCH  24  25
ENDBRANCH   1  24
TORSDOF 16
ENDMDL
MODEL 3
REMARK VINA RESULT:     -11.7      0.636      7.445
REMARK SMILES CC(C)[C@H]([NH2+][C@@H](C)C[C@@H]1CCCC[NH2+]1)C(=O)NCCCCNC(=O)c1ccc(-c2c3nc(c(-c4c(F)c(F)c(F)c(F)c4F)c4ccc([nH]4)c(-c4c(F)c(F)c(F)c(F)c4F)c4nc(c(-c5c(F)c(F)c(F)c(F)c5F)c5ccc2[nH]5)C=C4)C=C3)cc1
REMARK SMILES IDX 18 1 17 2 15 3 16 4 4 6 2 7 1 8 3 9 5 10 6 13 7 14 8 15 9 16
REMARK SMILES IDX 10 17 14 18 11 19 13 20 12 23 19 24 20 25 21 26 22 27 23 28
REMARK SMILES IDX 24 30 25 31 26 32 87 33 27 34 86 35 28 36 29 37 30 38 80 39
REMARK SMILES IDX 31 40 85 41 79 42 81 43 32 44 84 45 78 46 77 47 33 49 65 50
REMARK SMILES IDX 45 51 64 52 46 53 49 54 63 55 82 56 47 57 48 58 62 60 83 61
REMARK SMILES IDX 50 62 34 63 35 64 43 65 36 66 37 67 41 68 44 69 38 70 39 71
REMARK SMILES IDX 42 72 40 73 66 74 67 75 75 76 68 77 69 78 73 79 76 80 70 81
REMARK SMILES IDX 71 82 74 83 72 84 51 85 52 86 60 87 53 88 54 89 58 90 61 91
REMARK SMILES IDX 55 92 56 93 59 94 57 95
REMARK H PARENT 17 5 5 11 5 12 14 21 14 22 22 29 81 48 49 59
REMARK Flexibility Score: inf
ROOT
ATOM      1  C   UNL A   1      33.724  29.013  26.413  1.00  0.00     0.116 C 
ENDROOT
BRANCH   1   2
ATOM      2  N   UNL A   1      33.964  29.339  25.031  1.00  0.00    -0.351 N 
ATOM      3  C   UNL A   1      33.578  28.672  23.915  1.00  0.00     0.278 C 
ATOM      4  O   UNL A   1      33.851  29.198  22.829  1.00  0.00    -0.268 OA
ATOM      5  H   UNL A   1      34.481  30.163  24.875  1.00  0.00     0.163 HD
BRANCH   3   6
ATOM      6  C   UNL A   1      32.783  27.344  23.967  1.00  0.00     0.275 C 
BRANCH   6   7
ATOM      7  C   UNL A   1      33.649  26.061  24.211  1.00  0.00     0.051 C 
ATOM      8  C   UNL A   1      33.509  25.322  25.544  1.00  0.00     0.014 C 
ATOM      9  C   UNL A   1      33.539  25.064  23.053  1.00  0.00     0.014 C 
ENDBRANCH   6   7
BRANCH   6  10
ATOM     10  N   UNL A   1      31.823  27.265  22.847  1.00  0.00    -0.333 N 
ATOM     11  H   UNL A   1      31.811  26.297  22.526  1.00  0.00     0.347 HD
ATOM     12  H   UNL A   1      32.160  27.953  22.175  1.00  0.00     0.347 HD
BRANCH  10  13
ATOM     13  C   UNL A   1      30.427  27.657  23.103  1.00  0.00     0.185 C 
ATOM     14  C   UNL A   1      29.834  26.507  23.934  1.00  0.00     0.075 C 
BRANCH  13  15
ATOM     15  C   UNL A   1      30.258  28.979  23.898  1.00  0.00     0.129 C 
BRANCH  15  16
ATOM     16  C   UNL A   1      29.332  30.005  23.231  1.00  0.00     0.188 C 
ATOM     17  C   UNL A   1      29.466  30.034  21.706  1.00  0.00     0.065 C 
ATOM     18  N   UNL A   1      29.462  31.367  23.763  1.00  0.00    -0.344 N 
ATOM     19  C   UNL A   1      28.304  30.845  21.128  1.00  0.00     0.012 C 
ATOM     20  C   UNL A   1      28.316  32.172  23.310  1.00  0.00     0.260 C 
ATOM     21  H   UNL A   1      30.328  31.785  23.424  1.00  0.00     0.346 HD
ATOM     22  H   UNL A   1      29.479  31.337  24.782  1.00  0.00     0.346 HD
ATOM     23  C   UNL A   1      28.215  32.224  21.783  1.00  0.00     0.062 C 
ENDBRANCH  15  16
ENDBRANCH  13  15
ENDBRANCH  10  13
ENDBRANCH   6  10
ENDBRANCH   3   6
ENDBRANCH   1   2
BRANCH   1  24
ATOM     24  C   UNL A   1      32.384  29.527  26.912  1.00  0.00     0.023 C 
BRANCH  24  25
ATOM     25  C   UNL A   1      32.159  31.022  26.693  1.00  0.00     0.023 C 
BRANCH  25  26
ATOM     26  C   UNL A   1      33.083  31.938  27.489  1.00  0.00     0.116 C 
BRANCH  26  27
ATOM     27  N   UNL A   1      32.600  33.311  27.563  1.00  0.00    -0.352 N 
ATOM     28  C   UNL A   1      33.033  34.343  28.363  1.00  0.00     0.251 C 
ATOM     29  H   UNL A   1      31.859  33.531  26.954  1.00  0.00     0.163 HD
ATOM     30  O   UNL A   1      32.441  35.409  28.399  1.00  0.00    -0.269 OA
BRANCH  28  31
ATOM     31  C   UNL A   1      34.213  34.114  29.216  1.00  0.00     0.039 A 
ATOM     32  C   UNL A   1      34.041  33.487  30.452  1.00  0.00     0.014 A 
ATOM     33  C   UNL A   1      35.487  34.413  28.731  1.00  0.00     0.014 A 
ATOM     34  C   UNL A   1      35.164  33.056  31.157  1.00  0.00     0.010 A 
ATOM     35  C   UNL A   1      36.599  33.914  29.396  1.00  0.00     0.010 A 
ATOM     36  C   UNL A   1      36.445  33.211  30.603  1.00  0.00    -0.014 A 
BRANCH  36  37
ATOM     37  C   UNL A   1      37.643  32.611  31.237  1.00  0.00     0.031 A 
ATOM     38  C   UNL A   1      38.355  31.476  30.563  1.00  0.00     0.074 A 
ATOM     39  C   UNL A   1      38.019  33.017  32.465  1.00  0.00     0.049 A 
ATOM     40  N   UNL A   1      39.331  30.729  31.011  1.00  0.00    -0.248 NA
ATOM     41  C   UNL A   1      37.885  31.113  29.218  1.00  0.00     0.031 C 
ATOM     42  C   UNL A   1      37.378  34.082  33.239  1.00  0.00     0.029 A 
ATOM     43  N   UNL A   1      39.023  32.570  33.287  1.00  0.00    -0.354 N 
ATOM     44  C   UNL A   1      39.579  29.801  30.010  1.00  0.00     0.074 A 
ATOM     45  C   UNL A   1      38.619  30.042  28.956  1.00  0.00     0.031 C 
ATOM     46  C   UNL A   1      38.017  34.220  34.412  1.00  0.00     0.029 A 
ATOM     47  C   UNL A   1      39.080  33.224  34.493  1.00  0.00     0.049 A 
ATOM     48  H   UNL A   1      39.644  31.849  33.035  1.00  0.00     0.167 HD
ATOM     49  C   UNL A   1      40.539  28.847  29.967  1.00  0.00     0.037 A 
ATOM     50  C   UNL A   1      39.890  33.031  35.551  1.00  0.00     0.037 A 
ATOM     51  C   UNL A   1      41.507  28.627  31.008  1.00  0.00     0.049 A 
ATOM     52  C   UNL A   1      40.921  31.938  35.494  1.00  0.00     0.074 A 
ATOM     53  C   UNL A   1      42.567  27.737  31.028  1.00  0.00     0.029 A 
ATOM     54  N   UNL A   1      41.527  29.302  32.219  1.00  0.00    -0.354 N 
ATOM     55  N   UNL A   1      41.192  31.107  34.518  1.00  0.00    -0.248 NA
ATOM     56  C   UNL A   1      41.753  31.750  36.691  1.00  0.00     0.031 C 
ATOM     57  C   UNL A   1      43.202  27.845  32.271  1.00  0.00     0.029 A 
ATOM     58  C   UNL A   1      42.563  28.828  33.008  1.00  0.00     0.049 A 
ATOM     59  H   UNL A   1      40.898  30.014  32.481  1.00  0.00     0.167 HD
ATOM     60  C   UNL A   1      42.233  30.311  34.971  1.00  0.00     0.074 A 
ATOM     61  C   UNL A   1      42.557  30.767  36.308  1.00  0.00     0.031 C 
ATOM     62  C   UNL A   1      42.865  29.293  34.338  1.00  0.00     0.037 A 
BRANCH  49  63
ATOM     63  C   UNL A   1      40.587  27.974  28.748  1.00  0.00     0.064 A 
ATOM     64  C   UNL A   1      41.342  28.331  27.621  1.00  0.00     0.173 A 
ATOM     65  C   UNL A   1      39.880  26.763  28.710  1.00  0.00     0.173 A 
ATOM     66  F   UNL A   1      42.024  29.486  27.602  1.00  0.00    -0.203 F 
ATOM     67  C   UNL A   1      41.362  27.523  26.487  1.00  0.00     0.198 A 
ATOM     68  C   UNL A   1      39.925  25.944  27.585  1.00  0.00     0.198 A 
ATOM     69  F   UNL A   1      39.144  26.375  29.763  1.00  0.00    -0.203 F 
ATOM     70  F   UNL A   1      42.046  27.911  25.402  1.00  0.00    -0.200 F 
ATOM     71  C   UNL A   1      40.657  26.328  26.472  1.00  0.00     0.200 A 
ATOM     72  F   UNL A   1      39.252  24.785  27.575  1.00  0.00    -0.200 F 
ATOM     73  F   UNL A   1      40.677  25.552  25.380  1.00  0.00    -0.200 F 
ENDBRANCH  49  63
BRANCH  50  74
ATOM     74  C   UNL A   1      39.767  33.901  36.748  1.00  0.00     0.064 A 
ATOM     75  C   UNL A   1      38.946  33.529  37.820  1.00  0.00     0.173 A 
ATOM     76  C   UNL A   1      40.469  35.111  36.852  1.00  0.00     0.173 A 
ATOM     77  F   UNL A   1      38.238  32.391  37.756  1.00  0.00    -0.203 F 
ATOM     78  C   UNL A   1      38.823  34.337  38.947  1.00  0.00     0.198 A 
ATOM     79  C   UNL A   1      40.364  35.907  37.990  1.00  0.00     0.198 A 
ATOM     80  F   UNL A   1      41.271  35.510  35.853  1.00  0.00    -0.203 F 
ATOM     81  F   UNL A   1      38.005  33.974  39.944  1.00  0.00    -0.200 F 
ATOM     82  C   UNL A   1      39.538  35.523  39.034  1.00  0.00     0.200 A 
ATOM     83  F   UNL A   1      41.065  37.046  38.075  1.00  0.00    -0.200 F 
ATOM     84  F   UNL A   1      39.425  36.298  40.123  1.00  0.00    -0.200 F 
ENDBRANCH  50  74
BRANCH  62  85
ATOM     85  C   UNL A   1      43.976  28.609  35.075  1.00  0.00     0.064 A 
ATOM     86  C   UNL A   1      43.747  27.453  35.833  1.00  0.00     0.173 A 
ATOM     87  C   UNL A   1      45.293  29.084  34.978  1.00  0.00     0.173 A 
ATOM     88  F   UNL A   1      42.502  26.973  35.971  1.00  0.00    -0.203 F 
ATOM     89  C   UNL A   1      44.795  26.801  36.478  1.00  0.00     0.198 A 
ATOM     90  C   UNL A   1      46.342  28.416  35.603  1.00  0.00     0.198 A 
ATOM     91  F   UNL A   1      45.564  30.186  34.262  1.00  0.00    -0.203 F 
ATOM     92  F   UNL A   1      44.548  25.715  37.224  1.00  0.00    -0.200 F 
ATOM     93  C   UNL A   1      46.092  27.278  36.354  1.00  0.00     0.200 A 
ATOM     94  F   UNL A   1      47.596  28.870  35.474  1.00  0.00    -0.200 F 
ATOM     95  F   UNL A   1      47.101  26.641  36.965  1.00  0.00    -0.200 F 
ENDBRANCH  62  85
ENDBRANCH  36  37
ENDBRANCH  28  31
ENDBRANCH  26  27
ENDBRANCH  25  26
ENDBRANCH  24  25
ENDBRANCH   1  24
TORSDOF 16
ENDMDL
