MODEL 1
REMARK VINA RESULT:     -12.6      0.000      0.000
REMARK SMILES Cc1onc2c(=O)n(C)nc(C(=O)NCCCCNC(=O)c3ccc(-c4c5nc(c(-c6c(F)c(F)c(F)c(F)c6F)c6ccc([nH]6)c(-c6c(F)c(F)c(F)c(F)c6F)c6nc(c(-c7c(F)c(F)c(F)c(F)c7F)c7ccc4[nH]7)C=C6)C=C5)cc3)c12
REMARK SMILES IDX 17 1 16 2 15 3 14 4 12 5 13 6 11 8 1 9 2 10 3 11 85 12 4 13
REMARK SMILES IDX 5 14 6 15 10 16 7 17 8 18 9 19 18 20 19 21 20 22 21 24 22 25
REMARK SMILES IDX 23 26 84 27 24 28 83 29 25 30 26 31 27 32 77 33 28 34 82 35
REMARK SMILES IDX 76 36 78 37 29 38 81 39 75 40 74 41 30 43 62 44 42 45 61 46
REMARK SMILES IDX 43 47 46 48 60 49 79 50 44 51 45 52 59 54 80 55 47 56 31 57
REMARK SMILES IDX 32 58 40 59 33 60 34 61 38 62 41 63 35 64 36 65 39 66 37 67
REMARK SMILES IDX 63 68 64 69 72 70 65 71 66 72 70 73 73 74 67 75 68 76 71 77
REMARK SMILES IDX 69 78 48 79 49 80 57 81 50 82 51 83 55 84 58 85 52 86 53 87
REMARK SMILES IDX 56 88 54 89
REMARK H PARENT 14 7 19 23 78 42 46 53
REMARK Flexibility Score: inf
ROOT
ATOM      1  C   UNL A   1      36.959  21.279  25.004  1.00  0.00     0.023 C 
ENDROOT
BRANCH   1   2
ATOM      2  C   UNL A   1      35.534  21.575  25.507  1.00  0.00     0.023 C 
BRANCH   2   3
ATOM      3  C   UNL A   1      35.328  22.966  26.106  1.00  0.00     0.116 C 
BRANCH   3   4
ATOM      4  N   UNL A   1      33.948  23.172  26.514  1.00  0.00    -0.351 N 
ATOM      5  C   UNL A   1      32.969  24.051  26.110  1.00  0.00     0.272 C 
ATOM      6  O   UNL A   1      31.874  23.957  26.657  1.00  0.00    -0.267 OA
ATOM      7  H   UNL A   1      33.654  22.559  27.226  1.00  0.00     0.163 HD
BRANCH   5   8
ATOM      8  C   UNL A   1      33.174  25.110  25.012  1.00  0.00     0.161 A 
ATOM      9  C   UNL A   1      32.856  22.225  23.070  1.00  0.00     0.091 C 
ATOM     10  C   UNL A   1      33.112  23.660  22.834  1.00  0.00     0.144 A 
ATOM     11  O   UNL A   1      33.278  23.994  21.520  1.00  0.00    -0.360 OA
ATOM     12  C   UNL A   1      33.233  24.799  23.599  1.00  0.00     0.083 A 
ATOM     13  N   UNL A   1      33.502  25.353  21.403  1.00  0.00    -0.074 NA
ATOM     14  C   UNL A   1      33.467  25.819  22.654  1.00  0.00     0.183 A 
ATOM     15  C   UNL A   1      33.640  27.199  23.045  1.00  0.00     0.296 A 
ATOM     16  N   UNL A   1      33.326  26.360  25.366  1.00  0.00    -0.164 NA
ATOM     17  O   UNL A   1      33.848  28.124  22.252  1.00  0.00    -0.265 OA
ATOM     18  N   UNL A   1      33.538  27.380  24.434  1.00  0.00    -0.230 N 
ATOM     19  C   UNL A   1      33.678  28.720  24.967  1.00  0.00     0.178 C 
ENDBRANCH   5   8
ENDBRANCH   3   4
ENDBRANCH   2   3
ENDBRANCH   1   2
BRANCH   1  20
ATOM     20  C   UNL A   1      38.046  22.270  25.450  1.00  0.00     0.116 C 
BRANCH  20  21
ATOM     21  N   UNL A   1      39.014  21.621  26.314  1.00  0.00    -0.352 N 
ATOM     22  C   UNL A   1      40.139  22.095  26.924  1.00  0.00     0.251 C 
ATOM     23  H   UNL A   1      38.825  20.672  26.493  1.00  0.00     0.163 HD
ATOM     24  O   UNL A   1      40.971  21.282  27.326  1.00  0.00    -0.269 OA
BRANCH  22  25
ATOM     25  C   UNL A   1      40.385  23.535  27.148  1.00  0.00     0.039 A 
ATOM     26  C   UNL A   1      41.576  24.064  26.637  1.00  0.00     0.014 A 
ATOM     27  C   UNL A   1      39.583  24.310  27.990  1.00  0.00     0.014 A 
ATOM     28  C   UNL A   1      41.961  25.362  26.957  1.00  0.00     0.010 A 
ATOM     29  C   UNL A   1      39.968  25.617  28.308  1.00  0.00     0.010 A 
ATOM     30  C   UNL A   1      41.158  26.149  27.791  1.00  0.00    -0.014 A 
BRANCH  30  31
ATOM     31  C   UNL A   1      41.571  27.554  27.970  1.00  0.00     0.031 A 
ATOM     32  C   UNL A   1      40.453  28.549  27.862  1.00  0.00     0.074 A 
ATOM     33  C   UNL A   1      42.601  27.876  28.779  1.00  0.00     0.049 A 
ATOM     34  N   UNL A   1      39.653  28.876  28.835  1.00  0.00    -0.248 NA
ATOM     35  C   UNL A   1      40.014  29.036  26.552  1.00  0.00     0.031 C 
ATOM     36  C   UNL A   1      42.829  27.331  30.118  1.00  0.00     0.029 A 
ATOM     37  N   UNL A   1      43.526  28.889  28.658  1.00  0.00    -0.354 N 
ATOM     38  C   UNL A   1      38.588  29.565  28.276  1.00  0.00     0.074 A 
ATOM     39  C   UNL A   1      38.856  29.639  26.857  1.00  0.00     0.031 C 
ATOM     40  C   UNL A   1      43.709  28.126  30.760  1.00  0.00     0.029 A 
ATOM     41  C   UNL A   1      44.184  29.168  29.851  1.00  0.00     0.049 A 
ATOM     42  H   UNL A   1      43.703  29.366  27.814  1.00  0.00     0.167 HD
ATOM     43  C   UNL A   1      37.541  30.037  29.003  1.00  0.00     0.037 A 
ATOM     44  C   UNL A   1      44.575  30.423  30.220  1.00  0.00     0.037 A 
ATOM     45  C   UNL A   1      37.632  29.844  30.417  1.00  0.00     0.049 A 
ATOM     46  C   UNL A   1      43.267  30.975  30.744  1.00  0.00     0.074 A 
ATOM     47  C   UNL A   1      37.162  28.953  31.354  1.00  0.00     0.029 A 
ATOM     48  N   UNL A   1      38.422  30.718  31.128  1.00  0.00    -0.354 N 
ATOM     49  N   UNL A   1      42.723  30.704  31.904  1.00  0.00    -0.248 NA
ATOM     50  C   UNL A   1      42.344  31.552  29.763  1.00  0.00     0.031 C 
ATOM     51  C   UNL A   1      38.060  29.061  32.462  1.00  0.00     0.029 A 
ATOM     52  C   UNL A   1      39.041  29.986  32.108  1.00  0.00     0.049 A 
ATOM     53  H   UNL A   1      38.523  31.683  30.964  1.00  0.00     0.167 HD
ATOM     54  C   UNL A   1      41.343  30.802  31.694  1.00  0.00     0.074 A 
ATOM     55  C   UNL A   1      41.182  31.372  30.374  1.00  0.00     0.031 C 
ATOM     56  C   UNL A   1      40.410  30.225  32.506  1.00  0.00     0.037 A 
BRANCH  43  57
ATOM     57  C   UNL A   1      36.431  30.851  28.471  1.00  0.00     0.064 A 
ATOM     58  C   UNL A   1      36.552  32.247  28.524  1.00  0.00     0.173 A 
ATOM     59  C   UNL A   1      35.188  30.306  28.139  1.00  0.00     0.173 A 
ATOM     60  F   UNL A   1      37.730  32.805  28.850  1.00  0.00    -0.203 F 
ATOM     61  C   UNL A   1      35.456  33.072  28.300  1.00  0.00     0.198 A 
ATOM     62  C   UNL A   1      34.091  31.136  27.905  1.00  0.00     0.198 A 
ATOM     63  F   UNL A   1      35.021  28.975  28.092  1.00  0.00    -0.203 F 
ATOM     64  F   UNL A   1      35.590  34.400  28.411  1.00  0.00    -0.200 F 
ATOM     65  C   UNL A   1      34.222  32.516  28.001  1.00  0.00     0.200 A 
ATOM     66  F   UNL A   1      32.895  30.602  27.620  1.00  0.00    -0.200 F 
ATOM     67  F   UNL A   1      33.157  33.309  27.822  1.00  0.00    -0.200 F 
ENDBRANCH  43  57
BRANCH  44  68
ATOM     68  C   UNL A   1      45.469  31.112  29.232  1.00  0.00     0.064 A 
ATOM     69  C   UNL A   1      46.809  31.340  29.619  1.00  0.00     0.173 A 
ATOM     70  C   UNL A   1      45.136  31.503  27.928  1.00  0.00     0.173 A 
ATOM     71  F   UNL A   1      47.187  31.118  30.888  1.00  0.00    -0.203 F 
ATOM     72  C   UNL A   1      47.782  31.759  28.714  1.00  0.00     0.198 A 
ATOM     73  C   UNL A   1      46.117  31.897  27.011  1.00  0.00     0.198 A 
ATOM     74  F   UNL A   1      43.868  31.492  27.500  1.00  0.00    -0.203 F 
ATOM     75  F   UNL A   1      49.055  31.889  29.114  1.00  0.00    -0.200 F 
ATOM     76  C   UNL A   1      47.443  31.996  27.397  1.00  0.00     0.200 A 
ATOM     77  F   UNL A   1      45.775  32.142  25.738  1.00  0.00    -0.200 F 
ATOM     78  F   UNL A   1      48.387  32.314  26.501  1.00  0.00    -0.200 F 
ENDBRANCH  44  68
BRANCH  56  79
ATOM     79  C   UNL A   1      40.927  29.602  33.754  1.00  0.00     0.064 A 
ATOM     80  C   UNL A   1      41.199  28.230  33.797  1.00  0.00     0.173 A 
ATOM     81  C   UNL A   1      41.223  30.371  34.891  1.00  0.00     0.173 A 
ATOM     82  F   UNL A   1      40.942  27.454  32.734  1.00  0.00    -0.203 F 
ATOM     83  C   UNL A   1      41.776  27.655  34.925  1.00  0.00     0.198 A 
ATOM     84  C   UNL A   1      41.829  29.798  36.003  1.00  0.00     0.198 A 
ATOM     85  F   UNL A   1      40.960  31.688  34.917  1.00  0.00    -0.203 F 
ATOM     86  F   UNL A   1      42.042  26.341  34.943  1.00  0.00    -0.200 F 
ATOM     87  C   UNL A   1      42.108  28.441  36.019  1.00  0.00     0.200 A 
ATOM     88  F   UNL A   1      42.168  30.565  37.049  1.00  0.00    -0.200 F 
ATOM     89  F   UNL A   1      42.711  27.894  37.082  1.00  0.00    -0.200 F 
ENDBRANCH  56  79
ENDBRANCH  30  31
ENDBRANCH  22  25
ENDBRANCH  20  21
ENDBRANCH   1  20
TORSDOF 11
ENDMDL
MODEL 2
REMARK VINA RESULT:     -11.8      2.696      7.689
REMARK SMILES Cc1onc2c(=O)n(C)nc(C(=O)NCCCCNC(=O)c3ccc(-c4c5nc(c(-c6c(F)c(F)c(F)c(F)c6F)c6ccc([nH]6)c(-c6c(F)c(F)c(F)c(F)c6F)c6nc(c(-c7c(F)c(F)c(F)c(F)c7F)c7ccc4[nH]7)C=C6)C=C5)cc3)c12
REMARK SMILES IDX 17 1 16 2 15 3 14 4 12 5 13 6 11 8 1 9 2 10 3 11 85 12 4 13
REMARK SMILES IDX 5 14 6 15 10 16 7 17 8 18 9 19 18 20 19 21 20 22 21 24 22 25
REMARK SMILES IDX 23 26 84 27 24 28 83 29 25 30 26 31 27 32 77 33 28 34 82 35
REMARK SMILES IDX 76 36 78 37 29 38 81 39 75 40 74 41 30 43 62 44 42 45 61 46
REMARK SMILES IDX 43 47 46 48 60 49 79 50 44 51 45 52 59 54 80 55 47 56 31 57
REMARK SMILES IDX 32 58 40 59 33 60 34 61 38 62 41 63 35 64 36 65 39 66 37 67
REMARK SMILES IDX 63 68 64 69 72 70 65 71 66 72 70 73 73 74 67 75 68 76 71 77
REMARK SMILES IDX 69 78 48 79 49 80 57 81 50 82 51 83 55 84 58 85 52 86 53 87
REMARK SMILES IDX 56 88 54 89
REMARK H PARENT 14 7 19 23 78 42 46 53
REMARK Flexibility Score: inf
ROOT
ATOM      1  C   UNL A   1      33.947  29.030  26.472  1.00  0.00     0.023 C 
ENDROOT
BRANCH   1   2
ATOM      2  C   UNL A   1      33.327  27.622  26.406  1.00  0.00     0.023 C 
BRANCH   2   3
ATOM      3  C   UNL A   1      31.801  27.581  26.347  1.00  0.00     0.116 C 
BRANCH   3   4
ATOM      4  N   UNL A   1      31.281  26.308  26.816  1.00  0.00    -0.351 N 
ATOM      5  C   UNL A   1      31.566  25.000  26.495  1.00  0.00     0.272 C 
ATOM      6  O   UNL A   1      30.945  24.129  27.098  1.00  0.00    -0.267 OA
ATOM      7  H   UNL A   1      30.582  26.399  27.503  1.00  0.00     0.163 HD
BRANCH   5   8
ATOM      8  C   UNL A   1      32.621  24.588  25.453  1.00  0.00     0.161 A 
ATOM      9  C   UNL A   1      30.267  26.151  23.401  1.00  0.00     0.091 C 
ATOM     10  C   UNL A   1      31.551  25.444  23.224  1.00  0.00     0.144 A 
ATOM     11  O   UNL A   1      31.969  25.351  21.926  1.00  0.00    -0.360 OA
ATOM     12  C   UNL A   1      32.482  24.832  24.033  1.00  0.00     0.083 A 
ATOM     13  N   UNL A   1      33.178  24.685  21.865  1.00  0.00    -0.074 NA
ATOM     14  C   UNL A   1      33.473  24.386  23.133  1.00  0.00     0.183 A 
ATOM     15  C   UNL A   1      34.658  23.692  23.583  1.00  0.00     0.296 A 
ATOM     16  N   UNL A   1      33.695  23.963  25.861  1.00  0.00    -0.164 NA
ATOM     17  O   UNL A   1      35.549  23.283  22.830  1.00  0.00    -0.265 OA
ATOM     18  N   UNL A   1      34.691  23.537  24.978  1.00  0.00    -0.230 N 
ATOM     19  C   UNL A   1      35.833  22.867  25.569  1.00  0.00     0.178 C 
ENDBRANCH   5   8
ENDBRANCH   3   4
ENDBRANCH   2   3
ENDBRANCH   1   2
BRANCH   1  20
ATOM     20  C   UNL A   1      33.228  30.037  27.383  1.00  0.00     0.116 C 
BRANCH  20  21
ATOM     21  N   UNL A   1      33.751  31.376  27.189  1.00  0.00    -0.352 N 
ATOM     22  C   UNL A   1      34.836  32.007  27.724  1.00  0.00     0.251 C 
ATOM     23  H   UNL A   1      33.232  31.926  26.559  1.00  0.00     0.163 HD
ATOM     24  O   UNL A   1      34.882  33.236  27.670  1.00  0.00    -0.269 OA
BRANCH  22  25
ATOM     25  C   UNL A   1      35.967  31.279  28.337  1.00  0.00     0.039 A 
ATOM     26  C   UNL A   1      36.203  31.500  29.700  1.00  0.00     0.014 A 
ATOM     27  C   UNL A   1      36.890  30.553  27.578  1.00  0.00     0.014 A 
ATOM     28  C   UNL A   1      37.348  30.992  30.304  1.00  0.00     0.010 A 
ATOM     29  C   UNL A   1      38.039  30.039  28.188  1.00  0.00     0.010 A 
ATOM     30  C   UNL A   1      38.272  30.254  29.554  1.00  0.00    -0.014 A 
BRANCH  30  31
ATOM     31  C   UNL A   1      39.387  29.641  30.301  1.00  0.00     0.031 A 
ATOM     32  C   UNL A   1      39.649  28.204  29.955  1.00  0.00     0.074 A 
ATOM     33  C   UNL A   1      40.444  30.377  30.698  1.00  0.00     0.049 A 
ATOM     34  N   UNL A   1      40.372  27.802  28.951  1.00  0.00    -0.248 NA
ATOM     35  C   UNL A   1      38.877  27.133  30.589  1.00  0.00     0.031 C 
ATOM     36  C   UNL A   1      41.149  31.360  29.874  1.00  0.00     0.029 A 
ATOM     37  N   UNL A   1      41.220  30.257  31.829  1.00  0.00    -0.354 N 
ATOM     38  C   UNL A   1      40.123  26.448  28.782  1.00  0.00     0.074 A 
ATOM     39  C   UNL A   1      39.189  26.079  29.822  1.00  0.00     0.031 C 
ATOM     40  C   UNL A   1      42.341  31.623  30.446  1.00  0.00     0.029 A 
ATOM     41  C   UNL A   1      42.441  30.914  31.721  1.00  0.00     0.049 A 
ATOM     42  H   UNL A   1      40.940  29.757  32.630  1.00  0.00     0.167 HD
ATOM     43  C   UNL A   1      40.693  25.701  27.800  1.00  0.00     0.037 A 
ATOM     44  C   UNL A   1      43.597  30.454  32.283  1.00  0.00     0.037 A 
ATOM     45  C   UNL A   1      41.640  26.384  26.974  1.00  0.00     0.049 A 
ATOM     46  C   UNL A   1      44.002  29.412  31.263  1.00  0.00     0.074 A 
ATOM     47  C   UNL A   1      41.657  27.004  25.745  1.00  0.00     0.029 A 
ATOM     48  N   UNL A   1      42.910  26.559  27.473  1.00  0.00    -0.354 N 
ATOM     49  N   UNL A   1      44.552  29.644  30.098  1.00  0.00    -0.248 NA
ATOM     50  C   UNL A   1      43.406  28.080  31.396  1.00  0.00     0.031 C 
ATOM     51  C   UNL A   1      42.768  27.904  25.792  1.00  0.00     0.029 A 
ATOM     52  C   UNL A   1      43.331  27.797  27.063  1.00  0.00     0.049 A 
ATOM     53  H   UNL A   1      43.418  25.918  28.020  1.00  0.00     0.167 HD
ATOM     54  C   UNL A   1      44.112  28.605  29.270  1.00  0.00     0.074 A 
ATOM     55  C   UNL A   1      43.455  27.656  30.141  1.00  0.00     0.031 C 
ATOM     56  C   UNL A   1      44.118  28.668  27.906  1.00  0.00     0.037 A 
BRANCH  43  57
ATOM     57  C   UNL A   1      40.532  24.244  27.633  1.00  0.00     0.064 A 
ATOM     58  C   UNL A   1      41.492  23.403  28.213  1.00  0.00     0.173 A 
ATOM     59  C   UNL A   1      39.612  23.684  26.743  1.00  0.00     0.173 A 
ATOM     60  F   UNL A   1      42.399  23.910  29.066  1.00  0.00    -0.203 F 
ATOM     61  C   UNL A   1      41.564  22.056  27.878  1.00  0.00     0.198 A 
ATOM     62  C   UNL A   1      39.679  22.330  26.415  1.00  0.00     0.198 A 
ATOM     63  F   UNL A   1      38.685  24.454  26.152  1.00  0.00    -0.203 F 
ATOM     64  F   UNL A   1      42.527  21.289  28.406  1.00  0.00    -0.200 F 
ATOM     65  C   UNL A   1      40.664  21.522  26.970  1.00  0.00     0.200 A 
ATOM     66  F   UNL A   1      38.813  21.810  25.534  1.00  0.00    -0.200 F 
ATOM     67  F   UNL A   1      40.756  20.232  26.618  1.00  0.00    -0.200 F 
ENDBRANCH  43  57
BRANCH  44  68
ATOM     68  C   UNL A   1      43.522  30.228  33.764  1.00  0.00     0.064 A 
ATOM     69  C   UNL A   1      44.380  30.999  34.581  1.00  0.00     0.173 A 
ATOM     70  C   UNL A   1      42.641  29.373  34.441  1.00  0.00     0.173 A 
ATOM     71  F   UNL A   1      45.343  31.749  34.023  1.00  0.00    -0.203 F 
ATOM     72  C   UNL A   1      44.242  31.044  35.968  1.00  0.00     0.198 A 
ATOM     73  C   UNL A   1      42.484  29.437  35.829  1.00  0.00     0.198 A 
ATOM     74  F   UNL A   1      41.899  28.475  33.782  1.00  0.00    -0.203 F 
ATOM     75  F   UNL A   1      45.032  31.849  36.691  1.00  0.00    -0.200 F 
ATOM     76  C   UNL A   1      43.263  30.294  36.588  1.00  0.00     0.200 A 
ATOM     77  F   UNL A   1      41.542  28.692  36.425  1.00  0.00    -0.200 F 
ATOM     78  F   UNL A   1      43.066  30.398  37.909  1.00  0.00    -0.200 F 
ENDBRANCH  44  68
BRANCH  56  79
ATOM     79  C   UNL A   1      44.779  29.861  27.311  1.00  0.00     0.064 A 
ATOM     80  C   UNL A   1      44.020  30.975  26.937  1.00  0.00     0.173 A 
ATOM     81  C   UNL A   1      46.174  29.933  27.172  1.00  0.00     0.173 A 
ATOM     82  F   UNL A   1      42.684  30.958  27.060  1.00  0.00    -0.203 F 
ATOM     83  C   UNL A   1      44.638  32.133  26.474  1.00  0.00     0.198 A 
ATOM     84  C   UNL A   1      46.790  31.102  26.738  1.00  0.00     0.198 A 
ATOM     85  F   UNL A   1      46.952  28.885  27.490  1.00  0.00    -0.203 F 
ATOM     86  F   UNL A   1      43.896  33.196  26.133  1.00  0.00    -0.200 F 
ATOM     87  C   UNL A   1      46.022  32.202  26.392  1.00  0.00     0.200 A 
ATOM     88  F   UNL A   1      48.127  31.173  26.681  1.00  0.00    -0.200 F 
ATOM     89  F   UNL A   1      46.615  33.335  25.994  1.00  0.00    -0.200 F 
ENDBRANCH  56  79
ENDBRANCH  30  31
ENDBRANCH  22  25
ENDBRANCH  20  21
ENDBRANCH   1  20
TORSDOF 11
ENDMDL
MODEL 3
REMARK VINA RESULT:     -11.7      2.967      7.911
REMARK SMILES Cc1onc2c(=O)n(C)nc(C(=O)NCCCCNC(=O)c3ccc(-c4c5nc(c(-c6c(F)c(F)c(F)c(F)c6F)c6ccc([nH]6)c(-c6c(F)c(F)c(F)c(F)c6F)c6nc(c(-c7c(F)c(F)c(F)c(F)c7F)c7ccc4[nH]7)C=C6)C=C5)cc3)c12
REMARK SMILES IDX 17 1 16 2 15 3 14 4 12 5 13 6 11 8 1 9 2 10 3 11 85 12 4 13
REMARK SMILES IDX 5 14 6 15 10 16 7 17 8 18 9 19 18 20 19 21 20 22 21 24 22 25
REMARK SMILES IDX 23 26 84 27 24 28 83 29 25 30 26 31 27 32 77 33 28 34 82 35
REMARK SMILES IDX 76 36 78 37 29 38 81 39 75 40 74 41 30 43 62 44 42 45 61 46
REMARK SMILES IDX 43 47 46 48 60 49 79 50 44 51 45 52 59 54 80 55 47 56 31 57
REMARK SMILES IDX 32 58 40 59 33 60 34 61 38 62 41 63 35 64 36 65 39 66 37 67
REMARK SMILES IDX 63 68 64 69 72 70 65 71 66 72 70 73 73 74 67 75 68 76 71 77
REMARK SMILES IDX 69 78 48 79 49 80 57 81 50 82 51 83 55 84 58 85 52 86 53 87
REMARK SMILES IDX 56 88 54 89
REMARK H PARENT 14 7 19 23 78 42 46 53
REMARK Flexibility Score: inf
ROOT
ATOM      1  C   UNL A   1      34.104  28.803  26.819  1.00  0.00     0.023 C 
ENDROOT
BRANCH   1   2
ATOM      2  C   UNL A   1      33.216  27.587  26.492  1.00  0.00     0.023 C 
BRANCH   2   3
ATOM      3  C   UNL A   1      31.729  27.891  26.319  1.00  0.00     0.116 C 
BRANCH   3   4
ATOM      4  N   UNL A   1      30.909  26.727  26.611  1.00  0.00    -0.351 N 
ATOM      5  C   UNL A   1      30.763  25.502  26.001  1.00  0.00     0.272 C 
ATOM      6  O   UNL A   1      29.978  24.712  26.517  1.00  0.00    -0.267 OA
ATOM      7  H   UNL A   1      30.341  26.838  27.407  1.00  0.00     0.163 HD
BRANCH   5   8
ATOM      8  C   UNL A   1      31.538  25.079  24.741  1.00  0.00     0.161 A 
ATOM      9  C   UNL A   1      29.719  27.788  23.496  1.00  0.00     0.091 C 
ATOM     10  C   UNL A   1      30.670  26.793  22.963  1.00  0.00     0.144 A 
ATOM     11  O   UNL A   1      30.939  26.927  21.630  1.00  0.00    -0.360 OA
ATOM     12  C   UNL A   1      31.392  25.727  23.454  1.00  0.00     0.083 A 
ATOM     13  N   UNL A   1      31.842  25.960  21.230  1.00  0.00    -0.074 NA
ATOM     14  C   UNL A   1      32.106  25.255  22.333  1.00  0.00     0.183 A 
ATOM     15  C   UNL A   1      33.011  24.133  22.421  1.00  0.00     0.296 A 
ATOM     16  N   UNL A   1      32.361  24.066  24.821  1.00  0.00    -0.164 NA
ATOM     17  O   UNL A   1      33.655  23.685  21.465  1.00  0.00    -0.265 OA
ATOM     18  N   UNL A   1      33.088  23.605  23.720  1.00  0.00    -0.230 N 
ATOM     19  C   UNL A   1      33.972  22.480  23.955  1.00  0.00     0.178 C 
ENDBRANCH   5   8
ENDBRANCH   3   4
ENDBRANCH   2   3
ENDBRANCH   1   2
BRANCH   1  20
ATOM     20  C   UNL A   1      33.403  29.973  27.526  1.00  0.00     0.116 C 
BRANCH  20  21
ATOM     21  N   UNL A   1      34.096  31.221  27.273  1.00  0.00    -0.352 N 
ATOM     22  C   UNL A   1      35.308  31.683  27.697  1.00  0.00     0.251 C 
ATOM     23  H   UNL A   1      33.605  31.846  26.691  1.00  0.00     0.163 HD
ATOM     24  O   UNL A   1      35.528  32.892  27.629  1.00  0.00    -0.269 OA
BRANCH  22  25
ATOM     25  C   UNL A   1      36.373  30.793  28.204  1.00  0.00     0.039 A 
ATOM     26  C   UNL A   1      36.557  30.748  29.592  1.00  0.00     0.014 A 
ATOM     27  C   UNL A   1      37.292  30.167  27.358  1.00  0.00     0.014 A 
ATOM     28  C   UNL A   1      37.648  30.074  30.132  1.00  0.00     0.010 A 
ATOM     29  C   UNL A   1      38.387  29.486  27.903  1.00  0.00     0.010 A 
ATOM     30  C   UNL A   1      38.567  29.435  29.293  1.00  0.00    -0.014 A 
BRANCH  30  31
ATOM     31  C   UNL A   1      39.616  28.634  29.952  1.00  0.00     0.031 A 
ATOM     32  C   UNL A   1      39.807  27.262  29.373  1.00  0.00     0.074 A 
ATOM     33  C   UNL A   1      40.699  29.222  30.498  1.00  0.00     0.049 A 
ATOM     34  N   UNL A   1      40.542  26.990  28.334  1.00  0.00    -0.248 NA
ATOM     35  C   UNL A   1      38.950  26.151  29.792  1.00  0.00     0.031 C 
ATOM     36  C   UNL A   1      41.491  30.284  29.874  1.00  0.00     0.029 A 
ATOM     37  N   UNL A   1      41.425  28.863  31.612  1.00  0.00    -0.354 N 
ATOM     38  C   UNL A   1      40.220  25.704  27.929  1.00  0.00     0.074 A 
ATOM     39  C   UNL A   1      39.228  25.224  28.864  1.00  0.00     0.031 C 
ATOM     40  C   UNL A   1      42.674  30.369  30.514  1.00  0.00     0.029 A 
ATOM     41  C   UNL A   1      42.685  29.449  31.651  1.00  0.00     0.049 A 
ATOM     42  H   UNL A   1      41.086  28.253  32.307  1.00  0.00     0.167 HD
ATOM     43  C   UNL A   1      40.781  25.100  26.848  1.00  0.00     0.037 A 
ATOM     44  C   UNL A   1      43.790  28.827  32.156  1.00  0.00     0.037 A 
ATOM     45  C   UNL A   1      41.797  25.851  26.177  1.00  0.00     0.049 A 
ATOM     46  C   UNL A   1      44.171  27.950  30.983  1.00  0.00     0.074 A 
ATOM     47  C   UNL A   1      41.895  26.668  25.074  1.00  0.00     0.029 A 
ATOM     48  N   UNL A   1      43.055  25.856  26.733  1.00  0.00    -0.354 N 
ATOM     49  N   UNL A   1      44.777  28.340  29.890  1.00  0.00    -0.248 NA
ATOM     50  C   UNL A   1      43.494  26.655  30.869  1.00  0.00     0.031 C 
ATOM     51  C   UNL A   1      43.055  27.473  25.304  1.00  0.00     0.029 A 
ATOM     52  C   UNL A   1      43.563  27.117  26.552  1.00  0.00     0.049 A 
ATOM     53  H   UNL A   1      43.504  25.101  27.175  1.00  0.00     0.167 HD
ATOM     54  C   UNL A   1      44.308  27.487  28.885  1.00  0.00     0.074 A 
ATOM     55  C   UNL A   1      43.564  26.448  29.562  1.00  0.00     0.031 C 
ATOM     56  C   UNL A   1      44.368  27.780  27.553  1.00  0.00     0.037 A 
BRANCH  43  57
ATOM     57  C   UNL A   1      40.541  23.705  26.430  1.00  0.00     0.064 A 
ATOM     58  C   UNL A   1      39.237  23.340  26.064  1.00  0.00     0.173 A 
ATOM     59  C   UNL A   1      41.489  22.692  26.604  1.00  0.00     0.173 A 
ATOM     60  F   UNL A   1      38.299  24.288  25.899  1.00  0.00    -0.203 F 
ATOM     61  C   UNL A   1      38.877  22.005  25.924  1.00  0.00     0.198 A 
ATOM     62  C   UNL A   1      41.128  21.353  26.453  1.00  0.00     0.198 A 
ATOM     63  F   UNL A   1      42.744  22.993  26.969  1.00  0.00    -0.203 F 
ATOM     64  F   UNL A   1      37.611  21.686  25.627  1.00  0.00    -0.200 F 
ATOM     65  C   UNL A   1      39.820  21.011  26.129  1.00  0.00     0.200 A 
ATOM     66  F   UNL A   1      42.035  20.388  26.654  1.00  0.00    -0.200 F 
ATOM     67  F   UNL A   1      39.465  19.722  26.030  1.00  0.00    -0.200 F 
ENDBRANCH  43  57
BRANCH  44  68
ATOM     68  C   UNL A   1      43.647  28.359  33.574  1.00  0.00     0.064 A 
ATOM     69  C   UNL A   1      42.994  29.225  34.480  1.00  0.00     0.173 A 
ATOM     70  C   UNL A   1      44.039  27.117  34.092  1.00  0.00     0.173 A 
ATOM     71  F   UNL A   1      42.698  30.481  34.112  1.00  0.00    -0.203 F 
ATOM     72  C   UNL A   1      42.602  28.810  35.752  1.00  0.00     0.198 A 
ATOM     73  C   UNL A   1      43.623  26.690  35.357  1.00  0.00     0.198 A 
ATOM     74  F   UNL A   1      44.808  26.279  33.386  1.00  0.00    -0.203 F 
ATOM     75  F   UNL A   1      41.919  29.646  36.545  1.00  0.00    -0.200 F 
ATOM     76  C   UNL A   1      42.880  27.526  36.174  1.00  0.00     0.200 A 
ATOM     77  F   UNL A   1      43.912  25.446  35.767  1.00  0.00    -0.200 F 
ATOM     78  F   UNL A   1      42.432  27.091  37.359  1.00  0.00    -0.200 F 
ENDBRANCH  44  68
BRANCH  56  79
ATOM     79  C   UNL A   1      45.119  29.011  27.189  1.00  0.00     0.064 A 
ATOM     80  C   UNL A   1      44.442  30.220  26.996  1.00  0.00     0.173 A 
ATOM     81  C   UNL A   1      46.520  29.016  27.098  1.00  0.00     0.173 A 
ATOM     82  F   UNL A   1      43.104  30.269  27.082  1.00  0.00    -0.203 F 
ATOM     83  C   UNL A   1      45.143  31.397  26.754  1.00  0.00     0.198 A 
ATOM     84  C   UNL A   1      47.219  30.199  26.887  1.00  0.00     0.198 A 
ATOM     85  F   UNL A   1      47.223  27.881  27.248  1.00  0.00    -0.203 F 
ATOM     86  F   UNL A   1      44.478  32.549  26.586  1.00  0.00    -0.200 F 
ATOM     87  C   UNL A   1      46.531  31.390  26.719  1.00  0.00     0.200 A 
ATOM     88  F   UNL A   1      48.559  30.192  26.875  1.00  0.00    -0.200 F 
ATOM     89  F   UNL A   1      47.204  32.533  26.537  1.00  0.00    -0.200 F 
ENDBRANCH  56  79
ENDBRANCH  30  31
ENDBRANCH  22  25
ENDBRANCH  20  21
ENDBRANCH   1  20
TORSDOF 11
ENDMDL
