MODEL 1
REMARK VINA RESULT:     -12.3      0.000      0.000
REMARK SMILES CC[C@H](CNC(=O)[C@H]1CSc2ccccc21)C(=O)NCCCCNC(=O)c1ccc(-c2c3nc(c(-c4c(F)c(F)c(F)c(F)c4F)c4ccc([nH]4)c(-c4c(F)c(F)c(F)c(F)c4F)c4nc(c(-c5c(F)c(F)c(F)c(F)c5F)c5ccc2[nH]5)C=C4)C=C3)cc1
REMARK SMILES IDX 21 1 20 2 19 3 17 4 18 5 3 7 2 8 1 9 4 10 5 11 6 12 7 14
REMARK SMILES IDX 8 15 9 16 16 17 10 18 11 19 15 20 12 21 14 22 13 23 22 24
REMARK SMILES IDX 23 25 24 26 25 27 26 29 27 30 28 31 89 32 29 33 88 34 30 35
REMARK SMILES IDX 31 36 32 37 82 38 33 39 87 40 81 41 83 42 34 43 86 44 80 45
REMARK SMILES IDX 79 46 35 48 67 49 47 50 66 51 48 52 51 53 65 54 84 55 49 56
REMARK SMILES IDX 50 57 64 59 85 60 52 61 36 62 37 63 45 64 38 65 39 66 43 67
REMARK SMILES IDX 46 68 40 69 41 70 44 71 42 72 68 73 69 74 77 75 70 76 71 77
REMARK SMILES IDX 75 78 78 79 72 80 73 81 76 82 74 83 53 84 54 85 62 86 55 87
REMARK SMILES IDX 56 88 60 89 63 90 57 91 58 92 61 93 59 94
REMARK H PARENT 19 6 5 13 24 28 83 47 51 58
REMARK Flexibility Score: inf
ROOT
ATOM      1  C   UNL A   1      31.795  30.520  26.869  1.00  0.00     0.023 C 
ENDROOT
BRANCH   1   2
ATOM      2  C   UNL A   1      32.513  29.844  25.704  1.00  0.00     0.116 C 
BRANCH   2   3
ATOM      3  N   UNL A   1      31.651  29.635  24.560  1.00  0.00    -0.356 N 
ATOM      4  C   UNL A   1      31.175  28.489  24.004  1.00  0.00     0.224 C 
ATOM      5  O   UNL A   1      30.332  28.609  23.111  1.00  0.00    -0.275 OA
ATOM      6  H   UNL A   1      31.361  30.460  24.110  1.00  0.00     0.163 HD
BRANCH   4   7
ATOM      7  C   UNL A   1      31.644  27.101  24.430  1.00  0.00     0.097 C 
BRANCH   7   8
ATOM      8  C   UNL A   1      32.994  26.704  23.772  1.00  0.00     0.012 C 
ATOM      9  C   UNL A   1      32.960  26.279  22.305  1.00  0.00     0.005 C 
ENDBRANCH   7   8
BRANCH   7  10
ATOM     10  C   UNL A   1      30.538  26.044  24.349  1.00  0.00     0.129 C 
BRANCH  10  11
ATOM     11  N   UNL A   1      30.319  25.252  25.551  1.00  0.00    -0.355 N 
ATOM     12  C   UNL A   1      30.911  24.134  26.069  1.00  0.00     0.228 C 
ATOM     13  H   UNL A   1      29.588  25.597  26.112  1.00  0.00     0.163 HD
ATOM     14  O   UNL A   1      30.624  23.908  27.250  1.00  0.00    -0.274 OA
BRANCH  12  15
ATOM     15  C   UNL A   1      31.724  23.134  25.224  1.00  0.00     0.120 C 
ATOM     16  C   UNL A   1      31.218  22.941  23.788  1.00  0.00     0.093 C 
ATOM     17  C   UNL A   1      33.219  23.417  25.062  1.00  0.00    -0.021 A 
ATOM     18  S   UNL A   1      32.552  22.298  22.756  1.00  0.00    -0.125 SA
ATOM     19  C   UNL A   1      33.756  22.980  23.841  1.00  0.00     0.011 A 
ATOM     20  C   UNL A   1      34.089  23.936  26.018  1.00  0.00     0.006 A 
ATOM     21  C   UNL A   1      35.107  23.081  23.542  1.00  0.00     0.015 A 
ATOM     22  C   UNL A   1      35.453  24.064  25.719  1.00  0.00     0.000 A 
ATOM     23  C   UNL A   1      35.959  23.639  24.487  1.00  0.00     0.001 A 
ENDBRANCH  12  15
ENDBRANCH  10  11
ENDBRANCH   7  10
ENDBRANCH   4   7
ENDBRANCH   2   3
ENDBRANCH   1   2
BRANCH   1  24
ATOM     24  C   UNL A   1      31.667  32.033  26.765  1.00  0.00     0.023 C 
BRANCH  24  25
ATOM     25  C   UNL A   1      32.815  32.789  27.412  1.00  0.00     0.116 C 
BRANCH  25  26
ATOM     26  N   UNL A   1      32.498  34.192  27.655  1.00  0.00    -0.352 N 
ATOM     27  C   UNL A   1      33.031  35.067  28.572  1.00  0.00     0.251 C 
ATOM     28  H   UNL A   1      31.796  34.569  27.076  1.00  0.00     0.163 HD
ATOM     29  O   UNL A   1      32.528  36.172  28.750  1.00  0.00    -0.269 OA
BRANCH  27  30
ATOM     30  C   UNL A   1      34.197  34.646  29.373  1.00  0.00     0.039 A 
ATOM     31  C   UNL A   1      35.474  34.704  28.818  1.00  0.00     0.014 A 
ATOM     32  C   UNL A   1      34.004  34.114  30.649  1.00  0.00     0.014 A 
ATOM     33  C   UNL A   1      36.512  34.020  29.430  1.00  0.00     0.010 A 
ATOM     34  C   UNL A   1      35.084  33.535  31.323  1.00  0.00     0.010 A 
ATOM     35  C   UNL A   1      36.333  33.429  30.692  1.00  0.00    -0.014 A 
BRANCH  35  36
ATOM     36  C   UNL A   1      37.464  32.695  31.316  1.00  0.00     0.031 A 
ATOM     37  C   UNL A   1      37.898  33.002  32.726  1.00  0.00     0.074 A 
ATOM     38  C   UNL A   1      38.045  31.687  30.636  1.00  0.00     0.049 A 
ATOM     39  N   UNL A   1      38.901  32.505  33.405  1.00  0.00    -0.248 NA
ATOM     40  C   UNL A   1      37.107  33.994  33.473  1.00  0.00     0.031 C 
ATOM     41  C   UNL A   1      37.677  31.260  29.285  1.00  0.00     0.029 A 
ATOM     42  N   UNL A   1      39.038  30.814  30.997  1.00  0.00    -0.354 N 
ATOM     43  C   UNL A   1      38.880  33.141  34.640  1.00  0.00     0.074 A 
ATOM     44  C   UNL A   1      37.773  34.072  34.617  1.00  0.00     0.031 C 
ATOM     45  C   UNL A   1      38.373  30.161  28.964  1.00  0.00     0.029 A 
ATOM     46  C   UNL A   1      39.307  29.865  30.042  1.00  0.00     0.049 A 
ATOM     47  H   UNL A   1      39.514  30.863  31.858  1.00  0.00     0.167 HD
ATOM     48  C   UNL A   1      39.710  32.959  35.696  1.00  0.00     0.037 A 
ATOM     49  C   UNL A   1      40.223  28.880  30.023  1.00  0.00     0.037 A 
ATOM     50  C   UNL A   1      40.793  32.011  35.722  1.00  0.00     0.049 A 
ATOM     51  C   UNL A   1      41.160  28.740  31.185  1.00  0.00     0.074 A 
ATOM     52  C   UNL A   1      41.723  31.786  36.723  1.00  0.00     0.029 A 
ATOM     53  N   UNL A   1      41.077  31.111  34.705  1.00  0.00    -0.354 N 
ATOM     54  N   UNL A   1      41.188  29.412  32.309  1.00  0.00    -0.248 NA
ATOM     55  C   UNL A   1      42.209  27.720  31.065  1.00  0.00     0.031 C 
ATOM     56  C   UNL A   1      42.581  30.764  36.304  1.00  0.00     0.029 A 
ATOM     57  C   UNL A   1      42.162  30.327  35.058  1.00  0.00     0.049 A 
ATOM     58  H   UNL A   1      40.579  31.040  33.859  1.00  0.00     0.167 HD
ATOM     59  C   UNL A   1      42.250  28.894  33.035  1.00  0.00     0.074 A 
ATOM     60  C   UNL A   1      42.825  27.833  32.234  1.00  0.00     0.031 C 
ATOM     61  C   UNL A   1      42.713  29.271  34.251  1.00  0.00     0.037 A 
BRANCH  48  62
ATOM     62  C   UNL A   1      39.494  33.805  36.916  1.00  0.00     0.064 A 
ATOM     63  C   UNL A   1      39.976  35.119  36.993  1.00  0.00     0.173 A 
ATOM     64  C   UNL A   1      38.721  33.326  37.986  1.00  0.00     0.173 A 
ATOM     65  F   UNL A   1      40.731  35.619  36.004  1.00  0.00    -0.203 F 
ATOM     66  C   UNL A   1      39.697  35.922  38.097  1.00  0.00     0.198 A 
ATOM     67  C   UNL A   1      38.424  34.137  39.078  1.00  0.00     0.198 A 
ATOM     68  F   UNL A   1      38.232  32.076  37.960  1.00  0.00    -0.203 F 
ATOM     69  F   UNL A   1      40.185  37.168  38.159  1.00  0.00    -0.200 F 
ATOM     70  C   UNL A   1      38.912  35.434  39.133  1.00  0.00     0.200 A 
ATOM     71  F   UNL A   1      37.656  33.669  40.071  1.00  0.00    -0.200 F 
ATOM     72  F   UNL A   1      38.627  36.215  40.184  1.00  0.00    -0.200 F 
ENDBRANCH  48  62
BRANCH  49  73
ATOM     73  C   UNL A   1      40.304  27.967  28.854  1.00  0.00     0.064 A 
ATOM     74  C   UNL A   1      39.615  26.747  28.849  1.00  0.00     0.173 A 
ATOM     75  C   UNL A   1      41.052  28.302  27.716  1.00  0.00     0.173 A 
ATOM     76  F   UNL A   1      38.904  26.375  29.924  1.00  0.00    -0.203 F 
ATOM     77  C   UNL A   1      39.677  25.892  27.751  1.00  0.00     0.198 A 
ATOM     78  C   UNL A   1      41.087  27.461  26.606  1.00  0.00     0.198 A 
ATOM     79  F   UNL A   1      41.726  29.459  27.671  1.00  0.00    -0.203 F 
ATOM     80  F   UNL A   1      39.037  24.715  27.785  1.00  0.00    -0.200 F 
ATOM     81  C   UNL A   1      40.405  26.254  26.627  1.00  0.00     0.200 A 
ATOM     82  F   UNL A   1      41.778  27.822  25.517  1.00  0.00    -0.200 F 
ATOM     83  F   UNL A   1      40.453  25.437  25.566  1.00  0.00    -0.200 F 
ENDBRANCH  49  73
BRANCH  61  84
ATOM     84  C   UNL A   1      43.880  28.507  34.798  1.00  0.00     0.064 A 
ATOM     85  C   UNL A   1      45.198  28.935  34.587  1.00  0.00     0.173 A 
ATOM     86  C   UNL A   1      43.674  27.350  35.562  1.00  0.00     0.173 A 
ATOM     87  F   UNL A   1      45.443  30.027  33.848  1.00  0.00    -0.203 F 
ATOM     88  C   UNL A   1      46.271  28.214  35.102  1.00  0.00     0.198 A 
ATOM     89  C   UNL A   1      44.748  26.646  36.096  1.00  0.00     0.198 A 
ATOM     90  F   UNL A   1      42.429  26.905  35.794  1.00  0.00    -0.203 F 
ATOM     91  F   UNL A   1      47.526  28.614  34.850  1.00  0.00    -0.200 F 
ATOM     92  C   UNL A   1      46.046  27.075  35.860  1.00  0.00     0.200 A 
ATOM     93  F   UNL A   1      44.530  25.550  36.836  1.00  0.00    -0.200 F 
ATOM     94  F   UNL A   1      47.082  26.383  36.355  1.00  0.00    -0.200 F 
ENDBRANCH  61  84
ENDBRANCH  35  36
ENDBRANCH  27  30
ENDBRANCH  25  26
ENDBRANCH  24  25
ENDBRANCH   1  24
TORSDOF 15
ENDMDL
MODEL 2
REMARK VINA RESULT:     -12.3      1.752      7.613
REMARK SMILES CC[C@H](CNC(=O)[C@H]1CSc2ccccc21)C(=O)NCCCCNC(=O)c1ccc(-c2c3nc(c(-c4c(F)c(F)c(F)c(F)c4F)c4ccc([nH]4)c(-c4c(F)c(F)c(F)c(F)c4F)c4nc(c(-c5c(F)c(F)c(F)c(F)c5F)c5ccc2[nH]5)C=C4)C=C3)cc1
REMARK SMILES IDX 21 1 20 2 19 3 17 4 18 5 3 7 2 8 1 9 4 10 5 11 6 12 7 14
REMARK SMILES IDX 8 15 9 16 16 17 10 18 11 19 15 20 12 21 14 22 13 23 22 24
REMARK SMILES IDX 23 25 24 26 25 27 26 29 27 30 28 31 89 32 29 33 88 34 30 35
REMARK SMILES IDX 31 36 32 37 82 38 33 39 87 40 81 41 83 42 34 43 86 44 80 45
REMARK SMILES IDX 79 46 35 48 67 49 47 50 66 51 48 52 51 53 65 54 84 55 49 56
REMARK SMILES IDX 50 57 64 59 85 60 52 61 36 62 37 63 45 64 38 65 39 66 43 67
REMARK SMILES IDX 46 68 40 69 41 70 44 71 42 72 68 73 69 74 77 75 70 76 71 77
REMARK SMILES IDX 75 78 78 79 72 80 73 81 76 82 74 83 53 84 54 85 62 86 55 87
REMARK SMILES IDX 56 88 60 89 63 90 57 91 58 92 61 93 59 94
REMARK H PARENT 19 6 5 13 24 28 83 47 51 58
REMARK Flexibility Score: inf
ROOT
ATOM      1  C   UNL A   1      31.752  27.565  26.565  1.00  0.00     0.023 C 
ENDROOT
BRANCH   1   2
ATOM      2  C   UNL A   1      32.587  27.291  25.318  1.00  0.00     0.116 C 
BRANCH   2   3
ATOM      3  N   UNL A   1      31.826  27.420  24.093  1.00  0.00    -0.356 N 
ATOM      4  C   UNL A   1      31.437  26.485  23.186  1.00  0.00     0.224 C 
ATOM      5  O   UNL A   1      30.663  26.855  22.299  1.00  0.00    -0.275 OA
ATOM      6  H   UNL A   1      31.542  28.338  23.882  1.00  0.00     0.163 HD
BRANCH   4   7
ATOM      7  C   UNL A   1      31.921  25.038  23.224  1.00  0.00     0.097 C 
BRANCH   7   8
ATOM      8  C   UNL A   1      32.709  24.644  21.945  1.00  0.00     0.012 C 
ATOM      9  C   UNL A   1      33.278  23.228  21.881  1.00  0.00     0.005 C 
ENDBRANCH   7   8
BRANCH   7  10
ATOM     10  C   UNL A   1      30.831  24.052  23.653  1.00  0.00     0.129 C 
BRANCH  10  11
ATOM     11  N   UNL A   1      30.500  24.037  25.070  1.00  0.00    -0.355 N 
ATOM     12  C   UNL A   1      31.137  23.569  26.186  1.00  0.00     0.228 C 
ATOM     13  H   UNL A   1      29.632  24.456  25.268  1.00  0.00     0.163 HD
ATOM     14  O   UNL A   1      30.662  23.979  27.251  1.00  0.00    -0.274 OA
BRANCH  12  15
ATOM     15  C   UNL A   1      32.235  22.488  26.146  1.00  0.00     0.120 C 
ATOM     16  C   UNL A   1      31.891  21.249  25.309  1.00  0.00     0.093 C 
ATOM     17  C   UNL A   1      33.613  22.917  25.639  1.00  0.00    -0.021 A 
ATOM     18  S   UNL A   1      33.411  20.405  24.823  1.00  0.00    -0.125 SA
ATOM     19  C   UNL A   1      34.324  21.900  24.983  1.00  0.00     0.011 A 
ATOM     20  C   UNL A   1      34.254  24.134  25.860  1.00  0.00     0.006 A 
ATOM     21  C   UNL A   1      35.620  22.076  24.519  1.00  0.00     0.015 A 
ATOM     22  C   UNL A   1      35.555  24.331  25.376  1.00  0.00     0.000 A 
ATOM     23  C   UNL A   1      36.234  23.308  24.708  1.00  0.00     0.001 A 
ENDBRANCH  12  15
ENDBRANCH  10  11
ENDBRANCH   7  10
ENDBRANCH   4   7
ENDBRANCH   2   3
ENDBRANCH   1   2
BRANCH   1  24
ATOM     24  C   UNL A   1      31.728  29.015  27.027  1.00  0.00     0.023 C 
BRANCH  24  25
ATOM     25  C   UNL A   1      32.713  29.907  26.290  1.00  0.00     0.116 C 
BRANCH  25  26
ATOM     26  N   UNL A   1      32.561  31.316  26.635  1.00  0.00    -0.352 N 
ATOM     27  C   UNL A   1      33.363  32.123  27.409  1.00  0.00     0.251 C 
ATOM     28  H   UNL A   1      31.766  31.756  26.258  1.00  0.00     0.163 HD
ATOM     29  O   UNL A   1      32.996  33.248  27.730  1.00  0.00    -0.269 OA
BRANCH  27  30
ATOM     30  C   UNL A   1      34.661  31.602  27.883  1.00  0.00     0.039 A 
ATOM     31  C   UNL A   1      34.791  30.250  28.194  1.00  0.00     0.014 A 
ATOM     32  C   UNL A   1      35.723  32.482  28.097  1.00  0.00     0.014 A 
ATOM     33  C   UNL A   1      35.884  29.826  28.932  1.00  0.00     0.010 A 
ATOM     34  C   UNL A   1      36.881  32.022  28.731  1.00  0.00     0.010 A 
ATOM     35  C   UNL A   1      36.945  30.703  29.209  1.00  0.00    -0.014 A 
BRANCH  35  36
ATOM     36  C   UNL A   1      38.098  30.219  30.012  1.00  0.00     0.031 A 
ATOM     37  C   UNL A   1      39.152  29.339  29.393  1.00  0.00     0.074 A 
ATOM     38  C   UNL A   1      38.236  30.647  31.282  1.00  0.00     0.049 A 
ATOM     39  N   UNL A   1      40.190  28.775  29.960  1.00  0.00    -0.248 NA
ATOM     40  C   UNL A   1      39.031  29.052  27.955  1.00  0.00     0.031 C 
ATOM     41  C   UNL A   1      37.308  31.544  31.975  1.00  0.00     0.029 A 
ATOM     42  N   UNL A   1      39.224  30.420  32.204  1.00  0.00    -0.354 N 
ATOM     43  C   UNL A   1      40.824  28.048  28.960  1.00  0.00     0.074 A 
ATOM     44  C   UNL A   1      40.050  28.228  27.751  1.00  0.00     0.031 C 
ATOM     45  C   UNL A   1      37.811  31.856  33.177  1.00  0.00     0.029 A 
ATOM     46  C   UNL A   1      39.043  31.103  33.381  1.00  0.00     0.049 A 
ATOM     47  H   UNL A   1      39.992  29.825  32.039  1.00  0.00     0.167 HD
ATOM     48  C   UNL A   1      41.951  27.301  29.047  1.00  0.00     0.037 A 
ATOM     49  C   UNL A   1      39.771  31.106  34.512  1.00  0.00     0.037 A 
ATOM     50  C   UNL A   1      42.731  27.148  30.248  1.00  0.00     0.049 A 
ATOM     51  C   UNL A   1      40.984  30.228  34.593  1.00  0.00     0.074 A 
ATOM     52  C   UNL A   1      43.860  26.373  30.453  1.00  0.00     0.029 A 
ATOM     53  N   UNL A   1      42.476  27.805  31.443  1.00  0.00    -0.354 N 
ATOM     54  N   UNL A   1      41.519  29.470  33.668  1.00  0.00    -0.248 NA
ATOM     55  C   UNL A   1      41.680  30.184  35.885  1.00  0.00     0.031 C 
ATOM     56  C   UNL A   1      44.276  26.545  31.778  1.00  0.00     0.029 A 
ATOM     57  C   UNL A   1      43.429  27.457  32.386  1.00  0.00     0.049 A 
ATOM     58  H   UNL A   1      41.729  28.427  31.596  1.00  0.00     0.167 HD
ATOM     59  C   UNL A   1      42.618  28.867  34.259  1.00  0.00     0.074 A 
ATOM     60  C   UNL A   1      42.688  29.366  35.617  1.00  0.00     0.031 C 
ATOM     61  C   UNL A   1      43.485  27.972  33.728  1.00  0.00     0.037 A 
BRANCH  48  62
ATOM     62  C   UNL A   1      42.415  26.578  27.817  1.00  0.00     0.064 A 
ATOM     63  C   UNL A   1      43.354  27.143  26.944  1.00  0.00     0.173 A 
ATOM     64  C   UNL A   1      41.979  25.269  27.554  1.00  0.00     0.173 A 
ATOM     65  F   UNL A   1      43.791  28.396  27.143  1.00  0.00    -0.203 F 
ATOM     66  C   UNL A   1      43.839  26.428  25.852  1.00  0.00     0.198 A 
ATOM     67  C   UNL A   1      42.482  24.548  26.475  1.00  0.00     0.198 A 
ATOM     68  F   UNL A   1      41.083  24.680  28.362  1.00  0.00    -0.203 F 
ATOM     69  F   UNL A   1      44.723  26.995  25.019  1.00  0.00    -0.200 F 
ATOM     70  C   UNL A   1      43.411  25.127  25.624  1.00  0.00     0.200 A 
ATOM     71  F   UNL A   1      42.077  23.288  26.264  1.00  0.00    -0.200 F 
ATOM     72  F   UNL A   1      43.895  24.433  24.585  1.00  0.00    -0.200 F 
ENDBRANCH  48  62
BRANCH  49  73
ATOM     73  C   UNL A   1      39.357  31.954  35.658  1.00  0.00     0.064 A 
ATOM     74  C   UNL A   1      39.891  33.239  35.828  1.00  0.00     0.173 A 
ATOM     75  C   UNL A   1      38.410  31.510  36.592  1.00  0.00     0.173 A 
ATOM     76  F   UNL A   1      40.816  33.698  34.972  1.00  0.00    -0.203 F 
ATOM     77  C   UNL A   1      39.497  34.044  36.894  1.00  0.00     0.198 A 
ATOM     78  C   UNL A   1      37.994  32.329  37.639  1.00  0.00     0.198 A 
ATOM     79  F   UNL A   1      37.868  30.290  36.471  1.00  0.00    -0.203 F 
ATOM     80  F   UNL A   1      40.048  35.256  37.054  1.00  0.00    -0.200 F 
ATOM     81  C   UNL A   1      38.542  33.593  37.793  1.00  0.00     0.200 A 
ATOM     82  F   UNL A   1      37.059  31.894  38.495  1.00  0.00    -0.200 F 
ATOM     83  F   UNL A   1      38.154  34.373  38.810  1.00  0.00    -0.200 F 
ENDBRANCH  49  73
BRANCH  61  84
ATOM     84  C   UNL A   1      44.600  27.501  34.612  1.00  0.00     0.064 A 
ATOM     85  C   UNL A   1      45.816  28.195  34.688  1.00  0.00     0.173 A 
ATOM     86  C   UNL A   1      44.438  26.360  35.409  1.00  0.00     0.173 A 
ATOM     87  F   UNL A   1      46.020  29.284  33.930  1.00  0.00    -0.203 F 
ATOM     88  C   UNL A   1      46.841  27.746  35.513  1.00  0.00     0.198 A 
ATOM     89  C   UNL A   1      45.457  25.928  36.252  1.00  0.00     0.198 A 
ATOM     90  F   UNL A   1      43.290  25.666  35.373  1.00  0.00    -0.203 F 
ATOM     91  F   UNL A   1      48.013  28.397  35.537  1.00  0.00    -0.200 F 
ATOM     92  C   UNL A   1      46.660  26.617  36.298  1.00  0.00     0.200 A 
ATOM     93  F   UNL A   1      45.278  24.842  37.017  1.00  0.00    -0.200 F 
ATOM     94  F   UNL A   1      47.649  26.187  37.094  1.00  0.00    -0.200 F 
ENDBRANCH  61  84
ENDBRANCH  35  36
ENDBRANCH  27  30
ENDBRANCH  25  26
ENDBRANCH  24  25
ENDBRANCH   1  24
TORSDOF 15
ENDMDL
MODEL 3
REMARK VINA RESULT:     -12.2      5.591     11.064
REMARK SMILES CC[C@H](CNC(=O)[C@H]1CSc2ccccc21)C(=O)NCCCCNC(=O)c1ccc(-c2c3nc(c(-c4c(F)c(F)c(F)c(F)c4F)c4ccc([nH]4)c(-c4c(F)c(F)c(F)c(F)c4F)c4nc(c(-c5c(F)c(F)c(F)c(F)c5F)c5ccc2[nH]5)C=C4)C=C3)cc1
REMARK SMILES IDX 21 1 20 2 19 3 17 4 18 5 3 7 2 8 1 9 4 10 5 11 6 12 7 14
REMARK SMILES IDX 8 15 9 16 16 17 10 18 11 19 15 20 12 21 14 22 13 23 22 24
REMARK SMILES IDX 23 25 24 26 25 27 26 29 27 30 28 31 89 32 29 33 88 34 30 35
REMARK SMILES IDX 31 36 32 37 82 38 33 39 87 40 81 41 83 42 34 43 86 44 80 45
REMARK SMILES IDX 79 46 35 48 67 49 47 50 66 51 48 52 51 53 65 54 84 55 49 56
REMARK SMILES IDX 50 57 64 59 85 60 52 61 36 62 37 63 45 64 38 65 39 66 43 67
REMARK SMILES IDX 46 68 40 69 41 70 44 71 42 72 68 73 69 74 77 75 70 76 71 77
REMARK SMILES IDX 75 78 78 79 72 80 73 81 76 82 74 83 53 84 54 85 62 86 55 87
REMARK SMILES IDX 56 88 60 89 63 90 57 91 58 92 61 93 59 94
REMARK H PARENT 19 6 5 13 24 28 83 47 51 58
REMARK Flexibility Score: inf
ROOT
ATOM      1  C   UNL A   1      36.836  21.079  25.287  1.00  0.00     0.023 C 
ENDROOT
BRANCH   1   2
ATOM      2  C   UNL A   1      35.414  20.584  25.034  1.00  0.00     0.116 C 
BRANCH   2   3
ATOM      3  N   UNL A   1      34.501  20.931  26.104  1.00  0.00    -0.356 N 
ATOM      4  C   UNL A   1      33.566  21.914  26.190  1.00  0.00     0.224 C 
ATOM      5  O   UNL A   1      32.819  21.890  27.172  1.00  0.00    -0.275 OA
ATOM      6  H   UNL A   1      34.568  20.358  26.901  1.00  0.00     0.163 HD
BRANCH   4   7
ATOM      7  C   UNL A   1      33.424  23.019  25.148  1.00  0.00     0.097 C 
BRANCH   7   8
ATOM      8  C   UNL A   1      34.205  24.304  25.536  1.00  0.00     0.012 C 
ATOM      9  C   UNL A   1      34.325  25.398  24.476  1.00  0.00     0.005 C 
ENDBRANCH   7   8
BRANCH   7  10
ATOM     10  C   UNL A   1      31.974  23.242  24.704  1.00  0.00     0.129 C 
BRANCH  10  11
ATOM     11  N   UNL A   1      31.102  23.900  25.665  1.00  0.00    -0.355 N 
ATOM     12  C   UNL A   1      30.469  25.111  25.694  1.00  0.00     0.228 C 
ATOM     13  H   UNL A   1      30.931  23.355  26.467  1.00  0.00     0.163 HD
ATOM     14  O   UNL A   1      29.596  25.207  26.564  1.00  0.00    -0.274 OA
BRANCH  12  15
ATOM     15  C   UNL A   1      30.910  26.321  24.846  1.00  0.00     0.120 C 
ATOM     16  C   UNL A   1      29.827  26.886  23.917  1.00  0.00     0.093 C 
ATOM     17  C   UNL A   1      31.436  27.543  25.601  1.00  0.00    -0.021 A 
ATOM     18  S   UNL A   1      30.224  28.595  23.494  1.00  0.00    -0.125 SA
ATOM     19  C   UNL A   1      31.177  28.766  24.962  1.00  0.00     0.011 A 
ATOM     20  C   UNL A   1      32.220  27.552  26.752  1.00  0.00     0.006 A 
ATOM     21  C   UNL A   1      31.641  29.977  25.455  1.00  0.00     0.015 A 
ATOM     22  C   UNL A   1      32.676  28.772  27.272  1.00  0.00     0.000 A 
ATOM     23  C   UNL A   1      32.386  29.978  26.628  1.00  0.00     0.001 A 
ENDBRANCH  12  15
ENDBRANCH  10  11
ENDBRANCH   7  10
ENDBRANCH   4   7
ENDBRANCH   2   3
ENDBRANCH   1   2
BRANCH   1  24
ATOM     24  C   UNL A   1      37.935  20.056  25.038  1.00  0.00     0.023 C 
BRANCH  24  25
ATOM     25  C   UNL A   1      39.248  20.392  25.725  1.00  0.00     0.116 C 
BRANCH  25  26
ATOM     26  N   UNL A   1      40.134  19.239  25.836  1.00  0.00    -0.352 N 
ATOM     27  C   UNL A   1      41.492  19.191  26.054  1.00  0.00     0.251 C 
ATOM     28  H   UNL A   1      39.696  18.362  25.741  1.00  0.00     0.163 HD
ATOM     29  O   UNL A   1      42.105  18.134  25.955  1.00  0.00    -0.269 OA
BRANCH  27  30
ATOM     30  C   UNL A   1      42.212  20.440  26.372  1.00  0.00     0.039 A 
ATOM     31  C   UNL A   1      42.278  20.884  27.690  1.00  0.00     0.014 A 
ATOM     32  C   UNL A   1      42.749  21.211  25.338  1.00  0.00     0.014 A 
ATOM     33  C   UNL A   1      42.660  22.190  27.949  1.00  0.00     0.010 A 
ATOM     34  C   UNL A   1      43.252  22.484  25.621  1.00  0.00     0.010 A 
ATOM     35  C   UNL A   1      43.155  23.008  26.919  1.00  0.00    -0.014 A 
BRANCH  35  36
ATOM     36  C   UNL A   1      43.547  24.407  27.228  1.00  0.00     0.031 A 
ATOM     37  C   UNL A   1      44.935  24.906  26.918  1.00  0.00     0.074 A 
ATOM     38  C   UNL A   1      42.619  25.255  27.713  1.00  0.00     0.049 A 
ATOM     39  N   UNL A   1      45.467  26.075  27.176  1.00  0.00    -0.248 NA
ATOM     40  C   UNL A   1      45.845  23.977  26.229  1.00  0.00     0.031 C 
ATOM     41  C   UNL A   1      41.228  24.904  28.005  1.00  0.00     0.029 A 
ATOM     42  N   UNL A   1      42.689  26.591  28.010  1.00  0.00    -0.354 N 
ATOM     43  C   UNL A   1      46.774  26.010  26.711  1.00  0.00     0.074 A 
ATOM     44  C   UNL A   1      46.965  24.685  26.165  1.00  0.00     0.031 C 
ATOM     45  C   UNL A   1      40.558  26.009  28.358  1.00  0.00     0.029 A 
ATOM     46  C   UNL A   1      41.492  27.126  28.416  1.00  0.00     0.049 A 
ATOM     47  H   UNL A   1      43.519  27.118  27.938  1.00  0.00     0.167 HD
ATOM     48  C   UNL A   1      47.725  26.975  26.737  1.00  0.00     0.037 A 
ATOM     49  C   UNL A   1      41.183  28.372  28.818  1.00  0.00     0.037 A 
ATOM     50  C   UNL A   1      47.520  28.302  27.257  1.00  0.00     0.049 A 
ATOM     51  C   UNL A   1      42.271  29.402  28.884  1.00  0.00     0.074 A 
ATOM     52  C   UNL A   1      48.434  29.336  27.376  1.00  0.00     0.029 A 
ATOM     53  N   UNL A   1      46.308  28.787  27.724  1.00  0.00    -0.354 N 
ATOM     54  N   UNL A   1      43.527  29.300  28.529  1.00  0.00    -0.248 NA
ATOM     55  C   UNL A   1      41.903  30.713  29.432  1.00  0.00     0.031 C 
ATOM     56  C   UNL A   1      47.779  30.439  27.933  1.00  0.00     0.029 A 
ATOM     57  C   UNL A   1      46.449  30.105  28.126  1.00  0.00     0.049 A 
ATOM     58  H   UNL A   1      45.471  28.270  27.763  1.00  0.00     0.167 HD
ATOM     59  C   UNL A   1      44.100  30.533  28.801  1.00  0.00     0.074 A 
ATOM     60  C   UNL A   1      43.047  31.376  29.328  1.00  0.00     0.031 C 
ATOM     61  C   UNL A   1      45.386  30.928  28.639  1.00  0.00     0.037 A 
BRANCH  48  62
ATOM     62  C   UNL A   1      49.085  26.640  26.196  1.00  0.00     0.064 A 
ATOM     63  C   UNL A   1      49.451  26.961  24.883  1.00  0.00     0.173 A 
ATOM     64  C   UNL A   1      50.060  26.069  27.030  1.00  0.00     0.173 A 
ATOM     65  F   UNL A   1      48.551  27.494  24.043  1.00  0.00    -0.203 F 
ATOM     66  C   UNL A   1      50.743  26.720  24.420  1.00  0.00     0.198 A 
ATOM     67  C   UNL A   1      51.357  25.851  26.572  1.00  0.00     0.198 A 
ATOM     68  F   UNL A   1      49.762  25.748  28.298  1.00  0.00    -0.203 F 
ATOM     69  F   UNL A   1      51.066  27.016  23.153  1.00  0.00    -0.200 F 
ATOM     70  C   UNL A   1      51.698  26.176  25.268  1.00  0.00     0.200 A 
ATOM     71  F   UNL A   1      52.280  25.337  27.396  1.00  0.00    -0.200 F 
ATOM     72  F   UNL A   1      52.945  25.965  24.827  1.00  0.00    -0.200 F 
ENDBRANCH  48  62
BRANCH  49  73
ATOM     73  C   UNL A   1      39.787  28.701  29.203  1.00  0.00     0.064 A 
ATOM     74  C   UNL A   1      38.885  29.214  28.261  1.00  0.00     0.173 A 
ATOM     75  C   UNL A   1      39.321  28.493  30.510  1.00  0.00     0.173 A 
ATOM     76  F   UNL A   1      39.292  29.450  27.005  1.00  0.00    -0.203 F 
ATOM     77  C   UNL A   1      37.572  29.513  28.613  1.00  0.00     0.198 A 
ATOM     78  C   UNL A   1      37.998  28.762  30.853  1.00  0.00     0.198 A 
ATOM     79  F   UNL A   1      40.144  28.001  31.446  1.00  0.00    -0.203 F 
ATOM     80  F   UNL A   1      36.738  30.035  27.703  1.00  0.00    -0.200 F 
ATOM     81  C   UNL A   1      37.126  29.277  29.906  1.00  0.00     0.200 A 
ATOM     82  F   UNL A   1      37.569  28.517  32.098  1.00  0.00    -0.200 F 
ATOM     83  F   UNL A   1      35.858  29.552  30.241  1.00  0.00    -0.200 F 
ENDBRANCH  49  73
BRANCH  61  84
ATOM     84  C   UNL A   1      45.712  32.343  29.008  1.00  0.00     0.064 A 
ATOM     85  C   UNL A   1      45.580  33.389  28.083  1.00  0.00     0.173 A 
ATOM     86  C   UNL A   1      46.135  32.657  30.307  1.00  0.00     0.173 A 
ATOM     87  F   UNL A   1      45.194  33.132  26.824  1.00  0.00    -0.203 F 
ATOM     88  C   UNL A   1      45.887  34.698  28.441  1.00  0.00     0.198 A 
ATOM     89  C   UNL A   1      46.417  33.970  30.667  1.00  0.00     0.198 A 
ATOM     90  F   UNL A   1      46.272  31.690  31.227  1.00  0.00    -0.203 F 
ATOM     91  F   UNL A   1      45.798  35.677  27.530  1.00  0.00    -0.200 F 
ATOM     92  C   UNL A   1      46.299  34.988  29.733  1.00  0.00     0.200 A 
ATOM     93  F   UNL A   1      46.808  34.252  31.918  1.00  0.00    -0.200 F 
ATOM     94  F   UNL A   1      46.593  36.251  30.075  1.00  0.00    -0.200 F 
ENDBRANCH  61  84
ENDBRANCH  35  36
ENDBRANCH  27  30
ENDBRANCH  25  26
ENDBRANCH  24  25
ENDBRANCH   1  24
TORSDOF 15
ENDMDL
