MODEL 1
REMARK VINA RESULT:     -13.1      0.000      0.000
REMARK SMILES COc1cc(-c2ccc(F)c(C(F)(F)F)c2)ccc1C(=O)NCCCCNC(=O)c1ccc(-c2c3nc(c(-c4c(F)c(F)c(F)c(F)c4F)c4ccc([nH]4)c(-c4c(F)c(F)c(F)c(F)c4F)c4nc(c(-c5c(F)c(F)c(F)c(F)c5F)c5ccc2[nH]5)C=C4)C=C3)cc1
REMARK SMILES IDX 24 1 23 2 22 3 20 4 21 5 19 7 3 8 4 9 5 10 18 11 17 12 2 13
REMARK SMILES IDX 1 14 6 15 7 16 16 17 8 18 11 19 9 20 10 21 12 22 13 23 14 24
REMARK SMILES IDX 15 25 25 26 26 27 27 28 28 29 29 31 30 32 31 33 92 34 32 35
REMARK SMILES IDX 91 36 33 37 34 38 35 39 85 40 36 41 90 42 84 43 86 44 37 45
REMARK SMILES IDX 89 46 83 47 82 48 38 50 70 51 50 52 69 53 51 54 54 55 68 56
REMARK SMILES IDX 87 57 52 58 53 59 67 61 88 62 55 63 39 64 40 65 48 66 41 67
REMARK SMILES IDX 42 68 46 69 49 70 43 71 44 72 47 73 45 74 71 75 72 76 80 77
REMARK SMILES IDX 73 78 74 79 78 80 81 81 75 82 76 83 79 84 77 85 56 86 57 87
REMARK SMILES IDX 65 88 58 89 59 90 63 91 66 92 60 93 61 94 64 95 62 96
REMARK H PARENT 22 6 27 30 86 49 54 60
REMARK Flexibility Score: inf
ROOT
ATOM      1  C   UNL A   1      31.995  30.087  26.773  1.00  0.00     0.023 C 
ENDROOT
BRANCH   1   2
ATOM      2  C   UNL A   1      32.610  29.483  25.515  1.00  0.00     0.116 C 
BRANCH   2   3
ATOM      3  N   UNL A   1      31.879  29.749  24.291  1.00  0.00    -0.352 N 
ATOM      4  C   UNL A   1      31.443  28.867  23.329  1.00  0.00     0.255 C 
ATOM      5  O   UNL A   1      30.797  29.304  22.377  1.00  0.00    -0.269 OA
ATOM      6  H   UNL A   1      31.663  30.696  24.124  1.00  0.00     0.163 HD
BRANCH   4   7
ATOM      7  C   UNL A   1      31.796  27.422  23.355  1.00  0.00     0.081 A 
ATOM      8  C   UNL A   1      31.087  26.425  24.030  1.00  0.00     0.132 A 
ATOM      9  C   UNL A   1      31.627  25.138  24.146  1.00  0.00     0.056 A 
ATOM     10  C   UNL A   1      32.834  24.786  23.521  1.00  0.00    -0.015 A 
ATOM     11  C   UNL A   1      32.951  27.057  22.647  1.00  0.00     0.018 A 
ATOM     12  C   UNL A   1      33.460  25.753  22.723  1.00  0.00     0.010 A 
BRANCH   8  13
ATOM     13  O   UNL A   1      29.908  26.618  24.693  1.00  0.00    -0.496 OA
ATOM     14  C   UNL A   1      28.781  26.476  23.829  1.00  0.00     0.278 C 
ENDBRANCH   8  13
BRANCH  10  15
ATOM     15  C   UNL A   1      33.446  23.470  23.781  1.00  0.00    -0.017 A 
ATOM     16  C   UNL A   1      32.668  22.302  23.859  1.00  0.00     0.012 A 
ATOM     17  C   UNL A   1      34.821  23.365  24.062  1.00  0.00     0.025 A 
ATOM     18  C   UNL A   1      33.237  21.084  24.236  1.00  0.00     0.040 A 
ATOM     19  C   UNL A   1      35.403  22.144  24.445  1.00  0.00     0.092 A 
ATOM     20  C   UNL A   1      34.593  21.018  24.534  1.00  0.00     0.135 A 
ATOM     21  F   UNL A   1      35.112  19.848  24.927  1.00  0.00    -0.206 F 
BRANCH  19  22
ATOM     22  C   UNL A   1      36.854  22.035  24.801  1.00  0.00     0.419 C 
ATOM     23  F   UNL A   1      37.054  21.675  26.098  1.00  0.00    -0.166 F 
ATOM     24  F   UNL A   1      37.526  21.126  24.043  1.00  0.00    -0.166 F 
ATOM     25  F   UNL A   1      37.530  23.211  24.643  1.00  0.00    -0.166 F 
ENDBRANCH  19  22
ENDBRANCH  10  15
ENDBRANCH   4   7
ENDBRANCH   2   3
ENDBRANCH   1   2
BRANCH   1  26
ATOM     26  C   UNL A   1      31.770  31.602  26.752  1.00  0.00     0.023 C 
BRANCH  26  27
ATOM     27  C   UNL A   1      32.881  32.472  27.339  1.00  0.00     0.116 C 
BRANCH  27  28
ATOM     28  N   UNL A   1      32.473  33.836  27.642  1.00  0.00    -0.352 N 
ATOM     29  C   UNL A   1      33.012  34.768  28.499  1.00  0.00     0.251 C 
ATOM     30  H   UNL A   1      31.677  34.144  27.151  1.00  0.00     0.163 HD
ATOM     31  O   UNL A   1      32.459  35.852  28.650  1.00  0.00    -0.269 OA
BRANCH  29  32
ATOM     32  C   UNL A   1      34.225  34.456  29.289  1.00  0.00     0.039 A 
ATOM     33  C   UNL A   1      34.065  33.986  30.596  1.00  0.00     0.014 A 
ATOM     34  C   UNL A   1      35.505  34.596  28.752  1.00  0.00     0.014 A 
ATOM     35  C   UNL A   1      35.177  33.538  31.315  1.00  0.00     0.010 A 
ATOM     36  C   UNL A   1      36.601  34.073  29.435  1.00  0.00     0.010 A 
ATOM     37  C   UNL A   1      36.445  33.512  30.712  1.00  0.00    -0.014 A 
BRANCH  37  38
ATOM     38  C   UNL A   1      37.595  32.830  31.363  1.00  0.00     0.031 A 
ATOM     39  C   UNL A   1      38.247  31.637  30.727  1.00  0.00     0.074 A 
ATOM     40  C   UNL A   1      37.981  33.226  32.593  1.00  0.00     0.049 A 
ATOM     41  N   UNL A   1      39.194  30.863  31.197  1.00  0.00    -0.248 NA
ATOM     42  C   UNL A   1      37.749  31.241  29.402  1.00  0.00     0.031 C 
ATOM     43  C   UNL A   1      37.379  34.321  33.354  1.00  0.00     0.029 A 
ATOM     44  N   UNL A   1      38.952  32.736  33.431  1.00  0.00    -0.354 N 
ATOM     45  C   UNL A   1      39.387  29.878  30.238  1.00  0.00     0.074 A 
ATOM     46  C   UNL A   1      38.431  30.127  29.180  1.00  0.00     0.031 C 
ATOM     47  C   UNL A   1      37.997  34.425  34.540  1.00  0.00     0.029 A 
ATOM     48  C   UNL A   1      39.012  33.382  34.641  1.00  0.00     0.049 A 
ATOM     49  H   UNL A   1      39.549  31.991  33.187  1.00  0.00     0.167 HD
ATOM     50  C   UNL A   1      40.293  28.869  30.234  1.00  0.00     0.037 A 
ATOM     51  C   UNL A   1      39.784  33.154  35.721  1.00  0.00     0.037 A 
ATOM     52  C   UNL A   1      41.262  28.641  31.274  1.00  0.00     0.049 A 
ATOM     53  C   UNL A   1      40.795  32.043  35.684  1.00  0.00     0.074 A 
ATOM     54  C   UNL A   1      42.291  27.716  31.306  1.00  0.00     0.029 A 
ATOM     55  N   UNL A   1      41.316  29.340  32.471  1.00  0.00    -0.354 N 
ATOM     56  N   UNL A   1      41.039  31.181  34.728  1.00  0.00    -0.248 NA
ATOM     57  C   UNL A   1      41.641  31.876  36.874  1.00  0.00     0.031 C 
ATOM     58  C   UNL A   1      42.934  27.819  32.545  1.00  0.00     0.029 A 
ATOM     59  C   UNL A   1      42.337  28.840  33.266  1.00  0.00     0.049 A 
ATOM     60  H   UNL A   1      40.717  30.080  32.721  1.00  0.00     0.167 HD
ATOM     61  C   UNL A   1      42.069  30.376  35.194  1.00  0.00     0.074 A 
ATOM     62  C   UNL A   1      42.420  30.868  36.510  1.00  0.00     0.031 C 
ATOM     63  C   UNL A   1      42.667  29.325  34.582  1.00  0.00     0.037 A 
BRANCH  50  64
ATOM     64  C   UNL A   1      40.273  27.928  29.064  1.00  0.00     0.064 A 
ATOM     65  C   UNL A   1      41.000  28.189  27.894  1.00  0.00     0.173 A 
ATOM     66  C   UNL A   1      39.536  26.735  29.126  1.00  0.00     0.173 A 
ATOM     67  F   UNL A   1      41.714  29.320  27.781  1.00  0.00    -0.203 F 
ATOM     68  C   UNL A   1      40.961  27.311  26.813  1.00  0.00     0.198 A 
ATOM     69  C   UNL A   1      39.523  25.844  28.055  1.00  0.00     0.198 A 
ATOM     70  F   UNL A   1      38.830  26.431  30.225  1.00  0.00    -0.203 F 
ATOM     71  F   UNL A   1      41.619  27.611  25.685  1.00  0.00    -0.200 F 
ATOM     72  C   UNL A   1      40.227  26.137  26.897  1.00  0.00     0.200 A 
ATOM     73  F   UNL A   1      38.824  24.705  28.142  1.00  0.00    -0.200 F 
ATOM     74  F   UNL A   1      40.191  25.293  25.857  1.00  0.00    -0.200 F 
ENDBRANCH  50  64
BRANCH  51  75
ATOM     75  C   UNL A   1      39.629  34.011  36.924  1.00  0.00     0.064 A 
ATOM     76  C   UNL A   1      38.848  33.593  38.010  1.00  0.00     0.173 A 
ATOM     77  C   UNL A   1      40.283  35.247  37.025  1.00  0.00     0.173 A 
ATOM     78  F   UNL A   1      38.187  32.427  37.950  1.00  0.00    -0.203 F 
ATOM     79  C   UNL A   1      38.721  34.384  39.150  1.00  0.00     0.198 A 
ATOM     80  C   UNL A   1      40.176  36.025  38.175  1.00  0.00     0.198 A 
ATOM     81  F   UNL A   1      41.047  35.686  36.015  1.00  0.00    -0.203 F 
ATOM     82  F   UNL A   1      37.945  33.976  40.162  1.00  0.00    -0.200 F 
ATOM     83  C   UNL A   1      39.391  35.596  39.235  1.00  0.00     0.200 A 
ATOM     84  F   UNL A   1      40.837  37.187  38.260  1.00  0.00    -0.200 F 
ATOM     85  F   UNL A   1      39.280  36.349  40.337  1.00  0.00    -0.200 F 
ENDBRANCH  51  75
BRANCH  63  86
ATOM     86  C   UNL A   1      43.766  28.630  35.332  1.00  0.00     0.064 A 
ATOM     87  C   UNL A   1      45.109  28.998  35.170  1.00  0.00     0.173 A 
ATOM     88  C   UNL A   1      43.469  27.613  36.252  1.00  0.00     0.173 A 
ATOM     89  F   UNL A   1      45.445  29.951  34.288  1.00  0.00    -0.203 F 
ATOM     90  C   UNL A   1      46.118  28.361  35.887  1.00  0.00     0.198 A 
ATOM     91  C   UNL A   1      44.478  26.997  36.988  1.00  0.00     0.198 A 
ATOM     92  F   UNL A   1      42.200  27.226  36.447  1.00  0.00    -0.203 F 
ATOM     93  F   UNL A   1      47.399  28.701  35.686  1.00  0.00    -0.200 F 
ATOM     94  C   UNL A   1      45.801  27.367  36.802  1.00  0.00     0.200 A 
ATOM     95  F   UNL A   1      44.169  26.044  37.879  1.00  0.00    -0.200 F 
ATOM     96  F   UNL A   1      46.773  26.760  37.497  1.00  0.00    -0.200 F 
ENDBRANCH  63  86
ENDBRANCH  37  38
ENDBRANCH  29  32
ENDBRANCH  27  28
ENDBRANCH  26  27
ENDBRANCH   1  26
TORSDOF 14
ENDMDL
MODEL 2
REMARK VINA RESULT:     -13.0      0.864      2.520
REMARK SMILES COc1cc(-c2ccc(F)c(C(F)(F)F)c2)ccc1C(=O)NCCCCNC(=O)c1ccc(-c2c3nc(c(-c4c(F)c(F)c(F)c(F)c4F)c4ccc([nH]4)c(-c4c(F)c(F)c(F)c(F)c4F)c4nc(c(-c5c(F)c(F)c(F)c(F)c5F)c5ccc2[nH]5)C=C4)C=C3)cc1
REMARK SMILES IDX 24 1 23 2 22 3 20 4 21 5 19 7 3 8 4 9 5 10 18 11 17 12 2 13
REMARK SMILES IDX 1 14 6 15 7 16 16 17 8 18 11 19 9 20 10 21 12 22 13 23 14 24
REMARK SMILES IDX 15 25 25 26 26 27 27 28 28 29 29 31 30 32 31 33 92 34 32 35
REMARK SMILES IDX 91 36 33 37 34 38 35 39 85 40 36 41 90 42 84 43 86 44 37 45
REMARK SMILES IDX 89 46 83 47 82 48 38 50 70 51 50 52 69 53 51 54 54 55 68 56
REMARK SMILES IDX 87 57 52 58 53 59 67 61 88 62 55 63 39 64 40 65 48 66 41 67
REMARK SMILES IDX 42 68 46 69 49 70 43 71 44 72 47 73 45 74 71 75 72 76 80 77
REMARK SMILES IDX 73 78 74 79 78 80 81 81 75 82 76 83 79 84 77 85 56 86 57 87
REMARK SMILES IDX 65 88 58 89 59 90 63 91 66 92 60 93 61 94 64 95 62 96
REMARK H PARENT 22 6 27 30 86 49 54 60
REMARK Flexibility Score: inf
ROOT
ATOM      1  C   UNL A   1      32.160  30.048  26.974  1.00  0.00     0.023 C 
ENDROOT
BRANCH   1   2
ATOM      2  C   UNL A   1      32.554  29.335  25.685  1.00  0.00     0.116 C 
BRANCH   2   3
ATOM      3  N   UNL A   1      31.440  28.855  24.889  1.00  0.00    -0.352 N 
ATOM      4  C   UNL A   1      31.189  27.585  24.422  1.00  0.00     0.255 C 
ATOM      5  O   UNL A   1      30.152  27.384  23.790  1.00  0.00    -0.269 OA
ATOM      6  H   UNL A   1      30.767  29.534  24.650  1.00  0.00     0.163 HD
BRANCH   4   7
ATOM      7  C   UNL A   1      32.164  26.473  24.577  1.00  0.00     0.081 A 
ATOM      8  C   UNL A   1      33.099  26.073  23.619  1.00  0.00     0.132 A 
ATOM      9  C   UNL A   1      33.825  24.889  23.800  1.00  0.00     0.056 A 
ATOM     10  C   UNL A   1      33.708  24.124  24.971  1.00  0.00    -0.015 A 
ATOM     11  C   UNL A   1      32.111  25.771  25.792  1.00  0.00     0.018 A 
ATOM     12  C   UNL A   1      32.878  24.615  25.989  1.00  0.00     0.010 A 
BRANCH   8  13
ATOM     13  O   UNL A   1      33.318  26.708  22.429  1.00  0.00    -0.496 OA
ATOM     14  C   UNL A   1      32.765  25.986  21.329  1.00  0.00     0.278 C 
ENDBRANCH   8  13
BRANCH  10  15
ATOM     15  C   UNL A   1      34.374  22.813  25.069  1.00  0.00    -0.017 A 
ATOM     16  C   UNL A   1      35.764  22.708  25.251  1.00  0.00     0.012 A 
ATOM     17  C   UNL A   1      33.643  21.625  24.879  1.00  0.00     0.025 A 
ATOM     18  C   UNL A   1      36.402  21.466  25.209  1.00  0.00     0.040 A 
ATOM     19  C   UNL A   1      34.277  20.371  24.833  1.00  0.00     0.092 A 
ATOM     20  C   UNL A   1      35.656  20.314  24.992  1.00  0.00     0.135 A 
ATOM     21  F   UNL A   1      36.291  19.137  24.920  1.00  0.00    -0.206 F 
BRANCH  19  22
ATOM     22  C   UNL A   1      33.514  19.107  24.573  1.00  0.00     0.419 C 
ATOM     23  F   UNL A   1      34.188  18.239  23.770  1.00  0.00    -0.166 F 
ATOM     24  F   UNL A   1      33.211  18.421  25.709  1.00  0.00    -0.166 F 
ATOM     25  F   UNL A   1      32.319  19.326  23.951  1.00  0.00    -0.166 F 
ENDBRANCH  19  22
ENDBRANCH  10  15
ENDBRANCH   4   7
ENDBRANCH   2   3
ENDBRANCH   1   2
BRANCH   1  26
ATOM     26  C   UNL A   1      31.866  31.546  26.854  1.00  0.00     0.023 C 
BRANCH  26  27
ATOM     27  C   UNL A   1      32.988  32.503  27.253  1.00  0.00     0.116 C 
BRANCH  27  28
ATOM     28  N   UNL A   1      32.533  33.835  27.623  1.00  0.00    -0.352 N 
ATOM     29  C   UNL A   1      33.033  34.739  28.533  1.00  0.00     0.251 C 
ATOM     30  H   UNL A   1      31.731  34.142  27.140  1.00  0.00     0.163 HD
ATOM     31  O   UNL A   1      32.443  35.794  28.734  1.00  0.00    -0.269 OA
BRANCH  29  32
ATOM     32  C   UNL A   1      34.249  34.425  29.317  1.00  0.00     0.039 A 
ATOM     33  C   UNL A   1      34.095  33.959  30.626  1.00  0.00     0.014 A 
ATOM     34  C   UNL A   1      35.527  34.560  28.773  1.00  0.00     0.014 A 
ATOM     35  C   UNL A   1      35.209  33.509  31.341  1.00  0.00     0.010 A 
ATOM     36  C   UNL A   1      36.626  34.036  29.452  1.00  0.00     0.010 A 
ATOM     37  C   UNL A   1      36.474  33.479  30.731  1.00  0.00    -0.014 A 
BRANCH  37  38
ATOM     38  C   UNL A   1      37.626  32.796  31.378  1.00  0.00     0.031 A 
ATOM     39  C   UNL A   1      38.281  31.609  30.734  1.00  0.00     0.074 A 
ATOM     40  C   UNL A   1      38.009  33.183  32.611  1.00  0.00     0.049 A 
ATOM     41  N   UNL A   1      39.230  30.834  31.199  1.00  0.00    -0.248 NA
ATOM     42  C   UNL A   1      37.785  31.221  29.406  1.00  0.00     0.031 C 
ATOM     43  C   UNL A   1      37.404  34.272  33.380  1.00  0.00     0.029 A 
ATOM     44  N   UNL A   1      38.982  32.690  33.446  1.00  0.00    -0.354 N 
ATOM     45  C   UNL A   1      39.427  29.856  30.233  1.00  0.00     0.074 A 
ATOM     46  C   UNL A   1      38.471  30.111  29.176  1.00  0.00     0.031 C 
ATOM     47  C   UNL A   1      38.021  34.369  34.567  1.00  0.00     0.029 A 
ATOM     48  C   UNL A   1      39.039  33.328  34.661  1.00  0.00     0.049 A 
ATOM     49  H   UNL A   1      39.581  31.949  33.198  1.00  0.00     0.167 HD
ATOM     50  C   UNL A   1      40.336  28.850  30.223  1.00  0.00     0.037 A 
ATOM     51  C   UNL A   1      39.811  33.095  35.739  1.00  0.00     0.037 A 
ATOM     52  C   UNL A   1      41.305  28.618  31.261  1.00  0.00     0.049 A 
ATOM     53  C   UNL A   1      40.825  31.987  35.695  1.00  0.00     0.074 A 
ATOM     54  C   UNL A   1      42.336  27.695  31.288  1.00  0.00     0.029 A 
ATOM     55  N   UNL A   1      41.356  29.308  32.464  1.00  0.00    -0.354 N 
ATOM     56  N   UNL A   1      41.072  31.132  34.734  1.00  0.00    -0.248 NA
ATOM     57  C   UNL A   1      41.671  31.814  36.885  1.00  0.00     0.031 C 
ATOM     58  C   UNL A   1      42.978  27.791  32.528  1.00  0.00     0.029 A 
ATOM     59  C   UNL A   1      42.378  28.805  33.256  1.00  0.00     0.049 A 
ATOM     60  H   UNL A   1      40.755  30.045  32.718  1.00  0.00     0.167 HD
ATOM     61  C   UNL A   1      42.104  30.327  35.194  1.00  0.00     0.074 A 
ATOM     62  C   UNL A   1      42.453  30.810  36.514  1.00  0.00     0.031 C 
ATOM     63  C   UNL A   1      42.706  29.281  34.576  1.00  0.00     0.037 A 
BRANCH  50  64
ATOM     64  C   UNL A   1      40.319  27.917  29.046  1.00  0.00     0.064 A 
ATOM     65  C   UNL A   1      39.559  26.738  29.049  1.00  0.00     0.173 A 
ATOM     66  C   UNL A   1      41.054  28.220  27.891  1.00  0.00     0.173 A 
ATOM     67  F   UNL A   1      38.844  26.399  30.134  1.00  0.00    -0.203 F 
ATOM     68  C   UNL A   1      39.564  25.878  27.954  1.00  0.00     0.198 A 
ATOM     69  C   UNL A   1      41.034  27.373  26.785  1.00  0.00     0.198 A 
ATOM     70  F   UNL A   1      41.792  29.339  27.831  1.00  0.00    -0.203 F 
ATOM     71  F   UNL A   1      38.874  24.730  28.003  1.00  0.00    -0.200 F 
ATOM     72  C   UNL A   1      40.297  26.198  26.821  1.00  0.00     0.200 A 
ATOM     73  F   UNL A   1      41.732  27.689  25.686  1.00  0.00    -0.200 F 
ATOM     74  F   UNL A   1      40.301  25.370  25.768  1.00  0.00    -0.200 F 
ENDBRANCH  50  64
BRANCH  51  75
ATOM     75  C   UNL A   1      39.652  33.942  36.948  1.00  0.00     0.064 A 
ATOM     76  C   UNL A   1      40.258  35.203  37.029  1.00  0.00     0.173 A 
ATOM     77  C   UNL A   1      38.866  33.523  38.032  1.00  0.00     0.173 A 
ATOM     78  F   UNL A   1      41.035  35.637  36.026  1.00  0.00    -0.203 F 
ATOM     79  C   UNL A   1      40.090  36.011  38.153  1.00  0.00     0.198 A 
ATOM     80  C   UNL A   1      38.678  34.341  39.143  1.00  0.00     0.198 A 
ATOM     81  F   UNL A   1      38.261  32.327  37.998  1.00  0.00    -0.203 F 
ATOM     82  F   UNL A   1      40.704  37.199  38.218  1.00  0.00    -0.200 F 
ATOM     83  C   UNL A   1      39.294  35.582  39.205  1.00  0.00     0.200 A 
ATOM     84  F   UNL A   1      37.897  33.931  40.151  1.00  0.00    -0.200 F 
ATOM     85  F   UNL A   1      39.121  36.365  40.278  1.00  0.00    -0.200 F 
ENDBRANCH  51  75
BRANCH  63  86
ATOM     86  C   UNL A   1      43.806  28.584  35.321  1.00  0.00     0.064 A 
ATOM     87  C   UNL A   1      43.538  27.511  36.184  1.00  0.00     0.173 A 
ATOM     88  C   UNL A   1      45.144  28.966  35.142  1.00  0.00     0.173 A 
ATOM     89  F   UNL A   1      42.274  27.120  36.403  1.00  0.00    -0.203 F 
ATOM     90  C   UNL A   1      44.569  26.857  36.854  1.00  0.00     0.198 A 
ATOM     91  C   UNL A   1      46.174  28.293  35.792  1.00  0.00     0.198 A 
ATOM     92  F   UNL A   1      45.453  29.984  34.326  1.00  0.00    -0.203 F 
ATOM     93  F   UNL A   1      44.288  25.860  37.704  1.00  0.00    -0.200 F 
ATOM     94  C   UNL A   1      45.886  27.243  36.651  1.00  0.00     0.200 A 
ATOM     95  F   UNL A   1      47.447  28.660  35.588  1.00  0.00    -0.200 F 
ATOM     96  F   UNL A   1      46.877  26.607  37.291  1.00  0.00    -0.200 F 
ENDBRANCH  63  86
ENDBRANCH  37  38
ENDBRANCH  29  32
ENDBRANCH  27  28
ENDBRANCH  26  27
ENDBRANCH   1  26
TORSDOF 14
ENDMDL
MODEL 3
REMARK VINA RESULT:     -13.0      6.135     11.265
REMARK SMILES COc1cc(-c2ccc(F)c(C(F)(F)F)c2)ccc1C(=O)NCCCCNC(=O)c1ccc(-c2c3nc(c(-c4c(F)c(F)c(F)c(F)c4F)c4ccc([nH]4)c(-c4c(F)c(F)c(F)c(F)c4F)c4nc(c(-c5c(F)c(F)c(F)c(F)c5F)c5ccc2[nH]5)C=C4)C=C3)cc1
REMARK SMILES IDX 24 1 23 2 22 3 20 4 21 5 19 7 3 8 4 9 5 10 18 11 17 12 2 13
REMARK SMILES IDX 1 14 6 15 7 16 16 17 8 18 11 19 9 20 10 21 12 22 13 23 14 24
REMARK SMILES IDX 15 25 25 26 26 27 27 28 28 29 29 31 30 32 31 33 92 34 32 35
REMARK SMILES IDX 91 36 33 37 34 38 35 39 85 40 36 41 90 42 84 43 86 44 37 45
REMARK SMILES IDX 89 46 83 47 82 48 38 50 70 51 50 52 69 53 51 54 54 55 68 56
REMARK SMILES IDX 87 57 52 58 53 59 67 61 88 62 55 63 39 64 40 65 48 66 41 67
REMARK SMILES IDX 42 68 46 69 49 70 43 71 44 72 47 73 45 74 71 75 72 76 80 77
REMARK SMILES IDX 73 78 74 79 78 80 81 81 75 82 76 83 79 84 77 85 56 86 57 87
REMARK SMILES IDX 65 88 58 89 59 90 63 91 66 92 60 93 61 94 64 95 62 96
REMARK H PARENT 22 6 27 30 86 49 54 60
REMARK Flexibility Score: inf
ROOT
ATOM      1  C   UNL A   1      36.845  21.442  24.896  1.00  0.00     0.023 C 
ENDROOT
BRANCH   1   2
ATOM      2  C   UNL A   1      35.760  21.500  25.966  1.00  0.00     0.116 C 
BRANCH   2   3
ATOM      3  N   UNL A   1      34.738  20.477  25.853  1.00  0.00    -0.352 N 
ATOM      4  C   UNL A   1      33.414  20.606  25.500  1.00  0.00     0.255 C 
ATOM      5  O   UNL A   1      32.722  19.590  25.427  1.00  0.00    -0.269 OA
ATOM      6  H   UNL A   1      35.033  19.560  26.058  1.00  0.00     0.163 HD
BRANCH   4   7
ATOM      7  C   UNL A   1      32.772  21.930  25.288  1.00  0.00     0.081 A 
ATOM      8  C   UNL A   1      32.624  22.574  24.057  1.00  0.00     0.132 A 
ATOM      9  C   UNL A   1      32.184  23.902  24.009  1.00  0.00     0.056 A 
ATOM     10  C   UNL A   1      31.795  24.592  25.168  1.00  0.00    -0.015 A 
ATOM     11  C   UNL A   1      32.294  22.576  26.440  1.00  0.00     0.018 A 
ATOM     12  C   UNL A   1      31.805  23.888  26.379  1.00  0.00     0.010 A 
BRANCH   8  13
ATOM     13  O   UNL A   1      32.968  22.036  22.849  1.00  0.00    -0.496 OA
ATOM     14  C   UNL A   1      31.915  21.247  22.296  1.00  0.00     0.278 C 
ENDBRANCH   8  13
BRANCH  10  15
ATOM     15  C   UNL A   1      31.475  26.030  25.101  1.00  0.00    -0.017 A 
ATOM     16  C   UNL A   1      30.620  26.547  24.113  1.00  0.00     0.012 A 
ATOM     17  C   UNL A   1      32.105  26.942  25.969  1.00  0.00     0.025 A 
ATOM     18  C   UNL A   1      30.429  27.923  23.976  1.00  0.00     0.040 A 
ATOM     19  C   UNL A   1      31.920  28.329  25.839  1.00  0.00     0.092 A 
ATOM     20  C   UNL A   1      31.086  28.799  24.831  1.00  0.00     0.135 A 
ATOM     21  F   UNL A   1      30.917  30.117  24.662  1.00  0.00    -0.206 F 
BRANCH  19  22
ATOM     22  C   UNL A   1      32.631  29.310  26.722  1.00  0.00     0.419 C 
ATOM     23  F   UNL A   1      31.780  30.152  27.369  1.00  0.00    -0.166 F 
ATOM     24  F   UNL A   1      33.388  28.715  27.683  1.00  0.00    -0.166 F 
ATOM     25  F   UNL A   1      33.489  30.120  26.033  1.00  0.00    -0.166 F 
ENDBRANCH  19  22
ENDBRANCH  10  15
ENDBRANCH   4   7
ENDBRANCH   2   3
ENDBRANCH   1   2
BRANCH   1  26
ATOM     26  C   UNL A   1      37.827  20.270  24.995  1.00  0.00     0.023 C 
BRANCH  26  27
ATOM     27  C   UNL A   1      39.143  20.533  25.725  1.00  0.00     0.116 C 
BRANCH  27  28
ATOM     28  N   UNL A   1      40.044  19.391  25.760  1.00  0.00    -0.352 N 
ATOM     29  C   UNL A   1      41.386  19.311  26.055  1.00  0.00     0.251 C 
ATOM     30  H   UNL A   1      39.623  18.530  25.535  1.00  0.00     0.163 HD
ATOM     31  O   UNL A   1      41.970  18.237  25.958  1.00  0.00    -0.269 OA
BRANCH  29  32
ATOM     32  C   UNL A   1      42.149  20.522  26.434  1.00  0.00     0.039 A 
ATOM     33  C   UNL A   1      42.770  21.261  25.423  1.00  0.00     0.014 A 
ATOM     34  C   UNL A   1      42.238  20.946  27.761  1.00  0.00     0.014 A 
ATOM     35  C   UNL A   1      43.368  22.488  25.725  1.00  0.00     0.010 A 
ATOM     36  C   UNL A   1      42.760  22.206  28.049  1.00  0.00     0.010 A 
ATOM     37  C   UNL A   1      43.304  23.003  27.030  1.00  0.00    -0.014 A 
BRANCH  37  38
ATOM     38  C   UNL A   1      43.722  24.398  27.330  1.00  0.00     0.031 A 
ATOM     39  C   UNL A   1      42.721  25.428  27.766  1.00  0.00     0.074 A 
ATOM     40  C   UNL A   1      44.999  24.764  27.098  1.00  0.00     0.049 A 
ATOM     41  N   UNL A   1      42.890  26.710  27.976  1.00  0.00    -0.248 NA
ATOM     42  C   UNL A   1      41.340  24.964  27.963  1.00  0.00     0.031 C 
ATOM     43  C   UNL A   1      46.052  23.879  26.599  1.00  0.00     0.029 A 
ATOM     44  N   UNL A   1      45.622  25.981  27.226  1.00  0.00    -0.354 N 
ATOM     45  C   UNL A   1      41.637  27.208  28.306  1.00  0.00     0.074 A 
ATOM     46  C   UNL A   1      40.710  26.099  28.227  1.00  0.00     0.031 C 
ATOM     47  C   UNL A   1      47.190  24.578  26.470  1.00  0.00     0.029 A 
ATOM     48  C   UNL A   1      46.940  25.968  26.840  1.00  0.00     0.049 A 
ATOM     49  H   UNL A   1      45.167  26.787  27.561  1.00  0.00     0.167 HD
ATOM     50  C   UNL A   1      41.297  28.472  28.659  1.00  0.00     0.037 A 
ATOM     51  C   UNL A   1      47.845  26.962  26.772  1.00  0.00     0.037 A 
ATOM     52  C   UNL A   1      42.226  29.566  28.765  1.00  0.00     0.049 A 
ATOM     53  C   UNL A   1      47.449  28.350  27.190  1.00  0.00     0.074 A 
ATOM     54  C   UNL A   1      41.996  30.852  29.222  1.00  0.00     0.029 A 
ATOM     55  N   UNL A   1      43.563  29.506  28.400  1.00  0.00    -0.354 N 
ATOM     56  N   UNL A   1      46.284  28.788  27.598  1.00  0.00    -0.248 NA
ATOM     57  C   UNL A   1      48.495  29.382  27.141  1.00  0.00     0.031 C 
ATOM     58  C   UNL A   1      43.181  31.585  29.083  1.00  0.00     0.029 A 
ATOM     59  C   UNL A   1      44.161  30.743  28.585  1.00  0.00     0.049 A 
ATOM     60  H   UNL A   1      44.019  28.704  28.058  1.00  0.00     0.167 HD
ATOM     61  C   UNL A   1      46.455  30.139  27.864  1.00  0.00     0.074 A 
ATOM     62  C   UNL A   1      47.845  30.445  27.592  1.00  0.00     0.031 C 
ATOM     63  C   UNL A   1      45.541  31.042  28.294  1.00  0.00     0.037 A 
BRANCH  50  64
ATOM     64  C   UNL A   1      39.849  28.740  28.953  1.00  0.00     0.064 A 
ATOM     65  C   UNL A   1      39.308  28.550  30.233  1.00  0.00     0.173 A 
ATOM     66  C   UNL A   1      38.997  29.218  27.946  1.00  0.00     0.173 A 
ATOM     67  F   UNL A   1      40.078  28.087  31.229  1.00  0.00    -0.203 F 
ATOM     68  C   UNL A   1      37.960  28.792  30.485  1.00  0.00     0.198 A 
ATOM     69  C   UNL A   1      37.656  29.489  28.209  1.00  0.00     0.198 A 
ATOM     70  F   UNL A   1      39.464  29.426  26.706  1.00  0.00    -0.203 F 
ATOM     71  F   UNL A   1      37.454  28.550  31.703  1.00  0.00    -0.200 F 
ATOM     72  C   UNL A   1      37.136  29.266  29.475  1.00  0.00     0.200 A 
ATOM     73  F   UNL A   1      36.865  29.958  27.235  1.00  0.00    -0.200 F 
ATOM     74  F   UNL A   1      35.840  29.500  29.720  1.00  0.00    -0.200 F 
ENDBRANCH  50  64
BRANCH  51  75
ATOM     75  C   UNL A   1      49.221  26.667  26.297  1.00  0.00     0.064 A 
ATOM     76  C   UNL A   1      49.583  26.884  24.961  1.00  0.00     0.173 A 
ATOM     77  C   UNL A   1      50.208  26.194  27.174  1.00  0.00     0.173 A 
ATOM     78  F   UNL A   1      48.668  27.317  24.081  1.00  0.00    -0.203 F 
ATOM     79  C   UNL A   1      50.880  26.632  24.518  1.00  0.00     0.198 A 
ATOM     80  C   UNL A   1      51.510  25.966  26.736  1.00  0.00     0.198 A 
ATOM     81  F   UNL A   1      49.910  25.977  28.463  1.00  0.00    -0.203 F 
ATOM     82  F   UNL A   1      51.194  26.819  23.229  1.00  0.00    -0.200 F 
ATOM     83  C   UNL A   1      51.844  26.181  25.407  1.00  0.00     0.200 A 
ATOM     84  F   UNL A   1      52.442  25.545  27.601  1.00  0.00    -0.200 F 
ATOM     85  F   UNL A   1      53.094  25.952  24.984  1.00  0.00    -0.200 F 
ENDBRANCH  51  75
BRANCH  63  86
ATOM     86  C   UNL A   1      46.012  32.453  28.496  1.00  0.00     0.064 A 
ATOM     87  C   UNL A   1      46.583  32.866  29.709  1.00  0.00     0.173 A 
ATOM     88  C   UNL A   1      45.930  33.389  27.455  1.00  0.00     0.173 A 
ATOM     89  F   UNL A   1      46.667  32.013  30.741  1.00  0.00    -0.203 F 
ATOM     90  C   UNL A   1      47.037  34.172  29.878  1.00  0.00     0.198 A 
ATOM     91  C   UNL A   1      46.410  34.685  27.618  1.00  0.00     0.198 A 
ATOM     92  F   UNL A   1      45.396  33.043  26.274  1.00  0.00    -0.203 F 
ATOM     93  F   UNL A   1      47.542  34.557  31.058  1.00  0.00    -0.200 F 
ATOM     94  C   UNL A   1      46.958  35.077  28.830  1.00  0.00     0.200 A 
ATOM     95  F   UNL A   1      46.343  35.557  26.602  1.00  0.00    -0.200 F 
ATOM     96  F   UNL A   1      47.403  36.331  28.992  1.00  0.00    -0.200 F 
ENDBRANCH  63  86
ENDBRANCH  37  38
ENDBRANCH  29  32
ENDBRANCH  27  28
ENDBRANCH  26  27
ENDBRANCH   1  26
TORSDOF 14
ENDMDL
