MODEL 1
REMARK VINA RESULT:     -12.7      0.000      0.000
REMARK SMILES NC(=O)CC[C@@H](C(=O)NCCCCNC(=O)c1ccc(-c2c3nc(c(-c4c(F)c(F)c(F)c(F)c4F)c4ccc([nH]4)c(-c4c(F)c(F)c(F)c(F)c4F)c4nc(c(-c5c(F)c(F)c(F)c(F)c5F)c5ccc2[nH]5)C=C4)C=C3)cc1)N1C(=O)/C(=C/c2ccc(C=O)cc2)SC1=S
REMARK SMILES IDX 11 1 10 2 9 3 7 4 8 5 6 7 5 8 4 9 2 10 1 11 3 14 80 15 81 16
REMARK SMILES IDX 94 17 82 18 83 19 93 20 95 21 84 22 85 23 86 24 92 25 87 26
REMARK SMILES IDX 91 27 88 28 89 29 90 30 12 31 13 32 14 33 15 34 16 36 17 37
REMARK SMILES IDX 18 38 79 39 19 40 78 41 20 42 21 43 22 44 72 45 23 46 77 47
REMARK SMILES IDX 71 48 73 49 24 50 76 51 70 52 69 53 25 55 57 56 37 57 56 58
REMARK SMILES IDX 38 59 41 60 55 61 74 62 39 63 40 64 54 66 75 67 42 68 26 69
REMARK SMILES IDX 27 70 35 71 28 72 29 73 33 74 36 75 30 76 31 77 34 78 32 79
REMARK SMILES IDX 58 80 59 81 67 82 60 83 61 84 65 85 68 86 62 87 63 88 66 89
REMARK SMILES IDX 64 90 43 91 44 92 52 93 45 94 46 95 50 96 53 97 47 98 48 99
REMARK SMILES IDX 51 100 49 101
REMARK H PARENT 9 6 1 12 1 13 14 35 73 54 41 65
REMARK Flexibility Score: inf
ROOT
ATOM      1  C   UNL A   1      32.173  30.601  26.694  1.00  0.00     0.023 C 
ENDROOT
BRANCH   1   2
ATOM      2  C   UNL A   1      31.638  29.979  25.402  1.00  0.00     0.116 C 
BRANCH   2   3
ATOM      3  N   UNL A   1      32.730  29.730  24.482  1.00  0.00    -0.354 N 
ATOM      4  C   UNL A   1      33.016  28.647  23.703  1.00  0.00     0.243 C 
ATOM      5  O   UNL A   1      34.075  28.691  23.072  1.00  0.00    -0.273 OA
ATOM      6  H   UNL A   1      33.375  30.469  24.406  1.00  0.00     0.163 HD
BRANCH   4   7
ATOM      7  C   UNL A   1      32.018  27.465  23.566  1.00  0.00     0.181 C 
BRANCH   7   8
ATOM      8  C   UNL A   1      30.914  27.357  24.642  1.00  0.00     0.045 C 
BRANCH   8   9
ATOM      9  C   UNL A   1      30.094  26.088  24.803  1.00  0.00     0.102 C 
BRANCH   9  10
ATOM     10  C   UNL A   1      30.081  25.339  26.118  1.00  0.00     0.217 C 
ATOM     11  N   UNL A   1      28.905  24.902  26.629  1.00  0.00    -0.370 N 
ATOM     12  H   UNL A   1      28.892  24.415  27.484  1.00  0.00     0.159 HD
ATOM     13  H   UNL A   1      28.065  25.073  26.146  1.00  0.00     0.159 HD
ATOM     14  O   UNL A   1      31.102  25.210  26.789  1.00  0.00    -0.275 OA
ENDBRANCH   9  10
ENDBRANCH   8   9
ENDBRANCH   7   8
BRANCH   7  15
ATOM     15  N   UNL A   1      32.874  26.238  23.554  1.00  0.00    -0.280 N 
ATOM     16  C   UNL A   1      33.657  25.933  24.658  1.00  0.00     0.266 C 
ATOM     17  C   UNL A   1      33.076  25.436  22.447  1.00  0.00     0.149 C 
ATOM     18  O   UNL A   1      33.728  26.559  25.708  1.00  0.00    -0.268 OA
ATOM     19  C   UNL A   1      34.426  24.687  24.433  1.00  0.00     0.081 C 
ATOM     20  S   UNL A   1      34.222  24.146  22.825  1.00  0.00    -0.054 SA
ATOM     21  S   UNL A   1      32.364  25.570  20.942  1.00  0.00    -0.052 S 
ATOM     22  C   UNL A   1      35.109  24.134  25.442  1.00  0.00     0.029 C 
BRANCH  22  23
ATOM     23  C   UNL A   1      35.926  22.924  25.409  1.00  0.00    -0.024 A 
ATOM     24  C   UNL A   1      37.322  23.033  25.431  1.00  0.00     0.009 A 
ATOM     25  C   UNL A   1      35.330  21.668  25.246  1.00  0.00     0.009 A 
ATOM     26  C   UNL A   1      38.117  21.894  25.286  1.00  0.00     0.012 A 
ATOM     27  C   UNL A   1      36.123  20.528  25.096  1.00  0.00     0.012 A 
ATOM     28  C   UNL A   1      37.514  20.647  25.111  1.00  0.00     0.014 A 
BRANCH  28  29
ATOM     29  C   UNL A   1      38.344  19.442  24.917  1.00  0.00     0.260 C 
ATOM     30  O   UNL A   1      39.384  19.260  25.538  1.00  0.00    -0.298 OA
ENDBRANCH  28  29
ENDBRANCH  22  23
ENDBRANCH   7  15
ENDBRANCH   4   7
ENDBRANCH   2   3
ENDBRANCH   1   2
BRANCH   1  31
ATOM     31  C   UNL A   1      31.802  32.064  26.890  1.00  0.00     0.023 C 
BRANCH  31  32
ATOM     32  C   UNL A   1      32.903  32.896  27.533  1.00  0.00     0.116 C 
BRANCH  32  33
ATOM     33  N   UNL A   1      32.513  34.276  27.805  1.00  0.00    -0.352 N 
ATOM     34  C   UNL A   1      33.050  35.154  28.717  1.00  0.00     0.251 C 
ATOM     35  H   UNL A   1      31.767  34.624  27.263  1.00  0.00     0.163 HD
ATOM     36  O   UNL A   1      32.566  36.267  28.886  1.00  0.00    -0.269 OA
BRANCH  34  37
ATOM     37  C   UNL A   1      34.193  34.706  29.533  1.00  0.00     0.039 A 
ATOM     38  C   UNL A   1      33.944  34.128  30.779  1.00  0.00     0.014 A 
ATOM     39  C   UNL A   1      35.485  34.750  29.006  1.00  0.00     0.014 A 
ATOM     40  C   UNL A   1      34.983  33.490  31.453  1.00  0.00     0.010 A 
ATOM     41  C   UNL A   1      36.499  34.045  29.640  1.00  0.00     0.010 A 
ATOM     42  C   UNL A   1      36.251  33.392  30.859  1.00  0.00    -0.014 A 
BRANCH  42  43
ATOM     43  C   UNL A   1      37.331  32.579  31.467  1.00  0.00     0.031 A 
ATOM     44  C   UNL A   1      37.865  32.938  32.822  1.00  0.00     0.074 A 
ATOM     45  C   UNL A   1      37.900  31.589  30.751  1.00  0.00     0.049 A 
ATOM     46  N   UNL A   1      38.888  32.442  33.467  1.00  0.00    -0.248 NA
ATOM     47  C   UNL A   1      37.178  34.030  33.530  1.00  0.00     0.031 C 
ATOM     48  C   UNL A   1      37.512  31.190  29.398  1.00  0.00     0.029 A 
ATOM     49  N   UNL A   1      38.943  30.752  31.057  1.00  0.00    -0.354 N 
ATOM     50  C   UNL A   1      38.979  33.172  34.642  1.00  0.00     0.074 A 
ATOM     51  C   UNL A   1      37.943  34.179  34.599  1.00  0.00     0.031 C 
ATOM     52  C   UNL A   1      38.296  30.178  28.994  1.00  0.00     0.029 A 
ATOM     53  C   UNL A   1      39.264  29.881  30.045  1.00  0.00     0.049 A 
ATOM     54  H   UNL A   1      39.417  30.774  31.920  1.00  0.00     0.167 HD
ATOM     55  C   UNL A   1      39.837  32.999  35.676  1.00  0.00     0.037 A 
ATOM     56  C   UNL A   1      40.239  28.954  29.970  1.00  0.00     0.037 A 
ATOM     57  C   UNL A   1      40.843  31.974  35.729  1.00  0.00     0.049 A 
ATOM     58  C   UNL A   1      41.165  28.768  31.138  1.00  0.00     0.074 A 
ATOM     59  C   UNL A   1      41.713  31.669  36.761  1.00  0.00     0.029 A 
ATOM     60  N   UNL A   1      41.112  31.080  34.701  1.00  0.00    -0.354 N 
ATOM     61  N   UNL A   1      41.201  29.421  32.274  1.00  0.00    -0.248 NA
ATOM     62  C   UNL A   1      42.183  27.715  31.017  1.00  0.00     0.031 C 
ATOM     63  C   UNL A   1      42.530  30.610  36.345  1.00  0.00     0.029 A 
ATOM     64  C   UNL A   1      42.146  30.235  35.068  1.00  0.00     0.049 A 
ATOM     65  H   UNL A   1      40.638  31.053  33.839  1.00  0.00     0.167 HD
ATOM     66  C   UNL A   1      42.233  28.854  33.008  1.00  0.00     0.074 A 
ATOM     67  C   UNL A   1      42.786  27.789  32.196  1.00  0.00     0.031 C 
ATOM     68  C   UNL A   1      42.683  29.185  34.243  1.00  0.00     0.037 A 
BRANCH  55  69
ATOM     69  C   UNL A   1      39.708  33.938  36.837  1.00  0.00     0.064 A 
ATOM     70  C   UNL A   1      40.397  35.160  36.869  1.00  0.00     0.173 A 
ATOM     71  C   UNL A   1      38.881  33.622  37.924  1.00  0.00     0.173 A 
ATOM     72  F   UNL A   1      41.213  35.501  35.861  1.00  0.00    -0.203 F 
ATOM     73  C   UNL A   1      40.287  36.015  37.962  1.00  0.00     0.198 A 
ATOM     74  C   UNL A   1      38.751  34.493  39.002  1.00  0.00     0.198 A 
ATOM     75  F   UNL A   1      38.199  32.467  37.942  1.00  0.00    -0.203 F 
ATOM     76  F   UNL A   1      40.997  37.152  37.993  1.00  0.00    -0.200 F 
ATOM     77  C   UNL A   1      39.461  35.685  39.024  1.00  0.00     0.200 A 
ATOM     78  F   UNL A   1      37.946  34.175  40.026  1.00  0.00    -0.200 F 
ATOM     79  F   UNL A   1      39.357  36.509  40.075  1.00  0.00    -0.200 F 
ENDBRANCH  55  69
BRANCH  56  80
ATOM     80  C   UNL A   1      40.373  28.122  28.748  1.00  0.00     0.064 A 
ATOM     81  C   UNL A   1      41.156  28.552  27.669  1.00  0.00     0.173 A 
ATOM     82  C   UNL A   1      39.735  26.878  28.640  1.00  0.00     0.173 A 
ATOM     83  F   UNL A   1      41.770  29.744  27.721  1.00  0.00    -0.203 F 
ATOM     84  C   UNL A   1      41.287  27.775  26.520  1.00  0.00     0.198 A 
ATOM     85  C   UNL A   1      39.885  26.091  27.499  1.00  0.00     0.198 A 
ATOM     86  F   UNL A   1      38.979  26.421  29.647  1.00  0.00    -0.203 F 
ATOM     87  F   UNL A   1      42.016  28.224  25.489  1.00  0.00    -0.200 F 
ATOM     88  C   UNL A   1      40.656  26.542  26.438  1.00  0.00     0.200 A 
ATOM     89  F   UNL A   1      39.284  24.896  27.429  1.00  0.00    -0.200 F 
ATOM     90  F   UNL A   1      40.788  25.792  25.336  1.00  0.00    -0.200 F 
ENDBRANCH  56  80
BRANCH  68  91
ATOM     91  C   UNL A   1      43.824  28.383  34.792  1.00  0.00     0.064 A 
ATOM     92  C   UNL A   1      43.603  27.209  35.526  1.00  0.00     0.173 A 
ATOM     93  C   UNL A   1      45.150  28.767  34.542  1.00  0.00     0.173 A 
ATOM     94  F   UNL A   1      42.352  26.812  35.805  1.00  0.00    -0.203 F 
ATOM     95  C   UNL A   1      44.671  26.454  36.002  1.00  0.00     0.198 A 
ATOM     96  C   UNL A   1      46.214  27.997  34.999  1.00  0.00     0.198 A 
ATOM     97  F   UNL A   1      45.410  29.881  33.841  1.00  0.00    -0.203 F 
ATOM     98  F   UNL A   1      44.439  25.353  36.730  1.00  0.00    -0.200 F 
ATOM     99  C   UNL A   1      45.975  26.844  35.732  1.00  0.00     0.200 A 
ATOM    100  F   UNL A   1      47.473  28.370  34.730  1.00  0.00    -0.200 F 
ATOM    101  F   UNL A   1      47.002  26.111  36.183  1.00  0.00    -0.200 F 
ENDBRANCH  68  91
ENDBRANCH  42  43
ENDBRANCH  34  37
ENDBRANCH  32  33
ENDBRANCH  31  32
ENDBRANCH   1  31
TORSDOF 17
ENDMDL
MODEL 2
REMARK VINA RESULT:     -12.6      1.489      7.301
REMARK SMILES NC(=O)CC[C@@H](C(=O)NCCCCNC(=O)c1ccc(-c2c3nc(c(-c4c(F)c(F)c(F)c(F)c4F)c4ccc([nH]4)c(-c4c(F)c(F)c(F)c(F)c4F)c4nc(c(-c5c(F)c(F)c(F)c(F)c5F)c5ccc2[nH]5)C=C4)C=C3)cc1)N1C(=O)/C(=C/c2ccc(C=O)cc2)SC1=S
REMARK SMILES IDX 11 1 10 2 9 3 7 4 8 5 6 7 5 8 4 9 2 10 1 11 3 14 80 15 81 16
REMARK SMILES IDX 94 17 82 18 83 19 93 20 95 21 84 22 85 23 86 24 92 25 87 26
REMARK SMILES IDX 91 27 88 28 89 29 90 30 12 31 13 32 14 33 15 34 16 36 17 37
REMARK SMILES IDX 18 38 79 39 19 40 78 41 20 42 21 43 22 44 72 45 23 46 77 47
REMARK SMILES IDX 71 48 73 49 24 50 76 51 70 52 69 53 25 55 57 56 37 57 56 58
REMARK SMILES IDX 38 59 41 60 55 61 74 62 39 63 40 64 54 66 75 67 42 68 26 69
REMARK SMILES IDX 27 70 35 71 28 72 29 73 33 74 36 75 30 76 31 77 34 78 32 79
REMARK SMILES IDX 58 80 59 81 67 82 60 83 61 84 65 85 68 86 62 87 63 88 66 89
REMARK SMILES IDX 64 90 43 91 44 92 52 93 45 94 46 95 50 96 53 97 47 98 48 99
REMARK SMILES IDX 51 100 49 101
REMARK H PARENT 9 6 1 12 1 13 14 35 73 54 41 65
REMARK Flexibility Score: inf
ROOT
ATOM      1  C   UNL A   1      31.930  29.907  27.270  1.00  0.00     0.023 C 
ENDROOT
BRANCH   1   2
ATOM      2  C   UNL A   1      32.695  28.723  26.674  1.00  0.00     0.116 C 
BRANCH   2   3
ATOM      3  N   UNL A   1      31.766  27.697  26.244  1.00  0.00    -0.354 N 
ATOM      4  C   UNL A   1      31.853  26.773  25.244  1.00  0.00     0.243 C 
ATOM      5  O   UNL A   1      30.855  26.071  25.060  1.00  0.00    -0.273 OA
ATOM      6  H   UNL A   1      30.929  27.662  26.761  1.00  0.00     0.163 HD
BRANCH   4   7
ATOM      7  C   UNL A   1      33.167  26.570  24.443  1.00  0.00     0.181 C 
BRANCH   7   8
ATOM      8  C   UNL A   1      33.363  27.457  23.192  1.00  0.00     0.045 C 
BRANCH   8   9
ATOM      9  C   UNL A   1      32.907  28.907  23.177  1.00  0.00     0.102 C 
BRANCH   9  10
ATOM     10  C   UNL A   1      31.469  29.261  22.870  1.00  0.00     0.217 C 
ATOM     11  N   UNL A   1      31.149  29.772  21.657  1.00  0.00    -0.370 N 
ATOM     12  H   UNL A   1      30.215  30.003  21.452  1.00  0.00     0.159 HD
ATOM     13  H   UNL A   1      31.851  29.911  20.981  1.00  0.00     0.159 HD
ATOM     14  O   UNL A   1      30.597  29.197  23.733  1.00  0.00    -0.275 OA
ENDBRANCH   9  10
ENDBRANCH   8   9
ENDBRANCH   7   8
BRANCH   7  15
ATOM     15  N   UNL A   1      33.175  25.120  24.075  1.00  0.00    -0.280 N 
ATOM     16  C   UNL A   1      33.593  24.175  25.002  1.00  0.00     0.266 C 
ATOM     17  C   UNL A   1      32.940  24.635  22.803  1.00  0.00     0.149 C 
ATOM     18  O   UNL A   1      33.956  24.382  26.152  1.00  0.00    -0.268 OA
ATOM     19  C   UNL A   1      33.529  22.811  24.431  1.00  0.00     0.081 C 
ATOM     20  S   UNL A   1      33.132  22.880  22.770  1.00  0.00    -0.054 SA
ATOM     21  S   UNL A   1      32.503  25.500  21.442  1.00  0.00    -0.052 S 
ATOM     22  C   UNL A   1      33.729  21.748  25.220  1.00  0.00     0.029 C 
BRANCH  22  23
ATOM     23  C   UNL A   1      33.716  20.338  24.838  1.00  0.00    -0.024 A 
ATOM     24  C   UNL A   1      32.492  19.680  24.673  1.00  0.00     0.009 A 
ATOM     25  C   UNL A   1      34.911  19.616  24.742  1.00  0.00     0.009 A 
ATOM     26  C   UNL A   1      32.461  18.307  24.418  1.00  0.00     0.012 A 
ATOM     27  C   UNL A   1      34.885  18.242  24.493  1.00  0.00     0.012 A 
ATOM     28  C   UNL A   1      33.659  17.592  24.338  1.00  0.00     0.014 A 
BRANCH  28  29
ATOM     29  C   UNL A   1      33.638  16.134  24.110  1.00  0.00     0.260 C 
ATOM     30  O   UNL A   1      34.174  15.346  24.879  1.00  0.00    -0.298 OA
ENDBRANCH  28  29
ENDBRANCH  22  23
ENDBRANCH   7  15
ENDBRANCH   4   7
ENDBRANCH   2   3
ENDBRANCH   1   2
BRANCH   1  31
ATOM     31  C   UNL A   1      32.261  31.253  26.640  1.00  0.00     0.023 C 
BRANCH  31  32
ATOM     32  C   UNL A   1      33.114  32.152  27.525  1.00  0.00     0.116 C 
BRANCH  32  33
ATOM     33  N   UNL A   1      32.600  33.512  27.648  1.00  0.00    -0.352 N 
ATOM     34  C   UNL A   1      33.058  34.532  28.449  1.00  0.00     0.251 C 
ATOM     35  H   UNL A   1      31.823  33.729  27.082  1.00  0.00     0.163 HD
ATOM     36  O   UNL A   1      32.475  35.608  28.501  1.00  0.00    -0.269 OA
BRANCH  34  37
ATOM     37  C   UNL A   1      34.241  34.284  29.292  1.00  0.00     0.039 A 
ATOM     38  C   UNL A   1      34.057  33.748  30.568  1.00  0.00     0.014 A 
ATOM     39  C   UNL A   1      35.522  34.468  28.767  1.00  0.00     0.014 A 
ATOM     40  C   UNL A   1      35.164  33.290  31.280  1.00  0.00     0.010 A 
ATOM     41  C   UNL A   1      36.613  33.938  29.442  1.00  0.00     0.010 A 
ATOM     42  C   UNL A   1      36.441  33.326  30.695  1.00  0.00    -0.014 A 
BRANCH  42  43
ATOM     43  C   UNL A   1      37.611  32.697  31.351  1.00  0.00     0.031 A 
ATOM     44  C   UNL A   1      38.308  31.544  30.691  1.00  0.00     0.074 A 
ATOM     45  C   UNL A   1      37.973  33.095  32.587  1.00  0.00     0.049 A 
ATOM     46  N   UNL A   1      39.259  30.776  31.156  1.00  0.00    -0.248 NA
ATOM     47  C   UNL A   1      37.847  31.184  29.341  1.00  0.00     0.031 C 
ATOM     48  C   UNL A   1      37.330  34.159  33.357  1.00  0.00     0.029 A 
ATOM     49  N   UNL A   1      38.959  32.632  33.421  1.00  0.00    -0.354 N 
ATOM     50  C   UNL A   1      39.494  29.833  30.167  1.00  0.00     0.074 A 
ATOM     51  C   UNL A   1      38.552  30.090  29.100  1.00  0.00     0.031 C 
ATOM     52  C   UNL A   1      37.945  34.279  34.545  1.00  0.00     0.029 A 
ATOM     53  C   UNL A   1      39.001  33.276  34.633  1.00  0.00     0.049 A 
ATOM     54  H   UNL A   1      39.579  31.907  33.173  1.00  0.00     0.167 HD
ATOM     55  C   UNL A   1      40.429  28.854  30.142  1.00  0.00     0.037 A 
ATOM     56  C   UNL A   1      39.796  33.071  35.701  1.00  0.00     0.037 A 
ATOM     57  C   UNL A   1      41.386  28.623  31.190  1.00  0.00     0.049 A 
ATOM     58  C   UNL A   1      40.841  31.992  35.641  1.00  0.00     0.074 A 
ATOM     59  C   UNL A   1      42.420  27.706  31.230  1.00  0.00     0.029 A 
ATOM     60  N   UNL A   1      41.425  29.324  32.388  1.00  0.00    -0.354 N 
ATOM     61  N   UNL A   1      41.098  31.146  34.673  1.00  0.00    -0.248 NA
ATOM     62  C   UNL A   1      41.707  31.841  36.819  1.00  0.00     0.031 C 
ATOM     63  C   UNL A   1      43.067  27.830  32.465  1.00  0.00     0.029 A 
ATOM     64  C   UNL A   1      42.456  28.846  33.181  1.00  0.00     0.049 A 
ATOM     65  H   UNL A   1      40.811  30.051  32.638  1.00  0.00     0.167 HD
ATOM     66  C   UNL A   1      42.160  30.371  35.117  1.00  0.00     0.074 A 
ATOM     67  C   UNL A   1      42.513  30.860  36.434  1.00  0.00     0.031 C 
ATOM     68  C   UNL A   1      42.786  29.346  34.490  1.00  0.00     0.037 A 
BRANCH  55  69
ATOM     69  C   UNL A   1      40.464  27.970  28.933  1.00  0.00     0.064 A 
ATOM     70  C   UNL A   1      41.212  28.313  27.796  1.00  0.00     0.173 A 
ATOM     71  C   UNL A   1      39.752  26.762  28.909  1.00  0.00     0.173 A 
ATOM     72  F   UNL A   1      41.897  29.466  27.763  1.00  0.00    -0.203 F 
ATOM     73  C   UNL A   1      41.220  27.496  26.670  1.00  0.00     0.198 A 
ATOM     74  C   UNL A   1      39.786  25.932  27.792  1.00  0.00     0.198 A 
ATOM     75  F   UNL A   1      39.023  26.386  29.971  1.00  0.00    -0.203 F 
ATOM     76  F   UNL A   1      41.899  27.872  25.577  1.00  0.00    -0.200 F 
ATOM     77  C   UNL A   1      40.512  26.304  26.671  1.00  0.00     0.200 A 
ATOM     78  F   UNL A   1      39.106  24.777  27.796  1.00  0.00    -0.200 F 
ATOM     79  F   UNL A   1      40.521  25.518  25.585  1.00  0.00    -0.200 F 
ENDBRANCH  55  69
BRANCH  56  80
ATOM     80  C   UNL A   1      39.643  33.921  36.908  1.00  0.00     0.064 A 
ATOM     81  C   UNL A   1      40.257  35.178  36.983  1.00  0.00     0.173 A 
ATOM     82  C   UNL A   1      38.872  33.504  38.001  1.00  0.00     0.173 A 
ATOM     83  F   UNL A   1      41.021  35.611  35.968  1.00  0.00    -0.203 F 
ATOM     84  C   UNL A   1      40.117  35.982  38.112  1.00  0.00     0.198 A 
ATOM     85  C   UNL A   1      38.713  34.317  39.121  1.00  0.00     0.198 A 
ATOM     86  F   UNL A   1      38.260  32.311  37.975  1.00  0.00    -0.203 F 
ATOM     87  F   UNL A   1      40.742  37.166  38.172  1.00  0.00    -0.200 F 
ATOM     88  C   UNL A   1      39.340  35.553  39.179  1.00  0.00     0.200 A 
ATOM     89  F   UNL A   1      37.951  33.905  40.144  1.00  0.00    -0.200 F 
ATOM     90  F   UNL A   1      39.199  36.329  40.262  1.00  0.00    -0.200 F 
ENDBRANCH  56  80
BRANCH  68  91
ATOM     91  C   UNL A   1      43.921  28.690  35.218  1.00  0.00     0.064 A 
ATOM     92  C   UNL A   1      43.704  27.602  36.076  1.00  0.00     0.173 A 
ATOM     93  C   UNL A   1      45.240  29.122  35.017  1.00  0.00     0.173 A 
ATOM     94  F   UNL A   1      42.458  27.165  36.311  1.00  0.00    -0.203 F 
ATOM     95  C   UNL A   1      44.770  26.979  36.719  1.00  0.00     0.198 A 
ATOM     96  C   UNL A   1      46.304  28.481  35.644  1.00  0.00     0.198 A 
ATOM     97  F   UNL A   1      45.496  30.157  34.203  1.00  0.00    -0.203 F 
ATOM     98  F   UNL A   1      44.539  25.962  37.561  1.00  0.00    -0.200 F 
ATOM     99  C   UNL A   1      46.068  27.413  36.497  1.00  0.00     0.200 A 
ATOM    100  F   UNL A   1      47.559  28.896  35.422  1.00  0.00    -0.200 F 
ATOM    101  F   UNL A   1      47.094  26.806  37.110  1.00  0.00    -0.200 F 
ENDBRANCH  68  91
ENDBRANCH  42  43
ENDBRANCH  34  37
ENDBRANCH  32  33
ENDBRANCH  31  32
ENDBRANCH   1  31
TORSDOF 17
ENDMDL
MODEL 3
REMARK VINA RESULT:     -12.4      1.360      2.098
REMARK SMILES NC(=O)CC[C@@H](C(=O)NCCCCNC(=O)c1ccc(-c2c3nc(c(-c4c(F)c(F)c(F)c(F)c4F)c4ccc([nH]4)c(-c4c(F)c(F)c(F)c(F)c4F)c4nc(c(-c5c(F)c(F)c(F)c(F)c5F)c5ccc2[nH]5)C=C4)C=C3)cc1)N1C(=O)/C(=C/c2ccc(C=O)cc2)SC1=S
REMARK SMILES IDX 11 1 10 2 9 3 7 4 8 5 6 7 5 8 4 9 2 10 1 11 3 14 80 15 81 16
REMARK SMILES IDX 94 17 82 18 83 19 93 20 95 21 84 22 85 23 86 24 92 25 87 26
REMARK SMILES IDX 91 27 88 28 89 29 90 30 12 31 13 32 14 33 15 34 16 36 17 37
REMARK SMILES IDX 18 38 79 39 19 40 78 41 20 42 21 43 22 44 72 45 23 46 77 47
REMARK SMILES IDX 71 48 73 49 24 50 76 51 70 52 69 53 25 55 57 56 37 57 56 58
REMARK SMILES IDX 38 59 41 60 55 61 74 62 39 63 40 64 54 66 75 67 42 68 26 69
REMARK SMILES IDX 27 70 35 71 28 72 29 73 33 74 36 75 30 76 31 77 34 78 32 79
REMARK SMILES IDX 58 80 59 81 67 82 60 83 61 84 65 85 68 86 62 87 63 88 66 89
REMARK SMILES IDX 64 90 43 91 44 92 52 93 45 94 46 95 50 96 53 97 47 98 48 99
REMARK SMILES IDX 51 100 49 101
REMARK H PARENT 9 6 1 12 1 13 14 35 73 54 41 65
REMARK Flexibility Score: inf
ROOT
ATOM      1  C   UNL A   1      32.340  30.193  26.645  1.00  0.00     0.023 C 
ENDROOT
BRANCH   1   2
ATOM      2  C   UNL A   1      31.877  29.535  25.343  1.00  0.00     0.116 C 
BRANCH   2   3
ATOM      3  N   UNL A   1      33.025  29.172  24.535  1.00  0.00    -0.354 N 
ATOM      4  C   UNL A   1      33.155  28.275  23.516  1.00  0.00     0.243 C 
ATOM      5  O   UNL A   1      34.293  28.122  23.064  1.00  0.00    -0.273 OA
ATOM      6  H   UNL A   1      33.852  29.656  24.762  1.00  0.00     0.163 HD
BRANCH   4   7
ATOM      7  C   UNL A   1      31.920  27.553  22.913  1.00  0.00     0.181 C 
BRANCH   7   8
ATOM      8  C   UNL A   1      30.564  27.787  23.617  1.00  0.00     0.045 C 
BRANCH   8   9
ATOM      9  C   UNL A   1      29.412  28.470  22.899  1.00  0.00     0.102 C 
BRANCH   9  10
ATOM     10  C   UNL A   1      29.522  29.913  22.460  1.00  0.00     0.217 C 
ATOM     11  N   UNL A   1      30.410  30.254  21.495  1.00  0.00    -0.370 N 
ATOM     12  H   UNL A   1      30.486  31.192  21.206  1.00  0.00     0.159 HD
ATOM     13  H   UNL A   1      30.979  29.564  21.083  1.00  0.00     0.159 HD
ATOM     14  O   UNL A   1      28.902  30.805  23.034  1.00  0.00    -0.275 OA
ENDBRANCH   9  10
ENDBRANCH   8   9
ENDBRANCH   7   8
BRANCH   7  15
ATOM     15  N   UNL A   1      32.281  26.101  22.920  1.00  0.00    -0.280 N 
ATOM     16  C   UNL A   1      32.517  25.455  24.125  1.00  0.00     0.266 C 
ATOM     17  C   UNL A   1      32.558  25.359  21.788  1.00  0.00     0.149 C 
ATOM     18  O   UNL A   1      32.443  25.938  25.247  1.00  0.00    -0.268 OA
ATOM     19  C   UNL A   1      32.864  24.032  23.902  1.00  0.00     0.081 C 
ATOM     20  S   UNL A   1      33.030  23.716  22.231  1.00  0.00    -0.054 SA
ATOM     21  S   UNL A   1      32.461  25.848  20.194  1.00  0.00    -0.052 S 
ATOM     22  C   UNL A   1      32.961  23.199  24.946  1.00  0.00     0.029 C 
BRANCH  22  23
ATOM     23  C   UNL A   1      33.300  21.779  24.924  1.00  0.00    -0.024 A 
ATOM     24  C   UNL A   1      34.644  21.390  24.990  1.00  0.00     0.009 A 
ATOM     25  C   UNL A   1      32.306  20.813  24.730  1.00  0.00     0.009 A 
ATOM     26  C   UNL A   1      34.992  20.044  24.857  1.00  0.00     0.012 A 
ATOM     27  C   UNL A   1      32.652  19.467  24.592  1.00  0.00     0.012 A 
ATOM     28  C   UNL A   1      33.994  19.088  24.651  1.00  0.00     0.014 A 
BRANCH  28  29
ATOM     29  C   UNL A   1      34.354  17.668  24.469  1.00  0.00     0.260 C 
ATOM     30  O   UNL A   1      33.883  16.987  23.567  1.00  0.00    -0.298 OA
ENDBRANCH  28  29
ENDBRANCH  22  23
ENDBRANCH   7  15
ENDBRANCH   4   7
ENDBRANCH   2   3
ENDBRANCH   1   2
BRANCH   1  31
ATOM     31  C   UNL A   1      31.904  31.641  26.810  1.00  0.00     0.023 C 
BRANCH  31  32
ATOM     32  C   UNL A   1      32.998  32.557  27.341  1.00  0.00     0.116 C 
BRANCH  32  33
ATOM     33  N   UNL A   1      32.540  33.912  27.630  1.00  0.00    -0.352 N 
ATOM     34  C   UNL A   1      33.018  34.797  28.568  1.00  0.00     0.251 C 
ATOM     35  H   UNL A   1      31.789  34.237  27.080  1.00  0.00     0.163 HD
ATOM     36  O   UNL A   1      32.481  35.883  28.747  1.00  0.00    -0.269 OA
BRANCH  34  37
ATOM     37  C   UNL A   1      34.165  34.386  29.398  1.00  0.00     0.039 A 
ATOM     38  C   UNL A   1      33.919  33.765  30.624  1.00  0.00     0.014 A 
ATOM     39  C   UNL A   1      35.464  34.507  28.901  1.00  0.00     0.014 A 
ATOM     40  C   UNL A   1      34.974  33.163  31.306  1.00  0.00     0.010 A 
ATOM     41  C   UNL A   1      36.499  33.837  29.541  1.00  0.00     0.010 A 
ATOM     42  C   UNL A   1      36.258  33.143  30.738  1.00  0.00    -0.014 A 
BRANCH  42  43
ATOM     43  C   UNL A   1      37.365  32.369  31.350  1.00  0.00     0.031 A 
ATOM     44  C   UNL A   1      37.880  32.748  32.707  1.00  0.00     0.074 A 
ATOM     45  C   UNL A   1      37.972  31.401  30.637  1.00  0.00     0.049 A 
ATOM     46  N   UNL A   1      38.918  32.288  33.356  1.00  0.00    -0.248 NA
ATOM     47  C   UNL A   1      37.151  33.814  33.413  1.00  0.00     0.031 C 
ATOM     48  C   UNL A   1      37.604  30.988  29.282  1.00  0.00     0.029 A 
ATOM     49  N   UNL A   1      39.044  30.603  30.947  1.00  0.00    -0.354 N 
ATOM     50  C   UNL A   1      38.977  33.021  34.533  1.00  0.00     0.074 A 
ATOM     51  C   UNL A   1      37.906  33.990  34.485  1.00  0.00     0.031 C 
ATOM     52  C   UNL A   1      38.426  30.005  28.882  1.00  0.00     0.029 A 
ATOM     53  C   UNL A   1      39.400  29.743  29.936  1.00  0.00     0.049 A 
ATOM     54  H   UNL A   1      39.513  30.641  31.812  1.00  0.00     0.167 HD
ATOM     55  C   UNL A   1      39.836  32.879  35.570  1.00  0.00     0.037 A 
ATOM     56  C   UNL A   1      40.408  28.853  29.865  1.00  0.00     0.037 A 
ATOM     57  C   UNL A   1      40.879  31.891  35.627  1.00  0.00     0.049 A 
ATOM     58  C   UNL A   1      41.335  28.700  31.037  1.00  0.00     0.074 A 
ATOM     59  C   UNL A   1      41.755  31.618  36.662  1.00  0.00     0.029 A 
ATOM     60  N   UNL A   1      41.184  31.008  34.599  1.00  0.00    -0.354 N 
ATOM     61  N   UNL A   1      41.343  29.354  32.173  1.00  0.00    -0.248 NA
ATOM     62  C   UNL A   1      42.391  27.685  30.920  1.00  0.00     0.031 C 
ATOM     63  C   UNL A   1      42.611  30.590  36.250  1.00  0.00     0.029 A 
ATOM     64  C   UNL A   1      42.247  30.201  34.971  1.00  0.00     0.049 A 
ATOM     65  H   UNL A   1      40.715  30.964  33.735  1.00  0.00     0.167 HD
ATOM     66  C   UNL A   1      42.392  28.824  32.912  1.00  0.00     0.074 A 
ATOM     67  C   UNL A   1      42.987  27.781  32.101  1.00  0.00     0.031 C 
ATOM     68  C   UNL A   1      42.825  29.171  34.147  1.00  0.00     0.037 A 
BRANCH  55  69
ATOM     69  C   UNL A   1      39.669  33.813  36.730  1.00  0.00     0.064 A 
ATOM     70  C   UNL A   1      40.304  35.064  36.760  1.00  0.00     0.173 A 
ATOM     71  C   UNL A   1      38.858  33.462  37.819  1.00  0.00     0.173 A 
ATOM     72  F   UNL A   1      41.103  35.439  35.750  1.00  0.00    -0.203 F 
ATOM     73  C   UNL A   1      40.159  35.914  37.852  1.00  0.00     0.198 A 
ATOM     74  C   UNL A   1      38.693  34.328  38.897  1.00  0.00     0.198 A 
ATOM     75  F   UNL A   1      38.227  32.278  37.839  1.00  0.00    -0.203 F 
ATOM     76  F   UNL A   1      40.819  37.081  37.881  1.00  0.00    -0.200 F 
ATOM     77  C   UNL A   1      39.350  35.549  38.916  1.00  0.00     0.200 A 
ATOM     78  F   UNL A   1      37.904  33.976  39.922  1.00  0.00    -0.200 F 
ATOM     79  F   UNL A   1      39.212  36.369  39.967  1.00  0.00    -0.200 F 
ENDBRANCH  55  69
BRANCH  56  80
ATOM     80  C   UNL A   1      40.577  28.026  28.643  1.00  0.00     0.064 A 
ATOM     81  C   UNL A   1      39.938  26.785  28.524  1.00  0.00     0.173 A 
ATOM     82  C   UNL A   1      41.363  28.464  27.569  1.00  0.00     0.173 A 
ATOM     83  F   UNL A   1      39.190  26.317  29.535  1.00  0.00    -0.203 F 
ATOM     84  C   UNL A   1      40.091  26.004  27.379  1.00  0.00     0.198 A 
ATOM     85  C   UNL A   1      41.498  27.694  26.416  1.00  0.00     0.198 A 
ATOM     86  F   UNL A   1      41.990  29.648  27.634  1.00  0.00    -0.203 F 
ATOM     87  F   UNL A   1      39.496  24.806  27.304  1.00  0.00    -0.200 F 
ATOM     88  C   UNL A   1      40.866  26.462  26.324  1.00  0.00     0.200 A 
ATOM     89  F   UNL A   1      42.237  28.145  25.393  1.00  0.00    -0.200 F 
ATOM     90  F   UNL A   1      41.008  25.715  25.221  1.00  0.00    -0.200 F 
ENDBRANCH  56  80
BRANCH  68  91
ATOM     91  C   UNL A   1      43.992  28.412  34.702  1.00  0.00     0.064 A 
ATOM     92  C   UNL A   1      43.813  27.210  35.402  1.00  0.00     0.173 A 
ATOM     93  C   UNL A   1      45.302  28.865  34.489  1.00  0.00     0.173 A 
ATOM     94  F   UNL A   1      42.578  26.746  35.643  1.00  0.00    -0.203 F 
ATOM     95  C   UNL A   1      44.907  26.495  35.881  1.00  0.00     0.198 A 
ATOM     96  C   UNL A   1      46.393  28.135  34.951  1.00  0.00     0.198 A 
ATOM     97  F   UNL A   1      45.522  30.008  33.823  1.00  0.00    -0.203 F 
ATOM     98  F   UNL A   1      44.714  25.365  36.577  1.00  0.00    -0.200 F 
ATOM     99  C   UNL A   1      46.195  26.954  35.650  1.00  0.00     0.200 A 
ATOM    100  F   UNL A   1      47.638  28.575  34.718  1.00  0.00    -0.200 F 
ATOM    101  F   UNL A   1      47.247  26.259  36.105  1.00  0.00    -0.200 F 
ENDBRANCH  68  91
ENDBRANCH  42  43
ENDBRANCH  34  37
ENDBRANCH  32  33
ENDBRANCH  31  32
ENDBRANCH   1  31
TORSDOF 17
ENDMDL
