MODEL 1
REMARK VINA RESULT:     -12.2      0.000      0.000
REMARK SMILES O=C(NCCCCNC(=O)[C@]1(O)C[C@@H]2C=C[C@H]1C2)c1ccc(-c2c3nc(c(-c4c(F)c(F)c(F)c(F)c4F)c4ccc([nH]4)c(-c4c(F)c(F)c(F)c(F)c4F)c4nc(c(-c5c(F)c(F)c(F)c(F)c5F)c5ccc2[nH]5)C=C4)C=C3)cc1
REMARK SMILES IDX 5 1 4 2 3 3 1 4 2 5 19 7 20 8 81 9 21 10 80 11 22 12 23 13
REMARK SMILES IDX 24 14 74 15 25 16 79 17 73 18 75 19 26 20 78 21 72 22 71 23
REMARK SMILES IDX 27 25 59 26 39 27 58 28 40 29 43 30 57 31 76 32 41 33 42 34
REMARK SMILES IDX 56 36 77 37 44 38 28 39 29 40 37 41 30 42 31 43 35 44 38 45
REMARK SMILES IDX 32 46 33 47 36 48 34 49 60 50 61 51 69 52 62 53 63 54 67 55
REMARK SMILES IDX 70 56 64 57 65 58 68 59 66 60 45 61 46 62 54 63 47 64 48 65
REMARK SMILES IDX 52 66 55 67 49 68 50 69 53 70 51 71 6 72 7 73 8 74 9 75
REMARK SMILES IDX 10 77 11 78 13 79 17 80 14 81 16 82 18 83 15 84 12 85
REMARK H PARENT 3 6 75 24 43 35 8 76 12 86
REMARK Flexibility Score: inf
ROOT
ATOM      1  C   UNL A   1      37.930  19.802  24.854  1.00  0.00     0.023 C 
ENDROOT
BRANCH   1   2
ATOM      2  C   UNL A   1      39.078  20.225  25.761  1.00  0.00     0.116 C 
BRANCH   2   3
ATOM      3  N   UNL A   1      40.103  19.203  25.890  1.00  0.00    -0.352 N 
ATOM      4  O   UNL A   1      42.212  18.413  26.078  1.00  0.00    -0.269 OA
ATOM      5  C   UNL A   1      41.445  19.369  26.125  1.00  0.00     0.251 C 
ATOM      6  H   UNL A   1      39.796  18.272  25.798  1.00  0.00     0.163 HD
BRANCH   5   7
ATOM      7  C   UNL A   1      41.964  20.722  26.417  1.00  0.00     0.039 A 
ATOM      8  C   UNL A   1      42.240  21.613  25.376  1.00  0.00     0.014 A 
ATOM      9  C   UNL A   1      42.161  21.102  27.746  1.00  0.00     0.014 A 
ATOM     10  C   UNL A   1      42.800  22.853  25.660  1.00  0.00     0.010 A 
ATOM     11  C   UNL A   1      42.659  22.374  28.035  1.00  0.00     0.010 A 
ATOM     12  C   UNL A   1      42.987  23.255  26.992  1.00  0.00    -0.014 A 
BRANCH  12  13
ATOM     13  C   UNL A   1      43.400  24.650  27.280  1.00  0.00     0.031 A 
ATOM     14  C   UNL A   1      42.429  25.662  27.808  1.00  0.00     0.074 A 
ATOM     15  C   UNL A   1      44.680  24.990  27.032  1.00  0.00     0.049 A 
ATOM     16  N   UNL A   1      42.625  26.930  28.069  1.00  0.00    -0.248 NA
ATOM     17  C   UNL A   1      41.056  25.201  28.070  1.00  0.00     0.031 C 
ATOM     18  C   UNL A   1      45.701  24.085  26.496  1.00  0.00     0.029 A 
ATOM     19  N   UNL A   1      45.342  26.180  27.189  1.00  0.00    -0.354 N 
ATOM     20  C   UNL A   1      41.404  27.423  28.506  1.00  0.00     0.074 A 
ATOM     21  C   UNL A   1      40.465  26.322  28.465  1.00  0.00     0.031 C 
ATOM     22  C   UNL A   1      46.860  24.747  26.381  1.00  0.00     0.029 A 
ATOM     23  C   UNL A   1      46.651  26.134  26.774  1.00  0.00     0.049 A 
ATOM     24  H   UNL A   1      44.921  26.988  27.560  1.00  0.00     0.167 HD
ATOM     25  C   UNL A   1      41.106  28.683  28.904  1.00  0.00     0.037 A 
ATOM     26  C   UNL A   1      47.572  27.111  26.684  1.00  0.00     0.037 A 
ATOM     27  C   UNL A   1      42.060  29.761  28.965  1.00  0.00     0.049 A 
ATOM     28  C   UNL A   1      47.196  28.502  27.105  1.00  0.00     0.074 A 
ATOM     29  C   UNL A   1      41.879  31.045  29.448  1.00  0.00     0.029 A 
ATOM     30  N   UNL A   1      43.371  29.685  28.516  1.00  0.00    -0.354 N 
ATOM     31  N   UNL A   1      46.059  28.937  27.591  1.00  0.00    -0.248 NA
ATOM     32  C   UNL A   1      48.225  29.539  26.957  1.00  0.00     0.031 C 
ATOM     33  C   UNL A   1      43.059  31.764  29.237  1.00  0.00     0.029 A 
ATOM     34  C   UNL A   1      43.993  30.914  28.666  1.00  0.00     0.049 A 
ATOM     35  H   UNL A   1      43.795  28.878  28.145  1.00  0.00     0.167 HD
ATOM     36  C   UNL A   1      46.237  30.295  27.810  1.00  0.00     0.074 A 
ATOM     37  C   UNL A   1      47.601  30.606  27.433  1.00  0.00     0.031 C 
ATOM     38  C   UNL A   1      45.346  31.205  28.272  1.00  0.00     0.037 A 
BRANCH  25  39
ATOM     39  C   UNL A   1      39.692  28.991  29.297  1.00  0.00     0.064 A 
ATOM     40  C   UNL A   1      38.738  29.405  28.357  1.00  0.00     0.173 A 
ATOM     41  C   UNL A   1      39.263  28.764  30.614  1.00  0.00     0.173 A 
ATOM     42  F   UNL A   1      39.099  29.641  27.087  1.00  0.00    -0.203 F 
ATOM     43  C   UNL A   1      37.405  29.582  28.722  1.00  0.00     0.198 A 
ATOM     44  C   UNL A   1      37.926  28.920  30.971  1.00  0.00     0.198 A 
ATOM     45  F   UNL A   1      40.136  28.359  31.549  1.00  0.00    -0.203 F 
ATOM     46  F   UNL A   1      36.511  29.989  27.811  1.00  0.00    -0.200 F 
ATOM     47  C   UNL A   1      36.998  29.328  30.024  1.00  0.00     0.200 A 
ATOM     48  F   UNL A   1      37.533  28.662  32.226  1.00  0.00    -0.200 F 
ATOM     49  F   UNL A   1      35.711  29.476  30.367  1.00  0.00    -0.200 F 
ENDBRANCH  25  39
BRANCH  26  50
ATOM     50  C   UNL A   1      48.916  26.811  26.130  1.00  0.00     0.064 A 
ATOM     51  C   UNL A   1      49.202  27.011  24.773  1.00  0.00     0.173 A 
ATOM     52  C   UNL A   1      49.942  26.309  26.947  1.00  0.00     0.173 A 
ATOM     53  F   UNL A   1      48.249  27.470  23.948  1.00  0.00    -0.203 F 
ATOM     54  C   UNL A   1      50.456  26.703  24.251  1.00  0.00     0.198 A 
ATOM     55  C   UNL A   1      51.204  26.033  26.430  1.00  0.00     0.198 A 
ATOM     56  F   UNL A   1      49.719  26.104  28.253  1.00  0.00    -0.203 F 
ATOM     57  F   UNL A   1      50.690  26.858  22.940  1.00  0.00    -0.200 F 
ATOM     58  C   UNL A   1      51.458  26.220  25.080  1.00  0.00     0.200 A 
ATOM     59  F   UNL A   1      52.172  25.583  27.240  1.00  0.00    -0.200 F 
ATOM     60  F   UNL A   1      52.665  25.927  24.577  1.00  0.00    -0.200 F 
ENDBRANCH  26  50
BRANCH  38  61
ATOM     61  C   UNL A   1      45.823  32.622  28.389  1.00  0.00     0.064 A 
ATOM     62  C   UNL A   1      45.642  33.537  27.342  1.00  0.00     0.173 A 
ATOM     63  C   UNL A   1      46.431  33.078  29.568  1.00  0.00     0.173 A 
ATOM     64  F   UNL A   1      45.084  33.142  26.188  1.00  0.00    -0.203 F 
ATOM     65  C   UNL A   1      46.074  34.855  27.463  1.00  0.00     0.198 A 
ATOM     66  C   UNL A   1      46.836  34.402  29.696  1.00  0.00     0.198 A 
ATOM     67  F   UNL A   1      46.622  32.240  30.598  1.00  0.00    -0.203 F 
ATOM     68  F   UNL A   1      45.934  35.702  26.435  1.00  0.00    -0.200 F 
ATOM     69  C   UNL A   1      46.662  35.289  28.643  1.00  0.00     0.200 A 
ATOM     70  F   UNL A   1      47.393  34.823  30.839  1.00  0.00    -0.200 F 
ATOM     71  F   UNL A   1      47.070  36.560  28.761  1.00  0.00    -0.200 F 
ENDBRANCH  38  61
ENDBRANCH  12  13
ENDBRANCH   5   7
ENDBRANCH   2   3
ENDBRANCH   1   2
BRANCH   1  72
ATOM     72  C   UNL A   1      36.861  20.874  24.627  1.00  0.00     0.023 C 
BRANCH  72  73
ATOM     73  C   UNL A   1      35.590  20.681  25.454  1.00  0.00     0.116 C 
BRANCH  73  74
ATOM     74  N   UNL A   1      34.400  20.929  24.664  1.00  0.00    -0.354 N 
ATOM     75  C   UNL A   1      33.410  20.050  24.311  1.00  0.00     0.252 C 
ATOM     76  H   UNL A   1      34.288  21.851  24.339  1.00  0.00     0.163 HD
ATOM     77  O   UNL A   1      32.591  20.430  23.471  1.00  0.00    -0.272 OA
BRANCH  75  78
ATOM     78  C   UNL A   1      33.332  18.663  25.010  1.00  0.00     0.149 C 
ATOM     79  C   UNL A   1      34.688  17.880  24.995  1.00  0.00     0.053 C 
ATOM     80  C   UNL A   1      32.391  17.690  24.225  1.00  0.00     0.053 C 
ATOM     81  C   UNL A   1      34.334  16.588  24.220  1.00  0.00     0.015 C 
ATOM     82  C   UNL A   1      32.850  17.598  22.785  1.00  0.00    -0.024 C 
ATOM     83  C   UNL A   1      32.906  16.322  24.698  1.00  0.00     0.019 C 
ATOM     84  C   UNL A   1      34.028  16.955  22.789  1.00  0.00    -0.027 C 
BRANCH  78  85
ATOM     85  O   UNL A   1      32.904  18.821  26.368  1.00  0.00    -0.379 OA
ATOM     86  H   UNL A   1      32.218  19.506  26.414  1.00  0.00     0.212 HD
ENDBRANCH  78  85
ENDBRANCH  75  78
ENDBRANCH  73  74
ENDBRANCH  72  73
ENDBRANCH   1  72
TORSDOF 12
ENDMDL
MODEL 2
REMARK VINA RESULT:     -12.1      7.037     12.196
REMARK SMILES O=C(NCCCCNC(=O)[C@]1(O)C[C@@H]2C=C[C@H]1C2)c1ccc(-c2c3nc(c(-c4c(F)c(F)c(F)c(F)c4F)c4ccc([nH]4)c(-c4c(F)c(F)c(F)c(F)c4F)c4nc(c(-c5c(F)c(F)c(F)c(F)c5F)c5ccc2[nH]5)C=C4)C=C3)cc1
REMARK SMILES IDX 5 1 4 2 3 3 1 4 2 5 19 7 20 8 81 9 21 10 80 11 22 12 23 13
REMARK SMILES IDX 24 14 74 15 25 16 79 17 73 18 75 19 26 20 78 21 72 22 71 23
REMARK SMILES IDX 27 25 59 26 39 27 58 28 40 29 43 30 57 31 76 32 41 33 42 34
REMARK SMILES IDX 56 36 77 37 44 38 28 39 29 40 37 41 30 42 31 43 35 44 38 45
REMARK SMILES IDX 32 46 33 47 36 48 34 49 60 50 61 51 69 52 62 53 63 54 67 55
REMARK SMILES IDX 70 56 64 57 65 58 68 59 66 60 45 61 46 62 54 63 47 64 48 65
REMARK SMILES IDX 52 66 55 67 49 68 50 69 53 70 51 71 6 72 7 73 8 74 9 75
REMARK SMILES IDX 10 77 11 78 13 79 17 80 14 81 16 82 18 83 15 84 12 85
REMARK H PARENT 3 6 75 24 43 35 8 76 12 86
REMARK Flexibility Score: inf
ROOT
ATOM      1  C   UNL A   1      31.409  31.746  26.591  1.00  0.00     0.023 C 
ENDROOT
BRANCH   1   2
ATOM      2  C   UNL A   1      32.656  32.462  27.093  1.00  0.00     0.116 C 
BRANCH   2   3
ATOM      3  N   UNL A   1      32.401  33.841  27.477  1.00  0.00    -0.352 N 
ATOM      4  O   UNL A   1      32.608  35.695  28.751  1.00  0.00    -0.269 OA
ATOM      5  C   UNL A   1      33.023  34.581  28.451  1.00  0.00     0.251 C 
ATOM      6  H   UNL A   1      31.693  34.303  26.973  1.00  0.00     0.163 HD
BRANCH   5   7
ATOM      7  C   UNL A   1      34.189  34.010  29.156  1.00  0.00     0.039 A 
ATOM      8  C   UNL A   1      34.008  33.121  30.220  1.00  0.00     0.014 A 
ATOM      9  C   UNL A   1      35.475  34.360  28.736  1.00  0.00     0.014 A 
ATOM     10  C   UNL A   1      35.112  32.653  30.923  1.00  0.00     0.010 A 
ATOM     11  C   UNL A   1      36.585  33.834  29.400  1.00  0.00     0.010 A 
ATOM     12  C   UNL A   1      36.410  32.981  30.501  1.00  0.00    -0.014 A 
BRANCH  12  13
ATOM     13  C   UNL A   1      37.572  32.319  31.139  1.00  0.00     0.031 A 
ATOM     14  C   UNL A   1      38.280  31.173  30.481  1.00  0.00     0.074 A 
ATOM     15  C   UNL A   1      37.965  32.766  32.348  1.00  0.00     0.049 A 
ATOM     16  N   UNL A   1      39.283  30.462  30.929  1.00  0.00    -0.248 NA
ATOM     17  C   UNL A   1      37.799  30.761  29.152  1.00  0.00     0.031 C 
ATOM     18  C   UNL A   1      37.329  33.861  33.085  1.00  0.00     0.029 A 
ATOM     19  N   UNL A   1      38.982  32.359  33.172  1.00  0.00    -0.354 N 
ATOM     20  C   UNL A   1      39.543  29.510  29.953  1.00  0.00     0.074 A 
ATOM     21  C   UNL A   1      38.584  29.724  28.890  1.00  0.00     0.031 C 
ATOM     22  C   UNL A   1      37.977  34.047  34.244  1.00  0.00     0.029 A 
ATOM     23  C   UNL A   1      39.031  33.047  34.360  1.00  0.00     0.049 A 
ATOM     24  H   UNL A   1      39.614  31.642  32.937  1.00  0.00     0.167 HD
ATOM     25  C   UNL A   1      40.499  28.550  29.955  1.00  0.00     0.037 A 
ATOM     26  C   UNL A   1      39.812  32.869  35.440  1.00  0.00     0.037 A 
ATOM     27  C   UNL A   1      41.464  28.369  31.009  1.00  0.00     0.049 A 
ATOM     28  C   UNL A   1      40.839  31.775  35.418  1.00  0.00     0.074 A 
ATOM     29  C   UNL A   1      42.532  27.490  31.058  1.00  0.00     0.029 A 
ATOM     30  N   UNL A   1      41.468  29.069  32.207  1.00  0.00    -0.354 N 
ATOM     31  N   UNL A   1      41.126  30.932  34.456  1.00  0.00    -0.248 NA
ATOM     32  C   UNL A   1      41.645  31.599  36.633  1.00  0.00     0.031 C 
ATOM     33  C   UNL A   1      43.147  27.616  32.307  1.00  0.00     0.029 A 
ATOM     34  C   UNL A   1      42.491  28.607  33.020  1.00  0.00     0.049 A 
ATOM     35  H   UNL A   1      40.838  29.787  32.445  1.00  0.00     0.167 HD
ATOM     36  C   UNL A   1      42.145  30.130  34.946  1.00  0.00     0.074 A 
ATOM     37  C   UNL A   1      42.449  30.607  36.280  1.00  0.00     0.031 C 
ATOM     38  C   UNL A   1      42.768  29.086  34.349  1.00  0.00     0.037 A 
BRANCH  25  39
ATOM     39  C   UNL A   1      40.558  27.601  28.796  1.00  0.00     0.064 A 
ATOM     40  C   UNL A   1      39.772  26.442  28.750  1.00  0.00     0.173 A 
ATOM     41  C   UNL A   1      41.333  27.916  27.668  1.00  0.00     0.173 A 
ATOM     42  F   UNL A   1      39.019  26.094  29.803  1.00  0.00    -0.203 F 
ATOM     43  C   UNL A   1      39.762  25.630  27.617  1.00  0.00     0.198 A 
ATOM     44  C   UNL A   1      41.304  27.114  26.530  1.00  0.00     0.198 A 
ATOM     45  F   UNL A   1      42.097  29.020  27.660  1.00  0.00    -0.203 F 
ATOM     46  F   UNL A   1      39.013  24.519  27.598  1.00  0.00    -0.200 F 
ATOM     47  C   UNL A   1      40.517  25.973  26.505  1.00  0.00     0.200 A 
ATOM     48  F   UNL A   1      42.024  27.455  25.452  1.00  0.00    -0.200 F 
ATOM     49  F   UNL A   1      40.487  25.203  25.408  1.00  0.00    -0.200 F 
ENDBRANCH  25  39
BRANCH  26  50
ATOM     50  C   UNL A   1      39.615  33.717  36.643  1.00  0.00     0.064 A 
ATOM     51  C   UNL A   1      38.788  33.302  37.695  1.00  0.00     0.173 A 
ATOM     52  C   UNL A   1      40.247  34.964  36.761  1.00  0.00     0.173 A 
ATOM     53  F   UNL A   1      38.146  32.127  37.618  1.00  0.00    -0.203 F 
ATOM     54  C   UNL A   1      38.584  34.112  38.809  1.00  0.00     0.198 A 
ATOM     55  C   UNL A   1      40.069  35.758  37.891  1.00  0.00     0.198 A 
ATOM     56  F   UNL A   1      41.053  35.405  35.784  1.00  0.00    -0.203 F 
ATOM     57  F   UNL A   1      37.750  33.714  39.779  1.00  0.00    -0.200 F 
ATOM     58  C   UNL A   1      39.230  35.336  38.910  1.00  0.00     0.200 A 
ATOM     59  F   UNL A   1      40.709  36.932  37.989  1.00  0.00    -0.200 F 
ATOM     60  F   UNL A   1      39.035  36.113  39.984  1.00  0.00    -0.200 F 
ENDBRANCH  26  50
BRANCH  38  61
ATOM     61  C   UNL A   1      43.834  28.388  35.139  1.00  0.00     0.064 A 
ATOM     62  C   UNL A   1      43.537  27.267  35.928  1.00  0.00     0.173 A 
ATOM     63  C   UNL A   1      45.167  28.821  35.081  1.00  0.00     0.173 A 
ATOM     64  F   UNL A   1      42.273  26.829  36.031  1.00  0.00    -0.203 F 
ATOM     65  C   UNL A   1      44.535  26.616  36.648  1.00  0.00     0.198 A 
ATOM     66  C   UNL A   1      46.166  28.151  35.780  1.00  0.00     0.198 A 
ATOM     67  F   UNL A   1      45.500  29.887  34.338  1.00  0.00    -0.203 F 
ATOM     68  F   UNL A   1      44.223  25.575  37.431  1.00  0.00    -0.200 F 
ATOM     69  C   UNL A   1      45.849  27.053  36.566  1.00  0.00     0.200 A 
ATOM     70  F   UNL A   1      47.437  28.566  35.691  1.00  0.00    -0.200 F 
ATOM     71  F   UNL A   1      46.810  26.420  37.253  1.00  0.00    -0.200 F 
ENDBRANCH  38  61
ENDBRANCH  12  13
ENDBRANCH   5   7
ENDBRANCH   2   3
ENDBRANCH   1   2
BRANCH   1  72
ATOM     72  C   UNL A   1      31.593  30.253  26.311  1.00  0.00     0.023 C 
BRANCH  72  73
ATOM     73  C   UNL A   1      31.840  29.914  24.842  1.00  0.00     0.116 C 
BRANCH  73  74
ATOM     74  N   UNL A   1      31.056  28.769  24.422  1.00  0.00    -0.354 N 
ATOM     75  C   UNL A   1      30.012  28.728  23.534  1.00  0.00     0.252 C 
ATOM     76  H   UNL A   1      31.306  27.908  24.827  1.00  0.00     0.163 HD
ATOM     77  O   UNL A   1      29.364  27.680  23.474  1.00  0.00    -0.272 OA
BRANCH  75  78
ATOM     78  C   UNL A   1      29.732  29.956  22.623  1.00  0.00     0.149 C 
ATOM     79  C   UNL A   1      29.683  31.313  23.403  1.00  0.00     0.053 C 
ATOM     80  C   UNL A   1      28.294  29.886  22.012  1.00  0.00     0.053 C 
ATOM     81  C   UNL A   1      28.248  31.821  23.127  1.00  0.00     0.015 C 
ATOM     82  C   UNL A   1      27.279  29.736  23.126  1.00  0.00    -0.024 C 
ATOM     83  C   UNL A   1      28.030  31.364  21.683  1.00  0.00     0.019 C 
ATOM     84  C   UNL A   1      27.271  30.893  23.806  1.00  0.00    -0.027 C 
BRANCH  78  85
ATOM     85  O   UNL A   1      30.730  30.046  21.600  1.00  0.00    -0.379 OA
ATOM     86  H   UNL A   1      30.314  30.313  20.765  1.00  0.00     0.212 HD
ENDBRANCH  78  85
ENDBRANCH  75  78
ENDBRANCH  73  74
ENDBRANCH  72  73
ENDBRANCH   1  72
TORSDOF 12
ENDMDL
MODEL 3
REMARK VINA RESULT:     -12.1      0.074      1.671
REMARK SMILES O=C(NCCCCNC(=O)[C@]1(O)C[C@@H]2C=C[C@H]1C2)c1ccc(-c2c3nc(c(-c4c(F)c(F)c(F)c(F)c4F)c4ccc([nH]4)c(-c4c(F)c(F)c(F)c(F)c4F)c4nc(c(-c5c(F)c(F)c(F)c(F)c5F)c5ccc2[nH]5)C=C4)C=C3)cc1
REMARK SMILES IDX 5 1 4 2 3 3 1 4 2 5 19 7 20 8 81 9 21 10 80 11 22 12 23 13
REMARK SMILES IDX 24 14 74 15 25 16 79 17 73 18 75 19 26 20 78 21 72 22 71 23
REMARK SMILES IDX 27 25 59 26 39 27 58 28 40 29 43 30 57 31 76 32 41 33 42 34
REMARK SMILES IDX 56 36 77 37 44 38 28 39 29 40 37 41 30 42 31 43 35 44 38 45
REMARK SMILES IDX 32 46 33 47 36 48 34 49 60 50 61 51 69 52 62 53 63 54 67 55
REMARK SMILES IDX 70 56 64 57 65 58 68 59 66 60 45 61 46 62 54 63 47 64 48 65
REMARK SMILES IDX 52 66 55 67 49 68 50 69 53 70 51 71 6 72 7 73 8 74 9 75
REMARK SMILES IDX 10 77 11 78 13 79 17 80 14 81 16 82 18 83 15 84 12 85
REMARK H PARENT 3 6 75 24 43 35 8 76 12 86
REMARK Flexibility Score: inf
ROOT
ATOM      1  C   UNL A   1      37.867  19.748  24.994  1.00  0.00     0.023 C 
ENDROOT
BRANCH   1   2
ATOM      2  C   UNL A   1      39.098  20.230  25.751  1.00  0.00     0.116 C 
BRANCH   2   3
ATOM      3  N   UNL A   1      40.118  19.203  25.886  1.00  0.00    -0.352 N 
ATOM      4  O   UNL A   1      42.223  18.404  26.082  1.00  0.00    -0.269 OA
ATOM      5  C   UNL A   1      41.460  19.364  26.125  1.00  0.00     0.251 C 
ATOM      6  H   UNL A   1      39.806  18.273  25.796  1.00  0.00     0.163 HD
BRANCH   5   7
ATOM      7  C   UNL A   1      41.984  20.714  26.414  1.00  0.00     0.039 A 
ATOM      8  C   UNL A   1      42.213  21.622  25.376  1.00  0.00     0.014 A 
ATOM      9  C   UNL A   1      42.233  21.077  27.740  1.00  0.00     0.014 A 
ATOM     10  C   UNL A   1      42.779  22.860  25.655  1.00  0.00     0.010 A 
ATOM     11  C   UNL A   1      42.737  22.347  28.026  1.00  0.00     0.010 A 
ATOM     12  C   UNL A   1      43.018  23.245  26.984  1.00  0.00    -0.014 A 
BRANCH  12  13
ATOM     13  C   UNL A   1      43.437  24.637  27.275  1.00  0.00     0.031 A 
ATOM     14  C   UNL A   1      42.469  25.652  27.805  1.00  0.00     0.074 A 
ATOM     15  C   UNL A   1      44.718  24.973  27.028  1.00  0.00     0.049 A 
ATOM     16  N   UNL A   1      42.670  26.918  28.068  1.00  0.00    -0.248 NA
ATOM     17  C   UNL A   1      41.094  25.196  28.066  1.00  0.00     0.031 C 
ATOM     18  C   UNL A   1      45.735  24.065  26.490  1.00  0.00     0.029 A 
ATOM     19  N   UNL A   1      45.385  26.160  27.188  1.00  0.00    -0.354 N 
ATOM     20  C   UNL A   1      41.450  27.416  28.506  1.00  0.00     0.074 A 
ATOM     21  C   UNL A   1      40.507  26.318  28.462  1.00  0.00     0.031 C 
ATOM     22  C   UNL A   1      46.897  24.723  26.378  1.00  0.00     0.029 A 
ATOM     23  C   UNL A   1      46.693  26.110  26.773  1.00  0.00     0.049 A 
ATOM     24  H   UNL A   1      44.966  26.969  27.561  1.00  0.00     0.167 HD
ATOM     25  C   UNL A   1      41.158  28.676  28.906  1.00  0.00     0.037 A 
ATOM     26  C   UNL A   1      47.618  27.083  26.686  1.00  0.00     0.037 A 
ATOM     27  C   UNL A   1      42.116  29.749  28.970  1.00  0.00     0.049 A 
ATOM     28  C   UNL A   1      47.247  28.475  27.109  1.00  0.00     0.074 A 
ATOM     29  C   UNL A   1      41.939  31.034  29.456  1.00  0.00     0.029 A 
ATOM     30  N   UNL A   1      43.426  29.669  28.521  1.00  0.00    -0.354 N 
ATOM     31  N   UNL A   1      46.112  28.914  27.595  1.00  0.00    -0.248 NA
ATOM     32  C   UNL A   1      48.280  29.508  26.963  1.00  0.00     0.031 C 
ATOM     33  C   UNL A   1      43.122  31.748  29.246  1.00  0.00     0.029 A 
ATOM     34  C   UNL A   1      44.052  30.896  28.674  1.00  0.00     0.049 A 
ATOM     35  H   UNL A   1      43.848  28.862  28.149  1.00  0.00     0.167 HD
ATOM     36  C   UNL A   1      46.294  30.270  27.817  1.00  0.00     0.074 A 
ATOM     37  C   UNL A   1      47.659  30.577  27.441  1.00  0.00     0.031 C 
ATOM     38  C   UNL A   1      45.407  31.183  28.282  1.00  0.00     0.037 A 
BRANCH  25  39
ATOM     39  C   UNL A   1      39.744  28.988  29.300  1.00  0.00     0.064 A 
ATOM     40  C   UNL A   1      38.791  29.402  28.359  1.00  0.00     0.173 A 
ATOM     41  C   UNL A   1      39.315  28.765  30.617  1.00  0.00     0.173 A 
ATOM     42  F   UNL A   1      39.151  29.635  27.089  1.00  0.00    -0.203 F 
ATOM     43  C   UNL A   1      37.458  29.583  28.725  1.00  0.00     0.198 A 
ATOM     44  C   UNL A   1      37.979  28.925  30.974  1.00  0.00     0.198 A 
ATOM     45  F   UNL A   1      40.188  28.360  31.553  1.00  0.00    -0.203 F 
ATOM     46  F   UNL A   1      36.565  29.992  27.814  1.00  0.00    -0.200 F 
ATOM     47  C   UNL A   1      37.052  29.334  30.028  1.00  0.00     0.200 A 
ATOM     48  F   UNL A   1      37.586  28.670  32.230  1.00  0.00    -0.200 F 
ATOM     49  F   UNL A   1      35.765  29.486  30.371  1.00  0.00    -0.200 F 
ENDBRANCH  25  39
BRANCH  26  50
ATOM     50  C   UNL A   1      48.961  26.779  26.131  1.00  0.00     0.064 A 
ATOM     51  C   UNL A   1      49.985  26.277  26.944  1.00  0.00     0.173 A 
ATOM     52  C   UNL A   1      49.250  26.993  24.774  1.00  0.00     0.173 A 
ATOM     53  F   UNL A   1      49.763  26.075  28.252  1.00  0.00    -0.203 F 
ATOM     54  C   UNL A   1      51.252  26.018  26.426  1.00  0.00     0.198 A 
ATOM     55  C   UNL A   1      50.506  26.703  24.251  1.00  0.00     0.198 A 
ATOM     56  F   UNL A   1      48.302  27.469  23.953  1.00  0.00    -0.203 F 
ATOM     57  F   UNL A   1      52.228  25.584  27.236  1.00  0.00    -0.200 F 
ATOM     58  C   UNL A   1      51.510  26.225  25.079  1.00  0.00     0.200 A 
ATOM     59  F   UNL A   1      50.745  26.889  22.945  1.00  0.00    -0.200 F 
ATOM     60  F   UNL A   1      52.729  25.974  24.581  1.00  0.00    -0.200 F 
ENDBRANCH  26  50
BRANCH  38  61
ATOM     61  C   UNL A   1      45.889  32.598  28.401  1.00  0.00     0.064 A 
ATOM     62  C   UNL A   1      46.531  33.051  29.563  1.00  0.00     0.173 A 
ATOM     63  C   UNL A   1      45.740  33.497  27.335  1.00  0.00     0.173 A 
ATOM     64  F   UNL A   1      46.678  32.233  30.616  1.00  0.00    -0.203 F 
ATOM     65  C   UNL A   1      46.989  34.362  29.660  1.00  0.00     0.198 A 
ATOM     66  C   UNL A   1      46.223  34.798  27.426  1.00  0.00     0.198 A 
ATOM     67  F   UNL A   1      45.134  33.109  26.203  1.00  0.00    -0.203 F 
ATOM     68  F   UNL A   1      47.559  34.788  30.795  1.00  0.00    -0.200 F 
ATOM     69  C   UNL A   1      46.842  35.231  28.589  1.00  0.00     0.200 A 
ATOM     70  F   UNL A   1      46.092  35.634  26.387  1.00  0.00    -0.200 F 
ATOM     71  F   UNL A   1      47.290  36.491  28.681  1.00  0.00    -0.200 F 
ENDBRANCH  38  61
ENDBRANCH  12  13
ENDBRANCH   5   7
ENDBRANCH   2   3
ENDBRANCH   1   2
BRANCH   1  72
ATOM     72  C   UNL A   1      36.827  20.831  24.701  1.00  0.00     0.023 C 
BRANCH  72  73
ATOM     73  C   UNL A   1      35.539  20.702  25.514  1.00  0.00     0.116 C 
BRANCH  73  74
ATOM     74  N   UNL A   1      34.367  20.933  24.693  1.00  0.00    -0.354 N 
ATOM     75  C   UNL A   1      33.403  20.038  24.309  1.00  0.00     0.252 C 
ATOM     76  H   UNL A   1      34.248  21.855  24.368  1.00  0.00     0.163 HD
ATOM     77  O   UNL A   1      32.601  20.407  23.448  1.00  0.00    -0.272 OA
BRANCH  75  78
ATOM     78  C   UNL A   1      33.330  18.648  25.001  1.00  0.00     0.149 C 
ATOM     79  C   UNL A   1      34.688  17.868  24.980  1.00  0.00     0.053 C 
ATOM     80  C   UNL A   1      32.391  17.676  24.212  1.00  0.00     0.053 C 
ATOM     81  C   UNL A   1      34.337  16.579  24.198  1.00  0.00     0.015 C 
ATOM     82  C   UNL A   1      32.848  17.593  22.770  1.00  0.00    -0.024 C 
ATOM     83  C   UNL A   1      32.911  16.306  24.677  1.00  0.00     0.019 C 
ATOM     84  C   UNL A   1      34.028  16.954  22.770  1.00  0.00    -0.027 C 
BRANCH  78  85
ATOM     85  O   UNL A   1      32.903  18.796  26.360  1.00  0.00    -0.379 OA
ATOM     86  H   UNL A   1      33.335  18.124  26.910  1.00  0.00     0.212 HD
ENDBRANCH  78  85
ENDBRANCH  75  78
ENDBRANCH  73  74
ENDBRANCH  72  73
ENDBRANCH   1  72
TORSDOF 12
ENDMDL
