MODEL 1
REMARK VINA RESULT:     -12.2      0.000      0.000
REMARK SMILES Cc1ccc(NC(=O)C[C@H]([NH2+]Cc2cccnc2)C(=O)NCCCCNC(=O)c2ccc(-c3c4nc(c(-c5c(F)c(F)c(F)c(F)c5F)c5ccc([nH]5)c(-c5c(F)c(F)c(F)c(F)c5F)c5nc(c(-c6c(F)c(F)c(F)c(F)c6F)c6ccc3[nH]6)C=C5)C=C4)cc2)cc1Cl
REMARK SMILES IDX 23 1 22 2 21 3 19 4 20 5 10 7 9 8 7 9 6 10 8 12 5 13 1 14
REMARK SMILES IDX 2 15 3 16 93 17 4 18 92 19 94 20 11 21 12 24 13 25 14 26
REMARK SMILES IDX 18 27 15 28 17 29 16 30 24 31 25 32 26 33 27 34 28 36 29 37
REMARK SMILES IDX 30 38 91 39 31 40 90 41 32 42 33 43 34 44 84 45 35 46 89 47
REMARK SMILES IDX 83 48 85 49 36 50 88 51 82 52 81 53 37 55 69 56 49 57 68 58
REMARK SMILES IDX 50 59 53 60 67 61 86 62 51 63 52 64 66 66 87 67 54 68 38 69
REMARK SMILES IDX 39 70 47 71 40 72 41 73 45 74 48 75 42 76 43 77 46 78 44 79
REMARK SMILES IDX 70 80 71 81 79 82 72 83 73 84 77 85 80 86 74 87 75 88 78 89
REMARK SMILES IDX 76 90 55 91 56 92 64 93 57 94 58 95 62 96 65 97 59 98 60 99
REMARK SMILES IDX 63 100 61 101
REMARK H PARENT 21 6 6 11 11 22 11 23 26 35 85 54 53 65
REMARK Flexibility Score: inf
ROOT
ATOM      1  C   UNL A   1      32.529  29.770  27.225  1.00  0.00     0.023 C 
ENDROOT
BRANCH   1   2
ATOM      2  C   UNL A   1      33.743  29.162  26.517  1.00  0.00     0.116 C 
BRANCH   2   3
ATOM      3  N   UNL A   1      33.636  29.272  25.064  1.00  0.00    -0.351 N 
ATOM      4  C   UNL A   1      33.277  28.474  24.027  1.00  0.00     0.278 C 
ATOM      5  O   UNL A   1      33.392  28.998  22.907  1.00  0.00    -0.268 OA
ATOM      6  H   UNL A   1      33.894  30.170  24.752  1.00  0.00     0.163 HD
BRANCH   4   7
ATOM      7  C   UNL A   1      32.813  26.983  24.088  1.00  0.00     0.282 C 
BRANCH   7   8
ATOM      8  C   UNL A   1      31.511  26.702  24.806  1.00  0.00     0.175 C 
BRANCH   8   9
ATOM      9  C   UNL A   1      31.234  25.954  26.100  1.00  0.00     0.230 C 
ATOM     10  N   UNL A   1      31.456  24.696  26.518  1.00  0.00    -0.326 N 
ATOM     11  H   UNL A   1      31.124  24.598  27.441  1.00  0.00     0.169 HD
ATOM     12  O   UNL A   1      30.712  26.657  26.994  1.00  0.00    -0.274 OA
BRANCH  10  13
ATOM     13  C   UNL A   1      31.999  23.476  26.090  1.00  0.00     0.042 A 
ATOM     14  C   UNL A   1      33.876  19.688  25.076  1.00  0.00     0.046 C 
ATOM     15  C   UNL A   1      33.237  21.001  25.414  1.00  0.00    -0.032 A 
ATOM     16  C   UNL A   1      33.449  21.593  26.663  1.00  0.00     0.007 A 
ATOM     17  C   UNL A   1      32.406  21.663  24.514  1.00  0.00     0.046 A 
ATOM     18  C   UNL A   1      32.836  22.810  26.994  1.00  0.00     0.026 A 
ATOM     19  C   UNL A   1      31.826  22.891  24.851  1.00  0.00     0.047 A 
ATOM     20  Cl  UNL A   1      32.081  21.027  22.937  1.00  0.00    -0.084 Cl
ENDBRANCH  10  13
ENDBRANCH   8   9
ENDBRANCH   7   8
BRANCH   7  21
ATOM     21  N   UNL A   1      33.984  26.126  24.325  1.00  0.00    -0.332 N 
ATOM     22  H   UNL A   1      33.912  25.774  25.279  1.00  0.00     0.347 HD
ATOM     23  H   UNL A   1      34.779  26.735  24.127  1.00  0.00     0.347 HD
BRANCH  21  24
ATOM     24  C   UNL A   1      34.193  24.976  23.457  1.00  0.00     0.299 C 
BRANCH  24  25
ATOM     25  C   UNL A   1      35.193  24.034  24.087  1.00  0.00     0.024 A 
ATOM     26  C   UNL A   1      35.738  22.951  23.388  1.00  0.00     0.013 A 
ATOM     27  C   UNL A   1      35.674  24.257  25.376  1.00  0.00     0.120 A 
ATOM     28  C   UNL A   1      36.744  22.182  23.971  1.00  0.00     0.021 A 
ATOM     29  N   UNL A   1      36.641  23.520  25.974  1.00  0.00    -0.264 NA
ATOM     30  C   UNL A   1      37.163  22.508  25.250  1.00  0.00     0.111 A 
ENDBRANCH  24  25
ENDBRANCH  21  24
ENDBRANCH   7  21
ENDBRANCH   4   7
ENDBRANCH   2   3
ENDBRANCH   1   2
BRANCH   1  31
ATOM     31  C   UNL A   1      32.199  31.217  26.905  1.00  0.00     0.023 C 
BRANCH  31  32
ATOM     32  C   UNL A   1      33.143  32.241  27.512  1.00  0.00     0.116 C 
BRANCH  32  33
ATOM     33  N   UNL A   1      32.589  33.584  27.657  1.00  0.00    -0.352 N 
ATOM     34  C   UNL A   1      33.039  34.618  28.454  1.00  0.00     0.251 C 
ATOM     35  H   UNL A   1      31.791  33.778  27.115  1.00  0.00     0.163 HD
ATOM     36  O   UNL A   1      32.439  35.689  28.489  1.00  0.00    -0.269 OA
BRANCH  34  37
ATOM     37  C   UNL A   1      34.213  34.397  29.327  1.00  0.00     0.039 A 
ATOM     38  C   UNL A   1      34.020  33.873  30.608  1.00  0.00     0.014 A 
ATOM     39  C   UNL A   1      35.505  34.581  28.833  1.00  0.00     0.014 A 
ATOM     40  C   UNL A   1      35.120  33.409  31.336  1.00  0.00     0.010 A 
ATOM     41  C   UNL A   1      36.579  34.011  29.504  1.00  0.00     0.010 A 
ATOM     42  C   UNL A   1      36.399  33.405  30.757  1.00  0.00    -0.014 A 
BRANCH  42  43
ATOM     43  C   UNL A   1      37.565  32.759  31.419  1.00  0.00     0.031 A 
ATOM     44  C   UNL A   1      38.259  31.604  30.751  1.00  0.00     0.074 A 
ATOM     45  C   UNL A   1      37.924  33.129  32.666  1.00  0.00     0.049 A 
ATOM     46  N   UNL A   1      39.187  30.809  31.221  1.00  0.00    -0.248 NA
ATOM     47  C   UNL A   1      37.815  31.265  29.390  1.00  0.00     0.031 C 
ATOM     48  C   UNL A   1      37.286  34.182  33.460  1.00  0.00     0.029 A 
ATOM     49  N   UNL A   1      38.906  32.645  33.495  1.00  0.00    -0.354 N 
ATOM     50  C   UNL A   1      39.398  29.853  30.236  1.00  0.00     0.074 A 
ATOM     51  C   UNL A   1      38.469  30.136  29.164  1.00  0.00     0.031 C 
ATOM     52  C   UNL A   1      37.914  34.286  34.643  1.00  0.00     0.029 A 
ATOM     53  C   UNL A   1      38.971  33.283  34.711  1.00  0.00     0.049 A 
ATOM     54  H   UNL A   1      39.509  31.909  33.242  1.00  0.00     0.167 HD
ATOM     55  C   UNL A   1      40.302  28.846  30.214  1.00  0.00     0.037 A 
ATOM     56  C   UNL A   1      39.790  33.080  35.761  1.00  0.00     0.037 A 
ATOM     57  C   UNL A   1      41.279  28.616  31.243  1.00  0.00     0.049 A 
ATOM     58  C   UNL A   1      40.829  31.994  35.683  1.00  0.00     0.074 A 
ATOM     59  C   UNL A   1      42.310  27.694  31.262  1.00  0.00     0.029 A 
ATOM     60  N   UNL A   1      41.353  29.327  32.431  1.00  0.00    -0.354 N 
ATOM     61  N   UNL A   1      41.072  31.150  34.711  1.00  0.00    -0.248 NA
ATOM     62  C   UNL A   1      41.711  31.837  36.848  1.00  0.00     0.031 C 
ATOM     63  C   UNL A   1      42.993  27.827  32.477  1.00  0.00     0.029 A 
ATOM     64  C   UNL A   1      42.406  28.855  33.197  1.00  0.00     0.049 A 
ATOM     65  H   UNL A   1      40.747  30.058  32.691  1.00  0.00     0.167 HD
ATOM     66  C   UNL A   1      42.151  30.385  35.132  1.00  0.00     0.074 A 
ATOM     67  C   UNL A   1      42.525  30.871  36.443  1.00  0.00     0.031 C 
ATOM     68  C   UNL A   1      42.776  29.369  34.489  1.00  0.00     0.037 A 
BRANCH  55  69
ATOM     69  C   UNL A   1      40.292  27.929  29.027  1.00  0.00     0.064 A 
ATOM     70  C   UNL A   1      41.029  28.216  27.868  1.00  0.00     0.173 A 
ATOM     71  C   UNL A   1      39.560  26.733  29.061  1.00  0.00     0.173 A 
ATOM     72  F   UNL A   1      41.734  29.354  27.781  1.00  0.00    -0.203 F 
ATOM     73  C   UNL A   1      41.009  27.354  26.775  1.00  0.00     0.198 A 
ATOM     74  C   UNL A   1      39.565  25.859  27.977  1.00  0.00     0.198 A 
ATOM     75  F   UNL A   1      38.841  26.410  30.147  1.00  0.00    -0.203 F 
ATOM     76  F   UNL A   1      41.679  27.674  25.660  1.00  0.00    -0.200 F 
ATOM     77  C   UNL A   1      40.283  26.174  26.833  1.00  0.00     0.200 A 
ATOM     78  F   UNL A   1      38.872  24.714  28.038  1.00  0.00    -0.200 F 
ATOM     79  F   UNL A   1      40.269  25.344  25.782  1.00  0.00    -0.200 F 
ENDBRANCH  55  69
BRANCH  56  80
ATOM     80  C   UNL A   1      39.695  33.947  36.965  1.00  0.00     0.064 A 
ATOM     81  C   UNL A   1      38.933  33.549  38.072  1.00  0.00     0.173 A 
ATOM     82  C   UNL A   1      40.338  35.192  37.028  1.00  0.00     0.173 A 
ATOM     83  F   UNL A   1      38.281  32.377  38.049  1.00  0.00    -0.203 F 
ATOM     84  C   UNL A   1      38.796  34.372  39.187  1.00  0.00     0.198 A 
ATOM     85  C   UNL A   1      40.220  36.004  38.155  1.00  0.00     0.198 A 
ATOM     86  F   UNL A   1      41.081  35.617  35.998  1.00  0.00    -0.203 F 
ATOM     87  F   UNL A   1      38.021  33.987  40.210  1.00  0.00    -0.200 F 
ATOM     88  C   UNL A   1      39.443  35.597  39.230  1.00  0.00     0.200 A 
ATOM     89  F   UNL A   1      40.855  37.183  38.198  1.00  0.00    -0.200 F 
ATOM     90  F   UNL A   1      39.309  36.391  40.301  1.00  0.00    -0.200 F 
ENDBRANCH  56  80
BRANCH  68  91
ATOM     91  C   UNL A   1      43.956  28.745  35.173  1.00  0.00     0.064 A 
ATOM     92  C   UNL A   1      43.807  27.663  36.051  1.00  0.00     0.173 A 
ATOM     93  C   UNL A   1      45.253  29.208  34.907  1.00  0.00     0.173 A 
ATOM     94  F   UNL A   1      42.585  27.197  36.347  1.00  0.00    -0.203 F 
ATOM     95  C   UNL A   1      44.917  27.077  36.654  1.00  0.00     0.198 A 
ATOM     96  C   UNL A   1      46.361  28.602  35.492  1.00  0.00     0.198 A 
ATOM     97  F   UNL A   1      45.446  30.238  34.069  1.00  0.00    -0.203 F 
ATOM     98  F   UNL A   1      44.750  26.067  37.521  1.00  0.00    -0.200 F 
ATOM     99  C   UNL A   1      46.192  27.541  36.368  1.00  0.00     0.200 A 
ATOM    100  F   UNL A   1      47.593  29.045  35.206  1.00  0.00    -0.200 F 
ATOM    101  F   UNL A   1      47.259  26.970  36.944  1.00  0.00    -0.200 F 
ENDBRANCH  68  91
ENDBRANCH  42  43
ENDBRANCH  34  37
ENDBRANCH  32  33
ENDBRANCH  31  32
ENDBRANCH   1  31
TORSDOF 17
ENDMDL
MODEL 2
REMARK VINA RESULT:     -12.1      5.458     10.403
REMARK SMILES Cc1ccc(NC(=O)C[C@H]([NH2+]Cc2cccnc2)C(=O)NCCCCNC(=O)c2ccc(-c3c4nc(c(-c5c(F)c(F)c(F)c(F)c5F)c5ccc([nH]5)c(-c5c(F)c(F)c(F)c(F)c5F)c5nc(c(-c6c(F)c(F)c(F)c(F)c6F)c6ccc3[nH]6)C=C5)C=C4)cc2)cc1Cl
REMARK SMILES IDX 23 1 22 2 21 3 19 4 20 5 10 7 9 8 7 9 6 10 8 12 5 13 1 14
REMARK SMILES IDX 2 15 3 16 93 17 4 18 92 19 94 20 11 21 12 24 13 25 14 26
REMARK SMILES IDX 18 27 15 28 17 29 16 30 24 31 25 32 26 33 27 34 28 36 29 37
REMARK SMILES IDX 30 38 91 39 31 40 90 41 32 42 33 43 34 44 84 45 35 46 89 47
REMARK SMILES IDX 83 48 85 49 36 50 88 51 82 52 81 53 37 55 69 56 49 57 68 58
REMARK SMILES IDX 50 59 53 60 67 61 86 62 51 63 52 64 66 66 87 67 54 68 38 69
REMARK SMILES IDX 39 70 47 71 40 72 41 73 45 74 48 75 42 76 43 77 46 78 44 79
REMARK SMILES IDX 70 80 71 81 79 82 72 83 73 84 77 85 80 86 74 87 75 88 78 89
REMARK SMILES IDX 76 90 55 91 56 92 64 93 57 94 58 95 62 96 65 97 59 98 60 99
REMARK SMILES IDX 63 100 61 101
REMARK H PARENT 21 6 6 11 11 22 11 23 26 35 85 54 53 65
REMARK Flexibility Score: inf
ROOT
ATOM      1  C   UNL A   1      37.034  22.385  24.777  1.00  0.00     0.023 C 
ENDROOT
BRANCH   1   2
ATOM      2  C   UNL A   1      36.427  23.220  25.907  1.00  0.00     0.116 C 
BRANCH   2   3
ATOM      3  N   UNL A   1      35.551  22.421  26.762  1.00  0.00    -0.351 N 
ATOM      4  C   UNL A   1      34.299  21.903  26.698  1.00  0.00     0.278 C 
ATOM      5  O   UNL A   1      33.932  21.308  27.725  1.00  0.00    -0.268 OA
ATOM      6  H   UNL A   1      35.988  22.197  27.615  1.00  0.00     0.163 HD
BRANCH   4   7
ATOM      7  C   UNL A   1      33.271  22.033  25.527  1.00  0.00     0.282 C 
BRANCH   7   8
ATOM      8  C   UNL A   1      31.826  22.264  25.910  1.00  0.00     0.175 C 
BRANCH   8   9
ATOM      9  C   UNL A   1      31.180  23.379  26.716  1.00  0.00     0.230 C 
ATOM     10  N   UNL A   1      31.222  24.721  26.656  1.00  0.00    -0.326 N 
ATOM     11  H   UNL A   1      30.654  25.095  27.369  1.00  0.00     0.169 HD
ATOM     12  O   UNL A   1      30.412  22.977  27.618  1.00  0.00    -0.274 OA
BRANCH  10  13
ATOM     13  C   UNL A   1      31.799  25.771  25.925  1.00  0.00     0.042 A 
ATOM     14  C   UNL A   1      33.915  28.880  23.746  1.00  0.00     0.046 C 
ATOM     15  C   UNL A   1      33.181  27.818  24.508  1.00  0.00    -0.032 A 
ATOM     16  C   UNL A   1      33.875  26.748  25.082  1.00  0.00     0.007 A 
ATOM     17  C   UNL A   1      31.797  27.851  24.657  1.00  0.00     0.046 A 
ATOM     18  C   UNL A   1      33.191  25.739  25.776  1.00  0.00     0.026 A 
ATOM     19  C   UNL A   1      31.135  26.851  25.378  1.00  0.00     0.047 A 
ATOM     20  Cl  UNL A   1      30.839  29.132  23.997  1.00  0.00    -0.084 Cl
ENDBRANCH  10  13
ENDBRANCH   8   9
ENDBRANCH   7   8
BRANCH   7  21
ATOM     21  N   UNL A   1      33.610  21.055  24.483  1.00  0.00    -0.332 N 
ATOM     22  H   UNL A   1      34.307  20.424  24.878  1.00  0.00     0.347 HD
ATOM     23  H   UNL A   1      33.914  21.629  23.696  1.00  0.00     0.347 HD
BRANCH  21  24
ATOM     24  C   UNL A   1      32.547  20.229  23.930  1.00  0.00     0.299 C 
BRANCH  24  25
ATOM     25  C   UNL A   1      32.841  18.770  24.195  1.00  0.00     0.024 A 
ATOM     26  C   UNL A   1      33.342  17.919  23.202  1.00  0.00     0.013 A 
ATOM     27  C   UNL A   1      32.698  18.231  25.471  1.00  0.00     0.120 A 
ATOM     28  C   UNL A   1      33.709  16.615  23.525  1.00  0.00     0.021 A 
ATOM     29  N   UNL A   1      33.034  16.964  25.814  1.00  0.00    -0.264 NA
ATOM     30  C   UNL A   1      33.545  16.190  24.833  1.00  0.00     0.111 A 
ENDBRANCH  24  25
ENDBRANCH  21  24
ENDBRANCH   7  21
ENDBRANCH   4   7
ENDBRANCH   2   3
ENDBRANCH   1   2
BRANCH   1  31
ATOM     31  C   UNL A   1      37.634  21.043  25.156  1.00  0.00     0.023 C 
BRANCH  31  32
ATOM     32  C   UNL A   1      39.042  21.107  25.725  1.00  0.00     0.116 C 
BRANCH  32  33
ATOM     33  N   UNL A   1      39.766  19.839  25.727  1.00  0.00    -0.352 N 
ATOM     34  C   UNL A   1      41.081  19.600  26.076  1.00  0.00     0.251 C 
ATOM     35  H   UNL A   1      39.250  19.051  25.444  1.00  0.00     0.163 HD
ATOM     36  O   UNL A   1      41.556  18.471  25.994  1.00  0.00    -0.269 OA
BRANCH  34  37
ATOM     37  C   UNL A   1      41.937  20.738  26.480  1.00  0.00     0.039 A 
ATOM     38  C   UNL A   1      42.480  21.565  25.493  1.00  0.00     0.014 A 
ATOM     39  C   UNL A   1      42.092  21.060  27.828  1.00  0.00     0.014 A 
ATOM     40  C   UNL A   1      43.058  22.784  25.858  1.00  0.00     0.010 A 
ATOM     41  C   UNL A   1      42.556  22.322  28.178  1.00  0.00     0.010 A 
ATOM     42  C   UNL A   1      43.031  23.206  27.198  1.00  0.00    -0.014 A 
BRANCH  42  43
ATOM     43  C   UNL A   1      43.470  24.568  27.607  1.00  0.00     0.031 A 
ATOM     44  C   UNL A   1      42.446  25.598  27.998  1.00  0.00     0.074 A 
ATOM     45  C   UNL A   1      44.771  24.915  27.515  1.00  0.00     0.049 A 
ATOM     46  N   UNL A   1      42.602  26.876  28.236  1.00  0.00    -0.248 NA
ATOM     47  C   UNL A   1      41.049  25.141  28.082  1.00  0.00     0.031 C 
ATOM     48  C   UNL A   1      45.858  24.038  27.076  1.00  0.00     0.029 A 
ATOM     49  N   UNL A   1      45.398  26.111  27.768  1.00  0.00    -0.354 N 
ATOM     50  C   UNL A   1      41.325  27.378  28.448  1.00  0.00     0.074 A 
ATOM     51  C   UNL A   1      40.400  26.282  28.262  1.00  0.00     0.031 C 
ATOM     52  C   UNL A   1      47.019  24.713  27.124  1.00  0.00     0.029 A 
ATOM     53  C   UNL A   1      46.756  26.081  27.557  1.00  0.00     0.049 A 
ATOM     54  H   UNL A   1      44.919  26.915  28.074  1.00  0.00     0.167 HD
ATOM     55  C   UNL A   1      40.956  28.634  28.793  1.00  0.00     0.037 A 
ATOM     56  C   UNL A   1      47.682  27.049  27.694  1.00  0.00     0.037 A 
ATOM     57  C   UNL A   1      41.881  29.702  29.058  1.00  0.00     0.049 A 
ATOM     58  C   UNL A   1      47.251  28.420  28.141  1.00  0.00     0.074 A 
ATOM     59  C   UNL A   1      41.614  30.978  29.522  1.00  0.00     0.029 A 
ATOM     60  N   UNL A   1      43.255  29.613  28.894  1.00  0.00    -0.354 N 
ATOM     61  N   UNL A   1      46.049  28.860  28.418  1.00  0.00    -0.248 NA
ATOM     62  C   UNL A   1      48.310  29.428  28.300  1.00  0.00     0.031 C 
ATOM     63  C   UNL A   1      42.826  31.672  29.612  1.00  0.00     0.029 A 
ATOM     64  C   UNL A   1      43.849  30.816  29.237  1.00  0.00     0.049 A 
ATOM     65  H   UNL A   1      43.736  28.813  28.581  1.00  0.00     0.167 HD
ATOM     66  C   UNL A   1      46.208  30.181  28.812  1.00  0.00     0.074 A 
ATOM     67  C   UNL A   1      47.625  30.470  28.750  1.00  0.00     0.031 C 
ATOM     68  C   UNL A   1      45.263  31.076  29.191  1.00  0.00     0.037 A 
BRANCH  55  69
ATOM     69  C   UNL A   1      39.489  28.915  28.926  1.00  0.00     0.064 A 
ATOM     70  C   UNL A   1      38.814  28.748  30.145  1.00  0.00     0.173 A 
ATOM     71  C   UNL A   1      38.755  29.389  27.828  1.00  0.00     0.173 A 
ATOM     72  F   UNL A   1      39.469  28.284  31.220  1.00  0.00    -0.203 F 
ATOM     73  C   UNL A   1      37.452  29.013  30.252  1.00  0.00     0.198 A 
ATOM     74  C   UNL A   1      37.399  29.682  27.946  1.00  0.00     0.198 A 
ATOM     75  F   UNL A   1      39.354  29.571  26.642  1.00  0.00    -0.203 F 
ATOM     76  F   UNL A   1      36.818  28.795  31.412  1.00  0.00    -0.200 F 
ATOM     77  C   UNL A   1      36.748  29.486  29.155  1.00  0.00     0.200 A 
ATOM     78  F   UNL A   1      36.721  30.149  26.889  1.00  0.00    -0.200 F 
ATOM     79  F   UNL A   1      35.438  29.746  29.262  1.00  0.00    -0.200 F 
ENDBRANCH  55  69
BRANCH  56  80
ATOM     80  C   UNL A   1      49.118  26.753  27.449  1.00  0.00     0.064 A 
ATOM     81  C   UNL A   1      49.952  26.345  28.500  1.00  0.00     0.173 A 
ATOM     82  C   UNL A   1      49.692  26.892  26.177  1.00  0.00     0.173 A 
ATOM     83  F   UNL A   1      49.453  26.220  29.739  1.00  0.00    -0.203 F 
ATOM     84  C   UNL A   1      51.309  26.111  28.295  1.00  0.00     0.198 A 
ATOM     85  C   UNL A   1      51.046  26.634  25.968  1.00  0.00     0.198 A 
ATOM     86  F   UNL A   1      48.938  27.277  25.138  1.00  0.00    -0.203 F 
ATOM     87  F   UNL A   1      52.092  25.770  29.328  1.00  0.00    -0.200 F 
ATOM     88  C   UNL A   1      51.855  26.252  27.028  1.00  0.00     0.200 A 
ATOM     89  F   UNL A   1      51.568  26.761  24.741  1.00  0.00    -0.200 F 
ATOM     90  F   UNL A   1      53.161  26.030  26.831  1.00  0.00    -0.200 F 
ENDBRANCH  56  80
BRANCH  68  91
ATOM     91  C   UNL A   1      45.734  32.436  29.611  1.00  0.00     0.064 A 
ATOM     92  C   UNL A   1      45.839  33.492  28.695  1.00  0.00     0.173 A 
ATOM     93  C   UNL A   1      46.038  32.694  30.956  1.00  0.00     0.173 A 
ATOM     94  F   UNL A   1      45.574  33.287  27.396  1.00  0.00    -0.203 F 
ATOM     95  C   UNL A   1      46.249  34.756  29.109  1.00  0.00     0.198 A 
ATOM     96  C   UNL A   1      46.422  33.966  31.369  1.00  0.00     0.198 A 
ATOM     97  F   UNL A   1      45.947  31.717  31.871  1.00  0.00    -0.203 F 
ATOM     98  F   UNL A   1      46.380  35.743  28.210  1.00  0.00    -0.200 F 
ATOM     99  C   UNL A   1      46.533  34.994  30.446  1.00  0.00     0.200 A 
ATOM    100  F   UNL A   1      46.685  34.198  32.663  1.00  0.00    -0.200 F 
ATOM    101  F   UNL A   1      46.919  36.214  30.842  1.00  0.00    -0.200 F 
ENDBRANCH  68  91
ENDBRANCH  42  43
ENDBRANCH  34  37
ENDBRANCH  32  33
ENDBRANCH  31  32
ENDBRANCH   1  31
TORSDOF 17
ENDMDL
MODEL 3
REMARK VINA RESULT:     -12.1      1.709      2.630
REMARK SMILES Cc1ccc(NC(=O)C[C@H]([NH2+]Cc2cccnc2)C(=O)NCCCCNC(=O)c2ccc(-c3c4nc(c(-c5c(F)c(F)c(F)c(F)c5F)c5ccc([nH]5)c(-c5c(F)c(F)c(F)c(F)c5F)c5nc(c(-c6c(F)c(F)c(F)c(F)c6F)c6ccc3[nH]6)C=C5)C=C4)cc2)cc1Cl
REMARK SMILES IDX 23 1 22 2 21 3 19 4 20 5 10 7 9 8 7 9 6 10 8 12 5 13 1 14
REMARK SMILES IDX 2 15 3 16 93 17 4 18 92 19 94 20 11 21 12 24 13 25 14 26
REMARK SMILES IDX 18 27 15 28 17 29 16 30 24 31 25 32 26 33 27 34 28 36 29 37
REMARK SMILES IDX 30 38 91 39 31 40 90 41 32 42 33 43 34 44 84 45 35 46 89 47
REMARK SMILES IDX 83 48 85 49 36 50 88 51 82 52 81 53 37 55 69 56 49 57 68 58
REMARK SMILES IDX 50 59 53 60 67 61 86 62 51 63 52 64 66 66 87 67 54 68 38 69
REMARK SMILES IDX 39 70 47 71 40 72 41 73 45 74 48 75 42 76 43 77 46 78 44 79
REMARK SMILES IDX 70 80 71 81 79 82 72 83 73 84 77 85 80 86 74 87 75 88 78 89
REMARK SMILES IDX 76 90 55 91 56 92 64 93 57 94 58 95 62 96 65 97 59 98 60 99
REMARK SMILES IDX 63 100 61 101
REMARK H PARENT 21 6 6 11 11 22 11 23 26 35 85 54 53 65
REMARK Flexibility Score: inf
ROOT
ATOM      1  C   UNL A   1      31.164  29.137  24.349  1.00  0.00     0.023 C 
ENDROOT
BRANCH   1   2
ATOM      2  C   UNL A   1      32.226  28.948  23.263  1.00  0.00     0.116 C 
BRANCH   2   3
ATOM      3  N   UNL A   1      31.798  27.989  22.246  1.00  0.00    -0.351 N 
ATOM      4  C   UNL A   1      31.611  26.649  22.156  1.00  0.00     0.278 C 
ATOM      5  O   UNL A   1      31.272  26.249  21.030  1.00  0.00    -0.268 OA
ATOM      6  H   UNL A   1      31.590  28.438  21.395  1.00  0.00     0.163 HD
BRANCH   4   7
ATOM      7  C   UNL A   1      31.836  25.578  23.271  1.00  0.00     0.282 C 
BRANCH   7   8
ATOM      8  C   UNL A   1      30.898  25.619  24.457  1.00  0.00     0.175 C 
BRANCH   8   9
ATOM      9  C   UNL A   1      30.986  24.941  25.815  1.00  0.00     0.230 C 
ATOM     10  N   UNL A   1      31.476  23.766  26.243  1.00  0.00    -0.326 N 
ATOM     11  H   UNL A   1      31.340  23.693  27.216  1.00  0.00     0.169 HD
ATOM     12  O   UNL A   1      30.535  25.629  26.758  1.00  0.00    -0.274 OA
BRANCH  10  13
ATOM     13  C   UNL A   1      32.115  22.607  25.777  1.00  0.00     0.042 A 
ATOM     14  C   UNL A   1      34.320  19.043  24.623  1.00  0.00     0.046 C 
ATOM     15  C   UNL A   1      33.565  20.279  25.009  1.00  0.00    -0.032 A 
ATOM     16  C   UNL A   1      33.837  20.929  26.217  1.00  0.00     0.007 A 
ATOM     17  C   UNL A   1      32.568  20.810  24.195  1.00  0.00     0.046 A 
ATOM     18  C   UNL A   1      33.119  22.073  26.594  1.00  0.00     0.026 A 
ATOM     19  C   UNL A   1      31.882  21.969  24.575  1.00  0.00     0.047 A 
ATOM     20  Cl  UNL A   1      32.154  20.094  22.675  1.00  0.00    -0.084 Cl
ENDBRANCH  10  13
ENDBRANCH   8   9
ENDBRANCH   7   8
BRANCH   7  21
ATOM     21  N   UNL A   1      33.281  25.401  23.480  1.00  0.00    -0.332 N 
ATOM     22  H   UNL A   1      33.431  25.318  24.485  1.00  0.00     0.347 HD
ATOM     23  H   UNL A   1      33.697  26.215  23.026  1.00  0.00     0.347 HD
BRANCH  21  24
ATOM     24  C   UNL A   1      33.943  24.267  22.853  1.00  0.00     0.299 C 
BRANCH  24  25
ATOM     25  C   UNL A   1      35.029  23.741  23.761  1.00  0.00     0.024 A 
ATOM     26  C   UNL A   1      35.851  22.668  23.395  1.00  0.00     0.013 A 
ATOM     27  C   UNL A   1      35.310  24.361  24.977  1.00  0.00     0.120 A 
ATOM     28  C   UNL A   1      36.915  22.296  24.214  1.00  0.00     0.021 A 
ATOM     29  N   UNL A   1      36.329  24.015  25.800  1.00  0.00    -0.264 NA
ATOM     30  C   UNL A   1      37.116  22.998  25.391  1.00  0.00     0.111 A 
ENDBRANCH  24  25
ENDBRANCH  21  24
ENDBRANCH   7  21
ENDBRANCH   4   7
ENDBRANCH   2   3
ENDBRANCH   1   2
BRANCH   1  31
ATOM     31  C   UNL A   1      31.634  29.074  25.792  1.00  0.00     0.023 C 
BRANCH  31  32
ATOM     32  C   UNL A   1      32.860  29.916  26.104  1.00  0.00     0.116 C 
BRANCH  32  33
ATOM     33  N   UNL A   1      32.577  31.245  26.640  1.00  0.00    -0.352 N 
ATOM     34  C   UNL A   1      33.401  32.063  27.388  1.00  0.00     0.251 C 
ATOM     35  H   UNL A   1      31.683  31.605  26.441  1.00  0.00     0.163 HD
ATOM     36  O   UNL A   1      33.001  33.151  27.794  1.00  0.00    -0.269 OA
BRANCH  34  37
ATOM     37  C   UNL A   1      34.750  31.582  27.760  1.00  0.00     0.039 A 
ATOM     38  C   UNL A   1      35.794  32.503  27.873  1.00  0.00     0.014 A 
ATOM     39  C   UNL A   1      34.948  30.250  28.124  1.00  0.00     0.014 A 
ATOM     40  C   UNL A   1      36.993  32.116  28.478  1.00  0.00     0.010 A 
ATOM     41  C   UNL A   1      36.090  29.900  28.832  1.00  0.00     0.010 A 
ATOM     42  C   UNL A   1      37.122  30.831  29.032  1.00  0.00    -0.014 A 
BRANCH  42  43
ATOM     43  C   UNL A   1      38.305  30.433  29.841  1.00  0.00     0.031 A 
ATOM     44  C   UNL A   1      39.300  29.455  29.279  1.00  0.00     0.074 A 
ATOM     45  C   UNL A   1      38.424  30.854  31.117  1.00  0.00     0.049 A 
ATOM     46  N   UNL A   1      40.307  28.863  29.870  1.00  0.00    -0.248 NA
ATOM     47  C   UNL A   1      39.107  29.047  27.878  1.00  0.00     0.031 C 
ATOM     48  C   UNL A   1      37.490  31.742  31.813  1.00  0.00     0.029 A 
ATOM     49  N   UNL A   1      39.376  30.574  32.067  1.00  0.00    -0.354 N 
ATOM     50  C   UNL A   1      40.831  27.984  28.931  1.00  0.00     0.074 A 
ATOM     51  C   UNL A   1      40.003  28.081  27.750  1.00  0.00     0.031 C 
ATOM     52  C   UNL A   1      37.933  31.960  33.062  1.00  0.00     0.029 A 
ATOM     53  C   UNL A   1      39.158  31.197  33.272  1.00  0.00     0.049 A 
ATOM     54  H   UNL A   1      40.144  29.982  31.900  1.00  0.00     0.167 HD
ATOM     55  C   UNL A   1      41.920  27.187  29.034  1.00  0.00     0.037 A 
ATOM     56  C   UNL A   1      39.866  31.155  34.418  1.00  0.00     0.037 A 
ATOM     57  C   UNL A   1      42.790  27.152  30.178  1.00  0.00     0.049 A 
ATOM     58  C   UNL A   1      41.108  30.310  34.482  1.00  0.00     0.074 A 
ATOM     59  C   UNL A   1      43.979  26.463  30.336  1.00  0.00     0.029 A 
ATOM     60  N   UNL A   1      42.569  27.848  31.356  1.00  0.00    -0.354 N 
ATOM     61  N   UNL A   1      41.638  29.546  33.560  1.00  0.00    -0.248 NA
ATOM     62  C   UNL A   1      41.854  30.324  35.749  1.00  0.00     0.031 C 
ATOM     63  C   UNL A   1      44.465  26.720  31.623  1.00  0.00     0.029 A 
ATOM     64  C   UNL A   1      43.594  27.595  32.252  1.00  0.00     0.049 A 
ATOM     65  H   UNL A   1      41.797  28.435  31.530  1.00  0.00     0.167 HD
ATOM     66  C   UNL A   1      42.793  29.016  34.120  1.00  0.00     0.074 A 
ATOM     67  C   UNL A   1      42.893  29.553  35.460  1.00  0.00     0.031 C 
ATOM     68  C   UNL A   1      43.689  28.159  33.573  1.00  0.00     0.037 A 
BRANCH  55  69
ATOM     69  C   UNL A   1      42.246  26.302  27.867  1.00  0.00     0.064 A 
ATOM     70  C   UNL A   1      41.607  25.067  27.679  1.00  0.00     0.173 A 
ATOM     71  C   UNL A   1      43.186  26.708  26.908  1.00  0.00     0.173 A 
ATOM     72  F   UNL A   1      40.711  24.627  28.576  1.00  0.00    -0.203 F 
ATOM     73  C   UNL A   1      41.920  24.256  26.592  1.00  0.00     0.198 A 
ATOM     74  C   UNL A   1      43.475  25.909  25.806  1.00  0.00     0.198 A 
ATOM     75  F   UNL A   1      43.821  27.882  27.039  1.00  0.00    -0.203 F 
ATOM     76  F   UNL A   1      41.335  23.058  26.461  1.00  0.00    -0.200 F 
ATOM     77  C   UNL A   1      42.848  24.681  25.653  1.00  0.00     0.200 A 
ATOM     78  F   UNL A   1      44.364  26.325  24.893  1.00  0.00    -0.200 F 
ATOM     79  F   UNL A   1      43.144  23.902  24.604  1.00  0.00    -0.200 F 
ENDBRANCH  55  69
BRANCH  56  80
ATOM     80  C   UNL A   1      39.446  31.970  35.589  1.00  0.00     0.064 A 
ATOM     81  C   UNL A   1      38.519  31.466  36.512  1.00  0.00     0.173 A 
ATOM     82  C   UNL A   1      39.939  33.266  35.799  1.00  0.00     0.173 A 
ATOM     83  F   UNL A   1      38.003  30.240  36.340  1.00  0.00    -0.203 F 
ATOM     84  C   UNL A   1      38.081  32.235  37.587  1.00  0.00     0.198 A 
ATOM     85  C   UNL A   1      39.518  34.025  36.889  1.00  0.00     0.198 A 
ATOM     86  F   UNL A   1      40.829  33.792  34.947  1.00  0.00    -0.203 F 
ATOM     87  F   UNL A   1      37.157  31.747  38.425  1.00  0.00    -0.200 F 
ATOM     88  C   UNL A   1      38.584  33.513  37.777  1.00  0.00     0.200 A 
ATOM     89  F   UNL A   1      40.013  35.256  37.076  1.00  0.00    -0.200 F 
ATOM     90  F   UNL A   1      38.160  34.255  38.809  1.00  0.00    -0.200 F 
ENDBRANCH  56  80
BRANCH  68  91
ATOM     91  C   UNL A   1      44.879  27.784  34.405  1.00  0.00     0.064 A 
ATOM     92  C   UNL A   1      44.850  26.685  35.273  1.00  0.00     0.173 A 
ATOM     93  C   UNL A   1      46.074  28.509  34.293  1.00  0.00     0.173 A 
ATOM     94  F   UNL A   1      43.724  25.973  35.424  1.00  0.00    -0.203 F 
ATOM     95  C   UNL A   1      45.975  26.334  36.016  1.00  0.00     0.198 A 
ATOM     96  C   UNL A   1      47.203  28.139  35.017  1.00  0.00     0.198 A 
ATOM     97  F   UNL A   1      46.152  29.566  33.470  1.00  0.00    -0.203 F 
ATOM     98  F   UNL A   1      45.915  25.302  36.870  1.00  0.00    -0.200 F 
ATOM     99  C   UNL A   1      47.152  27.056  35.881  1.00  0.00     0.200 A 
ATOM    100  F   UNL A   1      48.343  28.831  34.878  1.00  0.00    -0.200 F 
ATOM    101  F   UNL A   1      48.235  26.711  36.591  1.00  0.00    -0.200 F 
ENDBRANCH  68  91
ENDBRANCH  42  43
ENDBRANCH  34  37
ENDBRANCH  32  33
ENDBRANCH  31  32
ENDBRANCH   1  31
TORSDOF 17
ENDMDL
