MODEL 1
REMARK VINA RESULT:     -11.6      0.000      0.000
REMARK SMILES C[C@@H]1C[C@H]([NH3+])CN(S(=O)(=O)CCCC(=O)NCCCCNC(=O)c2ccc(-c3c4nc(c(-c5c(F)c(F)c(F)c(F)c5F)c5ccc([nH]5)c(-c5c(F)c(F)c(F)c(F)c5F)c5nc(c(-c6c(F)c(F)c(F)c(F)c6F)c6ccc3[nH]6)C=C5)C=C4)cc2)C1
REMARK SMILES IDX 17 1 16 2 14 3 15 4 13 6 12 7 11 8 8 9 9 10 10 11 7 12 1 13
REMARK SMILES IDX 2 14 3 15 87 16 4 17 6 18 5 19 18 23 19 24 20 25 21 26 22 27
REMARK SMILES IDX 23 29 24 30 25 31 86 32 26 33 85 34 27 35 28 36 29 37 79 38
REMARK SMILES IDX 30 39 84 40 78 41 80 42 31 43 83 44 77 45 76 46 32 48 64 49
REMARK SMILES IDX 44 50 63 51 45 52 48 53 62 54 81 55 46 56 47 57 61 59 82 60
REMARK SMILES IDX 49 61 33 62 34 63 42 64 35 65 36 66 40 67 43 68 37 69 38 70
REMARK SMILES IDX 41 71 39 72 65 73 66 74 74 75 67 76 68 77 72 78 75 79 69 80
REMARK SMILES IDX 70 81 73 82 71 83 50 84 51 85 59 86 52 87 53 88 57 89 60 90
REMARK SMILES IDX 54 91 55 92 58 93 56 94
REMARK H PARENT 16 5 5 20 5 21 5 22 21 28 80 47 48 58
REMARK Flexibility Score: inf
ROOT
ATOM      1  C   UNL A   1      35.963  21.291  25.297  1.00  0.00     0.116 C 
ENDROOT
BRANCH   1   2
ATOM      2  N   UNL A   1      35.371  19.980  25.187  1.00  0.00    -0.356 N 
ATOM      3  C   UNL A   1      34.205  19.557  24.633  1.00  0.00     0.220 C 
ATOM      4  O   UNL A   1      34.112  18.347  24.403  1.00  0.00    -0.275 OA
ATOM      5  H   UNL A   1      35.911  19.259  25.588  1.00  0.00     0.163 HD
BRANCH   3   6
ATOM      6  C   UNL A   1      33.070  20.490  24.236  1.00  0.00     0.101 C 
BRANCH   6   7
ATOM      7  C   UNL A   1      32.095  20.954  25.308  1.00  0.00     0.027 C 
BRANCH   7   8
ATOM      8  C   UNL A   1      31.503  22.345  25.212  1.00  0.00     0.155 C 
BRANCH   8   9
ATOM      9  S   UNL A   1      31.766  23.566  26.507  1.00  0.00     0.214 S 
ATOM     10  O   UNL A   1      32.996  23.193  27.180  1.00  0.00    -0.212 OA
ATOM     11  O   UNL A   1      30.521  23.620  27.247  1.00  0.00    -0.212 OA
BRANCH   9  12
ATOM     12  N   UNL A   1      32.033  25.150  25.884  1.00  0.00    -0.196 NA
ATOM     13  C   UNL A   1      33.542  27.866  26.588  1.00  0.00     0.009 C 
ATOM     14  C   UNL A   1      33.885  26.856  25.492  1.00  0.00     0.007 C 
ATOM     15  C   UNL A   1      33.284  27.194  24.123  1.00  0.00     0.071 C 
ATOM     16  C   UNL A   1      33.533  25.429  25.923  1.00  0.00     0.106 C 
ATOM     17  C   UNL A   1      31.807  26.843  23.996  1.00  0.00     0.196 C 
ATOM     18  C   UNL A   1      31.571  25.389  24.469  1.00  0.00     0.167 C 
BRANCH  17  19
ATOM     19  N   UNL A   1      30.976  27.831  24.693  1.00  0.00    -0.354 N 
ATOM     20  H   UNL A   1      31.267  28.771  24.425  1.00  0.00     0.344 HD
ATOM     21  H   UNL A   1      31.083  27.715  25.700  1.00  0.00     0.344 HD
ATOM     22  H   UNL A   1      29.997  27.693  24.437  1.00  0.00     0.344 HD
ENDBRANCH  17  19
ENDBRANCH   9  12
ENDBRANCH   8   9
ENDBRANCH   7   8
ENDBRANCH   6   7
ENDBRANCH   3   6
ENDBRANCH   1   2
BRANCH   1  23
ATOM     23  C   UNL A   1      37.395  21.371  24.776  1.00  0.00     0.023 C 
BRANCH  23  24
ATOM     24  C   UNL A   1      38.194  20.097  25.023  1.00  0.00     0.023 C 
BRANCH  24  25
ATOM     25  C   UNL A   1      39.452  20.270  25.869  1.00  0.00     0.116 C 
BRANCH  25  26
ATOM     26  N   UNL A   1      40.335  19.114  25.882  1.00  0.00    -0.352 N 
ATOM     27  C   UNL A   1      41.703  19.102  26.091  1.00  0.00     0.251 C 
ATOM     28  H   UNL A   1      39.910  18.241  25.725  1.00  0.00     0.163 HD
ATOM     29  O   UNL A   1      42.350  18.077  26.010  1.00  0.00    -0.269 OA
BRANCH  27  30
ATOM     30  C   UNL A   1      42.375  20.389  26.378  1.00  0.00     0.039 A 
ATOM     31  C   UNL A   1      42.934  21.108  25.320  1.00  0.00     0.014 A 
ATOM     32  C   UNL A   1      42.362  20.918  27.671  1.00  0.00     0.014 A 
ATOM     33  C   UNL A   1      43.417  22.398  25.547  1.00  0.00     0.010 A 
ATOM     34  C   UNL A   1      42.764  22.233  27.876  1.00  0.00     0.010 A 
ATOM     35  C   UNL A   1      43.300  22.987  26.818  1.00  0.00    -0.014 A 
BRANCH  35  36
ATOM     36  C   UNL A   1      43.760  24.376  27.072  1.00  0.00     0.031 A 
ATOM     37  C   UNL A   1      42.788  25.396  27.598  1.00  0.00     0.074 A 
ATOM     38  C   UNL A   1      45.022  24.740  26.772  1.00  0.00     0.049 A 
ATOM     39  N   UNL A   1      42.962  26.675  27.817  1.00  0.00    -0.248 NA
ATOM     40  C   UNL A   1      41.424  24.922  27.881  1.00  0.00     0.031 C 
ATOM     41  C   UNL A   1      46.045  23.862  26.201  1.00  0.00     0.029 A 
ATOM     42  N   UNL A   1      45.658  25.950  26.898  1.00  0.00    -0.354 N 
ATOM     43  C   UNL A   1      41.730  27.156  28.236  1.00  0.00     0.074 A 
ATOM     44  C   UNL A   1      40.800  26.050  28.183  1.00  0.00     0.031 C 
ATOM     45  C   UNL A   1      47.187  24.555  26.052  1.00  0.00     0.029 A 
ATOM     46  C   UNL A   1      46.969  25.932  26.487  1.00  0.00     0.049 A 
ATOM     47  H   UNL A   1      45.215  26.756  27.249  1.00  0.00     0.167 HD
ATOM     48  C   UNL A   1      41.408  28.401  28.660  1.00  0.00     0.037 A 
ATOM     49  C   UNL A   1      47.890  26.915  26.469  1.00  0.00     0.037 A 
ATOM     50  C   UNL A   1      42.343  29.489  28.758  1.00  0.00     0.049 A 
ATOM     51  C   UNL A   1      47.516  28.283  26.976  1.00  0.00     0.074 A 
ATOM     52  C   UNL A   1      42.130  30.770  29.234  1.00  0.00     0.029 A 
ATOM     53  N   UNL A   1      43.675  29.417  28.378  1.00  0.00    -0.354 N 
ATOM     54  N   UNL A   1      46.365  28.708  27.436  1.00  0.00    -0.248 NA
ATOM     55  C   UNL A   1      48.573  29.304  26.973  1.00  0.00     0.031 C 
ATOM     56  C   UNL A   1      43.327  31.485  29.110  1.00  0.00     0.029 A 
ATOM     57  C   UNL A   1      44.295  30.635  28.601  1.00  0.00     0.049 A 
ATOM     58  H   UNL A   1      44.114  28.619  28.006  1.00  0.00     0.167 HD
ATOM     59  C   UNL A   1      46.568  30.029  27.811  1.00  0.00     0.074 A 
ATOM     60  C   UNL A   1      47.955  30.334  27.532  1.00  0.00     0.031 C 
ATOM     61  C   UNL A   1      45.683  30.912  28.338  1.00  0.00     0.037 A 
BRANCH  48  62
ATOM     62  C   UNL A   1      39.982  28.644  29.063  1.00  0.00     0.064 A 
ATOM     63  C   UNL A   1      39.030  29.121  28.148  1.00  0.00     0.173 A 
ATOM     64  C   UNL A   1      39.557  28.381  30.373  1.00  0.00     0.173 A 
ATOM     65  F   UNL A   1      39.389  29.404  26.887  1.00  0.00    -0.203 F 
ATOM     66  C   UNL A   1      37.717  29.361  28.541  1.00  0.00     0.198 A 
ATOM     67  C   UNL A   1      38.234  28.591  30.754  1.00  0.00     0.198 A 
ATOM     68  F   UNL A   1      40.425  27.919  31.287  1.00  0.00    -0.203 F 
ATOM     69  F   UNL A   1      36.841  29.873  27.664  1.00  0.00    -0.200 F 
ATOM     70  C   UNL A   1      37.317  29.089  29.840  1.00  0.00     0.200 A 
ATOM     71  F   UNL A   1      37.847  28.316  32.008  1.00  0.00    -0.200 F 
ATOM     72  F   UNL A   1      36.051  29.317  30.215  1.00  0.00    -0.200 F 
ENDBRANCH  48  62
BRANCH  49  73
ATOM     73  C   UNL A   1      49.271  26.635  25.994  1.00  0.00     0.064 A 
ATOM     74  C   UNL A   1      50.224  26.072  26.856  1.00  0.00     0.173 A 
ATOM     75  C   UNL A   1      49.670  26.933  24.684  1.00  0.00     0.173 A 
ATOM     76  F   UNL A   1      49.896  25.789  28.124  1.00  0.00    -0.203 F 
ATOM     77  C   UNL A   1      51.532  25.840  26.431  1.00  0.00     0.198 A 
ATOM     78  C   UNL A   1      50.971  26.676  24.252  1.00  0.00     0.198 A 
ATOM     79  F   UNL A   1      48.795  27.467  23.820  1.00  0.00    -0.203 F 
ATOM     80  F   UNL A   1      52.435  25.346  27.288  1.00  0.00    -0.200 F 
ATOM     81  C   UNL A   1      51.902  26.139  25.128  1.00  0.00     0.200 A 
ATOM     82  F   UNL A   1      51.321  26.953  22.990  1.00  0.00    -0.200 F 
ATOM     83  F   UNL A   1      53.159  25.915  24.719  1.00  0.00    -0.200 F 
ENDBRANCH  49  73
BRANCH  61  84
ATOM     84  C   UNL A   1      46.200  32.274  28.699  1.00  0.00     0.064 A 
ATOM     85  C   UNL A   1      46.161  33.343  27.791  1.00  0.00     0.173 A 
ATOM     86  C   UNL A   1      46.695  32.522  29.988  1.00  0.00     0.173 A 
ATOM     87  F   UNL A   1      45.708  33.151  26.544  1.00  0.00    -0.203 F 
ATOM     88  C   UNL A   1      46.621  34.605  28.155  1.00  0.00     0.198 A 
ATOM     89  C   UNL A   1      47.128  33.792  30.357  1.00  0.00     0.198 A 
ATOM     90  F   UNL A   1      46.747  31.535  30.895  1.00  0.00    -0.203 F 
ATOM     91  F   UNL A   1      46.615  35.601  27.258  1.00  0.00    -0.200 F 
ATOM     92  C   UNL A   1      47.097  34.831  29.438  1.00  0.00     0.200 A 
ATOM     93  F   UNL A   1      47.575  34.012  31.600  1.00  0.00    -0.200 F 
ATOM     94  F   UNL A   1      47.532  36.049  29.788  1.00  0.00    -0.200 F 
ENDBRANCH  61  84
ENDBRANCH  35  36
ENDBRANCH  27  30
ENDBRANCH  25  26
ENDBRANCH  24  25
ENDBRANCH  23  24
ENDBRANCH   1  23
TORSDOF 16
ENDMDL
MODEL 2
REMARK VINA RESULT:     -11.6      5.706     11.394
REMARK SMILES C[C@@H]1C[C@H]([NH3+])CN(S(=O)(=O)CCCC(=O)NCCCCNC(=O)c2ccc(-c3c4nc(c(-c5c(F)c(F)c(F)c(F)c5F)c5ccc([nH]5)c(-c5c(F)c(F)c(F)c(F)c5F)c5nc(c(-c6c(F)c(F)c(F)c(F)c6F)c6ccc3[nH]6)C=C5)C=C4)cc2)C1
REMARK SMILES IDX 17 1 16 2 14 3 15 4 13 6 12 7 11 8 8 9 9 10 10 11 7 12 1 13
REMARK SMILES IDX 2 14 3 15 87 16 4 17 6 18 5 19 18 23 19 24 20 25 21 26 22 27
REMARK SMILES IDX 23 29 24 30 25 31 86 32 26 33 85 34 27 35 28 36 29 37 79 38
REMARK SMILES IDX 30 39 84 40 78 41 80 42 31 43 83 44 77 45 76 46 32 48 64 49
REMARK SMILES IDX 44 50 63 51 45 52 48 53 62 54 81 55 46 56 47 57 61 59 82 60
REMARK SMILES IDX 49 61 33 62 34 63 42 64 35 65 36 66 40 67 43 68 37 69 38 70
REMARK SMILES IDX 41 71 39 72 65 73 66 74 74 75 67 76 68 77 72 78 75 79 69 80
REMARK SMILES IDX 70 81 73 82 71 83 50 84 51 85 59 86 52 87 53 88 57 89 60 90
REMARK SMILES IDX 54 91 55 92 58 93 56 94
REMARK H PARENT 16 5 5 20 5 21 5 22 21 28 80 47 48 58
REMARK Flexibility Score: inf
ROOT
ATOM      1  C   UNL A   1      32.255  29.829  25.395  1.00  0.00     0.116 C 
ENDROOT
BRANCH   1   2
ATOM      2  N   UNL A   1      33.015  28.605  25.300  1.00  0.00    -0.356 N 
ATOM      3  C   UNL A   1      32.784  27.447  24.629  1.00  0.00     0.220 C 
ATOM      4  O   UNL A   1      33.754  26.699  24.471  1.00  0.00    -0.275 OA
ATOM      5  H   UNL A   1      33.855  28.611  25.815  1.00  0.00     0.163 HD
BRANCH   3   6
ATOM      6  C   UNL A   1      31.436  27.073  24.025  1.00  0.00     0.101 C 
BRANCH   6   7
ATOM      7  C   UNL A   1      30.372  26.470  24.930  1.00  0.00     0.027 C 
BRANCH   7   8
ATOM      8  C   UNL A   1      30.286  24.964  25.063  1.00  0.00     0.155 C 
BRANCH   8   9
ATOM      9  S   UNL A   1      31.021  24.104  26.461  1.00  0.00     0.214 S 
ATOM     10  O   UNL A   1      29.921  23.549  27.229  1.00  0.00    -0.212 OA
ATOM     11  O   UNL A   1      31.923  25.060  27.073  1.00  0.00    -0.212 OA
BRANCH   9  12
ATOM     12  N   UNL A   1      31.987  22.758  25.984  1.00  0.00    -0.196 NA
ATOM     13  C   UNL A   1      32.409  20.756  23.543  1.00  0.00     0.009 C 
ATOM     14  C   UNL A   1      33.342  21.871  24.017  1.00  0.00     0.007 C 
ATOM     15  C   UNL A   1      34.436  21.401  24.982  1.00  0.00     0.071 C 
ATOM     16  C   UNL A   1      32.550  23.048  24.595  1.00  0.00     0.106 C 
ATOM     17  C   UNL A   1      33.947  21.192  26.410  1.00  0.00     0.196 C 
ATOM     18  C   UNL A   1      33.154  22.433  26.880  1.00  0.00     0.167 C 
BRANCH  17  19
ATOM     19  N   UNL A   1      33.196  19.936  26.524  1.00  0.00    -0.354 N 
ATOM     20  H   UNL A   1      33.179  19.466  25.620  1.00  0.00     0.344 HD
ATOM     21  H   UNL A   1      32.241  20.136  26.820  1.00  0.00     0.344 HD
ATOM     22  H   UNL A   1      33.646  19.332  27.213  1.00  0.00     0.344 HD
ENDBRANCH  17  19
ENDBRANCH   9  12
ENDBRANCH   8   9
ENDBRANCH   7   8
ENDBRANCH   6   7
ENDBRANCH   3   6
ENDBRANCH   1   2
BRANCH   1  23
ATOM     23  C   UNL A   1      32.114  30.362  26.817  1.00  0.00     0.023 C 
BRANCH  23  24
ATOM     24  C   UNL A   1      31.754  31.843  26.868  1.00  0.00     0.023 C 
BRANCH  24  25
ATOM     25  C   UNL A   1      32.855  32.765  27.383  1.00  0.00     0.116 C 
BRANCH  25  26
ATOM     26  N   UNL A   1      32.426  34.128  27.652  1.00  0.00    -0.352 N 
ATOM     27  C   UNL A   1      32.953  35.009  28.578  1.00  0.00     0.251 C 
ATOM     28  H   UNL A   1      31.673  34.461  27.112  1.00  0.00     0.163 HD
ATOM     29  O   UNL A   1      32.465  36.106  28.765  1.00  0.00    -0.269 OA
BRANCH  27  30
ATOM     30  C   UNL A   1      34.117  34.564  29.379  1.00  0.00     0.039 A 
ATOM     31  C   UNL A   1      33.896  34.021  30.645  1.00  0.00     0.014 A 
ATOM     32  C   UNL A   1      35.403  34.601  28.833  1.00  0.00     0.014 A 
ATOM     33  C   UNL A   1      34.961  33.441  31.338  1.00  0.00     0.010 A 
ATOM     34  C   UNL A   1      36.442  33.948  29.487  1.00  0.00     0.010 A 
ATOM     35  C   UNL A   1      36.234  33.364  30.748  1.00  0.00    -0.014 A 
BRANCH  35  36
ATOM     36  C   UNL A   1      37.370  32.707  31.444  1.00  0.00     0.031 A 
ATOM     37  C   UNL A   1      38.087  31.564  30.780  1.00  0.00     0.074 A 
ATOM     38  C   UNL A   1      37.716  33.088  32.689  1.00  0.00     0.049 A 
ATOM     39  N   UNL A   1      39.050  30.807  31.242  1.00  0.00    -0.248 NA
ATOM     40  C   UNL A   1      37.634  31.197  29.429  1.00  0.00     0.031 C 
ATOM     41  C   UNL A   1      37.063  34.143  33.467  1.00  0.00     0.029 A 
ATOM     42  N   UNL A   1      38.701  32.623  33.525  1.00  0.00    -0.354 N 
ATOM     43  C   UNL A   1      39.297  29.867  30.252  1.00  0.00     0.074 A 
ATOM     44  C   UNL A   1      38.344  30.106  29.190  1.00  0.00     0.031 C 
ATOM     45  C   UNL A   1      37.681  34.263  34.653  1.00  0.00     0.029 A 
ATOM     46  C   UNL A   1      38.753  33.275  34.734  1.00  0.00     0.049 A 
ATOM     47  H   UNL A   1      39.311  31.891  33.282  1.00  0.00     0.167 HD
ATOM     48  C   UNL A   1      40.253  28.909  30.213  1.00  0.00     0.037 A 
ATOM     49  C   UNL A   1      39.578  33.096  35.784  1.00  0.00     0.037 A 
ATOM     50  C   UNL A   1      41.231  28.702  31.247  1.00  0.00     0.049 A 
ATOM     51  C   UNL A   1      40.655  32.047  35.704  1.00  0.00     0.074 A 
ATOM     52  C   UNL A   1      42.280  27.800  31.275  1.00  0.00     0.029 A 
ATOM     53  N   UNL A   1      41.282  29.415  32.435  1.00  0.00    -0.354 N 
ATOM     54  N   UNL A   1      40.923  31.209  34.732  1.00  0.00    -0.248 NA
ATOM     55  C   UNL A   1      41.552  31.926  36.862  1.00  0.00     0.031 C 
ATOM     56  C   UNL A   1      42.946  27.945  32.497  1.00  0.00     0.029 A 
ATOM     57  C   UNL A   1      42.340  28.969  33.208  1.00  0.00     0.049 A 
ATOM     58  H   UNL A   1      40.658  30.133  32.690  1.00  0.00     0.167 HD
ATOM     59  C   UNL A   1      42.037  30.491  35.144  1.00  0.00     0.074 A 
ATOM     60  C   UNL A   1      42.401  30.996  36.450  1.00  0.00     0.031 C 
ATOM     61  C   UNL A   1      42.700  29.500  34.497  1.00  0.00     0.037 A 
BRANCH  48  62
ATOM     62  C   UNL A   1      40.293  28.023  29.002  1.00  0.00     0.064 A 
ATOM     63  C   UNL A   1      39.587  26.810  28.955  1.00  0.00     0.173 A 
ATOM     64  C   UNL A   1      41.030  28.397  27.869  1.00  0.00     0.173 A 
ATOM     65  F   UNL A   1      38.880  26.399  30.018  1.00  0.00    -0.203 F 
ATOM     66  C   UNL A   1      39.649  25.988  27.833  1.00  0.00     0.198 A 
ATOM     67  C   UNL A   1      41.062  27.588  26.736  1.00  0.00     0.198 A 
ATOM     68  F   UNL A   1      41.719  29.548  27.858  1.00  0.00    -0.203 F 
ATOM     69  F   UNL A   1      39.015  24.807  27.834  1.00  0.00    -0.200 F 
ATOM     70  C   UNL A   1      40.380  26.380  26.722  1.00  0.00     0.200 A 
ATOM     71  F   UNL A   1      41.760  27.974  25.658  1.00  0.00    -0.200 F 
ATOM     72  F   UNL A   1      40.435  25.590  25.642  1.00  0.00    -0.200 F 
ENDBRANCH  48  62
BRANCH  49  73
ATOM     73  C   UNL A   1      39.450  33.959  36.988  1.00  0.00     0.064 A 
ATOM     74  C   UNL A   1      40.047  35.228  37.028  1.00  0.00     0.173 A 
ATOM     75  C   UNL A   1      38.744  33.535  38.122  1.00  0.00     0.173 A 
ATOM     76  F   UNL A   1      40.750  35.669  35.976  1.00  0.00    -0.203 F 
ATOM     77  C   UNL A   1      39.964  36.028  38.167  1.00  0.00     0.198 A 
ATOM     78  C   UNL A   1      38.638  34.347  39.250  1.00  0.00     0.198 A 
ATOM     79  F   UNL A   1      38.149  32.333  38.132  1.00  0.00    -0.203 F 
ATOM     80  F   UNL A   1      40.585  37.215  38.195  1.00  0.00    -0.200 F 
ATOM     81  C   UNL A   1      39.256  35.589  39.275  1.00  0.00     0.200 A 
ATOM     82  F   UNL A   1      37.942  33.925  40.314  1.00  0.00    -0.200 F 
ATOM     83  F   UNL A   1      39.174  36.359  40.369  1.00  0.00    -0.200 F 
ENDBRANCH  49  73
BRANCH  61  84
ATOM     84  C   UNL A   1      43.917  28.933  35.167  1.00  0.00     0.064 A 
ATOM     85  C   UNL A   1      43.838  27.838  36.040  1.00  0.00     0.173 A 
ATOM     86  C   UNL A   1      45.186  29.464  34.890  1.00  0.00     0.173 A 
ATOM     87  F   UNL A   1      42.645  27.305  36.344  1.00  0.00    -0.203 F 
ATOM     88  C   UNL A   1      44.983  27.311  36.630  1.00  0.00     0.198 A 
ATOM     89  C   UNL A   1      46.332  28.916  35.460  1.00  0.00     0.198 A 
ATOM     90  F   UNL A   1      45.317  30.507  34.057  1.00  0.00    -0.203 F 
ATOM     91  F   UNL A   1      44.879  26.292  37.495  1.00  0.00    -0.200 F 
ATOM     92  C   UNL A   1      46.228  27.845  36.335  1.00  0.00     0.200 A 
ATOM     93  F   UNL A   1      47.536  29.424  35.164  1.00  0.00    -0.200 F 
ATOM     94  F   UNL A   1      47.329  27.329  36.898  1.00  0.00    -0.200 F 
ENDBRANCH  61  84
ENDBRANCH  35  36
ENDBRANCH  27  30
ENDBRANCH  25  26
ENDBRANCH  24  25
ENDBRANCH  23  24
ENDBRANCH   1  23
TORSDOF 16
ENDMDL
MODEL 3
REMARK VINA RESULT:     -11.6      0.935      7.651
REMARK SMILES C[C@@H]1C[C@H]([NH3+])CN(S(=O)(=O)CCCC(=O)NCCCCNC(=O)c2ccc(-c3c4nc(c(-c5c(F)c(F)c(F)c(F)c5F)c5ccc([nH]5)c(-c5c(F)c(F)c(F)c(F)c5F)c5nc(c(-c6c(F)c(F)c(F)c(F)c6F)c6ccc3[nH]6)C=C5)C=C4)cc2)C1
REMARK SMILES IDX 17 1 16 2 14 3 15 4 13 6 12 7 11 8 8 9 9 10 10 11 7 12 1 13
REMARK SMILES IDX 2 14 3 15 87 16 4 17 6 18 5 19 18 23 19 24 20 25 21 26 22 27
REMARK SMILES IDX 23 29 24 30 25 31 86 32 26 33 85 34 27 35 28 36 29 37 79 38
REMARK SMILES IDX 30 39 84 40 78 41 80 42 31 43 83 44 77 45 76 46 32 48 64 49
REMARK SMILES IDX 44 50 63 51 45 52 48 53 62 54 81 55 46 56 47 57 61 59 82 60
REMARK SMILES IDX 49 61 33 62 34 63 42 64 35 65 36 66 40 67 43 68 37 69 38 70
REMARK SMILES IDX 41 71 39 72 65 73 66 74 74 75 67 76 68 77 72 78 75 79 69 80
REMARK SMILES IDX 70 81 73 82 71 83 50 84 51 85 59 86 52 87 53 88 57 89 60 90
REMARK SMILES IDX 54 91 55 92 58 93 56 94
REMARK H PARENT 16 5 5 20 5 21 5 22 21 28 80 47 48 58
REMARK Flexibility Score: inf
ROOT
ATOM      1  C   UNL A   1      36.174  21.654  25.668  1.00  0.00     0.116 C 
ENDROOT
BRANCH   1   2
ATOM      2  N   UNL A   1      35.104  20.686  25.724  1.00  0.00    -0.356 N 
ATOM      3  C   UNL A   1      34.016  20.493  24.933  1.00  0.00     0.220 C 
ATOM      4  O   UNL A   1      33.453  19.399  25.029  1.00  0.00    -0.275 OA
ATOM      5  H   UNL A   1      35.175  20.050  26.472  1.00  0.00     0.163 HD
BRANCH   3   6
ATOM      6  C   UNL A   1      33.517  21.513  23.918  1.00  0.00     0.101 C 
BRANCH   6   7
ATOM      7  C   UNL A   1      32.095  22.038  24.047  1.00  0.00     0.027 C 
BRANCH   7   8
ATOM      8  C   UNL A   1      31.498  22.216  25.427  1.00  0.00     0.155 C 
BRANCH   8   9
ATOM      9  S   UNL A   1      31.999  23.575  26.495  1.00  0.00     0.214 S 
ATOM     10  O   UNL A   1      33.344  23.270  26.946  1.00  0.00    -0.212 OA
ATOM     11  O   UNL A   1      30.927  23.725  27.459  1.00  0.00    -0.212 OA
BRANCH   9  12
ATOM     12  N   UNL A   1      32.114  25.075  25.655  1.00  0.00    -0.196 NA
ATOM     13  C   UNL A   1      30.443  26.950  23.696  1.00  0.00     0.009 C 
ATOM     14  C   UNL A   1      30.789  27.195  25.165  1.00  0.00     0.007 C 
ATOM     15  C   UNL A   1      32.054  28.035  25.376  1.00  0.00     0.071 C 
ATOM     16  C   UNL A   1      30.850  25.880  25.947  1.00  0.00     0.106 C 
ATOM     17  C   UNL A   1      33.348  27.253  25.193  1.00  0.00     0.196 C 
ATOM     18  C   UNL A   1      33.291  25.945  26.015  1.00  0.00     0.167 C 
BRANCH  17  19
ATOM     19  N   UNL A   1      33.631  27.040  23.769  1.00  0.00    -0.354 N 
ATOM     20  H   UNL A   1      32.786  26.716  23.298  1.00  0.00     0.344 HD
ATOM     21  H   UNL A   1      34.365  26.340  23.668  1.00  0.00     0.344 HD
ATOM     22  H   UNL A   1      33.938  27.918  23.348  1.00  0.00     0.344 HD
ENDBRANCH  17  19
ENDBRANCH   9  12
ENDBRANCH   8   9
ENDBRANCH   7   8
ENDBRANCH   6   7
ENDBRANCH   3   6
ENDBRANCH   1   2
BRANCH   1  23
ATOM     23  C   UNL A   1      37.242  21.338  24.626  1.00  0.00     0.023 C 
BRANCH  23  24
ATOM     24  C   UNL A   1      38.036  20.076  24.946  1.00  0.00     0.023 C 
BRANCH  24  25
ATOM     25  C   UNL A   1      39.206  20.267  25.906  1.00  0.00     0.116 C 
BRANCH  25  26
ATOM     26  N   UNL A   1      40.180  19.188  25.895  1.00  0.00    -0.352 N 
ATOM     27  C   UNL A   1      41.546  19.283  26.096  1.00  0.00     0.251 C 
ATOM     28  H   UNL A   1      39.826  18.285  25.725  1.00  0.00     0.163 HD
ATOM     29  O   UNL A   1      42.274  18.316  25.993  1.00  0.00    -0.269 OA
BRANCH  27  30
ATOM     30  C   UNL A   1      42.113  20.616  26.401  1.00  0.00     0.039 A 
ATOM     31  C   UNL A   1      42.404  21.482  25.346  1.00  0.00     0.014 A 
ATOM     32  C   UNL A   1      42.262  21.032  27.726  1.00  0.00     0.014 A 
ATOM     33  C   UNL A   1      42.775  22.799  25.623  1.00  0.00     0.010 A 
ATOM     34  C   UNL A   1      42.548  22.365  27.997  1.00  0.00     0.010 A 
ATOM     35  C   UNL A   1      42.812  23.263  26.950  1.00  0.00    -0.014 A 
BRANCH  35  36
ATOM     36  C   UNL A   1      43.155  24.673  27.265  1.00  0.00     0.031 A 
ATOM     37  C   UNL A   1      44.552  25.172  27.017  1.00  0.00     0.074 A 
ATOM     38  C   UNL A   1      42.240  25.485  27.831  1.00  0.00     0.049 A 
ATOM     39  N   UNL A   1      45.078  26.339  27.290  1.00  0.00    -0.248 NA
ATOM     40  C   UNL A   1      45.495  24.217  26.415  1.00  0.00     0.031 C 
ATOM     41  C   UNL A   1      40.869  25.107  28.178  1.00  0.00     0.029 A 
ATOM     42  N   UNL A   1      42.330  26.797  28.224  1.00  0.00    -0.354 N 
ATOM     43  C   UNL A   1      46.412  26.247  26.917  1.00  0.00     0.074 A 
ATOM     44  C   UNL A   1      46.632  24.893  26.456  1.00  0.00     0.031 C 
ATOM     45  C   UNL A   1      40.238  26.169  28.706  1.00  0.00     0.029 A 
ATOM     46  C   UNL A   1      41.168  27.294  28.763  1.00  0.00     0.049 A 
ATOM     47  H   UNL A   1      43.151  27.332  28.128  1.00  0.00     0.167 HD
ATOM     48  C   UNL A   1      47.362  27.211  26.925  1.00  0.00     0.037 A 
ATOM     49  C   UNL A   1      40.886  28.521  29.244  1.00  0.00     0.037 A 
ATOM     50  C   UNL A   1      47.131  28.569  27.337  1.00  0.00     0.049 A 
ATOM     51  C   UNL A   1      41.950  29.586  29.212  1.00  0.00     0.074 A 
ATOM     52  C   UNL A   1      48.010  29.637  27.324  1.00  0.00     0.029 A 
ATOM     53  N   UNL A   1      45.926  29.046  27.832  1.00  0.00    -0.354 N 
ATOM     54  N   UNL A   1      43.189  29.506  28.792  1.00  0.00    -0.248 NA
ATOM     55  C   UNL A   1      41.572  30.916  29.710  1.00  0.00     0.031 C 
ATOM     56  C   UNL A   1      47.346  30.754  27.843  1.00  0.00     0.029 A 
ATOM     57  C   UNL A   1      46.041  30.392  28.135  1.00  0.00     0.049 A 
ATOM     58  H   UNL A   1      45.110  28.508  27.949  1.00  0.00     0.167 HD
ATOM     59  C   UNL A   1      43.725  30.777  28.939  1.00  0.00     0.074 A 
ATOM     60  C   UNL A   1      42.676  31.614  29.479  1.00  0.00     0.031 C 
ATOM     61  C   UNL A   1      44.977  31.214  28.652  1.00  0.00     0.037 A 
BRANCH  48  62
ATOM     62  C   UNL A   1      48.736  26.829  26.458  1.00  0.00     0.064 A 
ATOM     63  C   UNL A   1      49.692  26.301  27.340  1.00  0.00     0.173 A 
ATOM     64  C   UNL A   1      49.098  26.975  25.111  1.00  0.00     0.173 A 
ATOM     65  F   UNL A   1      49.402  26.155  28.641  1.00  0.00    -0.203 F 
ATOM     66  C   UNL A   1      50.969  25.969  26.897  1.00  0.00     0.198 A 
ATOM     67  C   UNL A   1      50.366  26.611  24.665  1.00  0.00     0.198 A 
ATOM     68  F   UNL A   1      48.221  27.471  24.224  1.00  0.00    -0.203 F 
ATOM     69  F   UNL A   1      51.883  25.522  27.770  1.00  0.00    -0.200 F 
ATOM     70  C   UNL A   1      51.304  26.117  25.560  1.00  0.00     0.200 A 
ATOM     71  F   UNL A   1      50.684  26.744  23.370  1.00  0.00    -0.200 F 
ATOM     72  F   UNL A   1      52.533  25.794  25.136  1.00  0.00    -0.200 F 
ENDBRANCH  48  62
BRANCH  49  73
ATOM     73  C   UNL A   1      39.525  28.825  29.758  1.00  0.00     0.064 A 
ATOM     74  C   UNL A   1      38.557  29.406  28.925  1.00  0.00     0.173 A 
ATOM     75  C   UNL A   1      39.166  28.558  31.087  1.00  0.00     0.173 A 
ATOM     76  F   UNL A   1      38.859  29.699  27.653  1.00  0.00    -0.203 F 
ATOM     77  C   UNL A   1      37.290  29.729  29.409  1.00  0.00     0.198 A 
ATOM     78  C   UNL A   1      37.890  28.857  31.562  1.00  0.00     0.198 A 
ATOM     79  F   UNL A   1      40.053  27.998  31.922  1.00  0.00    -0.203 F 
ATOM     80  F   UNL A   1      36.401  30.326  28.604  1.00  0.00    -0.200 F 
ATOM     81  C   UNL A   1      36.957  29.451  30.725  1.00  0.00     0.200 A 
ATOM     82  F   UNL A   1      37.568  28.574  32.831  1.00  0.00    -0.200 F 
ATOM     83  F   UNL A   1      35.738  29.760  31.190  1.00  0.00    -0.200 F 
ENDBRANCH  49  73
BRANCH  61  84
ATOM     84  C   UNL A   1      45.266  32.670  28.866  1.00  0.00     0.064 A 
ATOM     85  C   UNL A   1      45.820  33.146  30.063  1.00  0.00     0.173 A 
ATOM     86  C   UNL A   1      45.029  33.595  27.837  1.00  0.00     0.173 A 
ATOM     87  F   UNL A   1      46.051  32.302  31.080  1.00  0.00    -0.203 F 
ATOM     88  C   UNL A   1      46.104  34.498  30.231  1.00  0.00     0.198 A 
ATOM     89  C   UNL A   1      45.341  34.942  27.998  1.00  0.00     0.198 A 
ATOM     90  F   UNL A   1      44.507  33.190  26.669  1.00  0.00    -0.203 F 
ATOM     91  F   UNL A   1      46.592  34.937  31.400  1.00  0.00    -0.200 F 
ATOM     92  C   UNL A   1      45.872  35.393  29.197  1.00  0.00     0.200 A 
ATOM     93  F   UNL A   1      45.129  35.803  26.994  1.00  0.00    -0.200 F 
ATOM     94  F   UNL A   1      46.155  36.693  29.359  1.00  0.00    -0.200 F 
ENDBRANCH  61  84
ENDBRANCH  35  36
ENDBRANCH  27  30
ENDBRANCH  25  26
ENDBRANCH  24  25
ENDBRANCH  23  24
ENDBRANCH   1  23
TORSDOF 16
ENDMDL
