MODEL 1
REMARK VINA RESULT:     -12.3      0.000      0.000
REMARK SMILES CC[C@](C)([NH3+])C(=O)Nc1ccc(C(F)(F)F)cc1C(=O)NCCCCNC(=O)c1ccc(-c2c3nc(c(-c4c(F)c(F)c(F)c(F)c4F)c4ccc([nH]4)c(-c4c(F)c(F)c(F)c(F)c4F)c4nc(c(-c5c(F)c(F)c(F)c(F)c5F)c5ccc2[nH]5)C=C4)C=C3)cc1
REMARK SMILES IDX 23 1 22 2 21 3 19 4 20 5 18 7 9 8 10 9 11 10 17 11 12 12
REMARK SMILES IDX 8 13 6 14 7 15 3 17 4 18 2 19 1 20 5 21 13 25 14 26 15 27
REMARK SMILES IDX 16 28 24 29 25 30 26 31 27 32 28 34 29 35 30 36 91 37 31 38
REMARK SMILES IDX 90 39 32 40 33 41 34 42 84 43 35 44 89 45 83 46 85 47 36 48
REMARK SMILES IDX 88 49 82 50 81 51 37 53 69 54 49 55 68 56 50 57 53 58 67 59
REMARK SMILES IDX 86 60 51 61 52 62 66 64 87 65 54 66 38 67 39 68 47 69 40 70
REMARK SMILES IDX 41 71 45 72 48 73 42 74 43 75 46 76 44 77 70 78 71 79 79 80
REMARK SMILES IDX 72 81 73 82 77 83 80 84 74 85 75 86 78 87 76 88 55 89 56 90
REMARK SMILES IDX 64 91 57 92 58 93 62 94 65 95 59 96 60 97 63 98 61 99
REMARK H PARENT 21 6 8 16 5 22 5 23 5 24 26 33 85 52 53 63
REMARK Flexibility Score: inf
ROOT
ATOM      1  C   UNL A   1      37.186  21.075  24.472  1.00  0.00     0.023 C 
ENDROOT
BRANCH   1   2
ATOM      2  C   UNL A   1      37.021  22.241  25.436  1.00  0.00     0.116 C 
BRANCH   2   3
ATOM      3  N   UNL A   1      36.050  22.093  26.491  1.00  0.00    -0.352 N 
ATOM      4  C   UNL A   1      34.749  21.634  26.437  1.00  0.00     0.253 C 
ATOM      5  O   UNL A   1      34.163  21.516  27.519  1.00  0.00    -0.269 OA
ATOM      6  H   UNL A   1      36.362  22.359  27.386  1.00  0.00     0.163 HD
BRANCH   4   7
ATOM      7  C   UNL A   1      33.958  21.374  25.173  1.00  0.00     0.063 A 
ATOM      8  C   UNL A   1      33.381  22.289  24.275  1.00  0.00     0.054 A 
ATOM      9  C   UNL A   1      32.401  21.842  23.367  1.00  0.00     0.027 A 
ATOM     10  C   UNL A   1      32.166  20.486  23.163  1.00  0.00     0.015 A 
ATOM     11  C   UNL A   1      33.741  19.994  24.909  1.00  0.00     0.029 A 
ATOM     12  C   UNL A   1      32.900  19.542  23.877  1.00  0.00     0.056 A 
BRANCH   8  13
ATOM     13  N   UNL A   1      33.652  23.655  24.141  1.00  0.00    -0.320 N 
ATOM     14  C   UNL A   1      32.918  24.782  24.385  1.00  0.00     0.285 C 
ATOM     15  O   UNL A   1      33.442  25.833  23.983  1.00  0.00    -0.267 OA
ATOM     16  H   UNL A   1      34.557  23.843  23.802  1.00  0.00     0.170 HD
BRANCH  14  17
ATOM     17  C   UNL A   1      31.633  24.820  25.262  1.00  0.00     0.171 C 
ATOM     18  C   UNL A   1      31.271  26.295  25.533  1.00  0.00     0.090 C 
BRANCH  17  19
ATOM     19  C   UNL A   1      31.877  24.051  26.579  1.00  0.00     0.075 C 
ATOM     20  C   UNL A   1      30.861  22.947  26.860  1.00  0.00     0.011 C 
ENDBRANCH  17  19
BRANCH  17  21
ATOM     21  N   UNL A   1      30.458  24.253  24.581  1.00  0.00    -0.345 N 
ATOM     22  H   UNL A   1      29.652  24.293  25.203  1.00  0.00     0.345 HD
ATOM     23  H   UNL A   1      30.646  23.282  24.331  1.00  0.00     0.345 HD
ATOM     24  H   UNL A   1      30.263  24.790  23.736  1.00  0.00     0.345 HD
ENDBRANCH  17  21
ENDBRANCH  14  17
ENDBRANCH   8  13
BRANCH  12  25
ATOM     25  C   UNL A   1      32.771  18.077  23.530  1.00  0.00     0.416 C 
ATOM     26  F   UNL A   1      32.067  17.378  24.460  1.00  0.00    -0.166 F 
ATOM     27  F   UNL A   1      32.115  17.891  22.349  1.00  0.00    -0.166 F 
ATOM     28  F   UNL A   1      33.964  17.440  23.393  1.00  0.00    -0.166 F 
ENDBRANCH  12  25
ENDBRANCH   4   7
ENDBRANCH   2   3
ENDBRANCH   1   2
BRANCH   1  29
ATOM     29  C   UNL A   1      37.979  19.874  25.000  1.00  0.00     0.023 C 
BRANCH  29  30
ATOM     30  C   UNL A   1      39.084  20.146  26.027  1.00  0.00     0.116 C 
BRANCH  30  31
ATOM     31  N   UNL A   1      40.180  19.187  26.009  1.00  0.00    -0.352 N 
ATOM     32  C   UNL A   1      41.541  19.380  26.139  1.00  0.00     0.251 C 
ATOM     33  H   UNL A   1      39.907  18.249  25.885  1.00  0.00     0.163 HD
ATOM     34  O   UNL A   1      42.318  18.448  25.997  1.00  0.00    -0.269 OA
BRANCH  32  35
ATOM     35  C   UNL A   1      42.077  20.732  26.428  1.00  0.00     0.039 A 
ATOM     36  C   UNL A   1      42.349  21.596  25.363  1.00  0.00     0.014 A 
ATOM     37  C   UNL A   1      42.323  21.147  27.737  1.00  0.00     0.014 A 
ATOM     38  C   UNL A   1      42.783  22.901  25.618  1.00  0.00     0.010 A 
ATOM     39  C   UNL A   1      42.669  22.474  27.995  1.00  0.00     0.010 A 
ATOM     40  C   UNL A   1      42.905  23.367  26.939  1.00  0.00    -0.014 A 
BRANCH  40  41
ATOM     41  C   UNL A   1      43.276  24.782  27.222  1.00  0.00     0.031 A 
ATOM     42  C   UNL A   1      44.673  25.275  26.946  1.00  0.00     0.074 A 
ATOM     43  C   UNL A   1      42.373  25.613  27.780  1.00  0.00     0.049 A 
ATOM     44  N   UNL A   1      45.188  26.463  27.150  1.00  0.00    -0.248 NA
ATOM     45  C   UNL A   1      45.627  24.299  26.396  1.00  0.00     0.031 C 
ATOM     46  C   UNL A   1      41.010  25.246  28.169  1.00  0.00     0.029 A 
ATOM     47  N   UNL A   1      42.467  26.939  28.129  1.00  0.00    -0.354 N 
ATOM     48  C   UNL A   1      46.523  26.368  26.775  1.00  0.00     0.074 A 
ATOM     49  C   UNL A   1      46.754  24.996  26.380  1.00  0.00     0.031 C 
ATOM     50  C   UNL A   1      40.389  26.323  28.677  1.00  0.00     0.029 A 
ATOM     51  C   UNL A   1      41.316  27.450  28.682  1.00  0.00     0.049 A 
ATOM     52  H   UNL A   1      43.283  27.474  27.995  1.00  0.00     0.167 HD
ATOM     53  C   UNL A   1      47.464  27.342  26.739  1.00  0.00     0.037 A 
ATOM     54  C   UNL A   1      41.041  28.686  29.142  1.00  0.00     0.037 A 
ATOM     55  C   UNL A   1      47.224  28.717  27.091  1.00  0.00     0.049 A 
ATOM     56  C   UNL A   1      42.094  29.759  29.046  1.00  0.00     0.074 A 
ATOM     57  C   UNL A   1      48.092  29.792  27.007  1.00  0.00     0.029 A 
ATOM     58  N   UNL A   1      46.029  29.207  27.596  1.00  0.00    -0.354 N 
ATOM     59  N   UNL A   1      43.323  29.677  28.595  1.00  0.00    -0.248 NA
ATOM     60  C   UNL A   1      41.714  31.102  29.504  1.00  0.00     0.031 C 
ATOM     61  C   UNL A   1      47.439  30.922  27.509  1.00  0.00     0.029 A 
ATOM     62  C   UNL A   1      46.144  30.565  27.847  1.00  0.00     0.049 A 
ATOM     63  H   UNL A   1      45.220  28.669  27.754  1.00  0.00     0.167 HD
ATOM     64  C   UNL A   1      43.847  30.960  28.681  1.00  0.00     0.074 A 
ATOM     65  C   UNL A   1      42.797  31.805  29.207  1.00  0.00     0.031 C 
ATOM     66  C   UNL A   1      45.087  31.399  28.355  1.00  0.00     0.037 A 
BRANCH  53  67
ATOM     67  C   UNL A   1      48.848  26.965  26.293  1.00  0.00     0.064 A 
ATOM     68  C   UNL A   1      49.794  26.439  27.184  1.00  0.00     0.173 A 
ATOM     69  C   UNL A   1      49.208  27.067  24.939  1.00  0.00     0.173 A 
ATOM     70  F   UNL A   1      49.505  26.330  28.490  1.00  0.00    -0.203 F 
ATOM     71  C   UNL A   1      51.055  26.046  26.742  1.00  0.00     0.198 A 
ATOM     72  C   UNL A   1      50.458  26.644  24.496  1.00  0.00     0.198 A 
ATOM     73  F   UNL A   1      48.339  27.557  24.043  1.00  0.00    -0.203 F 
ATOM     74  F   UNL A   1      51.957  25.583  27.620  1.00  0.00    -0.200 F 
ATOM     75  C   UNL A   1      51.382  26.139  25.398  1.00  0.00     0.200 A 
ATOM     76  F   UNL A   1      50.766  26.720  23.194  1.00  0.00    -0.200 F 
ATOM     77  F   UNL A   1      52.590  25.744  24.971  1.00  0.00    -0.200 F 
ENDBRANCH  53  67
BRANCH  54  78
ATOM     78  C   UNL A   1      39.702  28.993  29.719  1.00  0.00     0.064 A 
ATOM     79  C   UNL A   1      39.424  28.755  31.073  1.00  0.00     0.173 A 
ATOM     80  C   UNL A   1      38.662  29.489  28.919  1.00  0.00     0.173 A 
ATOM     81  F   UNL A   1      40.378  28.263  31.877  1.00  0.00    -0.203 F 
ATOM     82  C   UNL A   1      38.148  28.959  31.594  1.00  0.00     0.198 A 
ATOM     83  C   UNL A   1      37.395  29.725  29.450  1.00  0.00     0.198 A 
ATOM     84  F   UNL A   1      38.876  29.740  27.619  1.00  0.00    -0.203 F 
ATOM     85  F   UNL A   1      37.893  28.655  32.874  1.00  0.00    -0.200 F 
ATOM     86  C   UNL A   1      37.136  29.447  30.782  1.00  0.00     0.200 A 
ATOM     87  F   UNL A   1      36.424  30.212  28.666  1.00  0.00    -0.200 F 
ATOM     88  F   UNL A   1      35.906  29.636  31.282  1.00  0.00    -0.200 F 
ENDBRANCH  54  78
BRANCH  66  89
ATOM     89  C   UNL A   1      45.357  32.871  28.502  1.00  0.00     0.064 A 
ATOM     90  C   UNL A   1      45.901  33.412  29.676  1.00  0.00     0.173 A 
ATOM     91  C   UNL A   1      45.079  33.749  27.442  1.00  0.00     0.173 A 
ATOM     92  F   UNL A   1      46.176  32.619  30.723  1.00  0.00    -0.203 F 
ATOM     93  C   UNL A   1      46.112  34.784  29.801  1.00  0.00     0.198 A 
ATOM     94  C   UNL A   1      45.327  35.113  27.558  1.00  0.00     0.198 A 
ATOM     95  F   UNL A   1      44.569  33.282  26.293  1.00  0.00    -0.203 F 
ATOM     96  F   UNL A   1      46.568  35.285  30.957  1.00  0.00    -0.200 F 
ATOM     97  C   UNL A   1      45.830  35.631  28.740  1.00  0.00     0.200 A 
ATOM     98  F   UNL A   1      45.070  35.929  26.525  1.00  0.00    -0.200 F 
ATOM     99  F   UNL A   1      46.034  36.950  28.863  1.00  0.00    -0.200 F 
ENDBRANCH  66  89
ENDBRANCH  40  41
ENDBRANCH  32  35
ENDBRANCH  30  31
ENDBRANCH  29  30
ENDBRANCH   1  29
TORSDOF 16
ENDMDL
MODEL 2
REMARK VINA RESULT:     -12.3      0.647      7.333
REMARK SMILES CC[C@](C)([NH3+])C(=O)Nc1ccc(C(F)(F)F)cc1C(=O)NCCCCNC(=O)c1ccc(-c2c3nc(c(-c4c(F)c(F)c(F)c(F)c4F)c4ccc([nH]4)c(-c4c(F)c(F)c(F)c(F)c4F)c4nc(c(-c5c(F)c(F)c(F)c(F)c5F)c5ccc2[nH]5)C=C4)C=C3)cc1
REMARK SMILES IDX 23 1 22 2 21 3 19 4 20 5 18 7 9 8 10 9 11 10 17 11 12 12
REMARK SMILES IDX 8 13 6 14 7 15 3 17 4 18 2 19 1 20 5 21 13 25 14 26 15 27
REMARK SMILES IDX 16 28 24 29 25 30 26 31 27 32 28 34 29 35 30 36 91 37 31 38
REMARK SMILES IDX 90 39 32 40 33 41 34 42 84 43 35 44 89 45 83 46 85 47 36 48
REMARK SMILES IDX 88 49 82 50 81 51 37 53 69 54 49 55 68 56 50 57 53 58 67 59
REMARK SMILES IDX 86 60 51 61 52 62 66 64 87 65 54 66 38 67 39 68 47 69 40 70
REMARK SMILES IDX 41 71 45 72 48 73 42 74 43 75 46 76 44 77 70 78 71 79 79 80
REMARK SMILES IDX 72 81 73 82 77 83 80 84 74 85 75 86 78 87 76 88 55 89 56 90
REMARK SMILES IDX 64 91 57 92 58 93 62 94 65 95 59 96 60 97 63 98 61 99
REMARK H PARENT 21 6 8 16 5 22 5 23 5 24 26 33 85 52 53 63
REMARK Flexibility Score: inf
ROOT
ATOM      1  C   UNL A   1      37.137  21.085  24.496  1.00  0.00     0.023 C 
ENDROOT
BRANCH   1   2
ATOM      2  C   UNL A   1      37.005  22.264  25.450  1.00  0.00     0.116 C 
BRANCH   2   3
ATOM      3  N   UNL A   1      36.025  22.157  26.501  1.00  0.00    -0.352 N 
ATOM      4  C   UNL A   1      34.714  21.726  26.447  1.00  0.00     0.253 C 
ATOM      5  O   UNL A   1      34.120  21.639  27.527  1.00  0.00    -0.269 OA
ATOM      6  H   UNL A   1      36.338  22.431  27.393  1.00  0.00     0.163 HD
BRANCH   4   7
ATOM      7  C   UNL A   1      33.925  21.461  25.183  1.00  0.00     0.063 A 
ATOM      8  C   UNL A   1      33.316  22.371  24.302  1.00  0.00     0.054 A 
ATOM      9  C   UNL A   1      32.346  21.909  23.391  1.00  0.00     0.027 A 
ATOM     10  C   UNL A   1      32.150  20.550  23.168  1.00  0.00     0.015 A 
ATOM     11  C   UNL A   1      33.748  20.079  24.899  1.00  0.00     0.029 A 
ATOM     12  C   UNL A   1      32.916  19.618  23.864  1.00  0.00     0.056 A 
BRANCH   8  13
ATOM     13  N   UNL A   1      33.545  23.747  24.188  1.00  0.00    -0.320 N 
ATOM     14  C   UNL A   1      32.766  24.847  24.414  1.00  0.00     0.285 C 
ATOM     15  O   UNL A   1      33.268  25.918  24.039  1.00  0.00    -0.267 OA
ATOM     16  H   UNL A   1      34.455  23.968  23.881  1.00  0.00     0.170 HD
BRANCH  14  17
ATOM     17  C   UNL A   1      31.451  24.835  25.248  1.00  0.00     0.171 C 
ATOM     18  C   UNL A   1      31.080  26.291  25.595  1.00  0.00     0.090 C 
BRANCH  17  19
ATOM     19  C   UNL A   1      31.650  23.986  26.522  1.00  0.00     0.075 C 
ATOM     20  C   UNL A   1      30.549  22.957  26.770  1.00  0.00     0.011 C 
ENDBRANCH  17  19
BRANCH  17  21
ATOM     21  N   UNL A   1      30.301  24.312  24.492  1.00  0.00    -0.345 N 
ATOM     22  H   UNL A   1      29.581  25.032  24.429  1.00  0.00     0.345 HD
ATOM     23  H   UNL A   1      29.923  23.494  24.970  1.00  0.00     0.345 HD
ATOM     24  H   UNL A   1      30.602  24.049  23.554  1.00  0.00     0.345 HD
ENDBRANCH  17  21
ENDBRANCH  14  17
ENDBRANCH   8  13
BRANCH  12  25
ATOM     25  C   UNL A   1      32.829  18.156  23.495  1.00  0.00     0.416 C 
ATOM     26  F   UNL A   1      32.030  17.449  24.339  1.00  0.00    -0.166 F 
ATOM     27  F   UNL A   1      32.305  17.976  22.249  1.00  0.00    -0.166 F 
ATOM     28  F   UNL A   1      34.032  17.522  23.484  1.00  0.00    -0.166 F 
ENDBRANCH  12  25
ENDBRANCH   4   7
ENDBRANCH   2   3
ENDBRANCH   1   2
BRANCH   1  29
ATOM     29  C   UNL A   1      37.987  19.911  24.995  1.00  0.00     0.023 C 
BRANCH  29  30
ATOM     30  C   UNL A   1      39.169  20.228  25.918  1.00  0.00     0.116 C 
BRANCH  30  31
ATOM     31  N   UNL A   1      40.203  19.202  25.958  1.00  0.00    -0.352 N 
ATOM     32  C   UNL A   1      41.568  19.313  26.127  1.00  0.00     0.251 C 
ATOM     33  H   UNL A   1      39.875  18.281  25.846  1.00  0.00     0.163 HD
ATOM     34  O   UNL A   1      42.288  18.331  26.032  1.00  0.00    -0.269 OA
BRANCH  32  35
ATOM     35  C   UNL A   1      42.179  20.636  26.403  1.00  0.00     0.039 A 
ATOM     36  C   UNL A   1      42.568  21.441  25.328  1.00  0.00     0.014 A 
ATOM     37  C   UNL A   1      42.381  21.080  27.710  1.00  0.00     0.014 A 
ATOM     38  C   UNL A   1      43.075  22.722  25.566  1.00  0.00     0.010 A 
ATOM     39  C   UNL A   1      42.802  22.390  27.944  1.00  0.00     0.010 A 
ATOM     40  C   UNL A   1      43.157  23.227  26.875  1.00  0.00    -0.014 A 
BRANCH  40  41
ATOM     41  C   UNL A   1      43.608  24.623  27.134  1.00  0.00     0.031 A 
ATOM     42  C   UNL A   1      42.640  25.656  27.649  1.00  0.00     0.074 A 
ATOM     43  C   UNL A   1      44.879  24.979  26.855  1.00  0.00     0.049 A 
ATOM     44  N   UNL A   1      42.842  26.924  27.909  1.00  0.00    -0.248 NA
ATOM     45  C   UNL A   1      41.253  25.216  27.872  1.00  0.00     0.031 C 
ATOM     46  C   UNL A   1      45.899  24.099  26.281  1.00  0.00     0.029 A 
ATOM     47  N   UNL A   1      45.528  26.181  27.004  1.00  0.00    -0.354 N 
ATOM     48  C   UNL A   1      41.610  27.432  28.304  1.00  0.00     0.074 A 
ATOM     49  C   UNL A   1      40.655  26.352  28.200  1.00  0.00     0.031 C 
ATOM     50  C   UNL A   1      47.049  24.780  26.152  1.00  0.00     0.029 A 
ATOM     51  C   UNL A   1      46.843  26.153  26.601  1.00  0.00     0.049 A 
ATOM     52  H   UNL A   1      45.093  26.986  27.367  1.00  0.00     0.167 HD
ATOM     53  C   UNL A   1      41.308  28.680  28.738  1.00  0.00     0.037 A 
ATOM     54  C   UNL A   1      47.775  27.126  26.593  1.00  0.00     0.037 A 
ATOM     55  C   UNL A   1      42.266  29.744  28.883  1.00  0.00     0.049 A 
ATOM     56  C   UNL A   1      47.420  28.490  27.125  1.00  0.00     0.074 A 
ATOM     57  C   UNL A   1      42.072  31.016  29.393  1.00  0.00     0.029 A 
ATOM     58  N   UNL A   1      43.601  29.662  28.515  1.00  0.00    -0.354 N 
ATOM     59  N   UNL A   1      46.275  28.927  27.589  1.00  0.00    -0.248 NA
ATOM     60  C   UNL A   1      48.496  29.491  27.152  1.00  0.00     0.031 C 
ATOM     61  C   UNL A   1      43.275  31.720  29.286  1.00  0.00     0.029 A 
ATOM     62  C   UNL A   1      44.235  30.867  28.768  1.00  0.00     0.049 A 
ATOM     63  H   UNL A   1      44.032  28.865  28.129  1.00  0.00     0.167 HD
ATOM     64  C   UNL A   1      46.502  30.236  27.995  1.00  0.00     0.074 A 
ATOM     65  C   UNL A   1      47.898  30.515  27.742  1.00  0.00     0.031 C 
ATOM     66  C   UNL A   1      45.630  31.128  28.527  1.00  0.00     0.037 A 
BRANCH  53  67
ATOM     67  C   UNL A   1      39.880  28.970  29.102  1.00  0.00     0.064 A 
ATOM     68  C   UNL A   1      38.944  29.392  28.146  1.00  0.00     0.173 A 
ATOM     69  C   UNL A   1      39.426  28.755  30.414  1.00  0.00     0.173 A 
ATOM     70  F   UNL A   1      39.327  29.621  26.882  1.00  0.00    -0.203 F 
ATOM     71  C   UNL A   1      37.612  29.605  28.493  1.00  0.00     0.198 A 
ATOM     72  C   UNL A   1      38.087  28.939  30.748  1.00  0.00     0.198 A 
ATOM     73  F   UNL A   1      40.277  28.345  31.366  1.00  0.00    -0.203 F 
ATOM     74  F   UNL A   1      36.744  30.046  27.570  1.00  0.00    -0.200 F 
ATOM     75  C   UNL A   1      37.183  29.369  29.789  1.00  0.00     0.200 A 
ATOM     76  F   UNL A   1      37.671  28.696  31.999  1.00  0.00    -0.200 F 
ATOM     77  F   UNL A   1      35.897  29.558  30.116  1.00  0.00    -0.200 F 
ENDBRANCH  53  67
BRANCH  54  78
ATOM     78  C   UNL A   1      49.147  26.849  26.086  1.00  0.00     0.064 A 
ATOM     79  C   UNL A   1      49.473  27.041  24.735  1.00  0.00     0.173 A 
ATOM     80  C   UNL A   1      50.147  26.344  26.929  1.00  0.00     0.173 A 
ATOM     81  F   UNL A   1      48.548  27.504  23.881  1.00  0.00    -0.203 F 
ATOM     82  C   UNL A   1      50.730  26.700  24.240  1.00  0.00     0.198 A 
ATOM     83  C   UNL A   1      51.415  26.035  26.440  1.00  0.00     0.198 A 
ATOM     84  F   UNL A   1      49.891  26.146  28.231  1.00  0.00    -0.203 F 
ATOM     85  F   UNL A   1      50.991  26.828  22.931  1.00  0.00    -0.200 F 
ATOM     86  C   UNL A   1      51.701  26.200  25.094  1.00  0.00     0.200 A 
ATOM     87  F   UNL A   1      52.355  25.566  27.271  1.00  0.00    -0.200 F 
ATOM     88  F   UNL A   1      52.908  25.864  24.616  1.00  0.00    -0.200 F 
ENDBRANCH  54  78
BRANCH  66  89
ATOM     89  C   UNL A   1      46.177  32.470  28.928  1.00  0.00     0.064 A 
ATOM     90  C   UNL A   1      46.709  32.703  30.205  1.00  0.00     0.173 A 
ATOM     91  C   UNL A   1      46.181  33.533  28.012  1.00  0.00     0.173 A 
ATOM     92  F   UNL A   1      46.721  31.725  31.122  1.00  0.00    -0.203 F 
ATOM     93  C   UNL A   1      47.180  33.964  30.564  1.00  0.00     0.198 A 
ATOM     94  C   UNL A   1      46.687  34.781  28.362  1.00  0.00     0.198 A 
ATOM     95  F   UNL A   1      45.694  33.361  26.773  1.00  0.00    -0.203 F 
ATOM     96  F   UNL A   1      47.620  34.182  31.811  1.00  0.00    -0.200 F 
ATOM     97  C   UNL A   1      47.174  34.999  29.641  1.00  0.00     0.200 A 
ATOM     98  F   UNL A   1      46.696  35.775  27.463  1.00  0.00    -0.200 F 
ATOM     99  F   UNL A   1      47.628  36.211  29.990  1.00  0.00    -0.200 F 
ENDBRANCH  66  89
ENDBRANCH  40  41
ENDBRANCH  32  35
ENDBRANCH  30  31
ENDBRANCH  29  30
ENDBRANCH   1  29
TORSDOF 16
ENDMDL
MODEL 3
REMARK VINA RESULT:     -12.2      1.771      3.056
REMARK SMILES CC[C@](C)([NH3+])C(=O)Nc1ccc(C(F)(F)F)cc1C(=O)NCCCCNC(=O)c1ccc(-c2c3nc(c(-c4c(F)c(F)c(F)c(F)c4F)c4ccc([nH]4)c(-c4c(F)c(F)c(F)c(F)c4F)c4nc(c(-c5c(F)c(F)c(F)c(F)c5F)c5ccc2[nH]5)C=C4)C=C3)cc1
REMARK SMILES IDX 23 1 22 2 21 3 19 4 20 5 18 7 9 8 10 9 11 10 17 11 12 12
REMARK SMILES IDX 8 13 6 14 7 15 3 17 4 18 2 19 1 20 5 21 13 25 14 26 15 27
REMARK SMILES IDX 16 28 24 29 25 30 26 31 27 32 28 34 29 35 30 36 91 37 31 38
REMARK SMILES IDX 90 39 32 40 33 41 34 42 84 43 35 44 89 45 83 46 85 47 36 48
REMARK SMILES IDX 88 49 82 50 81 51 37 53 69 54 49 55 68 56 50 57 53 58 67 59
REMARK SMILES IDX 86 60 51 61 52 62 66 64 87 65 54 66 38 67 39 68 47 69 40 70
REMARK SMILES IDX 41 71 45 72 48 73 42 74 43 75 46 76 44 77 70 78 71 79 79 80
REMARK SMILES IDX 72 81 73 82 77 83 80 84 74 85 75 86 78 87 76 88 55 89 56 90
REMARK SMILES IDX 64 91 57 92 58 93 62 94 65 95 59 96 60 97 63 98 61 99
REMARK H PARENT 21 6 8 16 5 22 5 23 5 24 26 33 85 52 53 63
REMARK Flexibility Score: inf
ROOT
ATOM      1  C   UNL A   1      37.091  21.268  24.406  1.00  0.00     0.023 C 
ENDROOT
BRANCH   1   2
ATOM      2  C   UNL A   1      36.771  22.368  25.408  1.00  0.00     0.116 C 
BRANCH   2   3
ATOM      3  N   UNL A   1      35.892  22.033  26.499  1.00  0.00    -0.352 N 
ATOM      4  C   UNL A   1      34.591  21.570  26.477  1.00  0.00     0.253 C 
ATOM      5  O   UNL A   1      34.098  21.264  27.568  1.00  0.00    -0.269 OA
ATOM      6  H   UNL A   1      36.278  22.151  27.397  1.00  0.00     0.163 HD
BRANCH   4   7
ATOM      7  C   UNL A   1      33.697  21.511  25.256  1.00  0.00     0.063 A 
ATOM      8  C   UNL A   1      32.885  20.462  24.793  1.00  0.00     0.054 A 
ATOM      9  C   UNL A   1      32.414  20.487  23.465  1.00  0.00     0.027 A 
ATOM     10  C   UNL A   1      32.523  21.629  22.678  1.00  0.00     0.015 A 
ATOM     11  C   UNL A   1      33.749  22.685  24.455  1.00  0.00     0.029 A 
ATOM     12  C   UNL A   1      33.120  22.774  23.200  1.00  0.00     0.056 A 
BRANCH   8  13
ATOM     13  N   UNL A   1      32.447  19.334  25.495  1.00  0.00    -0.320 N 
ATOM     14  C   UNL A   1      32.723  18.000  25.386  1.00  0.00     0.285 C 
ATOM     15  O   UNL A   1      32.007  17.268  26.088  1.00  0.00    -0.267 OA
ATOM     16  H   UNL A   1      31.810  19.544  26.215  1.00  0.00     0.170 HD
BRANCH  14  17
ATOM     17  C   UNL A   1      33.948  17.416  24.622  1.00  0.00     0.171 C 
ATOM     18  C   UNL A   1      33.589  17.322  23.125  1.00  0.00     0.090 C 
BRANCH  17  19
ATOM     19  C   UNL A   1      34.311  16.031  25.201  1.00  0.00     0.075 C 
ATOM     20  C   UNL A   1      35.802  15.828  25.458  1.00  0.00     0.011 C 
ENDBRANCH  17  19
BRANCH  17  21
ATOM     21  N   UNL A   1      35.130  18.291  24.682  1.00  0.00    -0.345 N 
ATOM     22  H   UNL A   1      35.915  17.774  25.076  1.00  0.00     0.345 HD
ATOM     23  H   UNL A   1      34.925  19.099  25.271  1.00  0.00     0.345 HD
ATOM     24  H   UNL A   1      35.367  18.606  23.742  1.00  0.00     0.345 HD
ENDBRANCH  17  21
ENDBRANCH  14  17
ENDBRANCH   8  13
BRANCH  12  25
ATOM     25  C   UNL A   1      33.080  24.062  22.413  1.00  0.00     0.416 C 
ATOM     26  F   UNL A   1      31.915  24.744  22.580  1.00  0.00    -0.166 F 
ATOM     27  F   UNL A   1      34.071  24.920  22.792  1.00  0.00    -0.166 F 
ATOM     28  F   UNL A   1      33.236  23.889  21.073  1.00  0.00    -0.166 F 
ENDBRANCH  12  25
ENDBRANCH   4   7
ENDBRANCH   2   3
ENDBRANCH   1   2
BRANCH   1  29
ATOM     29  C   UNL A   1      37.875  20.070  24.954  1.00  0.00     0.023 C 
BRANCH  29  30
ATOM     30  C   UNL A   1      38.990  20.350  25.967  1.00  0.00     0.116 C 
BRANCH  30  31
ATOM     31  N   UNL A   1      40.077  19.381  25.961  1.00  0.00    -0.352 N 
ATOM     32  C   UNL A   1      41.435  19.557  26.128  1.00  0.00     0.251 C 
ATOM     33  H   UNL A   1      39.797  18.448  25.814  1.00  0.00     0.163 HD
ATOM     34  O   UNL A   1      42.206  18.620  25.991  1.00  0.00    -0.269 OA
BRANCH  32  35
ATOM     35  C   UNL A   1      41.977  20.898  26.453  1.00  0.00     0.039 A 
ATOM     36  C   UNL A   1      42.209  21.806  25.415  1.00  0.00     0.014 A 
ATOM     37  C   UNL A   1      42.268  21.261  27.769  1.00  0.00     0.014 A 
ATOM     38  C   UNL A   1      42.648  23.101  25.709  1.00  0.00     0.010 A 
ATOM     39  C   UNL A   1      42.619  22.578  28.068  1.00  0.00     0.010 A 
ATOM     40  C   UNL A   1      42.815  23.515  27.042  1.00  0.00    -0.014 A 
BRANCH  40  41
ATOM     41  C   UNL A   1      43.192  24.918  27.369  1.00  0.00     0.031 A 
ATOM     42  C   UNL A   1      44.595  25.410  27.123  1.00  0.00     0.074 A 
ATOM     43  C   UNL A   1      42.288  25.739  27.941  1.00  0.00     0.049 A 
ATOM     44  N   UNL A   1      45.116  26.588  27.366  1.00  0.00    -0.248 NA
ATOM     45  C   UNL A   1      45.549  24.443  26.556  1.00  0.00     0.031 C 
ATOM     46  C   UNL A   1      40.918  25.370  28.304  1.00  0.00     0.029 A 
ATOM     47  N   UNL A   1      42.387  27.054  28.329  1.00  0.00    -0.354 N 
ATOM     48  C   UNL A   1      46.453  26.495  27.004  1.00  0.00     0.074 A 
ATOM     49  C   UNL A   1      46.681  25.133  26.572  1.00  0.00     0.031 C 
ATOM     50  C   UNL A   1      40.299  26.436  28.836  1.00  0.00     0.029 A 
ATOM     51  C   UNL A   1      41.233  27.556  28.883  1.00  0.00     0.049 A 
ATOM     52  H   UNL A   1      43.207  27.587  28.219  1.00  0.00     0.167 HD
ATOM     53  C   UNL A   1      47.401  27.463  27.006  1.00  0.00     0.037 A 
ATOM     54  C   UNL A   1      40.960  28.780  29.375  1.00  0.00     0.037 A 
ATOM     55  C   UNL A   1      47.166  28.829  27.394  1.00  0.00     0.049 A 
ATOM     56  C   UNL A   1      42.022  29.848  29.321  1.00  0.00     0.074 A 
ATOM     57  C   UNL A   1      48.041  29.900  27.350  1.00  0.00     0.029 A 
ATOM     58  N   UNL A   1      45.969  29.312  27.899  1.00  0.00    -0.354 N 
ATOM     59  N   UNL A   1      43.254  29.771  28.882  1.00  0.00    -0.248 NA
ATOM     60  C   UNL A   1      41.645  31.181  29.813  1.00  0.00     0.031 C 
ATOM     61  C   UNL A   1      47.390  31.020  27.878  1.00  0.00     0.029 A 
ATOM     62  C   UNL A   1      46.090  30.662  28.190  1.00  0.00     0.049 A 
ATOM     63  H   UNL A   1      45.154  28.775  28.033  1.00  0.00     0.167 HD
ATOM     64  C   UNL A   1      43.785  31.049  29.010  1.00  0.00     0.074 A 
ATOM     65  C   UNL A   1      42.735  31.885  29.548  1.00  0.00     0.031 C 
ATOM     66  C   UNL A   1      45.032  31.488  28.710  1.00  0.00     0.037 A 
BRANCH  53  67
ATOM     67  C   UNL A   1      48.788  27.090  26.564  1.00  0.00     0.064 A 
ATOM     68  C   UNL A   1      49.748  26.615  27.469  1.00  0.00     0.173 A 
ATOM     69  C   UNL A   1      49.136  27.142  25.205  1.00  0.00     0.173 A 
ATOM     70  F   UNL A   1      49.471  26.554  28.780  1.00  0.00    -0.203 F 
ATOM     71  C   UNL A   1      51.013  26.224  27.033  1.00  0.00     0.198 A 
ATOM     72  C   UNL A   1      50.389  26.721  24.770  1.00  0.00     0.198 A 
ATOM     73  F   UNL A   1      48.253  27.582  24.296  1.00  0.00    -0.203 F 
ATOM     74  F   UNL A   1      51.928  25.811  27.921  1.00  0.00    -0.200 F 
ATOM     75  C   UNL A   1      51.328  26.267  25.684  1.00  0.00     0.200 A 
ATOM     76  F   UNL A   1      50.687  26.749  23.463  1.00  0.00    -0.200 F 
ATOM     77  F   UNL A   1      52.538  25.874  25.264  1.00  0.00    -0.200 F 
ENDBRANCH  53  67
BRANCH  54  78
ATOM     78  C   UNL A   1      39.617  29.080  29.946  1.00  0.00     0.064 A 
ATOM     79  C   UNL A   1      38.602  29.638  29.155  1.00  0.00     0.173 A 
ATOM     80  C   UNL A   1      39.337  28.858  31.302  1.00  0.00     0.173 A 
ATOM     81  F   UNL A   1      38.825  29.889  27.856  1.00  0.00    -0.203 F 
ATOM     82  C   UNL A   1      37.375  30.001  29.706  1.00  0.00     0.198 A 
ATOM     83  C   UNL A   1      38.097  29.190  31.845  1.00  0.00     0.198 A 
ATOM     84  F   UNL A   1      40.270  28.321  32.101  1.00  0.00    -0.203 F 
ATOM     85  F   UNL A   1      36.449  30.598  28.943  1.00  0.00    -0.200 F 
ATOM     86  C   UNL A   1      37.123  29.774  31.051  1.00  0.00     0.200 A 
ATOM     87  F   UNL A   1      37.852  28.954  33.140  1.00  0.00    -0.200 F 
ATOM     88  F   UNL A   1      35.945  30.130  31.583  1.00  0.00    -0.200 F 
ENDBRANCH  54  78
BRANCH  66  89
ATOM     89  C   UNL A   1      45.310  32.953  28.902  1.00  0.00     0.064 A 
ATOM     90  C   UNL A   1      45.858  33.455  30.091  1.00  0.00     0.173 A 
ATOM     91  C   UNL A   1      45.034  33.865  27.871  1.00  0.00     0.173 A 
ATOM     92  F   UNL A   1      46.132  32.629  31.112  1.00  0.00    -0.203 F 
ATOM     93  C   UNL A   1      46.077  34.821  30.259  1.00  0.00     0.198 A 
ATOM     94  C   UNL A   1      45.288  35.224  28.028  1.00  0.00     0.198 A 
ATOM     95  F   UNL A   1      44.519  33.437  26.709  1.00  0.00    -0.203 F 
ATOM     96  F   UNL A   1      46.538  35.285  31.428  1.00  0.00    -0.200 F 
ATOM     97  C   UNL A   1      45.797  35.702  29.225  1.00  0.00     0.200 A 
ATOM     98  F   UNL A   1      45.033  36.072  27.022  1.00  0.00    -0.200 F 
ATOM     99  F   UNL A   1      46.008  37.016  29.388  1.00  0.00    -0.200 F 
ENDBRANCH  66  89
ENDBRANCH  40  41
ENDBRANCH  32  35
ENDBRANCH  30  31
ENDBRANCH  29  30
ENDBRANCH   1  29
TORSDOF 16
ENDMDL
