MODEL 1
REMARK VINA RESULT:     -12.2      0.000      0.000
REMARK SMILES Cc1c(Cl)ccc2c(OCC(=O)NCCCCNC(=O)c3ccc(-c4c5nc(c(-c6c(F)c(F)c(F)c(F)c6F)c6ccc([nH]6)c(-c6c(F)c(F)c(F)c(F)c6F)c6nc(c(-c7c(F)c(F)c(F)c(F)c7F)c7ccc4[nH]7)C=C6)C=C5)cc3)ccnc12
REMARK SMILES IDX 15 1 14 2 13 3 11 4 12 5 10 7 9 8 8 9 1 10 2 11 3 12 87 13
REMARK SMILES IDX 4 14 5 15 7 16 86 17 6 18 85 19 84 20 16 21 17 22 18 23
REMARK SMILES IDX 19 24 20 26 21 27 22 28 83 29 23 30 82 31 24 32 25 33 26 34
REMARK SMILES IDX 76 35 27 36 81 37 75 38 77 39 28 40 80 41 74 42 73 43 29 45
REMARK SMILES IDX 61 46 41 47 60 48 42 49 45 50 59 51 78 52 43 53 44 54 58 56
REMARK SMILES IDX 79 57 46 58 30 59 31 60 39 61 32 62 33 63 37 64 40 65 34 66
REMARK SMILES IDX 35 67 38 68 36 69 62 70 63 71 71 72 64 73 65 74 69 75 72 76
REMARK SMILES IDX 66 77 67 78 70 79 68 80 47 81 48 82 56 83 49 84 50 85 54 86
REMARK SMILES IDX 57 87 51 88 52 89 55 90 53 91
REMARK H PARENT 13 6 18 25 77 44 45 55
REMARK Flexibility Score: inf
ROOT
ATOM      1  C   UNL A   1      31.540  30.739  26.108  1.00  0.00     0.023 C 
ENDROOT
BRANCH   1   2
ATOM      2  C   UNL A   1      32.921  30.144  26.372  1.00  0.00     0.116 C 
BRANCH   2   3
ATOM      3  N   UNL A   1      33.537  29.621  25.167  1.00  0.00    -0.353 N 
ATOM      4  C   UNL A   1      33.473  28.358  24.655  1.00  0.00     0.257 C 
ATOM      5  O   UNL A   1      34.068  28.117  23.603  1.00  0.00    -0.271 OA
ATOM      6  H   UNL A   1      34.072  30.265  24.649  1.00  0.00     0.163 HD
BRANCH   4   7
ATOM      7  C   UNL A   1      32.640  27.286  25.365  1.00  0.00     0.329 C 
BRANCH   7   8
ATOM      8  O   UNL A   1      33.354  26.321  26.121  1.00  0.00    -0.483 OA
BRANCH   8   9
ATOM      9  C   UNL A   1      33.005  24.997  26.011  1.00  0.00     0.131 A 
ATOM     10  C   UNL A   1      34.386  20.386  24.935  1.00  0.00     0.048 C 
ATOM     11  C   UNL A   1      34.757  21.834  25.146  1.00  0.00    -0.006 A 
ATOM     12  C   UNL A   1      36.069  22.299  24.947  1.00  0.00     0.046 A 
ATOM     13  C   UNL A   1      33.739  22.738  25.497  1.00  0.00     0.078 A 
ATOM     14  Cl  UNL A   1      37.361  21.255  24.467  1.00  0.00    -0.084 Cl
ATOM     15  C   UNL A   1      36.379  23.643  25.123  1.00  0.00     0.022 A 
ATOM     16  C   UNL A   1      34.051  24.107  25.666  1.00  0.00     0.043 A 
ATOM     17  N   UNL A   1      32.480  22.288  25.661  1.00  0.00    -0.256 NA
ATOM     18  C   UNL A   1      35.380  24.540  25.481  1.00  0.00     0.016 A 
ATOM     19  C   UNL A   1      31.512  23.157  26.011  1.00  0.00     0.115 A 
ATOM     20  C   UNL A   1      31.720  24.505  26.202  1.00  0.00     0.067 A 
ENDBRANCH   8   9
ENDBRANCH   7   8
ENDBRANCH   4   7
ENDBRANCH   2   3
ENDBRANCH   1   2
BRANCH   1  21
ATOM     21  C   UNL A   1      31.373  32.207  26.511  1.00  0.00     0.023 C 
BRANCH  21  22
ATOM     22  C   UNL A   1      32.561  32.831  27.237  1.00  0.00     0.116 C 
BRANCH  22  23
ATOM     23  N   UNL A   1      32.328  34.215  27.617  1.00  0.00    -0.352 N 
ATOM     24  C   UNL A   1      32.967  34.966  28.573  1.00  0.00     0.251 C 
ATOM     25  H   UNL A   1      31.616  34.678  27.119  1.00  0.00     0.163 HD
ATOM     26  O   UNL A   1      32.567  36.091  28.852  1.00  0.00    -0.269 OA
BRANCH  24  27
ATOM     27  C   UNL A   1      34.125  34.398  29.291  1.00  0.00     0.039 A 
ATOM     28  C   UNL A   1      33.899  33.661  30.457  1.00  0.00     0.014 A 
ATOM     29  C   UNL A   1      35.425  34.583  28.810  1.00  0.00     0.014 A 
ATOM     30  C   UNL A   1      34.974  33.058  31.110  1.00  0.00     0.010 A 
ATOM     31  C   UNL A   1      36.491  33.941  29.436  1.00  0.00     0.010 A 
ATOM     32  C   UNL A   1      36.273  33.174  30.590  1.00  0.00    -0.014 A 
BRANCH  32  33
ATOM     33  C   UNL A   1      37.417  32.509  31.257  1.00  0.00     0.031 A 
ATOM     34  C   UNL A   1      38.123  31.373  30.577  1.00  0.00     0.074 A 
ATOM     35  C   UNL A   1      37.793  32.901  32.490  1.00  0.00     0.049 A 
ATOM     36  N   UNL A   1      39.133  30.656  31.002  1.00  0.00    -0.248 NA
ATOM     37  C   UNL A   1      37.617  30.978  29.254  1.00  0.00     0.031 C 
ATOM     38  C   UNL A   1      37.159  33.968  33.264  1.00  0.00     0.029 A 
ATOM     39  N   UNL A   1      38.794  32.443  33.308  1.00  0.00    -0.354 N 
ATOM     40  C   UNL A   1      39.383  29.730  30.000  1.00  0.00     0.074 A 
ATOM     41  C   UNL A   1      38.389  29.938  28.969  1.00  0.00     0.031 C 
ATOM     42  C   UNL A   1      37.795  34.091  34.441  1.00  0.00     0.029 A 
ATOM     43  C   UNL A   1      38.867  33.101  34.510  1.00  0.00     0.049 A 
ATOM     44  H   UNL A   1      39.403  31.711  33.057  1.00  0.00     0.167 HD
ATOM     45  C   UNL A   1      40.371  28.807  29.934  1.00  0.00     0.037 A 
ATOM     46  C   UNL A   1      39.705  32.924  35.550  1.00  0.00     0.037 A 
ATOM     47  C   UNL A   1      41.370  28.616  30.949  1.00  0.00     0.049 A 
ATOM     48  C   UNL A   1      40.779  31.875  35.464  1.00  0.00     0.074 A 
ATOM     49  C   UNL A   1      42.453  27.754  30.941  1.00  0.00     0.029 A 
ATOM     50  N   UNL A   1      41.405  29.294  32.159  1.00  0.00    -0.354 N 
ATOM     51  N   UNL A   1      41.055  31.057  34.479  1.00  0.00    -0.248 NA
ATOM     52  C   UNL A   1      41.660  31.726  36.631  1.00  0.00     0.031 C 
ATOM     53  C   UNL A   1      43.120  27.882  32.163  1.00  0.00     0.029 A 
ATOM     54  C   UNL A   1      42.476  28.850  32.917  1.00  0.00     0.049 A 
ATOM     55  H   UNL A   1      40.764  29.989  32.436  1.00  0.00     0.167 HD
ATOM     56  C   UNL A   1      42.149  30.312  34.894  1.00  0.00     0.074 A 
ATOM     57  C   UNL A   1      42.495  30.780  36.221  1.00  0.00     0.031 C 
ATOM     58  C   UNL A   1      42.807  29.327  34.235  1.00  0.00     0.037 A 
BRANCH  45  59
ATOM     59  C   UNL A   1      40.431  27.942  28.712  1.00  0.00     0.064 A 
ATOM     60  C   UNL A   1      41.172  28.323  27.584  1.00  0.00     0.173 A 
ATOM     61  C   UNL A   1      39.783  26.699  28.685  1.00  0.00     0.173 A 
ATOM     62  F   UNL A   1      41.800  29.509  27.559  1.00  0.00    -0.203 F 
ATOM     63  C   UNL A   1      41.247  27.499  26.465  1.00  0.00     0.198 A 
ATOM     64  C   UNL A   1      39.880  25.866  27.573  1.00  0.00     0.198 A 
ATOM     65  F   UNL A   1      39.065  26.287  29.740  1.00  0.00    -0.203 F 
ATOM     66  F   UNL A   1      41.931  27.899  25.384  1.00  0.00    -0.200 F 
ATOM     67  C   UNL A   1      40.608  26.268  26.463  1.00  0.00     0.200 A 
ATOM     68  F   UNL A   1      39.269  24.673  27.576  1.00  0.00    -0.200 F 
ATOM     69  F   UNL A   1      40.689  25.472  25.389  1.00  0.00    -0.200 F 
ENDBRANCH  45  59
BRANCH  46  70
ATOM     70  C   UNL A   1      39.577  33.791  36.750  1.00  0.00     0.064 A 
ATOM     71  C   UNL A   1      40.212  35.038  36.802  1.00  0.00     0.173 A 
ATOM     72  C   UNL A   1      38.801  33.404  37.851  1.00  0.00     0.173 A 
ATOM     73  F   UNL A   1      40.981  35.441  35.779  1.00  0.00    -0.203 F 
ATOM     74  C   UNL A   1      40.080  35.866  37.915  1.00  0.00     0.198 A 
ATOM     75  C   UNL A   1      38.653  34.241  38.955  1.00  0.00     0.198 A 
ATOM     76  F   UNL A   1      38.173  32.220  37.847  1.00  0.00    -0.203 F 
ATOM     77  F   UNL A   1      40.719  37.044  37.951  1.00  0.00    -0.200 F 
ATOM     78  C   UNL A   1      39.296  35.470  38.988  1.00  0.00     0.200 A 
ATOM     79  F   UNL A   1      37.886  33.859  39.985  1.00  0.00    -0.200 F 
ATOM     80  F   UNL A   1      39.161  36.270  40.054  1.00  0.00    -0.200 F 
ENDBRANCH  46  70
BRANCH  58  81
ATOM     81  C   UNL A   1      43.975  28.688  34.922  1.00  0.00     0.064 A 
ATOM     82  C   UNL A   1      43.807  27.570  35.752  1.00  0.00     0.173 A 
ATOM     83  C   UNL A   1      45.281  29.136  34.673  1.00  0.00     0.173 A 
ATOM     84  F   UNL A   1      42.577  27.114  36.029  1.00  0.00    -0.203 F 
ATOM     85  C   UNL A   1      44.908  26.925  36.311  1.00  0.00     0.198 A 
ATOM     86  C   UNL A   1      46.379  28.474  35.215  1.00  0.00     0.198 A 
ATOM     87  F   UNL A   1      45.491  30.197  33.880  1.00  0.00    -0.203 F 
ATOM     88  F   UNL A   1      44.725  25.870  37.116  1.00  0.00    -0.200 F 
ATOM     89  C   UNL A   1      46.192  27.371  36.033  1.00  0.00     0.200 A 
ATOM     90  F   UNL A   1      47.620  28.897  34.934  1.00  0.00    -0.200 F 
ATOM     91  F   UNL A   1      47.250  26.734  36.555  1.00  0.00    -0.200 F 
ENDBRANCH  58  81
ENDBRANCH  32  33
ENDBRANCH  24  27
ENDBRANCH  22  23
ENDBRANCH  21  22
ENDBRANCH   1  21
TORSDOF 13
ENDMDL
MODEL 2
REMARK VINA RESULT:     -12.1      1.407      2.294
REMARK SMILES Cc1c(Cl)ccc2c(OCC(=O)NCCCCNC(=O)c3ccc(-c4c5nc(c(-c6c(F)c(F)c(F)c(F)c6F)c6ccc([nH]6)c(-c6c(F)c(F)c(F)c(F)c6F)c6nc(c(-c7c(F)c(F)c(F)c(F)c7F)c7ccc4[nH]7)C=C6)C=C5)cc3)ccnc12
REMARK SMILES IDX 15 1 14 2 13 3 11 4 12 5 10 7 9 8 8 9 1 10 2 11 3 12 87 13
REMARK SMILES IDX 4 14 5 15 7 16 86 17 6 18 85 19 84 20 16 21 17 22 18 23
REMARK SMILES IDX 19 24 20 26 21 27 22 28 83 29 23 30 82 31 24 32 25 33 26 34
REMARK SMILES IDX 76 35 27 36 81 37 75 38 77 39 28 40 80 41 74 42 73 43 29 45
REMARK SMILES IDX 61 46 41 47 60 48 42 49 45 50 59 51 78 52 43 53 44 54 58 56
REMARK SMILES IDX 79 57 46 58 30 59 31 60 39 61 32 62 33 63 37 64 40 65 34 66
REMARK SMILES IDX 35 67 38 68 36 69 62 70 63 71 71 72 64 73 65 74 69 75 72 76
REMARK SMILES IDX 66 77 67 78 70 79 68 80 47 81 48 82 56 83 49 84 50 85 54 86
REMARK SMILES IDX 57 87 51 88 52 89 55 90 53 91
REMARK H PARENT 13 6 18 25 77 44 45 55
REMARK Flexibility Score: inf
ROOT
ATOM      1  C   UNL A   1      31.781  30.610  26.828  1.00  0.00     0.023 C 
ENDROOT
BRANCH   1   2
ATOM      2  C   UNL A   1      31.918  30.043  25.416  1.00  0.00     0.116 C 
BRANCH   2   3
ATOM      3  N   UNL A   1      30.722  30.247  24.621  1.00  0.00    -0.353 N 
ATOM      4  C   UNL A   1      30.375  29.662  23.438  1.00  0.00     0.257 C 
ATOM      5  O   UNL A   1      29.298  29.969  22.923  1.00  0.00    -0.271 OA
ATOM      6  H   UNL A   1      30.074  30.892  24.985  1.00  0.00     0.163 HD
BRANCH   4   7
ATOM      7  C   UNL A   1      31.296  28.617  22.801  1.00  0.00     0.329 C 
BRANCH   7   8
ATOM      8  O   UNL A   1      31.372  27.357  23.447  1.00  0.00    -0.483 OA
BRANCH   8   9
ATOM      9  C   UNL A   1      32.081  26.343  22.849  1.00  0.00     0.131 A 
ATOM     10  C   UNL A   1      35.691  22.999  23.189  1.00  0.00     0.048 C 
ATOM     11  C   UNL A   1      34.839  24.059  23.846  1.00  0.00    -0.006 A 
ATOM     12  C   UNL A   1      35.048  24.455  25.178  1.00  0.00     0.046 A 
ATOM     13  C   UNL A   1      33.851  24.693  23.073  1.00  0.00     0.078 A 
ATOM     14  Cl  UNL A   1      36.276  23.754  26.174  1.00  0.00    -0.084 Cl
ATOM     15  C   UNL A   1      34.267  25.452  25.753  1.00  0.00     0.022 A 
ATOM     16  C   UNL A   1      33.063  25.714  23.652  1.00  0.00     0.043 A 
ATOM     17  N   UNL A   1      33.674  24.324  21.790  1.00  0.00    -0.256 NA
ATOM     18  C   UNL A   1      33.281  26.076  24.997  1.00  0.00     0.016 A 
ATOM     19  C   UNL A   1      32.717  24.927  21.059  1.00  0.00     0.115 A 
ATOM     20  C   UNL A   1      31.898  25.926  21.536  1.00  0.00     0.067 A 
ENDBRANCH   8   9
ENDBRANCH   7   8
ENDBRANCH   4   7
ENDBRANCH   2   3
ENDBRANCH   1   2
BRANCH   1  21
ATOM     21  C   UNL A   1      31.557  32.124  26.905  1.00  0.00     0.023 C 
BRANCH  21  22
ATOM     22  C   UNL A   1      32.798  32.961  27.197  1.00  0.00     0.116 C 
BRANCH  22  23
ATOM     23  N   UNL A   1      32.480  34.300  27.664  1.00  0.00    -0.352 N 
ATOM     24  C   UNL A   1      33.038  35.006  28.702  1.00  0.00     0.251 C 
ATOM     25  H   UNL A   1      31.769  34.766  27.167  1.00  0.00     0.163 HD
ATOM     26  O   UNL A   1      32.570  36.088  29.042  1.00  0.00    -0.269 OA
BRANCH  24  27
ATOM     27  C   UNL A   1      34.190  34.441  29.432  1.00  0.00     0.039 A 
ATOM     28  C   UNL A   1      33.956  33.733  30.614  1.00  0.00     0.014 A 
ATOM     29  C   UNL A   1      35.491  34.601  28.946  1.00  0.00     0.014 A 
ATOM     30  C   UNL A   1      35.024  33.131  31.279  1.00  0.00     0.010 A 
ATOM     31  C   UNL A   1      36.550  33.959  29.585  1.00  0.00     0.010 A 
ATOM     32  C   UNL A   1      36.323  33.221  30.757  1.00  0.00    -0.014 A 
BRANCH  32  33
ATOM     33  C   UNL A   1      37.461  32.558  31.438  1.00  0.00     0.031 A 
ATOM     34  C   UNL A   1      38.160  31.405  30.778  1.00  0.00     0.074 A 
ATOM     35  C   UNL A   1      37.836  32.966  32.665  1.00  0.00     0.049 A 
ATOM     36  N   UNL A   1      39.163  30.687  31.217  1.00  0.00    -0.248 NA
ATOM     37  C   UNL A   1      37.655  30.994  29.459  1.00  0.00     0.031 C 
ATOM     38  C   UNL A   1      37.207  34.049  33.421  1.00  0.00     0.029 A 
ATOM     39  N   UNL A   1      38.831  32.512  33.494  1.00  0.00    -0.354 N 
ATOM     40  C   UNL A   1      39.409  29.745  30.230  1.00  0.00     0.074 A 
ATOM     41  C   UNL A   1      38.420  29.945  29.192  1.00  0.00     0.031 C 
ATOM     42  C   UNL A   1      37.840  34.186  34.598  1.00  0.00     0.029 A 
ATOM     43  C   UNL A   1      38.904  33.188  34.686  1.00  0.00     0.049 A 
ATOM     44  H   UNL A   1      39.435  31.772  33.256  1.00  0.00     0.167 HD
ATOM     45  C   UNL A   1      40.390  28.813  30.181  1.00  0.00     0.037 A 
ATOM     46  C   UNL A   1      39.737  33.021  35.732  1.00  0.00     0.037 A 
ATOM     47  C   UNL A   1      41.384  28.629  31.203  1.00  0.00     0.049 A 
ATOM     48  C   UNL A   1      40.803  31.963  35.665  1.00  0.00     0.074 A 
ATOM     49  C   UNL A   1      42.460  27.760  31.212  1.00  0.00     0.029 A 
ATOM     50  N   UNL A   1      41.420  29.326  32.402  1.00  0.00    -0.354 N 
ATOM     51  N   UNL A   1      41.076  31.127  34.693  1.00  0.00    -0.248 NA
ATOM     52  C   UNL A   1      41.680  31.824  36.837  1.00  0.00     0.031 C 
ATOM     53  C   UNL A   1      43.124  27.901  32.434  1.00  0.00     0.029 A 
ATOM     54  C   UNL A   1      42.485  28.885  33.171  1.00  0.00     0.049 A 
ATOM     55  H   UNL A   1      40.784  30.030  32.666  1.00  0.00     0.167 HD
ATOM     56  C   UNL A   1      42.164  30.380  35.124  1.00  0.00     0.074 A 
ATOM     57  C   UNL A   1      42.509  30.866  36.444  1.00  0.00     0.031 C 
ATOM     58  C   UNL A   1      42.816  29.380  34.482  1.00  0.00     0.037 A 
BRANCH  45  59
ATOM     59  C   UNL A   1      40.446  27.929  28.973  1.00  0.00     0.064 A 
ATOM     60  C   UNL A   1      39.718  26.732  28.910  1.00  0.00     0.173 A 
ATOM     61  C   UNL A   1      41.194  28.305  27.848  1.00  0.00     0.173 A 
ATOM     62  F   UNL A   1      38.996  26.326  29.965  1.00  0.00    -0.203 F 
ATOM     63  C   UNL A   1      39.753  25.933  27.771  1.00  0.00     0.198 A 
ATOM     64  C   UNL A   1      41.207  27.515  26.701  1.00  0.00     0.198 A 
ATOM     65  F   UNL A   1      41.905  29.443  27.857  1.00  0.00    -0.203 F 
ATOM     66  F   UNL A   1      39.078  24.775  27.746  1.00  0.00    -0.200 F 
ATOM     67  C   UNL A   1      40.490  26.328  26.665  1.00  0.00     0.200 A 
ATOM     68  F   UNL A   1      41.914  27.902  25.630  1.00  0.00    -0.200 F 
ATOM     69  F   UNL A   1      40.515  25.562  25.566  1.00  0.00    -0.200 F 
ENDBRANCH  45  59
BRANCH  46  70
ATOM     70  C   UNL A   1      39.613  33.907  36.917  1.00  0.00     0.064 A 
ATOM     71  C   UNL A   1      40.259  35.149  36.953  1.00  0.00     0.173 A 
ATOM     72  C   UNL A   1      38.828  33.545  38.021  1.00  0.00     0.173 A 
ATOM     73  F   UNL A   1      41.036  35.529  35.928  1.00  0.00    -0.203 F 
ATOM     74  C   UNL A   1      40.130  35.995  38.053  1.00  0.00     0.198 A 
ATOM     75  C   UNL A   1      38.683  34.400  39.111  1.00  0.00     0.198 A 
ATOM     76  F   UNL A   1      38.189  32.366  38.032  1.00  0.00    -0.203 F 
ATOM     77  F   UNL A   1      40.779  37.167  38.074  1.00  0.00    -0.200 F 
ATOM     78  C   UNL A   1      39.337  35.623  39.128  1.00  0.00     0.200 A 
ATOM     79  F   UNL A   1      37.908  34.040  40.143  1.00  0.00    -0.200 F 
ATOM     80  F   UNL A   1      39.205  36.440  40.181  1.00  0.00    -0.200 F 
ENDBRANCH  46  70
BRANCH  58  81
ATOM     81  C   UNL A   1      43.976  28.743  35.183  1.00  0.00     0.064 A 
ATOM     82  C   UNL A   1      45.269  29.277  35.084  1.00  0.00     0.173 A 
ATOM     83  C   UNL A   1      43.778  27.647  36.037  1.00  0.00     0.173 A 
ATOM     84  F   UNL A   1      45.509  30.316  34.270  1.00  0.00    -0.203 F 
ATOM     85  C   UNL A   1      46.323  28.734  35.814  1.00  0.00     0.198 A 
ATOM     86  C   UNL A   1      44.830  27.123  36.782  1.00  0.00     0.198 A 
ATOM     87  F   UNL A   1      42.558  27.107  36.170  1.00  0.00    -0.203 F 
ATOM     88  F   UNL A   1      47.555  29.248  35.690  1.00  0.00    -0.200 F 
ATOM     89  C   UNL A   1      46.101  27.666  36.670  1.00  0.00     0.200 A 
ATOM     90  F   UNL A   1      44.611  26.099  37.620  1.00  0.00    -0.200 F 
ATOM     91  F   UNL A   1      47.113  27.159  37.387  1.00  0.00    -0.200 F 
ENDBRANCH  58  81
ENDBRANCH  32  33
ENDBRANCH  24  27
ENDBRANCH  22  23
ENDBRANCH  21  22
ENDBRANCH   1  21
TORSDOF 13
ENDMDL
MODEL 3
REMARK VINA RESULT:     -12.1      5.770     11.228
REMARK SMILES Cc1c(Cl)ccc2c(OCC(=O)NCCCCNC(=O)c3ccc(-c4c5nc(c(-c6c(F)c(F)c(F)c(F)c6F)c6ccc([nH]6)c(-c6c(F)c(F)c(F)c(F)c6F)c6nc(c(-c7c(F)c(F)c(F)c(F)c7F)c7ccc4[nH]7)C=C6)C=C5)cc3)ccnc12
REMARK SMILES IDX 15 1 14 2 13 3 11 4 12 5 10 7 9 8 8 9 1 10 2 11 3 12 87 13
REMARK SMILES IDX 4 14 5 15 7 16 86 17 6 18 85 19 84 20 16 21 17 22 18 23
REMARK SMILES IDX 19 24 20 26 21 27 22 28 83 29 23 30 82 31 24 32 25 33 26 34
REMARK SMILES IDX 76 35 27 36 81 37 75 38 77 39 28 40 80 41 74 42 73 43 29 45
REMARK SMILES IDX 61 46 41 47 60 48 42 49 45 50 59 51 78 52 43 53 44 54 58 56
REMARK SMILES IDX 79 57 46 58 30 59 31 60 39 61 32 62 33 63 37 64 40 65 34 66
REMARK SMILES IDX 35 67 38 68 36 69 62 70 63 71 71 72 64 73 65 74 69 75 72 76
REMARK SMILES IDX 66 77 67 78 70 79 68 80 47 81 48 82 56 83 49 84 50 85 54 86
REMARK SMILES IDX 57 87 51 88 52 89 55 90 53 91
REMARK H PARENT 13 6 18 25 77 44 45 55
REMARK Flexibility Score: inf
ROOT
ATOM      1  C   UNL A   1      37.515  20.850  24.622  1.00  0.00     0.023 C 
ENDROOT
BRANCH   1   2
ATOM      2  C   UNL A   1      36.196  20.927  25.387  1.00  0.00     0.116 C 
BRANCH   2   3
ATOM      3  N   UNL A   1      35.252  19.910  24.966  1.00  0.00    -0.353 N 
ATOM      4  C   UNL A   1      33.900  19.872  25.147  1.00  0.00     0.257 C 
ATOM      5  O   UNL A   1      33.272  18.911  24.699  1.00  0.00    -0.271 OA
ATOM      6  H   UNL A   1      35.639  19.144  24.483  1.00  0.00     0.163 HD
BRANCH   4   7
ATOM      7  C   UNL A   1      33.191  21.030  25.856  1.00  0.00     0.329 C 
BRANCH   7   8
ATOM      8  O   UNL A   1      32.787  22.122  25.046  1.00  0.00    -0.483 OA
BRANCH   8   9
ATOM      9  C   UNL A   1      31.953  23.075  25.578  1.00  0.00     0.131 A 
ATOM     10  C   UNL A   1      31.357  27.725  27.111  1.00  0.00     0.048 C 
ATOM     11  C   UNL A   1      32.223  26.679  26.450  1.00  0.00    -0.006 A 
ATOM     12  C   UNL A   1      33.539  26.956  26.043  1.00  0.00     0.046 A 
ATOM     13  C   UNL A   1      31.700  25.383  26.296  1.00  0.00     0.078 A 
ATOM     14  Cl  UNL A   1      34.265  28.513  26.246  1.00  0.00    -0.084 Cl
ATOM     15  C   UNL A   1      34.325  25.967  25.461  1.00  0.00     0.022 A 
ATOM     16  C   UNL A   1      32.501  24.373  25.713  1.00  0.00     0.043 A 
ATOM     17  N   UNL A   1      30.446  25.120  26.711  1.00  0.00    -0.256 NA
ATOM     18  C   UNL A   1      33.810  24.687  25.295  1.00  0.00     0.016 A 
ATOM     19  C   UNL A   1      29.947  23.879  26.548  1.00  0.00     0.115 A 
ATOM     20  C   UNL A   1      30.648  22.834  25.988  1.00  0.00     0.067 A 
ENDBRANCH   8   9
ENDBRANCH   7   8
ENDBRANCH   4   7
ENDBRANCH   2   3
ENDBRANCH   1   2
BRANCH   1  21
ATOM     21  C   UNL A   1      38.396  19.641  24.959  1.00  0.00     0.023 C 
BRANCH  21  22
ATOM     22  C   UNL A   1      39.475  19.884  26.009  1.00  0.00     0.116 C 
BRANCH  22  23
ATOM     23  N   UNL A   1      40.546  18.902  25.956  1.00  0.00    -0.352 N 
ATOM     24  C   UNL A   1      41.902  19.099  26.049  1.00  0.00     0.251 C 
ATOM     25  H   UNL A   1      40.260  17.967  25.840  1.00  0.00     0.163 HD
ATOM     26  O   UNL A   1      42.681  18.170  25.866  1.00  0.00    -0.269 OA
BRANCH  24  27
ATOM     27  C   UNL A   1      42.423  20.449  26.342  1.00  0.00     0.039 A 
ATOM     28  C   UNL A   1      42.920  21.222  25.288  1.00  0.00     0.014 A 
ATOM     29  C   UNL A   1      42.412  20.952  27.646  1.00  0.00     0.014 A 
ATOM     30  C   UNL A   1      43.352  22.525  25.534  1.00  0.00     0.010 A 
ATOM     31  C   UNL A   1      42.799  22.270  27.882  1.00  0.00     0.010 A 
ATOM     32  C   UNL A   1      43.271  23.065  26.826  1.00  0.00    -0.014 A 
BRANCH  32  33
ATOM     33  C   UNL A   1      43.696  24.460  27.092  1.00  0.00     0.031 A 
ATOM     34  C   UNL A   1      42.696  25.467  27.580  1.00  0.00     0.074 A 
ATOM     35  C   UNL A   1      44.969  24.828  26.856  1.00  0.00     0.049 A 
ATOM     36  N   UNL A   1      42.868  26.735  27.855  1.00  0.00    -0.248 NA
ATOM     37  C   UNL A   1      41.317  24.992  27.766  1.00  0.00     0.031 C 
ATOM     38  C   UNL A   1      46.020  23.948  26.345  1.00  0.00     0.029 A 
ATOM     39  N   UNL A   1      45.593  26.041  27.006  1.00  0.00    -0.354 N 
ATOM     40  C   UNL A   1      41.624  27.206  28.248  1.00  0.00     0.074 A 
ATOM     41  C   UNL A   1      40.693  26.105  28.126  1.00  0.00     0.031 C 
ATOM     42  C   UNL A   1      47.162  24.646  26.239  1.00  0.00     0.029 A 
ATOM     43  C   UNL A   1      46.918  26.026  26.653  1.00  0.00     0.049 A 
ATOM     44  H   UNL A   1      45.132  26.847  27.337  1.00  0.00     0.167 HD
ATOM     45  C   UNL A   1      41.294  28.440  28.696  1.00  0.00     0.037 A 
ATOM     46  C   UNL A   1      47.834  27.015  26.662  1.00  0.00     0.037 A 
ATOM     47  C   UNL A   1      42.224  29.527  28.836  1.00  0.00     0.049 A 
ATOM     48  C   UNL A   1      47.438  28.384  27.141  1.00  0.00     0.074 A 
ATOM     49  C   UNL A   1      42.000  30.793  29.348  1.00  0.00     0.029 A 
ATOM     50  N   UNL A   1      43.558  29.476  28.457  1.00  0.00    -0.354 N 
ATOM     51  N   UNL A   1      46.276  28.798  27.583  1.00  0.00    -0.248 NA
ATOM     52  C   UNL A   1      48.477  29.423  27.125  1.00  0.00     0.031 C 
ATOM     53  C   UNL A   1      43.187  31.522  29.240  1.00  0.00     0.029 A 
ATOM     54  C   UNL A   1      44.162  30.700  28.698  1.00  0.00     0.049 A 
ATOM     55  H   UNL A   1      44.008  28.689  28.075  1.00  0.00     0.167 HD
ATOM     56  C   UNL A   1      46.447  30.135  27.917  1.00  0.00     0.074 A 
ATOM     57  C   UNL A   1      47.830  30.462  27.635  1.00  0.00     0.031 C 
ATOM     58  C   UNL A   1      45.539  31.010  28.413  1.00  0.00     0.037 A 
BRANCH  45  59
ATOM     59  C   UNL A   1      39.866  28.677  29.085  1.00  0.00     0.064 A 
ATOM     60  C   UNL A   1      39.414  28.424  30.388  1.00  0.00     0.173 A 
ATOM     61  C   UNL A   1      38.954  29.210  28.163  1.00  0.00     0.173 A 
ATOM     62  F   UNL A   1      40.247  27.904  31.302  1.00  0.00    -0.203 F 
ATOM     63  C   UNL A   1      38.093  28.676  30.748  1.00  0.00     0.198 A 
ATOM     64  C   UNL A   1      37.640  29.484  28.533  1.00  0.00     0.198 A 
ATOM     65  F   UNL A   1      39.339  29.473  26.905  1.00  0.00    -0.203 F 
ATOM     66  F   UNL A   1      37.673  28.392  31.989  1.00  0.00    -0.200 F 
ATOM     67  C   UNL A   1      37.210  29.213  29.824  1.00  0.00     0.200 A 
ATOM     68  F   UNL A   1      36.789  30.011  27.642  1.00  0.00    -0.200 F 
ATOM     69  F   UNL A   1      35.942  29.464  30.175  1.00  0.00    -0.200 F 
ENDBRANCH  45  59
BRANCH  46  70
ATOM     70  C   UNL A   1      49.227  26.728  26.235  1.00  0.00     0.064 A 
ATOM     71  C   UNL A   1      50.166  26.226  27.145  1.00  0.00     0.173 A 
ATOM     72  C   UNL A   1      49.639  26.924  24.909  1.00  0.00     0.173 A 
ATOM     73  F   UNL A   1      49.821  26.041  28.428  1.00  0.00    -0.203 F 
ATOM     74  C   UNL A   1      51.469  25.934  26.746  1.00  0.00     0.198 A 
ATOM     75  C   UNL A   1      50.937  26.614  24.507  1.00  0.00     0.198 A 
ATOM     76  F   UNL A   1      48.776  27.401  24.001  1.00  0.00    -0.203 F 
ATOM     77  F   UNL A   1      52.355  25.479  27.642  1.00  0.00    -0.200 F 
ATOM     78  C   UNL A   1      51.852  26.122  25.427  1.00  0.00     0.200 A 
ATOM     79  F   UNL A   1      51.299  26.787  23.229  1.00  0.00    -0.200 F 
ATOM     80  F   UNL A   1      53.102  25.833  25.041  1.00  0.00    -0.200 F 
ENDBRANCH  46  70
BRANCH  58  81
ATOM     81  C   UNL A   1      46.000  32.407  28.694  1.00  0.00     0.064 A 
ATOM     82  C   UNL A   1      46.593  32.744  29.920  1.00  0.00     0.173 A 
ATOM     83  C   UNL A   1      45.937  33.393  27.698  1.00  0.00     0.173 A 
ATOM     84  F   UNL A   1      46.663  31.840  30.907  1.00  0.00    -0.203 F 
ATOM     85  C   UNL A   1      47.103  34.022  30.138  1.00  0.00     0.198 A 
ATOM     86  C   UNL A   1      46.470  34.660  27.911  1.00  0.00     0.198 A 
ATOM     87  F   UNL A   1      45.386  33.114  26.507  1.00  0.00    -0.203 F 
ATOM     88  F   UNL A   1      47.648  34.329  31.323  1.00  0.00    -0.200 F 
ATOM     89  C   UNL A   1      47.052  34.974  29.130  1.00  0.00     0.200 A 
ATOM     90  F   UNL A   1      46.432  35.575  26.932  1.00  0.00    -0.200 F 
ATOM     91  F   UNL A   1      47.564  36.195  29.336  1.00  0.00    -0.200 F 
ENDBRANCH  58  81
ENDBRANCH  32  33
ENDBRANCH  24  27
ENDBRANCH  22  23
ENDBRANCH  21  22
ENDBRANCH   1  21
TORSDOF 13
ENDMDL
