MODEL 1
REMARK VINA RESULT:     -12.7      0.000      0.000
REMARK SMILES Cc1nc([C@]2(C)CCCO2)nc(C)c1C(=O)NCCCCNC(=O)c1ccc(-c2c3nc(c(-c4c(F)c(F)c(F)c(F)c4F)c4ccc([nH]4)c(-c4c(F)c(F)c(F)c(F)c4F)c4nc(c(-c5c(F)c(F)c(F)c(F)c5F)c5ccc2[nH]5)C=C4)C=C3)cc1
REMARK SMILES IDX 20 1 19 2 18 3 17 4 15 5 16 6 14 8 1 9 2 10 3 11 4 12 12 13
REMARK SMILES IDX 11 14 13 15 5 16 7 17 10 18 6 19 8 20 9 21 21 22 22 23 23 24
REMARK SMILES IDX 24 26 25 27 26 28 87 29 27 30 86 31 28 32 29 33 30 34 80 35
REMARK SMILES IDX 31 36 85 37 79 38 81 39 32 40 84 41 78 42 77 43 33 45 65 46
REMARK SMILES IDX 45 47 64 48 46 49 49 50 63 51 82 52 47 53 48 54 62 56 83 57
REMARK SMILES IDX 50 58 34 59 35 60 43 61 36 62 37 63 41 64 44 65 38 66 39 67
REMARK SMILES IDX 42 68 40 69 66 70 67 71 75 72 68 73 69 74 73 75 76 76 70 77
REMARK SMILES IDX 71 78 74 79 72 80 51 81 52 82 60 83 53 84 54 85 58 86 61 87
REMARK SMILES IDX 55 88 56 89 59 90 57 91
REMARK H PARENT 17 7 22 25 81 44 49 55
REMARK Flexibility Score: inf
ROOT
ATOM      1  C   UNL A   1      31.735  31.918  26.913  1.00  0.00     0.023 C 
ENDROOT
BRANCH   1   2
ATOM      2  C   UNL A   1      32.079  30.433  26.956  1.00  0.00     0.023 C 
BRANCH   2   3
ATOM      3  C   UNL A   1      32.794  29.895  25.712  1.00  0.00     0.116 C 
BRANCH   3   4
ATOM      4  N   UNL A   1      31.870  29.769  24.611  1.00  0.00    -0.352 N 
ATOM      5  C   UNL A   1      31.482  28.841  23.687  1.00  0.00     0.254 C 
ATOM      6  O   UNL A   1      30.679  29.339  22.888  1.00  0.00    -0.269 OA
ATOM      7  H   UNL A   1      31.366  30.607  24.487  1.00  0.00     0.163 HD
BRANCH   5   8
ATOM      8  C   UNL A   1      31.866  27.391  23.529  1.00  0.00     0.082 A 
ATOM      9  C   UNL A   1      30.048  26.134  24.890  1.00  0.00     0.068 C 
ATOM     10  C   UNL A   1      31.258  26.246  24.038  1.00  0.00     0.054 A 
ATOM     11  N   UNL A   1      31.761  24.997  23.857  1.00  0.00    -0.234 NA
ATOM     12  C   UNL A   1      32.923  24.825  23.226  1.00  0.00     0.160 A 
ATOM     13  C   UNL A   1      33.059  27.101  22.825  1.00  0.00     0.054 A 
ATOM     14  N   UNL A   1      33.577  25.846  22.673  1.00  0.00    -0.234 NA
ATOM     15  C   UNL A   1      33.944  28.136  22.179  1.00  0.00     0.068 C 
BRANCH  12  16
ATOM     16  C   UNL A   1      33.518  23.412  23.218  1.00  0.00     0.125 C 
ATOM     17  C   UNL A   1      33.549  22.792  24.617  1.00  0.00     0.046 C 
ATOM     18  O   UNL A   1      34.918  23.468  22.830  1.00  0.00    -0.367 OA
ATOM     19  C   UNL A   1      32.808  22.499  22.219  1.00  0.00     0.051 C 
ATOM     20  C   UNL A   1      34.836  23.315  25.218  1.00  0.00     0.032 C 
ATOM     21  C   UNL A   1      35.718  23.593  24.015  1.00  0.00     0.161 C 
ENDBRANCH  12  16
ENDBRANCH   5   8
ENDBRANCH   3   4
ENDBRANCH   2   3
ENDBRANCH   1   2
BRANCH   1  22
ATOM     22  C   UNL A   1      32.856  32.835  27.378  1.00  0.00     0.116 C 
BRANCH  22  23
ATOM     23  N   UNL A   1      32.424  34.187  27.708  1.00  0.00    -0.352 N 
ATOM     24  C   UNL A   1      32.975  35.032  28.642  1.00  0.00     0.251 C 
ATOM     25  H   UNL A   1      31.653  34.534  27.204  1.00  0.00     0.163 HD
ATOM     26  O   UNL A   1      32.489  36.131  28.875  1.00  0.00    -0.269 OA
BRANCH  24  27
ATOM     27  C   UNL A   1      34.138  34.547  29.403  1.00  0.00     0.039 A 
ATOM     28  C   UNL A   1      33.918  33.858  30.596  1.00  0.00     0.014 A 
ATOM     29  C   UNL A   1      35.421  34.660  28.862  1.00  0.00     0.014 A 
ATOM     30  C   UNL A   1      34.987  33.208  31.213  1.00  0.00     0.010 A 
ATOM     31  C   UNL A   1      36.466  33.949  29.435  1.00  0.00     0.010 A 
ATOM     32  C   UNL A   1      36.256  33.213  30.613  1.00  0.00    -0.014 A 
BRANCH  32  33
ATOM     33  C   UNL A   1      37.384  32.452  31.199  1.00  0.00     0.031 A 
ATOM     34  C   UNL A   1      37.890  32.807  32.567  1.00  0.00     0.074 A 
ATOM     35  C   UNL A   1      37.995  31.497  30.472  1.00  0.00     0.049 A 
ATOM     36  N   UNL A   1      38.906  32.314  33.226  1.00  0.00    -0.248 NA
ATOM     37  C   UNL A   1      37.180  33.886  33.272  1.00  0.00     0.031 C 
ATOM     38  C   UNL A   1      37.633  31.109  29.107  1.00  0.00     0.029 A 
ATOM     39  N   UNL A   1      39.059  30.686  30.776  1.00  0.00    -0.354 N 
ATOM     40  C   UNL A   1      38.967  33.034  34.411  1.00  0.00     0.074 A 
ATOM     41  C   UNL A   1      37.925  34.035  34.357  1.00  0.00     0.031 C 
ATOM     42  C   UNL A   1      38.445  30.119  28.701  1.00  0.00     0.029 A 
ATOM     43  C   UNL A   1      39.401  29.823  29.763  1.00  0.00     0.049 A 
ATOM     44  H   UNL A   1      39.533  30.720  31.638  1.00  0.00     0.167 HD
ATOM     45  C   UNL A   1      39.801  32.857  35.463  1.00  0.00     0.037 A 
ATOM     46  C   UNL A   1      40.378  28.899  29.703  1.00  0.00     0.037 A 
ATOM     47  C   UNL A   1      40.808  31.833  35.527  1.00  0.00     0.049 A 
ATOM     48  C   UNL A   1      41.279  28.709  30.893  1.00  0.00     0.074 A 
ATOM     49  C   UNL A   1      41.648  31.514  36.580  1.00  0.00     0.029 A 
ATOM     50  N   UNL A   1      41.110  30.960  34.493  1.00  0.00    -0.354 N 
ATOM     51  N   UNL A   1      41.275  29.341  32.042  1.00  0.00    -0.248 NA
ATOM     52  C   UNL A   1      42.317  27.675  30.779  1.00  0.00     0.031 C 
ATOM     53  C   UNL A   1      42.483  30.469  36.169  1.00  0.00     0.029 A 
ATOM     54  C   UNL A   1      42.139  30.114  34.875  1.00  0.00     0.049 A 
ATOM     55  H   UNL A   1      40.660  30.943  33.618  1.00  0.00     0.167 HD
ATOM     56  C   UNL A   1      42.295  28.771  32.792  1.00  0.00     0.074 A 
ATOM     57  C   UNL A   1      42.882  27.729  31.976  1.00  0.00     0.031 C 
ATOM     58  C   UNL A   1      42.708  29.084  34.045  1.00  0.00     0.037 A 
BRANCH  45  59
ATOM     59  C   UNL A   1      39.645  33.784  36.631  1.00  0.00     0.064 A 
ATOM     60  C   UNL A   1      38.860  33.437  37.741  1.00  0.00     0.173 A 
ATOM     61  C   UNL A   1      40.300  35.022  36.650  1.00  0.00     0.173 A 
ATOM     62  F   UNL A   1      38.199  32.269  37.763  1.00  0.00    -0.203 F 
ATOM     63  C   UNL A   1      38.713  34.311  38.815  1.00  0.00     0.198 A 
ATOM     64  C   UNL A   1      40.174  35.882  37.738  1.00  0.00     0.198 A 
ATOM     65  F   UNL A   1      41.064  35.400  35.614  1.00  0.00    -0.203 F 
ATOM     66  F   UNL A   1      37.916  33.981  39.841  1.00  0.00    -0.200 F 
ATOM     67  C   UNL A   1      39.374  35.530  38.815  1.00  0.00     0.200 A 
ATOM     68  F   UNL A   1      40.821  37.056  37.742  1.00  0.00    -0.200 F 
ATOM     69  F   UNL A   1      39.234  36.368  39.851  1.00  0.00    -0.200 F 
ENDBRANCH  45  59
BRANCH  46  70
ATOM     70  C   UNL A   1      40.535  28.062  28.487  1.00  0.00     0.064 A 
ATOM     71  C   UNL A   1      39.914  26.808  28.395  1.00  0.00     0.173 A 
ATOM     72  C   UNL A   1      41.307  28.490  27.398  1.00  0.00     0.173 A 
ATOM     73  F   UNL A   1      39.183  26.347  29.420  1.00  0.00    -0.203 F 
ATOM     74  C   UNL A   1      40.074  26.006  27.267  1.00  0.00     0.198 A 
ATOM     75  C   UNL A   1      41.446  27.697  26.260  1.00  0.00     0.198 A 
ATOM     76  F   UNL A   1      41.917  29.683  27.434  1.00  0.00    -0.203 F 
ATOM     77  F   UNL A   1      39.502  24.795  27.223  1.00  0.00    -0.200 F 
ATOM     78  C   UNL A   1      40.836  26.453  26.198  1.00  0.00     0.200 A 
ATOM     79  F   UNL A   1      42.173  28.138  25.224  1.00  0.00    -0.200 F 
ATOM     80  F   UNL A   1      40.988  25.683  25.113  1.00  0.00    -0.200 F 
ENDBRANCH  46  70
BRANCH  58  81
ATOM     81  C   UNL A   1      43.840  28.281  34.612  1.00  0.00     0.064 A 
ATOM     82  C   UNL A   1      43.613  27.070  35.280  1.00  0.00     0.173 A 
ATOM     83  C   UNL A   1      45.167  28.704  34.442  1.00  0.00     0.173 A 
ATOM     84  F   UNL A   1      42.359  26.633  35.478  1.00  0.00    -0.203 F 
ATOM     85  C   UNL A   1      44.674  26.318  35.774  1.00  0.00     0.198 A 
ATOM     86  C   UNL A   1      46.227  27.936  34.917  1.00  0.00     0.198 A 
ATOM     87  F   UNL A   1      45.435  29.853  33.806  1.00  0.00    -0.203 F 
ATOM     88  F   UNL A   1      44.433  25.182  36.444  1.00  0.00    -0.200 F 
ATOM     89  C   UNL A   1      45.980  26.746  35.586  1.00  0.00     0.200 A 
ATOM     90  F   UNL A   1      47.488  28.346  34.724  1.00  0.00    -0.200 F 
ATOM     91  F   UNL A   1      47.000  26.017  36.055  1.00  0.00    -0.200 F 
ENDBRANCH  58  81
ENDBRANCH  32  33
ENDBRANCH  24  27
ENDBRANCH  22  23
ENDBRANCH   1  22
TORSDOF 12
ENDMDL
MODEL 2
REMARK VINA RESULT:     -12.6      0.979      1.656
REMARK SMILES Cc1nc([C@]2(C)CCCO2)nc(C)c1C(=O)NCCCCNC(=O)c1ccc(-c2c3nc(c(-c4c(F)c(F)c(F)c(F)c4F)c4ccc([nH]4)c(-c4c(F)c(F)c(F)c(F)c4F)c4nc(c(-c5c(F)c(F)c(F)c(F)c5F)c5ccc2[nH]5)C=C4)C=C3)cc1
REMARK SMILES IDX 20 1 19 2 18 3 17 4 15 5 16 6 14 8 1 9 2 10 3 11 4 12 12 13
REMARK SMILES IDX 11 14 13 15 5 16 7 17 10 18 6 19 8 20 9 21 21 22 22 23 23 24
REMARK SMILES IDX 24 26 25 27 26 28 87 29 27 30 86 31 28 32 29 33 30 34 80 35
REMARK SMILES IDX 31 36 85 37 79 38 81 39 32 40 84 41 78 42 77 43 33 45 65 46
REMARK SMILES IDX 45 47 64 48 46 49 49 50 63 51 82 52 47 53 48 54 62 56 83 57
REMARK SMILES IDX 50 58 34 59 35 60 43 61 36 62 37 63 41 64 44 65 38 66 39 67
REMARK SMILES IDX 42 68 40 69 66 70 67 71 75 72 68 73 69 74 73 75 76 76 70 77
REMARK SMILES IDX 71 78 74 79 72 80 51 81 52 82 60 83 53 84 54 85 58 86 61 87
REMARK SMILES IDX 55 88 56 89 59 90 57 91
REMARK H PARENT 17 7 22 25 81 44 49 55
REMARK Flexibility Score: inf
ROOT
ATOM      1  C   UNL A   1      31.650  31.916  26.879  1.00  0.00     0.023 C 
ENDROOT
BRANCH   1   2
ATOM      2  C   UNL A   1      32.079  30.502  26.499  1.00  0.00     0.023 C 
BRANCH   2   3
ATOM      3  C   UNL A   1      31.440  29.950  25.220  1.00  0.00     0.116 C 
BRANCH   3   4
ATOM      4  N   UNL A   1      32.455  29.621  24.248  1.00  0.00    -0.352 N 
ATOM      5  C   UNL A   1      33.159  28.534  23.816  1.00  0.00     0.254 C 
ATOM      6  O   UNL A   1      34.007  28.874  22.981  1.00  0.00    -0.269 OA
ATOM      7  H   UNL A   1      32.721  30.425  23.743  1.00  0.00     0.163 HD
BRANCH   5   8
ATOM      8  C   UNL A   1      33.042  27.077  24.185  1.00  0.00     0.082 A 
ATOM      9  C   UNL A   1      31.908  26.016  22.105  1.00  0.00     0.068 C 
ATOM     10  C   UNL A   1      32.513  26.012  23.461  1.00  0.00     0.054 A 
ATOM     11  N   UNL A   1      32.422  24.750  23.956  1.00  0.00    -0.234 NA
ATOM     12  C   UNL A   1      32.784  24.494  25.214  1.00  0.00     0.160 A 
ATOM     13  C   UNL A   1      33.452  26.694  25.485  1.00  0.00     0.054 A 
ATOM     14  N   UNL A   1      33.329  25.431  25.990  1.00  0.00    -0.234 NA
ATOM     15  C   UNL A   1      34.045  27.632  26.505  1.00  0.00     0.068 C 
BRANCH  12  16
ATOM     16  C   UNL A   1      32.484  23.094  25.763  1.00  0.00     0.125 C 
ATOM     17  C   UNL A   1      32.940  22.934  27.214  1.00  0.00     0.046 C 
ATOM     18  O   UNL A   1      33.265  22.104  25.039  1.00  0.00    -0.367 OA
ATOM     19  C   UNL A   1      31.011  22.719  25.596  1.00  0.00     0.051 C 
ATOM     20  C   UNL A   1      34.402  22.559  27.096  1.00  0.00     0.032 C 
ATOM     21  C   UNL A   1      34.505  21.901  25.733  1.00  0.00     0.161 C 
ENDBRANCH  12  16
ENDBRANCH   5   8
ENDBRANCH   3   4
ENDBRANCH   2   3
ENDBRANCH   1   2
BRANCH   1  22
ATOM     22  C   UNL A   1      32.789  32.814  27.337  1.00  0.00     0.116 C 
BRANCH  22  23
ATOM     23  N   UNL A   1      32.388  34.183  27.632  1.00  0.00    -0.352 N 
ATOM     24  C   UNL A   1      32.966  35.043  28.537  1.00  0.00     0.251 C 
ATOM     25  H   UNL A   1      31.620  34.532  27.126  1.00  0.00     0.163 HD
ATOM     26  O   UNL A   1      32.505  36.157  28.743  1.00  0.00    -0.269 OA
BRANCH  24  27
ATOM     27  C   UNL A   1      34.127  34.555  29.300  1.00  0.00     0.039 A 
ATOM     28  C   UNL A   1      33.905  33.904  30.514  1.00  0.00     0.014 A 
ATOM     29  C   UNL A   1      35.406  34.626  28.743  1.00  0.00     0.014 A 
ATOM     30  C   UNL A   1      34.966  33.250  31.139  1.00  0.00     0.010 A 
ATOM     31  C   UNL A   1      36.442  33.910  29.326  1.00  0.00     0.010 A 
ATOM     32  C   UNL A   1      36.229  33.212  30.526  1.00  0.00    -0.014 A 
BRANCH  32  33
ATOM     33  C   UNL A   1      37.347  32.444  31.123  1.00  0.00     0.031 A 
ATOM     34  C   UNL A   1      37.837  32.792  32.498  1.00  0.00     0.074 A 
ATOM     35  C   UNL A   1      37.964  31.491  30.399  1.00  0.00     0.049 A 
ATOM     36  N   UNL A   1      38.843  32.292  33.168  1.00  0.00    -0.248 NA
ATOM     37  C   UNL A   1      37.121  33.869  33.200  1.00  0.00     0.031 C 
ATOM     38  C   UNL A   1      37.618  31.111  29.027  1.00  0.00     0.029 A 
ATOM     39  N   UNL A   1      39.022  30.675  30.712  1.00  0.00    -0.354 N 
ATOM     40  C   UNL A   1      38.892  33.006  34.357  1.00  0.00     0.074 A 
ATOM     41  C   UNL A   1      37.853  34.010  34.295  1.00  0.00     0.031 C 
ATOM     42  C   UNL A   1      38.431  30.120  28.627  1.00  0.00     0.029 A 
ATOM     43  C   UNL A   1      39.373  29.816  29.699  1.00  0.00     0.049 A 
ATOM     44  H   UNL A   1      39.485  30.704  31.580  1.00  0.00     0.167 HD
ATOM     45  C   UNL A   1      39.712  32.821  35.418  1.00  0.00     0.037 A 
ATOM     46  C   UNL A   1      40.348  28.889  29.647  1.00  0.00     0.037 A 
ATOM     47  C   UNL A   1      40.715  31.794  35.491  1.00  0.00     0.049 A 
ATOM     48  C   UNL A   1      41.234  28.690  30.848  1.00  0.00     0.074 A 
ATOM     49  C   UNL A   1      41.540  31.467  36.552  1.00  0.00     0.029 A 
ATOM     50  N   UNL A   1      41.027  30.925  34.456  1.00  0.00    -0.354 N 
ATOM     51  N   UNL A   1      41.218  29.317  31.999  1.00  0.00    -0.248 NA
ATOM     52  C   UNL A   1      42.270  27.654  30.742  1.00  0.00     0.031 C 
ATOM     53  C   UNL A   1      42.377  30.422  36.146  1.00  0.00     0.029 A 
ATOM     54  C   UNL A   1      42.048  30.074  34.847  1.00  0.00     0.049 A 
ATOM     55  H   UNL A   1      40.588  30.914  33.576  1.00  0.00     0.167 HD
ATOM     56  C   UNL A   1      42.226  28.740  32.760  1.00  0.00     0.074 A 
ATOM     57  C   UNL A   1      42.820  27.700  31.946  1.00  0.00     0.031 C 
ATOM     58  C   UNL A   1      42.625  29.046  34.019  1.00  0.00     0.037 A 
BRANCH  45  59
ATOM     59  C   UNL A   1      39.544  33.743  36.588  1.00  0.00     0.064 A 
ATOM     60  C   UNL A   1      38.744  33.394  37.688  1.00  0.00     0.173 A 
ATOM     61  C   UNL A   1      40.203  34.980  36.622  1.00  0.00     0.173 A 
ATOM     62  F   UNL A   1      38.080  32.228  37.696  1.00  0.00    -0.203 F 
ATOM     63  C   UNL A   1      38.587  34.264  38.763  1.00  0.00     0.198 A 
ATOM     64  C   UNL A   1      40.066  35.835  37.713  1.00  0.00     0.198 A 
ATOM     65  F   UNL A   1      40.981  35.360  35.597  1.00  0.00    -0.203 F 
ATOM     66  F   UNL A   1      37.776  33.931  39.778  1.00  0.00    -0.200 F 
ATOM     67  C   UNL A   1      39.252  35.480  38.778  1.00  0.00     0.200 A 
ATOM     68  F   UNL A   1      40.716  37.006  37.730  1.00  0.00    -0.200 F 
ATOM     69  F   UNL A   1      39.102  36.314  39.815  1.00  0.00    -0.200 F 
ENDBRANCH  45  59
BRANCH  46  70
ATOM     70  C   UNL A   1      40.518  28.057  28.429  1.00  0.00     0.064 A 
ATOM     71  C   UNL A   1      39.914  26.795  28.334  1.00  0.00     0.173 A 
ATOM     72  C   UNL A   1      41.284  28.499  27.342  1.00  0.00     0.173 A 
ATOM     73  F   UNL A   1      39.188  26.322  29.357  1.00  0.00    -0.203 F 
ATOM     74  C   UNL A   1      40.086  25.998  27.204  1.00  0.00     0.198 A 
ATOM     75  C   UNL A   1      41.435  27.710  26.203  1.00  0.00     0.198 A 
ATOM     76  F   UNL A   1      41.878  29.700  27.382  1.00  0.00    -0.203 F 
ATOM     77  F   UNL A   1      39.531  24.779  27.156  1.00  0.00    -0.200 F 
ATOM     78  C   UNL A   1      40.843  26.458  26.137  1.00  0.00     0.200 A 
ATOM     79  F   UNL A   1      42.157  28.163  25.168  1.00  0.00    -0.200 F 
ATOM     80  F   UNL A   1      41.006  25.693  25.050  1.00  0.00    -0.200 F 
ENDBRANCH  46  70
BRANCH  58  81
ATOM     81  C   UNL A   1      43.747  28.237  34.596  1.00  0.00     0.064 A 
ATOM     82  C   UNL A   1      45.078  28.670  34.510  1.00  0.00     0.173 A 
ATOM     83  C   UNL A   1      43.484  27.042  35.283  1.00  0.00     0.173 A 
ATOM     84  F   UNL A   1      45.379  29.799  33.850  1.00  0.00    -0.203 F 
ATOM     85  C   UNL A   1      46.108  27.926  35.077  1.00  0.00     0.198 A 
ATOM     86  C   UNL A   1      44.515  26.315  35.869  1.00  0.00     0.198 A 
ATOM     87  F   UNL A   1      42.227  26.590  35.395  1.00  0.00    -0.203 F 
ATOM     88  F   UNL A   1      47.378  28.338  34.950  1.00  0.00    -0.200 F 
ATOM     89  C   UNL A   1      45.826  26.754  35.762  1.00  0.00     0.200 A 
ATOM     90  F   UNL A   1      44.239  25.188  36.541  1.00  0.00    -0.200 F 
ATOM     91  F   UNL A   1      46.818  26.043  36.314  1.00  0.00    -0.200 F 
ENDBRANCH  58  81
ENDBRANCH  32  33
ENDBRANCH  24  27
ENDBRANCH  22  23
ENDBRANCH   1  22
TORSDOF 12
ENDMDL
MODEL 3
REMARK VINA RESULT:     -12.6      0.613      7.506
REMARK SMILES Cc1nc([C@]2(C)CCCO2)nc(C)c1C(=O)NCCCCNC(=O)c1ccc(-c2c3nc(c(-c4c(F)c(F)c(F)c(F)c4F)c4ccc([nH]4)c(-c4c(F)c(F)c(F)c(F)c4F)c4nc(c(-c5c(F)c(F)c(F)c(F)c5F)c5ccc2[nH]5)C=C4)C=C3)cc1
REMARK SMILES IDX 20 1 19 2 18 3 17 4 15 5 16 6 14 8 1 9 2 10 3 11 4 12 12 13
REMARK SMILES IDX 11 14 13 15 5 16 7 17 10 18 6 19 8 20 9 21 21 22 22 23 23 24
REMARK SMILES IDX 24 26 25 27 26 28 87 29 27 30 86 31 28 32 29 33 30 34 80 35
REMARK SMILES IDX 31 36 85 37 79 38 81 39 32 40 84 41 78 42 77 43 33 45 65 46
REMARK SMILES IDX 45 47 64 48 46 49 49 50 63 51 82 52 47 53 48 54 62 56 83 57
REMARK SMILES IDX 50 58 34 59 35 60 43 61 36 62 37 63 41 64 44 65 38 66 39 67
REMARK SMILES IDX 42 68 40 69 66 70 67 71 75 72 68 73 69 74 73 75 76 76 70 77
REMARK SMILES IDX 71 78 74 79 72 80 51 81 52 82 60 83 53 84 54 85 58 86 61 87
REMARK SMILES IDX 55 88 56 89 59 90 57 91
REMARK H PARENT 17 7 22 25 81 44 49 55
REMARK Flexibility Score: inf
ROOT
ATOM      1  C   UNL A   1      31.940  31.662  26.921  1.00  0.00     0.023 C 
ENDROOT
BRANCH   1   2
ATOM      2  C   UNL A   1      32.381  30.202  26.905  1.00  0.00     0.023 C 
BRANCH   2   3
ATOM      3  C   UNL A   1      33.040  29.736  25.602  1.00  0.00     0.116 C 
BRANCH   3   4
ATOM      4  N   UNL A   1      32.061  29.632  24.547  1.00  0.00    -0.352 N 
ATOM      5  C   UNL A   1      31.607  28.712  23.646  1.00  0.00     0.254 C 
ATOM      6  O   UNL A   1      30.779  29.228  22.885  1.00  0.00    -0.269 OA
ATOM      7  H   UNL A   1      31.573  30.481  24.446  1.00  0.00     0.163 HD
BRANCH   5   8
ATOM      8  C   UNL A   1      31.946  27.253  23.474  1.00  0.00     0.082 A 
ATOM      9  C   UNL A   1      30.153  26.042  24.908  1.00  0.00     0.068 C 
ATOM     10  C   UNL A   1      31.331  26.124  24.008  1.00  0.00     0.054 A 
ATOM     11  N   UNL A   1      31.793  24.862  23.808  1.00  0.00    -0.234 NA
ATOM     12  C   UNL A   1      32.924  24.660  23.130  1.00  0.00     0.160 A 
ATOM     13  C   UNL A   1      33.103  26.932  22.722  1.00  0.00     0.054 A 
ATOM     14  N   UNL A   1      33.581  25.664  22.551  1.00  0.00    -0.234 NA
ATOM     15  C   UNL A   1      33.987  27.944  22.041  1.00  0.00     0.068 C 
BRANCH  12  16
ATOM     16  C   UNL A   1      33.482  23.232  23.100  1.00  0.00     0.125 C 
ATOM     17  C   UNL A   1      33.690  22.665  24.506  1.00  0.00     0.046 C 
ATOM     18  O   UNL A   1      34.816  23.236  22.524  1.00  0.00    -0.367 OA
ATOM     19  C   UNL A   1      32.622  22.301  22.244  1.00  0.00     0.051 C 
ATOM     20  C   UNL A   1      35.058  23.175  24.905  1.00  0.00     0.032 C 
ATOM     21  C   UNL A   1      35.773  23.383  23.583  1.00  0.00     0.161 C 
ENDBRANCH  12  16
ENDBRANCH   5   8
ENDBRANCH   3   4
ENDBRANCH   2   3
ENDBRANCH   1   2
BRANCH   1  22
ATOM     22  C   UNL A   1      32.974  32.623  27.489  1.00  0.00     0.116 C 
BRANCH  22  23
ATOM     23  N   UNL A   1      32.482  33.978  27.692  1.00  0.00    -0.352 N 
ATOM     24  C   UNL A   1      32.976  34.922  28.561  1.00  0.00     0.251 C 
ATOM     25  H   UNL A   1      31.710  34.249  27.144  1.00  0.00     0.163 HD
ATOM     26  O   UNL A   1      32.442  36.016  28.689  1.00  0.00    -0.269 OA
BRANCH  24  27
ATOM     27  C   UNL A   1      34.138  34.551  29.386  1.00  0.00     0.039 A 
ATOM     28  C   UNL A   1      33.916  34.016  30.655  1.00  0.00     0.014 A 
ATOM     29  C   UNL A   1      35.424  34.611  28.843  1.00  0.00     0.014 A 
ATOM     30  C   UNL A   1      34.986  33.463  31.357  1.00  0.00     0.010 A 
ATOM     31  C   UNL A   1      36.472  33.990  29.509  1.00  0.00     0.010 A 
ATOM     32  C   UNL A   1      36.261  33.408  30.769  1.00  0.00    -0.014 A 
BRANCH  32  33
ATOM     33  C   UNL A   1      37.392  32.740  31.455  1.00  0.00     0.031 A 
ATOM     34  C   UNL A   1      38.082  31.582  30.796  1.00  0.00     0.074 A 
ATOM     35  C   UNL A   1      37.744  33.129  32.696  1.00  0.00     0.049 A 
ATOM     36  N   UNL A   1      39.041  30.820  31.257  1.00  0.00    -0.248 NA
ATOM     37  C   UNL A   1      37.607  31.208  29.454  1.00  0.00     0.031 C 
ATOM     38  C   UNL A   1      37.103  34.200  33.462  1.00  0.00     0.029 A 
ATOM     39  N   UNL A   1      38.721  32.659  33.536  1.00  0.00    -0.354 N 
ATOM     40  C   UNL A   1      39.267  29.869  30.272  1.00  0.00     0.074 A 
ATOM     41  C   UNL A   1      38.311  30.112  29.214  1.00  0.00     0.031 C 
ATOM     42  C   UNL A   1      37.720  34.321  34.649  1.00  0.00     0.029 A 
ATOM     43  C   UNL A   1      38.777  33.319  34.739  1.00  0.00     0.049 A 
ATOM     44  H   UNL A   1      39.324  31.918  33.299  1.00  0.00     0.167 HD
ATOM     45  C   UNL A   1      40.210  28.898  30.239  1.00  0.00     0.037 A 
ATOM     46  C   UNL A   1      39.593  33.133  35.794  1.00  0.00     0.037 A 
ATOM     47  C   UNL A   1      41.184  28.687  31.275  1.00  0.00     0.049 A 
ATOM     48  C   UNL A   1      40.644  32.058  35.725  1.00  0.00     0.074 A 
ATOM     49  C   UNL A   1      42.235  27.787  31.301  1.00  0.00     0.029 A 
ATOM     50  N   UNL A   1      41.228  29.391  32.469  1.00  0.00    -0.354 N 
ATOM     51  N   UNL A   1      40.904  31.217  34.754  1.00  0.00    -0.248 NA
ATOM     52  C   UNL A   1      41.517  31.910  36.897  1.00  0.00     0.031 C 
ATOM     53  C   UNL A   1      42.893  27.922  32.529  1.00  0.00     0.029 A 
ATOM     54  C   UNL A   1      42.276  28.931  33.250  1.00  0.00     0.049 A 
ATOM     55  H   UNL A   1      40.608  30.111  32.723  1.00  0.00     0.167 HD
ATOM     56  C   UNL A   1      41.978  30.454  35.188  1.00  0.00     0.074 A 
ATOM     57  C   UNL A   1      42.335  30.945  36.503  1.00  0.00     0.031 C 
ATOM     58  C   UNL A   1      42.612  29.435  34.556  1.00  0.00     0.037 A 
BRANCH  45  59
ATOM     59  C   UNL A   1      40.235  28.001  29.038  1.00  0.00     0.064 A 
ATOM     60  C   UNL A   1      40.964  28.337  27.888  1.00  0.00     0.173 A 
ATOM     61  C   UNL A   1      39.539  26.784  29.043  1.00  0.00     0.173 A 
ATOM     62  F   UNL A   1      41.633  29.499  27.828  1.00  0.00    -0.203 F 
ATOM     63  C   UNL A   1      40.970  27.502  26.774  1.00  0.00     0.198 A 
ATOM     64  C   UNL A   1      39.570  25.937  27.937  1.00  0.00     0.198 A 
ATOM     65  F   UNL A   1      38.828  26.415  30.119  1.00  0.00    -0.203 F 
ATOM     66  F   UNL A   1      41.631  27.869  25.667  1.00  0.00    -0.200 F 
ATOM     67  C   UNL A   1      40.279  26.301  26.802  1.00  0.00     0.200 A 
ATOM     68  F   UNL A   1      38.910  24.772  27.969  1.00  0.00    -0.200 F 
ATOM     69  F   UNL A   1      40.289  25.497  25.730  1.00  0.00    -0.200 F 
ENDBRANCH  45  59
BRANCH  46  70
ATOM     70  C   UNL A   1      39.470  34.003  36.991  1.00  0.00     0.064 A 
ATOM     71  C   UNL A   1      38.734  33.584  38.109  1.00  0.00     0.173 A 
ATOM     72  C   UNL A   1      40.077  35.265  37.044  1.00  0.00     0.173 A 
ATOM     73  F   UNL A   1      38.119  32.393  38.096  1.00  0.00    -0.203 F 
ATOM     74  C   UNL A   1      38.595  34.403  39.227  1.00  0.00     0.198 A 
ATOM     75  C   UNL A   1      39.957  36.073  38.173  1.00  0.00     0.198 A 
ATOM     76  F   UNL A   1      40.795  35.710  36.003  1.00  0.00    -0.203 F 
ATOM     77  F   UNL A   1      37.853  33.994  40.266  1.00  0.00    -0.200 F 
ATOM     78  C   UNL A   1      39.211  35.645  39.261  1.00  0.00     0.200 A 
ATOM     79  F   UNL A   1      40.563  37.268  38.207  1.00  0.00    -0.200 F 
ATOM     80  F   UNL A   1      39.079  36.431  40.337  1.00  0.00    -0.200 F 
ENDBRANCH  46  70
BRANCH  58  81
ATOM     81  C   UNL A   1      43.762  28.795  35.274  1.00  0.00     0.064 A 
ATOM     82  C   UNL A   1      45.073  29.268  35.117  1.00  0.00     0.173 A 
ATOM     83  C   UNL A   1      43.544  27.732  36.163  1.00  0.00     0.173 A 
ATOM     84  F   UNL A   1      45.331  30.272  34.266  1.00  0.00    -0.203 F 
ATOM     85  C   UNL A   1      46.129  28.685  35.812  1.00  0.00     0.198 A 
ATOM     86  C   UNL A   1      44.600  27.170  36.875  1.00  0.00     0.198 A 
ATOM     87  F   UNL A   1      42.307  27.250  36.350  1.00  0.00    -0.203 F 
ATOM     88  F   UNL A   1      47.380  29.127  35.618  1.00  0.00    -0.200 F 
ATOM     89  C   UNL A   1      45.891  27.643  36.696  1.00  0.00     0.200 A 
ATOM     90  F   UNL A   1      44.366  26.170  37.737  1.00  0.00    -0.200 F 
ATOM     91  F   UNL A   1      46.907  27.090  37.371  1.00  0.00    -0.200 F 
ENDBRANCH  58  81
ENDBRANCH  32  33
ENDBRANCH  24  27
ENDBRANCH  22  23
ENDBRANCH   1  22
TORSDOF 12
ENDMDL
