MODEL 1
REMARK VINA RESULT:     -12.6      0.000      0.000
REMARK SMILES Cc1cccc(Cl)c1Nc1ccccc1CC(=O)NCCCCNC(=O)c1ccc(-c2c3nc(c(-c4c(F)c(F)c(F)c(F)c4F)c4ccc([nH]4)c(-c4c(F)c(F)c(F)c(F)c4F)c4nc(c(-c5c(F)c(F)c(F)c(F)c5F)c5ccc2[nH]5)C=C4)C=C3)cc1
REMARK SMILES IDX 21 1 20 2 19 3 17 4 18 5 16 7 15 8 10 9 11 10 12 11 14 12
REMARK SMILES IDX 13 13 9 14 8 16 1 17 2 18 3 19 4 20 6 21 5 22 7 23 22 24
REMARK SMILES IDX 23 25 24 26 25 27 26 29 27 30 28 31 89 32 29 33 88 34 30 35
REMARK SMILES IDX 31 36 32 37 82 38 33 39 87 40 81 41 83 42 34 43 86 44 80 45
REMARK SMILES IDX 79 46 35 48 67 49 47 50 66 51 48 52 51 53 65 54 84 55 49 56
REMARK SMILES IDX 50 57 64 59 85 60 52 61 36 62 37 63 45 64 38 65 39 66 43 67
REMARK SMILES IDX 46 68 40 69 41 70 44 71 42 72 68 73 69 74 77 75 70 76 71 77
REMARK SMILES IDX 75 78 78 79 72 80 73 81 76 82 74 83 53 84 54 85 62 86 55 87
REMARK SMILES IDX 56 88 60 89 63 90 57 91 58 92 61 93 59 94
REMARK H PARENT 19 6 9 15 24 28 83 47 51 58
REMARK Flexibility Score: inf
ROOT
ATOM      1  C   UNL A   1      31.738  31.041  26.254  1.00  0.00     0.023 C 
ENDROOT
BRANCH   1   2
ATOM      2  C   UNL A   1      32.532  30.152  27.212  1.00  0.00     0.116 C 
BRANCH   2   3
ATOM      3  N   UNL A   1      31.896  28.865  27.402  1.00  0.00    -0.356 N 
ATOM      4  C   UNL A   1      32.307  27.643  26.943  1.00  0.00     0.224 C 
ATOM      5  O   UNL A   1      31.572  26.672  27.130  1.00  0.00    -0.275 OA
ATOM      6  H   UNL A   1      31.063  28.869  27.928  1.00  0.00     0.163 HD
BRANCH   4   7
ATOM      7  C   UNL A   1      33.662  27.504  26.264  1.00  0.00     0.137 C 
BRANCH   7   8
ATOM      8  C   UNL A   1      33.582  27.266  24.770  1.00  0.00    -0.015 A 
ATOM      9  C   UNL A   1      33.369  25.993  24.196  1.00  0.00     0.042 A 
ATOM     10  C   UNL A   1      33.433  25.867  22.795  1.00  0.00     0.026 A 
ATOM     11  C   UNL A   1      33.669  26.968  21.972  1.00  0.00     0.002 A 
ATOM     12  C   UNL A   1      33.783  28.375  23.920  1.00  0.00     0.006 A 
ATOM     13  C   UNL A   1      33.830  28.227  22.536  1.00  0.00     0.000 A 
BRANCH   9  14
ATOM     14  N   UNL A   1      33.047  24.829  24.925  1.00  0.00    -0.354 N 
ATOM     15  H   UNL A   1      32.652  25.010  25.807  1.00  0.00     0.167 HD
BRANCH  14  16
ATOM     16  C   UNL A   1      33.185  23.449  24.633  1.00  0.00     0.060 A 
ATOM     17  C   UNL A   1      35.496  23.539  25.731  1.00  0.00     0.046 C 
ATOM     18  C   UNL A   1      34.376  22.795  25.048  1.00  0.00    -0.026 A 
ATOM     19  C   UNL A   1      34.520  21.408  24.861  1.00  0.00     0.005 A 
ATOM     20  C   UNL A   1      33.514  20.660  24.260  1.00  0.00     0.002 A 
ATOM     21  C   UNL A   1      32.190  22.671  23.997  1.00  0.00     0.064 A 
ATOM     22  C   UNL A   1      32.356  21.292  23.822  1.00  0.00     0.023 A 
ATOM     23  Cl  UNL A   1      30.761  23.351  23.292  1.00  0.00    -0.082 Cl
ENDBRANCH  14  16
ENDBRANCH   9  14
ENDBRANCH   7   8
ENDBRANCH   4   7
ENDBRANCH   2   3
ENDBRANCH   1   2
BRANCH   1  24
ATOM     24  C   UNL A   1      31.475  32.457  26.772  1.00  0.00     0.023 C 
BRANCH  24  25
ATOM     25  C   UNL A   1      32.687  33.158  27.368  1.00  0.00     0.116 C 
BRANCH  25  26
ATOM     26  N   UNL A   1      32.411  34.521  27.795  1.00  0.00    -0.352 N 
ATOM     27  C   UNL A   1      33.022  35.237  28.796  1.00  0.00     0.251 C 
ATOM     28  H   UNL A   1      31.696  34.988  27.307  1.00  0.00     0.163 HD
ATOM     29  O   UNL A   1      32.612  36.348  29.113  1.00  0.00    -0.269 OA
BRANCH  27  30
ATOM     30  C   UNL A   1      34.161  34.633  29.518  1.00  0.00     0.039 A 
ATOM     31  C   UNL A   1      33.930  34.024  30.754  1.00  0.00     0.014 A 
ATOM     32  C   UNL A   1      35.437  34.624  28.951  1.00  0.00     0.014 A 
ATOM     33  C   UNL A   1      34.967  33.340  31.390  1.00  0.00     0.010 A 
ATOM     34  C   UNL A   1      36.452  33.889  29.552  1.00  0.00     0.010 A 
ATOM     35  C   UNL A   1      36.225  33.236  30.775  1.00  0.00    -0.014 A 
BRANCH  35  36
ATOM     36  C   UNL A   1      37.322  32.443  31.382  1.00  0.00     0.031 A 
ATOM     37  C   UNL A   1      37.844  32.809  32.742  1.00  0.00     0.074 A 
ATOM     38  C   UNL A   1      37.907  31.458  30.673  1.00  0.00     0.049 A 
ATOM     39  N   UNL A   1      38.871  32.325  33.394  1.00  0.00    -0.248 NA
ATOM     40  C   UNL A   1      37.133  33.882  33.453  1.00  0.00     0.031 C 
ATOM     41  C   UNL A   1      37.518  31.040  29.325  1.00  0.00     0.029 A 
ATOM     42  N   UNL A   1      38.967  30.643  30.981  1.00  0.00    -0.354 N 
ATOM     43  C   UNL A   1      38.942  33.048  34.575  1.00  0.00     0.074 A 
ATOM     44  C   UNL A   1      37.883  34.034  34.534  1.00  0.00     0.031 C 
ATOM     45  C   UNL A   1      38.322  30.040  28.927  1.00  0.00     0.029 A 
ATOM     46  C   UNL A   1      39.304  29.772  29.974  1.00  0.00     0.049 A 
ATOM     47  H   UNL A   1      39.442  30.678  31.843  1.00  0.00     0.167 HD
ATOM     48  C   UNL A   1      39.802  32.892  35.609  1.00  0.00     0.037 A 
ATOM     49  C   UNL A   1      40.301  28.870  29.899  1.00  0.00     0.037 A 
ATOM     50  C   UNL A   1      40.833  31.889  35.660  1.00  0.00     0.049 A 
ATOM     51  C   UNL A   1      41.240  28.713  31.063  1.00  0.00     0.074 A 
ATOM     52  C   UNL A   1      41.713  31.609  36.690  1.00  0.00     0.029 A 
ATOM     53  N   UNL A   1      41.120  31.002  34.633  1.00  0.00    -0.354 N 
ATOM     54  N   UNL A   1      41.260  29.361  32.203  1.00  0.00    -0.248 NA
ATOM     55  C   UNL A   1      42.293  27.696  30.935  1.00  0.00     0.031 C 
ATOM     56  C   UNL A   1      42.559  30.576  36.273  1.00  0.00     0.029 A 
ATOM     57  C   UNL A   1      42.176  30.183  35.000  1.00  0.00     0.049 A 
ATOM     58  H   UNL A   1      40.644  30.960  33.773  1.00  0.00     0.167 HD
ATOM     59  C   UNL A   1      42.302  28.812  32.937  1.00  0.00     0.074 A 
ATOM     60  C   UNL A   1      42.888  27.772  32.117  1.00  0.00     0.031 C 
ATOM     61  C   UNL A   1      42.734  29.140  34.179  1.00  0.00     0.037 A 
BRANCH  48  62
ATOM     62  C   UNL A   1      39.662  33.825  36.775  1.00  0.00     0.064 A 
ATOM     63  C   UNL A   1      40.297  35.076  36.795  1.00  0.00     0.173 A 
ATOM     64  C   UNL A   1      38.854  33.483  37.870  1.00  0.00     0.173 A 
ATOM     65  F   UNL A   1      41.090  35.446  35.778  1.00  0.00    -0.203 F 
ATOM     66  C   UNL A   1      40.152  35.936  37.880  1.00  0.00     0.198 A 
ATOM     67  C   UNL A   1      38.687  34.357  38.939  1.00  0.00     0.198 A 
ATOM     68  F   UNL A   1      38.221  32.300  37.899  1.00  0.00    -0.203 F 
ATOM     69  F   UNL A   1      40.806  37.106  37.898  1.00  0.00    -0.200 F 
ATOM     70  C   UNL A   1      39.341  35.580  38.947  1.00  0.00     0.200 A 
ATOM     71  F   UNL A   1      37.895  34.016  39.965  1.00  0.00    -0.200 F 
ATOM     72  F   UNL A   1      39.197  36.413  39.987  1.00  0.00    -0.200 F 
ENDBRANCH  48  62
BRANCH  49  73
ATOM     73  C   UNL A   1      40.449  28.029  28.683  1.00  0.00     0.064 A 
ATOM     74  C   UNL A   1      41.233  28.462  27.604  1.00  0.00     0.173 A 
ATOM     75  C   UNL A   1      39.813  26.785  28.571  1.00  0.00     0.173 A 
ATOM     76  F   UNL A   1      41.844  29.654  27.657  1.00  0.00    -0.203 F 
ATOM     77  C   UNL A   1      41.361  27.688  26.452  1.00  0.00     0.198 A 
ATOM     78  C   UNL A   1      39.962  26.001  27.429  1.00  0.00     0.198 A 
ATOM     79  F   UNL A   1      39.055  26.325  29.577  1.00  0.00    -0.203 F 
ATOM     80  F   UNL A   1      42.082  28.144  25.419  1.00  0.00    -0.200 F 
ATOM     81  C   UNL A   1      40.730  26.457  26.367  1.00  0.00     0.200 A 
ATOM     82  F   UNL A   1      39.361  24.806  27.356  1.00  0.00    -0.200 F 
ATOM     83  F   UNL A   1      40.855  25.712  25.261  1.00  0.00    -0.200 F 
ENDBRANCH  49  73
BRANCH  61  84
ATOM     84  C   UNL A   1      43.865  28.339  34.750  1.00  0.00     0.064 A 
ATOM     85  C   UNL A   1      45.199  28.752  34.621  1.00  0.00     0.173 A 
ATOM     86  C   UNL A   1      43.604  27.173  35.485  1.00  0.00     0.173 A 
ATOM     87  F   UNL A   1      45.499  29.852  33.914  1.00  0.00    -0.203 F 
ATOM     88  C   UNL A   1      46.232  28.016  35.195  1.00  0.00     0.198 A 
ATOM     89  C   UNL A   1      44.637  26.454  36.080  1.00  0.00     0.198 A 
ATOM     90  F   UNL A   1      42.343  26.739  35.642  1.00  0.00    -0.203 F 
ATOM     91  F   UNL A   1      47.503  28.409  35.029  1.00  0.00    -0.200 F 
ATOM     92  C   UNL A   1      45.951  26.874  35.930  1.00  0.00     0.200 A 
ATOM     93  F   UNL A   1      44.363  25.359  36.800  1.00  0.00    -0.200 F 
ATOM     94  F   UNL A   1      46.946  26.175  36.491  1.00  0.00    -0.200 F 
ENDBRANCH  61  84
ENDBRANCH  35  36
ENDBRANCH  27  30
ENDBRANCH  25  26
ENDBRANCH  24  25
ENDBRANCH   1  24
TORSDOF 14
ENDMDL
MODEL 2
REMARK VINA RESULT:     -12.6      0.506      2.039
REMARK SMILES Cc1cccc(Cl)c1Nc1ccccc1CC(=O)NCCCCNC(=O)c1ccc(-c2c3nc(c(-c4c(F)c(F)c(F)c(F)c4F)c4ccc([nH]4)c(-c4c(F)c(F)c(F)c(F)c4F)c4nc(c(-c5c(F)c(F)c(F)c(F)c5F)c5ccc2[nH]5)C=C4)C=C3)cc1
REMARK SMILES IDX 21 1 20 2 19 3 17 4 18 5 16 7 15 8 10 9 11 10 12 11 14 12
REMARK SMILES IDX 13 13 9 14 8 16 1 17 2 18 3 19 4 20 6 21 5 22 7 23 22 24
REMARK SMILES IDX 23 25 24 26 25 27 26 29 27 30 28 31 89 32 29 33 88 34 30 35
REMARK SMILES IDX 31 36 32 37 82 38 33 39 87 40 81 41 83 42 34 43 86 44 80 45
REMARK SMILES IDX 79 46 35 48 67 49 47 50 66 51 48 52 51 53 65 54 84 55 49 56
REMARK SMILES IDX 50 57 64 59 85 60 52 61 36 62 37 63 45 64 38 65 39 66 43 67
REMARK SMILES IDX 46 68 40 69 41 70 44 71 42 72 68 73 69 74 77 75 70 76 71 77
REMARK SMILES IDX 75 78 78 79 72 80 73 81 76 82 74 83 53 84 54 85 62 86 55 87
REMARK SMILES IDX 56 88 60 89 63 90 57 91 58 92 61 93 59 94
REMARK H PARENT 19 6 9 15 24 28 83 47 51 58
REMARK Flexibility Score: inf
ROOT
ATOM      1  C   UNL A   1      31.651  30.713  26.126  1.00  0.00     0.023 C 
ENDROOT
BRANCH   1   2
ATOM      2  C   UNL A   1      32.373  29.847  27.159  1.00  0.00     0.116 C 
BRANCH   2   3
ATOM      3  N   UNL A   1      31.737  28.556  27.318  1.00  0.00    -0.356 N 
ATOM      4  C   UNL A   1      32.152  27.345  26.837  1.00  0.00     0.224 C 
ATOM      5  O   UNL A   1      31.417  26.369  26.998  1.00  0.00    -0.275 OA
ATOM      6  H   UNL A   1      30.900  28.549  27.837  1.00  0.00     0.163 HD
BRANCH   4   7
ATOM      7  C   UNL A   1      33.513  27.220  26.166  1.00  0.00     0.137 C 
BRANCH   7   8
ATOM      8  C   UNL A   1      33.453  26.730  24.734  1.00  0.00    -0.015 A 
ATOM      9  C   UNL A   1      33.674  25.385  24.362  1.00  0.00     0.042 A 
ATOM     10  C   UNL A   1      33.713  25.063  22.992  1.00  0.00     0.026 A 
ATOM     11  C   UNL A   1      33.509  26.030  22.008  1.00  0.00     0.002 A 
ATOM     12  C   UNL A   1      33.212  27.688  23.725  1.00  0.00     0.006 A 
ATOM     13  C   UNL A   1      33.244  27.342  22.376  1.00  0.00     0.000 A 
BRANCH   9  14
ATOM     14  N   UNL A   1      33.815  24.316  25.271  1.00  0.00    -0.354 N 
ATOM     15  H   UNL A   1      33.553  24.541  26.192  1.00  0.00     0.167 HD
BRANCH  14  16
ATOM     16  C   UNL A   1      34.264  22.981  25.115  1.00  0.00     0.060 A 
ATOM     17  C   UNL A   1      36.608  23.788  25.753  1.00  0.00     0.046 C 
ATOM     18  C   UNL A   1      35.632  22.701  25.374  1.00  0.00    -0.026 A 
ATOM     19  C   UNL A   1      36.105  21.378  25.320  1.00  0.00     0.005 A 
ATOM     20  C   UNL A   1      35.251  20.328  25.001  1.00  0.00     0.002 A 
ATOM     21  C   UNL A   1      33.423  21.899  24.764  1.00  0.00     0.064 A 
ATOM     22  C   UNL A   1      33.916  20.589  24.716  1.00  0.00     0.023 A 
ATOM     23  Cl  UNL A   1      31.777  22.101  24.262  1.00  0.00    -0.082 Cl
ENDBRANCH  14  16
ENDBRANCH   9  14
ENDBRANCH   7   8
ENDBRANCH   4   7
ENDBRANCH   2   3
ENDBRANCH   1   2
BRANCH   1  24
ATOM     24  C   UNL A   1      31.403  32.156  26.568  1.00  0.00     0.023 C 
BRANCH  24  25
ATOM     25  C   UNL A   1      32.587  32.833  27.245  1.00  0.00     0.116 C 
BRANCH  25  26
ATOM     26  N   UNL A   1      32.321  34.212  27.627  1.00  0.00    -0.352 N 
ATOM     27  C   UNL A   1      32.930  34.953  28.610  1.00  0.00     0.251 C 
ATOM     28  H   UNL A   1      31.615  34.670  27.117  1.00  0.00     0.163 HD
ATOM     29  O   UNL A   1      32.528  36.078  28.888  1.00  0.00    -0.269 OA
BRANCH  27  30
ATOM     30  C   UNL A   1      34.055  34.361  29.362  1.00  0.00     0.039 A 
ATOM     31  C   UNL A   1      33.779  33.573  30.482  1.00  0.00     0.014 A 
ATOM     32  C   UNL A   1      35.371  34.542  28.929  1.00  0.00     0.014 A 
ATOM     33  C   UNL A   1      34.820  32.905  31.128  1.00  0.00     0.010 A 
ATOM     34  C   UNL A   1      36.398  33.826  29.533  1.00  0.00     0.010 A 
ATOM     35  C   UNL A   1      36.132  32.997  30.635  1.00  0.00    -0.014 A 
BRANCH  35  36
ATOM     36  C   UNL A   1      37.246  32.231  31.246  1.00  0.00     0.031 A 
ATOM     37  C   UNL A   1      37.749  32.604  32.610  1.00  0.00     0.074 A 
ATOM     38  C   UNL A   1      37.861  31.266  30.536  1.00  0.00     0.049 A 
ATOM     39  N   UNL A   1      38.785  32.144  33.266  1.00  0.00    -0.248 NA
ATOM     40  C   UNL A   1      37.005  33.654  33.322  1.00  0.00     0.031 C 
ATOM     41  C   UNL A   1      37.492  30.843  29.183  1.00  0.00     0.029 A 
ATOM     42  N   UNL A   1      38.941  30.477  30.847  1.00  0.00    -0.354 N 
ATOM     43  C   UNL A   1      38.829  32.863  34.452  1.00  0.00     0.074 A 
ATOM     44  C   UNL A   1      37.744  33.821  34.409  1.00  0.00     0.031 C 
ATOM     45  C   UNL A   1      38.324  29.867  28.786  1.00  0.00     0.029 A 
ATOM     46  C   UNL A   1      39.307  29.620  29.838  1.00  0.00     0.049 A 
ATOM     47  H   UNL A   1      39.409  30.521  31.712  1.00  0.00     0.167 HD
ATOM     48  C   UNL A   1      39.686  32.725  35.491  1.00  0.00     0.037 A 
ATOM     49  C   UNL A   1      40.328  28.745  29.765  1.00  0.00     0.037 A 
ATOM     50  C   UNL A   1      40.743  31.749  35.543  1.00  0.00     0.049 A 
ATOM     51  C   UNL A   1      41.263  28.608  30.935  1.00  0.00     0.074 A 
ATOM     52  C   UNL A   1      41.624  31.488  36.577  1.00  0.00     0.029 A 
ATOM     53  N   UNL A   1      41.060  30.875  34.514  1.00  0.00    -0.354 N 
ATOM     54  N   UNL A   1      41.259  29.250  32.077  1.00  0.00    -0.248 NA
ATOM     55  C   UNL A   1      42.344  27.620  30.808  1.00  0.00     0.031 C 
ATOM     56  C   UNL A   1      42.499  30.479  36.161  1.00  0.00     0.029 A 
ATOM     57  C   UNL A   1      42.135  30.083  34.884  1.00  0.00     0.049 A 
ATOM     58  H   UNL A   1      40.591  30.824  33.651  1.00  0.00     0.167 HD
ATOM     59  C   UNL A   1      42.310  28.725  32.815  1.00  0.00     0.074 A 
ATOM     60  C   UNL A   1      42.928  27.705  31.994  1.00  0.00     0.031 C 
ATOM     61  C   UNL A   1      42.726  29.059  34.062  1.00  0.00     0.037 A 
BRANCH  48  62
ATOM     62  C   UNL A   1      39.514  33.649  36.659  1.00  0.00     0.064 A 
ATOM     63  C   UNL A   1      38.722  33.297  37.763  1.00  0.00     0.173 A 
ATOM     64  C   UNL A   1      40.177  34.885  36.695  1.00  0.00     0.173 A 
ATOM     65  F   UNL A   1      38.057  32.132  37.773  1.00  0.00    -0.203 F 
ATOM     66  C   UNL A   1      38.578  34.161  38.845  1.00  0.00     0.198 A 
ATOM     67  C   UNL A   1      40.054  35.733  37.791  1.00  0.00     0.198 A 
ATOM     68  F   UNL A   1      40.950  35.267  35.667  1.00  0.00    -0.203 F 
ATOM     69  F   UNL A   1      37.778  33.825  39.867  1.00  0.00    -0.200 F 
ATOM     70  C   UNL A   1      39.249  35.374  38.862  1.00  0.00     0.200 A 
ATOM     71  F   UNL A   1      40.712  36.900  37.811  1.00  0.00    -0.200 F 
ATOM     72  F   UNL A   1      39.115  36.202  39.908  1.00  0.00    -0.200 F 
ENDBRANCH  48  62
BRANCH  49  73
ATOM     73  C   UNL A   1      40.506  27.915  28.546  1.00  0.00     0.064 A 
ATOM     74  C   UNL A   1      39.914  26.647  28.450  1.00  0.00     0.173 A 
ATOM     75  C   UNL A   1      41.268  28.364  27.458  1.00  0.00     0.173 A 
ATOM     76  F   UNL A   1      39.194  26.167  29.473  1.00  0.00    -0.203 F 
ATOM     77  C   UNL A   1      40.093  25.853  27.319  1.00  0.00     0.198 A 
ATOM     78  C   UNL A   1      41.425  27.580  26.317  1.00  0.00     0.198 A 
ATOM     79  F   UNL A   1      41.851  29.570  27.500  1.00  0.00    -0.203 F 
ATOM     80  F   UNL A   1      39.551  24.630  27.270  1.00  0.00    -0.200 F 
ATOM     81  C   UNL A   1      40.843  26.322  26.251  1.00  0.00     0.200 A 
ATOM     82  F   UNL A   1      42.140  28.041  25.283  1.00  0.00    -0.200 F 
ATOM     83  F   UNL A   1      41.012  25.560  25.163  1.00  0.00    -0.200 F 
ENDBRANCH  49  73
BRANCH  61  84
ATOM     84  C   UNL A   1      43.874  28.285  34.636  1.00  0.00     0.064 A 
ATOM     85  C   UNL A   1      43.677  27.079  35.326  1.00  0.00     0.173 A 
ATOM     86  C   UNL A   1      45.191  28.726  34.445  1.00  0.00     0.173 A 
ATOM     87  F   UNL A   1      42.434  26.624  35.547  1.00  0.00    -0.203 F 
ATOM     88  C   UNL A   1      44.758  26.352  35.815  1.00  0.00     0.198 A 
ATOM     89  C   UNL A   1      46.271  27.984  34.912  1.00  0.00     0.198 A 
ATOM     90  F   UNL A   1      45.432  29.872  33.787  1.00  0.00    -0.203 F 
ATOM     91  F   UNL A   1      44.546  25.221  36.502  1.00  0.00    -0.200 F 
ATOM     92  C   UNL A   1      46.053  26.800  35.602  1.00  0.00     0.200 A 
ATOM     93  F   UNL A   1      47.522  28.411  34.694  1.00  0.00    -0.200 F 
ATOM     94  F   UNL A   1      47.093  26.093  36.063  1.00  0.00    -0.200 F 
ENDBRANCH  61  84
ENDBRANCH  35  36
ENDBRANCH  27  30
ENDBRANCH  25  26
ENDBRANCH  24  25
ENDBRANCH   1  24
TORSDOF 14
ENDMDL
MODEL 3
REMARK VINA RESULT:     -12.5      0.871      7.399
REMARK SMILES Cc1cccc(Cl)c1Nc1ccccc1CC(=O)NCCCCNC(=O)c1ccc(-c2c3nc(c(-c4c(F)c(F)c(F)c(F)c4F)c4ccc([nH]4)c(-c4c(F)c(F)c(F)c(F)c4F)c4nc(c(-c5c(F)c(F)c(F)c(F)c5F)c5ccc2[nH]5)C=C4)C=C3)cc1
REMARK SMILES IDX 21 1 20 2 19 3 17 4 18 5 16 7 15 8 10 9 11 10 12 11 14 12
REMARK SMILES IDX 13 13 9 14 8 16 1 17 2 18 3 19 4 20 6 21 5 22 7 23 22 24
REMARK SMILES IDX 23 25 24 26 25 27 26 29 27 30 28 31 89 32 29 33 88 34 30 35
REMARK SMILES IDX 31 36 32 37 82 38 33 39 87 40 81 41 83 42 34 43 86 44 80 45
REMARK SMILES IDX 79 46 35 48 67 49 47 50 66 51 48 52 51 53 65 54 84 55 49 56
REMARK SMILES IDX 50 57 64 59 85 60 52 61 36 62 37 63 45 64 38 65 39 66 43 67
REMARK SMILES IDX 46 68 40 69 41 70 44 71 42 72 68 73 69 74 77 75 70 76 71 77
REMARK SMILES IDX 75 78 78 79 72 80 73 81 76 82 74 83 53 84 54 85 62 86 55 87
REMARK SMILES IDX 56 88 60 89 63 90 57 91 58 92 61 93 59 94
REMARK H PARENT 19 6 9 15 24 28 83 47 51 58
REMARK Flexibility Score: inf
ROOT
ATOM      1  C   UNL A   1      32.096  30.447  26.177  1.00  0.00     0.023 C 
ENDROOT
BRANCH   1   2
ATOM      2  C   UNL A   1      32.575  29.435  27.218  1.00  0.00     0.116 C 
BRANCH   2   3
ATOM      3  N   UNL A   1      31.722  28.266  27.264  1.00  0.00    -0.356 N 
ATOM      4  C   UNL A   1      31.968  27.020  26.758  1.00  0.00     0.224 C 
ATOM      5  O   UNL A   1      31.069  26.178  26.815  1.00  0.00    -0.275 OA
ATOM      6  H   UNL A   1      30.855  28.383  27.717  1.00  0.00     0.163 HD
BRANCH   4   7
ATOM      7  C   UNL A   1      33.340  26.689  26.187  1.00  0.00     0.137 C 
BRANCH   7   8
ATOM      8  C   UNL A   1      33.329  26.347  24.711  1.00  0.00    -0.015 A 
ATOM      9  C   UNL A   1      33.411  25.025  24.219  1.00  0.00     0.042 A 
ATOM     10  C   UNL A   1      33.513  24.830  22.828  1.00  0.00     0.026 A 
ATOM     11  C   UNL A   1      33.504  25.903  21.937  1.00  0.00     0.002 A 
ATOM     12  C   UNL A   1      33.285  27.418  23.793  1.00  0.00     0.006 A 
ATOM     13  C   UNL A   1      33.376  27.198  22.420  1.00  0.00     0.000 A 
BRANCH   9  14
ATOM     14  N   UNL A   1      33.350  23.866  25.021  1.00  0.00    -0.354 N 
ATOM     15  H   UNL A   1      32.602  23.865  25.661  1.00  0.00     0.167 HD
BRANCH  14  16
ATOM     16  C   UNL A   1      34.159  22.705  25.086  1.00  0.00     0.060 A 
ATOM     17  C   UNL A   1      32.052  21.321  24.639  1.00  0.00     0.046 C 
ATOM     18  C   UNL A   1      33.537  21.445  24.873  1.00  0.00    -0.026 A 
ATOM     19  C   UNL A   1      34.312  20.272  24.838  1.00  0.00     0.005 A 
ATOM     20  C   UNL A   1      35.689  20.321  25.022  1.00  0.00     0.002 A 
ATOM     21  C   UNL A   1      35.557  22.724  25.300  1.00  0.00     0.064 A 
ATOM     22  C   UNL A   1      36.308  21.543  25.260  1.00  0.00     0.023 A 
ATOM     23  Cl  UNL A   1      36.430  24.156  25.733  1.00  0.00    -0.082 Cl
ENDBRANCH  14  16
ENDBRANCH   9  14
ENDBRANCH   7   8
ENDBRANCH   4   7
ENDBRANCH   2   3
ENDBRANCH   1   2
BRANCH   1  24
ATOM     24  C   UNL A   1      31.674  31.800  26.752  1.00  0.00     0.023 C 
BRANCH  24  25
ATOM     25  C   UNL A   1      32.812  32.644  27.310  1.00  0.00     0.116 C 
BRANCH  25  26
ATOM     26  N   UNL A   1      32.420  34.012  27.613  1.00  0.00    -0.352 N 
ATOM     27  C   UNL A   1      32.969  34.867  28.537  1.00  0.00     0.251 C 
ATOM     28  H   UNL A   1      31.666  34.368  27.090  1.00  0.00     0.163 HD
ATOM     29  O   UNL A   1      32.464  35.963  28.755  1.00  0.00    -0.269 OA
BRANCH  27  30
ATOM     30  C   UNL A   1      34.156  34.433  29.301  1.00  0.00     0.039 A 
ATOM     31  C   UNL A   1      33.973  33.811  30.538  1.00  0.00     0.014 A 
ATOM     32  C   UNL A   1      35.438  34.593  28.770  1.00  0.00     0.014 A 
ATOM     33  C   UNL A   1      35.074  33.283  31.214  1.00  0.00     0.010 A 
ATOM     34  C   UNL A   1      36.525  34.010  29.412  1.00  0.00     0.010 A 
ATOM     35  C   UNL A   1      36.353  33.345  30.637  1.00  0.00    -0.014 A 
BRANCH  35  36
ATOM     36  C   UNL A   1      37.529  32.717  31.288  1.00  0.00     0.031 A 
ATOM     37  C   UNL A   1      38.234  31.575  30.615  1.00  0.00     0.074 A 
ATOM     38  C   UNL A   1      37.901  33.113  32.520  1.00  0.00     0.049 A 
ATOM     39  N   UNL A   1      39.198  30.814  31.068  1.00  0.00    -0.248 NA
ATOM     40  C   UNL A   1      37.775  31.223  29.263  1.00  0.00     0.031 C 
ATOM     41  C   UNL A   1      37.266  34.181  33.294  1.00  0.00     0.029 A 
ATOM     42  N   UNL A   1      38.893  32.649  33.347  1.00  0.00    -0.354 N 
ATOM     43  C   UNL A   1      39.443  29.882  30.069  1.00  0.00     0.074 A 
ATOM     44  C   UNL A   1      38.499  30.144  29.003  1.00  0.00     0.031 C 
ATOM     45  C   UNL A   1      37.890  34.296  34.477  1.00  0.00     0.029 A 
ATOM     46  C   UNL A   1      38.943  33.288  34.562  1.00  0.00     0.049 A 
ATOM     47  H   UNL A   1      39.511  31.925  33.094  1.00  0.00     0.167 HD
ATOM     48  C   UNL A   1      40.383  28.909  30.035  1.00  0.00     0.037 A 
ATOM     49  C   UNL A   1      39.739  33.075  35.627  1.00  0.00     0.037 A 
ATOM     50  C   UNL A   1      41.341  28.674  31.083  1.00  0.00     0.049 A 
ATOM     51  C   UNL A   1      40.779  31.990  35.562  1.00  0.00     0.074 A 
ATOM     52  C   UNL A   1      42.374  27.753  31.116  1.00  0.00     0.029 A 
ATOM     53  N   UNL A   1      41.382  29.366  32.284  1.00  0.00    -0.354 N 
ATOM     54  N   UNL A   1      41.043  31.155  34.588  1.00  0.00    -0.248 NA
ATOM     55  C   UNL A   1      41.635  31.820  36.745  1.00  0.00     0.031 C 
ATOM     56  C   UNL A   1      43.018  27.863  32.353  1.00  0.00     0.029 A 
ATOM     57  C   UNL A   1      42.414  28.883  33.072  1.00  0.00     0.049 A 
ATOM     58  H   UNL A   1      40.770  30.094  32.538  1.00  0.00     0.167 HD
ATOM     59  C   UNL A   1      42.111  30.384  35.024  1.00  0.00     0.074 A 
ATOM     60  C   UNL A   1      42.452  30.855  36.350  1.00  0.00     0.031 C 
ATOM     61  C   UNL A   1      42.752  29.376  34.382  1.00  0.00     0.037 A 
BRANCH  48  62
ATOM     62  C   UNL A   1      40.425  28.026  28.824  1.00  0.00     0.064 A 
ATOM     63  C   UNL A   1      41.180  28.367  27.692  1.00  0.00     0.173 A 
ATOM     64  C   UNL A   1      39.730  26.807  28.807  1.00  0.00     0.173 A 
ATOM     65  F   UNL A   1      41.852  29.527  27.653  1.00  0.00    -0.203 F 
ATOM     66  C   UNL A   1      41.216  27.533  26.577  1.00  0.00     0.198 A 
ATOM     67  C   UNL A   1      39.792  25.962  27.702  1.00  0.00     0.198 A 
ATOM     68  F   UNL A   1      38.995  26.432  29.865  1.00  0.00    -0.203 F 
ATOM     69  F   UNL A   1      41.907  27.901  25.489  1.00  0.00    -0.200 F 
ATOM     70  C   UNL A   1      40.529  26.329  26.586  1.00  0.00     0.200 A 
ATOM     71  F   UNL A   1      39.136  24.794  27.716  1.00  0.00    -0.200 F 
ATOM     72  F   UNL A   1      40.570  25.525  25.515  1.00  0.00    -0.200 F 
ENDBRANCH  48  62
BRANCH  49  73
ATOM     73  C   UNL A   1      39.598  33.923  36.838  1.00  0.00     0.064 A 
ATOM     74  C   UNL A   1      40.257  35.157  36.930  1.00  0.00     0.173 A 
ATOM     75  C   UNL A   1      38.808  33.521  37.926  1.00  0.00     0.173 A 
ATOM     76  F   UNL A   1      41.040  35.573  35.925  1.00  0.00    -0.203 F 
ATOM     77  C   UNL A   1      40.147  35.949  38.071  1.00  0.00     0.198 A 
ATOM     78  C   UNL A   1      38.678  34.327  39.055  1.00  0.00     0.198 A 
ATOM     79  F   UNL A   1      38.154  32.352  37.885  1.00  0.00    -0.203 F 
ATOM     80  F   UNL A   1      40.821  37.104  38.150  1.00  0.00    -0.200 F 
ATOM     81  C   UNL A   1      39.353  35.536  39.131  1.00  0.00     0.200 A 
ATOM     82  F   UNL A   1      37.900  33.930  40.071  1.00  0.00    -0.200 F 
ATOM     83  F   UNL A   1      39.244  36.299  40.226  1.00  0.00    -0.200 F 
ENDBRANCH  49  73
BRANCH  61  84
ATOM     84  C   UNL A   1      43.917  28.743  35.082  1.00  0.00     0.064 A 
ATOM     85  C   UNL A   1      43.758  27.625  35.913  1.00  0.00     0.173 A 
ATOM     86  C   UNL A   1      45.216  29.228  34.871  1.00  0.00     0.173 A 
ATOM     87  F   UNL A   1      42.534  27.134  36.156  1.00  0.00    -0.203 F 
ATOM     88  C   UNL A   1      44.857  27.025  36.520  1.00  0.00     0.198 A 
ATOM     89  C   UNL A   1      46.316  28.611  35.459  1.00  0.00     0.198 A 
ATOM     90  F   UNL A   1      45.421  30.293  34.080  1.00  0.00    -0.203 F 
ATOM     91  F   UNL A   1      44.680  25.979  37.340  1.00  0.00    -0.200 F 
ATOM     92  C   UNL A   1      46.135  27.512  36.287  1.00  0.00     0.200 A 
ATOM     93  F   UNL A   1      47.550  29.075  35.223  1.00  0.00    -0.200 F 
ATOM     94  F   UNL A   1      47.193  26.926  36.863  1.00  0.00    -0.200 F 
ENDBRANCH  61  84
ENDBRANCH  35  36
ENDBRANCH  27  30
ENDBRANCH  25  26
ENDBRANCH  24  25
ENDBRANCH   1  24
TORSDOF 14
ENDMDL
