MODEL 1
REMARK VINA RESULT:     -12.5      0.000      0.000
REMARK SMILES C[C@@H]1[NH2+]CC[C@@H]1C(=O)Nc1ccccc1CC(=O)NCCCCNC(=O)c1ccc(-c2c3nc(c(-c4c(F)c(F)c(F)c(F)c4F)c4ccc([nH]4)c(-c4c(F)c(F)c(F)c(F)c4F)c4nc(c(-c5c(F)c(F)c(F)c(F)c5F)c5ccc2[nH]5)C=C4)C=C3)cc1
REMARK SMILES IDX 21 1 20 2 19 3 17 4 18 5 16 7 15 8 10 9 11 10 12 11 14 12
REMARK SMILES IDX 13 13 9 14 7 15 8 16 6 18 1 19 2 20 3 21 4 22 5 25 22 26
REMARK SMILES IDX 23 27 24 28 25 29 26 31 27 32 28 33 89 34 29 35 88 36 30 37
REMARK SMILES IDX 31 38 32 39 82 40 33 41 87 42 81 43 83 44 34 45 86 46 80 47
REMARK SMILES IDX 79 48 35 50 67 51 47 52 66 53 48 54 51 55 65 56 84 57 49 58
REMARK SMILES IDX 50 59 64 61 85 62 52 63 36 64 37 65 45 66 38 67 39 68 43 69
REMARK SMILES IDX 46 70 40 71 41 72 44 73 42 74 68 75 69 76 77 77 70 78 71 79
REMARK SMILES IDX 75 80 78 81 72 82 73 83 76 84 74 85 53 86 54 87 62 88 55 89
REMARK SMILES IDX 56 90 60 91 63 92 57 93 58 94 61 95 59 96
REMARK H PARENT 19 6 9 17 3 23 3 24 24 30 83 49 51 60
REMARK Flexibility Score: inf
ROOT
ATOM      1  C   UNL A   1      31.780  30.822  26.327  1.00  0.00     0.023 C 
ENDROOT
BRANCH   1   2
ATOM      2  C   UNL A   1      32.608  30.015  27.325  1.00  0.00     0.116 C 
BRANCH   2   3
ATOM      3  N   UNL A   1      32.026  28.712  27.553  1.00  0.00    -0.356 N 
ATOM      4  C   UNL A   1      32.362  27.536  26.952  1.00  0.00     0.224 C 
ATOM      5  O   UNL A   1      31.606  26.572  27.079  1.00  0.00    -0.275 OA
ATOM      6  H   UNL A   1      31.303  28.667  28.221  1.00  0.00     0.163 HD
BRANCH   4   7
ATOM      7  C   UNL A   1      33.683  27.412  26.216  1.00  0.00     0.137 C 
BRANCH   7   8
ATOM      8  C   UNL A   1      33.604  27.327  24.707  1.00  0.00    -0.015 A 
ATOM      9  C   UNL A   1      33.584  26.139  23.948  1.00  0.00     0.044 A 
ATOM     10  C   UNL A   1      33.620  26.226  22.540  1.00  0.00     0.026 A 
ATOM     11  C   UNL A   1      33.602  27.454  21.882  1.00  0.00     0.002 A 
ATOM     12  C   UNL A   1      33.551  28.560  24.015  1.00  0.00     0.006 A 
ATOM     13  C   UNL A   1      33.545  28.624  22.621  1.00  0.00     0.000 A 
BRANCH   9  14
ATOM     14  N   UNL A   1      33.521  24.809  24.424  1.00  0.00    -0.325 N 
ATOM     15  C   UNL A   1      34.457  23.817  24.403  1.00  0.00     0.233 C 
ATOM     16  O   UNL A   1      34.361  22.944  23.533  1.00  0.00    -0.274 OA
ATOM     17  H   UNL A   1      32.663  24.557  24.835  1.00  0.00     0.169 HD
BRANCH  15  18
ATOM     18  C   UNL A   1      35.261  23.565  25.687  1.00  0.00     0.142 C 
ATOM     19  C   UNL A   1      37.326  22.178  24.718  1.00  0.00     0.076 C 
ATOM     20  C   UNL A   1      36.317  22.459  25.819  1.00  0.00     0.192 C 
ATOM     21  N   UNL A   1      35.632  21.251  26.316  1.00  0.00    -0.343 N 
ATOM     22  C   UNL A   1      34.262  21.630  26.667  1.00  0.00     0.261 C 
ATOM     23  H   UNL A   1      36.116  20.891  27.138  1.00  0.00     0.346 HD
ATOM     24  H   UNL A   1      35.629  20.523  25.601  1.00  0.00     0.346 HD
ATOM     25  C   UNL A   1      34.303  23.141  26.812  1.00  0.00     0.081 C 
ENDBRANCH  15  18
ENDBRANCH   9  14
ENDBRANCH   7   8
ENDBRANCH   4   7
ENDBRANCH   2   3
ENDBRANCH   1   2
BRANCH   1  26
ATOM     26  C   UNL A   1      31.511  32.256  26.773  1.00  0.00     0.023 C 
BRANCH  26  27
ATOM     27  C   UNL A   1      32.737  32.973  27.314  1.00  0.00     0.116 C 
BRANCH  27  28
ATOM     28  N   UNL A   1      32.455  34.344  27.705  1.00  0.00    -0.352 N 
ATOM     29  C   UNL A   1      33.053  35.071  28.706  1.00  0.00     0.251 C 
ATOM     30  H   UNL A   1      31.753  34.806  27.193  1.00  0.00     0.163 HD
ATOM     31  O   UNL A   1      32.635  36.169  29.032  1.00  0.00    -0.269 OA
BRANCH  29  32
ATOM     32  C   UNL A   1      34.202  34.465  29.409  1.00  0.00     0.039 A 
ATOM     33  C   UNL A   1      33.959  33.651  30.515  1.00  0.00     0.014 A 
ATOM     34  C   UNL A   1      35.499  34.651  28.924  1.00  0.00     0.014 A 
ATOM     35  C   UNL A   1      35.023  32.975  31.111  1.00  0.00     0.010 A 
ATOM     36  C   UNL A   1      36.547  33.927  29.477  1.00  0.00     0.010 A 
ATOM     37  C   UNL A   1      36.318  33.087  30.578  1.00  0.00    -0.014 A 
BRANCH  37  38
ATOM     38  C   UNL A   1      37.453  32.342  31.171  1.00  0.00     0.031 A 
ATOM     39  C   UNL A   1      37.951  32.708  32.540  1.00  0.00     0.074 A 
ATOM     40  C   UNL A   1      38.075  31.392  30.448  1.00  0.00     0.049 A 
ATOM     41  N   UNL A   1      38.964  32.219  33.208  1.00  0.00    -0.248 NA
ATOM     42  C   UNL A   1      37.234  33.788  33.237  1.00  0.00     0.031 C 
ATOM     43  C   UNL A   1      37.724  31.003  29.082  1.00  0.00     0.029 A 
ATOM     44  N   UNL A   1      39.146  30.592  30.758  1.00  0.00    -0.354 N 
ATOM     45  C   UNL A   1      39.021  32.948  34.389  1.00  0.00     0.074 A 
ATOM     46  C   UNL A   1      37.970  33.940  34.329  1.00  0.00     0.031 C 
ATOM     47  C   UNL A   1      38.555  30.028  28.676  1.00  0.00     0.029 A 
ATOM     48  C   UNL A   1      39.510  29.742  29.743  1.00  0.00     0.049 A 
ATOM     49  H   UNL A   1      39.609  30.624  31.626  1.00  0.00     0.167 HD
ATOM     50  C   UNL A   1      39.861  32.787  35.438  1.00  0.00     0.037 A 
ATOM     51  C   UNL A   1      40.504  28.837  29.683  1.00  0.00     0.037 A 
ATOM     52  C   UNL A   1      40.872  31.766  35.511  1.00  0.00     0.049 A 
ATOM     53  C   UNL A   1      41.391  28.645  30.882  1.00  0.00     0.074 A 
ATOM     54  C   UNL A   1      41.710  31.456  36.567  1.00  0.00     0.029 A 
ATOM     55  N   UNL A   1      41.178  30.886  34.484  1.00  0.00    -0.354 N 
ATOM     56  N   UNL A   1      41.376  29.276  32.031  1.00  0.00    -0.248 NA
ATOM     57  C   UNL A   1      42.424  27.604  30.783  1.00  0.00     0.031 C 
ATOM     58  C   UNL A   1      42.549  30.411  36.166  1.00  0.00     0.029 A 
ATOM     59  C   UNL A   1      42.206  30.045  34.874  1.00  0.00     0.049 A 
ATOM     60  H   UNL A   1      40.730  30.863  33.607  1.00  0.00     0.167 HD
ATOM     61  C   UNL A   1      42.378  28.697  32.797  1.00  0.00     0.074 A 
ATOM     62  C   UNL A   1      42.970  27.651  31.989  1.00  0.00     0.031 C 
ATOM     63  C   UNL A   1      42.774  29.006  34.056  1.00  0.00     0.037 A 
BRANCH  50  64
ATOM     64  C   UNL A   1      39.715  33.727  36.595  1.00  0.00     0.064 A 
ATOM     65  C   UNL A   1      40.359  34.974  36.615  1.00  0.00     0.173 A 
ATOM     66  C   UNL A   1      38.894  33.394  37.682  1.00  0.00     0.173 A 
ATOM     67  F   UNL A   1      41.166  35.332  35.605  1.00  0.00    -0.203 F 
ATOM     68  C   UNL A   1      40.203  35.844  37.690  1.00  0.00     0.198 A 
ATOM     69  C   UNL A   1      38.719  34.278  38.744  1.00  0.00     0.198 A 
ATOM     70  F   UNL A   1      38.255  32.216  37.712  1.00  0.00    -0.203 F 
ATOM     71  F   UNL A   1      40.860  37.012  37.707  1.00  0.00    -0.200 F 
ATOM     72  C   UNL A   1      39.378  35.499  38.751  1.00  0.00     0.200 A 
ATOM     73  F   UNL A   1      37.913  33.948  39.764  1.00  0.00    -0.200 F 
ATOM     74  F   UNL A   1      39.222  36.340  39.782  1.00  0.00    -0.200 F 
ENDBRANCH  50  64
BRANCH  51  75
ATOM     75  C   UNL A   1      40.696  28.025  28.454  1.00  0.00     0.064 A 
ATOM     76  C   UNL A   1      41.506  28.485  27.407  1.00  0.00     0.173 A 
ATOM     77  C   UNL A   1      40.070  26.780  28.299  1.00  0.00     0.173 A 
ATOM     78  F   UNL A   1      42.109  29.679  27.502  1.00  0.00    -0.203 F 
ATOM     79  C   UNL A   1      41.666  27.740  26.241  1.00  0.00     0.198 A 
ATOM     80  C   UNL A   1      40.251  26.024  27.142  1.00  0.00     0.198 A 
ATOM     81  F   UNL A   1      39.290  26.293  29.274  1.00  0.00    -0.203 F 
ATOM     82  F   UNL A   1      42.411  28.223  25.237  1.00  0.00    -0.200 F 
ATOM     83  C   UNL A   1      41.043  26.508  26.110  1.00  0.00     0.200 A 
ATOM     84  F   UNL A   1      39.657  24.829  27.025  1.00  0.00    -0.200 F 
ATOM     85  F   UNL A   1      41.198  25.792  24.989  1.00  0.00    -0.200 F 
ENDBRANCH  51  75
BRANCH  63  86
ATOM     86  C   UNL A   1      43.883  28.186  34.645  1.00  0.00     0.064 A 
ATOM     87  C   UNL A   1      45.220  28.600  34.568  1.00  0.00     0.173 A 
ATOM     88  C   UNL A   1      43.598  26.995  35.329  1.00  0.00     0.173 A 
ATOM     89  F   UNL A   1      45.542  29.724  33.911  1.00  0.00    -0.203 F 
ATOM     90  C   UNL A   1      46.237  27.839  35.137  1.00  0.00     0.198 A 
ATOM     91  C   UNL A   1      44.615  26.249  35.919  1.00  0.00     0.198 A 
ATOM     92  F   UNL A   1      42.334  26.560  35.433  1.00  0.00    -0.203 F 
ATOM     93  F   UNL A   1      47.513  28.230  35.016  1.00  0.00    -0.200 F 
ATOM     94  C   UNL A   1      45.934  26.669  35.818  1.00  0.00     0.200 A 
ATOM     95  F   UNL A   1      44.319  25.125  36.587  1.00  0.00    -0.200 F 
ATOM     96  F   UNL A   1      46.913  25.941  36.371  1.00  0.00    -0.200 F 
ENDBRANCH  63  86
ENDBRANCH  37  38
ENDBRANCH  29  32
ENDBRANCH  27  28
ENDBRANCH  26  27
ENDBRANCH   1  26
TORSDOF 14
ENDMDL
MODEL 2
REMARK VINA RESULT:     -12.5      0.930      7.471
REMARK SMILES C[C@@H]1[NH2+]CC[C@@H]1C(=O)Nc1ccccc1CC(=O)NCCCCNC(=O)c1ccc(-c2c3nc(c(-c4c(F)c(F)c(F)c(F)c4F)c4ccc([nH]4)c(-c4c(F)c(F)c(F)c(F)c4F)c4nc(c(-c5c(F)c(F)c(F)c(F)c5F)c5ccc2[nH]5)C=C4)C=C3)cc1
REMARK SMILES IDX 21 1 20 2 19 3 17 4 18 5 16 7 15 8 10 9 11 10 12 11 14 12
REMARK SMILES IDX 13 13 9 14 7 15 8 16 6 18 1 19 2 20 3 21 4 22 5 25 22 26
REMARK SMILES IDX 23 27 24 28 25 29 26 31 27 32 28 33 89 34 29 35 88 36 30 37
REMARK SMILES IDX 31 38 32 39 82 40 33 41 87 42 81 43 83 44 34 45 86 46 80 47
REMARK SMILES IDX 79 48 35 50 67 51 47 52 66 53 48 54 51 55 65 56 84 57 49 58
REMARK SMILES IDX 50 59 64 61 85 62 52 63 36 64 37 65 45 66 38 67 39 68 43 69
REMARK SMILES IDX 46 70 40 71 41 72 44 73 42 74 68 75 69 76 77 77 70 78 71 79
REMARK SMILES IDX 75 80 78 81 72 82 73 83 76 84 74 85 53 86 54 87 62 88 55 89
REMARK SMILES IDX 56 90 60 91 63 92 57 93 58 94 61 95 59 96
REMARK H PARENT 19 6 9 17 3 23 3 24 24 30 83 49 51 60
REMARK Flexibility Score: inf
ROOT
ATOM      1  C   UNL A   1      31.924  30.714  26.265  1.00  0.00     0.023 C 
ENDROOT
BRANCH   1   2
ATOM      2  C   UNL A   1      32.698  29.885  27.287  1.00  0.00     0.116 C 
BRANCH   2   3
ATOM      3  N   UNL A   1      32.033  28.629  27.552  1.00  0.00    -0.356 N 
ATOM      4  C   UNL A   1      32.269  27.424  26.961  1.00  0.00     0.224 C 
ATOM      5  O   UNL A   1      31.451  26.518  27.124  1.00  0.00    -0.275 OA
ATOM      6  H   UNL A   1      31.328  28.645  28.240  1.00  0.00     0.163 HD
BRANCH   4   7
ATOM      7  C   UNL A   1      33.557  27.197  26.191  1.00  0.00     0.137 C 
BRANCH   7   8
ATOM      8  C   UNL A   1      33.408  26.728  24.760  1.00  0.00    -0.015 A 
ATOM      9  C   UNL A   1      33.116  25.411  24.350  1.00  0.00     0.044 A 
ATOM     10  C   UNL A   1      33.120  25.107  22.972  1.00  0.00     0.026 A 
ATOM     11  C   UNL A   1      33.332  26.089  22.006  1.00  0.00     0.002 A 
ATOM     12  C   UNL A   1      33.586  27.713  23.760  1.00  0.00     0.006 A 
ATOM     13  C   UNL A   1      33.544  27.399  22.400  1.00  0.00     0.000 A 
BRANCH   9  14
ATOM     14  N   UNL A   1      32.797  24.301  25.166  1.00  0.00    -0.325 N 
ATOM     15  C   UNL A   1      32.593  22.992  24.838  1.00  0.00     0.233 C 
ATOM     16  O   UNL A   1      31.427  22.589  24.756  1.00  0.00    -0.274 OA
ATOM     17  H   UNL A   1      32.707  24.505  26.124  1.00  0.00     0.169 HD
BRANCH  15  18
ATOM     18  C   UNL A   1      33.753  22.011  25.054  1.00  0.00     0.142 C 
ATOM     19  C   UNL A   1      32.563  19.694  24.468  1.00  0.00     0.076 C 
ATOM     20  C   UNL A   1      33.555  20.506  25.283  1.00  0.00     0.192 C 
ATOM     21  N   UNL A   1      33.442  20.292  26.737  1.00  0.00    -0.343 N 
ATOM     22  C   UNL A   1      33.750  21.561  27.400  1.00  0.00     0.261 C 
ATOM     23  H   UNL A   1      34.102  19.574  27.036  1.00  0.00     0.346 HD
ATOM     24  H   UNL A   1      32.500  19.982  26.980  1.00  0.00     0.346 HD
ATOM     25  C   UNL A   1      34.491  22.373  26.353  1.00  0.00     0.081 C 
ENDBRANCH  15  18
ENDBRANCH   9  14
ENDBRANCH   7   8
ENDBRANCH   4   7
ENDBRANCH   2   3
ENDBRANCH   1   2
BRANCH   1  26
ATOM     26  C   UNL A   1      31.541  32.104  26.767  1.00  0.00     0.023 C 
BRANCH  26  27
ATOM     27  C   UNL A   1      32.685  32.856  27.427  1.00  0.00     0.116 C 
BRANCH  27  28
ATOM     28  N   UNL A   1      32.358  34.246  27.695  1.00  0.00    -0.352 N 
ATOM     29  C   UNL A   1      32.931  35.079  28.627  1.00  0.00     0.251 C 
ATOM     30  H   UNL A   1      31.641  34.638  27.145  1.00  0.00     0.163 HD
ATOM     31  O   UNL A   1      32.477  36.186  28.855  1.00  0.00    -0.269 OA
BRANCH  29  32
ATOM     32  C   UNL A   1      34.098  34.575  29.379  1.00  0.00     0.039 A 
ATOM     33  C   UNL A   1      33.890  33.980  30.623  1.00  0.00     0.014 A 
ATOM     34  C   UNL A   1      35.374  34.633  28.814  1.00  0.00     0.014 A 
ATOM     35  C   UNL A   1      34.965  33.392  31.286  1.00  0.00     0.010 A 
ATOM     36  C   UNL A   1      36.432  33.989  29.444  1.00  0.00     0.010 A 
ATOM     37  C   UNL A   1      36.237  33.368  30.688  1.00  0.00    -0.014 A 
BRANCH  37  38
ATOM     38  C   UNL A   1      37.382  32.709  31.357  1.00  0.00     0.031 A 
ATOM     39  C   UNL A   1      38.067  31.549  30.695  1.00  0.00     0.074 A 
ATOM     40  C   UNL A   1      37.753  33.110  32.588  1.00  0.00     0.049 A 
ATOM     41  N   UNL A   1      39.046  30.803  31.139  1.00  0.00    -0.248 NA
ATOM     42  C   UNL A   1      37.565  31.156  29.368  1.00  0.00     0.031 C 
ATOM     43  C   UNL A   1      37.115  34.178  33.358  1.00  0.00     0.029 A 
ATOM     44  N   UNL A   1      38.749  32.653  33.414  1.00  0.00    -0.354 N 
ATOM     45  C   UNL A   1      39.258  29.840  30.161  1.00  0.00     0.074 A 
ATOM     46  C   UNL A   1      38.279  30.067  29.121  1.00  0.00     0.031 C 
ATOM     47  C   UNL A   1      37.744  34.305  34.539  1.00  0.00     0.029 A 
ATOM     48  C   UNL A   1      38.812  33.312  34.617  1.00  0.00     0.049 A 
ATOM     49  H   UNL A   1      39.361  31.923  33.166  1.00  0.00     0.167 HD
ATOM     50  C   UNL A   1      40.199  28.869  30.126  1.00  0.00     0.037 A 
ATOM     51  C   UNL A   1      39.638  33.131  35.663  1.00  0.00     0.037 A 
ATOM     52  C   UNL A   1      41.200  28.680  31.142  1.00  0.00     0.049 A 
ATOM     53  C   UNL A   1      40.708  32.076  35.577  1.00  0.00     0.074 A 
ATOM     54  C   UNL A   1      42.258  27.789  31.156  1.00  0.00     0.029 A 
ATOM     55  N   UNL A   1      41.267  29.402  32.325  1.00  0.00    -0.354 N 
ATOM     56  N   UNL A   1      40.958  31.232  34.607  1.00  0.00    -0.248 NA
ATOM     57  C   UNL A   1      41.618  31.960  36.724  1.00  0.00     0.031 C 
ATOM     58  C   UNL A   1      42.944  27.946  32.365  1.00  0.00     0.029 A 
ATOM     59  C   UNL A   1      42.337  28.962  33.086  1.00  0.00     0.049 A 
ATOM     60  H   UNL A   1      40.645  30.120  32.585  1.00  0.00     0.167 HD
ATOM     61  C   UNL A   1      42.065  30.500  35.014  1.00  0.00     0.074 A 
ATOM     62  C   UNL A   1      42.449  31.012  36.314  1.00  0.00     0.031 C 
ATOM     63  C   UNL A   1      42.705  29.492  34.373  1.00  0.00     0.037 A 
BRANCH  50  64
ATOM     64  C   UNL A   1      40.200  27.943  28.949  1.00  0.00     0.064 A 
ATOM     65  C   UNL A   1      40.912  28.243  27.777  1.00  0.00     0.173 A 
ATOM     66  C   UNL A   1      39.510  26.724  29.004  1.00  0.00     0.173 A 
ATOM     67  F   UNL A   1      41.577  29.403  27.670  1.00  0.00    -0.203 F 
ATOM     68  C   UNL A   1      40.915  27.366  26.697  1.00  0.00     0.198 A 
ATOM     69  C   UNL A   1      39.537  25.836  27.931  1.00  0.00     0.198 A 
ATOM     70  F   UNL A   1      38.815  26.388  30.100  1.00  0.00    -0.203 F 
ATOM     71  F   UNL A   1      41.569  27.692  25.573  1.00  0.00    -0.200 F 
ATOM     72  C   UNL A   1      40.234  26.160  26.776  1.00  0.00     0.200 A 
ATOM     73  F   UNL A   1      38.886  24.667  28.013  1.00  0.00    -0.200 F 
ATOM     74  F   UNL A   1      40.244  25.313  25.738  1.00  0.00    -0.200 F 
ENDBRANCH  50  64
BRANCH  51  75
ATOM     75  C   UNL A   1      39.505  33.985  36.871  1.00  0.00     0.064 A 
ATOM     76  C   UNL A   1      38.783  33.544  37.988  1.00  0.00     0.173 A 
ATOM     77  C   UNL A   1      40.090  35.258  36.931  1.00  0.00     0.173 A 
ATOM     78  F   UNL A   1      38.189  32.342  37.969  1.00  0.00    -0.203 F 
ATOM     79  C   UNL A   1      38.631  34.353  39.112  1.00  0.00     0.198 A 
ATOM     80  C   UNL A   1      39.959  36.056  38.066  1.00  0.00     0.198 A 
ATOM     81  F   UNL A   1      40.797  35.723  35.891  1.00  0.00    -0.203 F 
ATOM     82  F   UNL A   1      37.898  33.924  40.149  1.00  0.00    -0.200 F 
ATOM     83  C   UNL A   1      39.223  35.606  39.153  1.00  0.00     0.200 A 
ATOM     84  F   UNL A   1      40.542  37.262  38.106  1.00  0.00    -0.200 F 
ATOM     85  F   UNL A   1      39.077  36.383  40.235  1.00  0.00    -0.200 F 
ENDBRANCH  51  75
BRANCH  63  86
ATOM     86  C   UNL A   1      43.900  28.896  35.055  1.00  0.00     0.064 A 
ATOM     87  C   UNL A   1      43.781  27.780  35.896  1.00  0.00     0.173 A 
ATOM     88  C   UNL A   1      45.181  29.421  34.829  1.00  0.00     0.173 A 
ATOM     89  F   UNL A   1      42.575  27.254  36.153  1.00  0.00    -0.203 F 
ATOM     90  C   UNL A   1      44.902  27.225  36.506  1.00  0.00     0.198 A 
ATOM     91  C   UNL A   1      46.302  28.847  35.420  1.00  0.00     0.198 A 
ATOM     92  F   UNL A   1      45.344  30.484  34.028  1.00  0.00    -0.203 F 
ATOM     93  F   UNL A   1      44.763  26.185  37.340  1.00  0.00    -0.200 F 
ATOM     94  C   UNL A   1      46.161  27.753  36.262  1.00  0.00     0.200 A 
ATOM     95  F   UNL A   1      47.520  29.350  35.175  1.00  0.00    -0.200 F 
ATOM     96  F   UNL A   1      47.240  27.213  36.845  1.00  0.00    -0.200 F 
ENDBRANCH  63  86
ENDBRANCH  37  38
ENDBRANCH  29  32
ENDBRANCH  27  28
ENDBRANCH  26  27
ENDBRANCH   1  26
TORSDOF 14
ENDMDL
MODEL 3
REMARK VINA RESULT:     -12.4      0.943      7.389
REMARK SMILES C[C@@H]1[NH2+]CC[C@@H]1C(=O)Nc1ccccc1CC(=O)NCCCCNC(=O)c1ccc(-c2c3nc(c(-c4c(F)c(F)c(F)c(F)c4F)c4ccc([nH]4)c(-c4c(F)c(F)c(F)c(F)c4F)c4nc(c(-c5c(F)c(F)c(F)c(F)c5F)c5ccc2[nH]5)C=C4)C=C3)cc1
REMARK SMILES IDX 21 1 20 2 19 3 17 4 18 5 16 7 15 8 10 9 11 10 12 11 14 12
REMARK SMILES IDX 13 13 9 14 7 15 8 16 6 18 1 19 2 20 3 21 4 22 5 25 22 26
REMARK SMILES IDX 23 27 24 28 25 29 26 31 27 32 28 33 89 34 29 35 88 36 30 37
REMARK SMILES IDX 31 38 32 39 82 40 33 41 87 42 81 43 83 44 34 45 86 46 80 47
REMARK SMILES IDX 79 48 35 50 67 51 47 52 66 53 48 54 51 55 65 56 84 57 49 58
REMARK SMILES IDX 50 59 64 61 85 62 52 63 36 64 37 65 45 66 38 67 39 68 43 69
REMARK SMILES IDX 46 70 40 71 41 72 44 73 42 74 68 75 69 76 77 77 70 78 71 79
REMARK SMILES IDX 75 80 78 81 72 82 73 83 76 84 74 85 53 86 54 87 62 88 55 89
REMARK SMILES IDX 56 90 60 91 63 92 57 93 58 94 61 95 59 96
REMARK H PARENT 19 6 9 17 3 23 3 24 24 30 83 49 51 60
REMARK Flexibility Score: inf
ROOT
ATOM      1  C   UNL A   1      31.987  30.720  26.305  1.00  0.00     0.023 C 
ENDROOT
BRANCH   1   2
ATOM      2  C   UNL A   1      32.736  29.882  27.338  1.00  0.00     0.116 C 
BRANCH   2   3
ATOM      3  N   UNL A   1      32.064  28.625  27.577  1.00  0.00    -0.356 N 
ATOM      4  C   UNL A   1      32.295  27.430  26.964  1.00  0.00     0.224 C 
ATOM      5  O   UNL A   1      31.472  26.525  27.108  1.00  0.00    -0.275 OA
ATOM      6  H   UNL A   1      31.357  28.632  28.264  1.00  0.00     0.163 HD
BRANCH   4   7
ATOM      7  C   UNL A   1      33.584  27.211  26.193  1.00  0.00     0.137 C 
BRANCH   7   8
ATOM      8  C   UNL A   1      33.436  26.756  24.758  1.00  0.00    -0.015 A 
ATOM      9  C   UNL A   1      33.130  25.446  24.335  1.00  0.00     0.044 A 
ATOM     10  C   UNL A   1      33.137  25.154  22.955  1.00  0.00     0.026 A 
ATOM     11  C   UNL A   1      33.367  26.140  21.998  1.00  0.00     0.002 A 
ATOM     12  C   UNL A   1      33.633  27.747  23.767  1.00  0.00     0.006 A 
ATOM     13  C   UNL A   1      33.594  27.445  22.404  1.00  0.00     0.000 A 
BRANCH   9  14
ATOM     14  N   UNL A   1      32.792  24.334  25.140  1.00  0.00    -0.325 N 
ATOM     15  C   UNL A   1      32.633  23.019  24.810  1.00  0.00     0.233 C 
ATOM     16  O   UNL A   1      31.482  22.591  24.670  1.00  0.00    -0.274 OA
ATOM     17  H   UNL A   1      32.648  24.540  26.091  1.00  0.00     0.169 HD
BRANCH  15  18
ATOM     18  C   UNL A   1      33.801  22.064  25.092  1.00  0.00     0.142 C 
ATOM     19  C   UNL A   1      32.665  19.711  24.546  1.00  0.00     0.076 C 
ATOM     20  C   UNL A   1      33.619  20.564  25.363  1.00  0.00     0.192 C 
ATOM     21  N   UNL A   1      33.465  20.394  26.820  1.00  0.00    -0.343 N 
ATOM     22  C   UNL A   1      33.733  21.689  27.450  1.00  0.00     0.261 C 
ATOM     23  H   UNL A   1      34.126  19.697  27.161  1.00  0.00     0.346 HD
ATOM     24  H   UNL A   1      32.521  20.077  27.045  1.00  0.00     0.346 HD
ATOM     25  C   UNL A   1      34.494  22.479  26.400  1.00  0.00     0.081 C 
ENDBRANCH  15  18
ENDBRANCH   9  14
ENDBRANCH   7   8
ENDBRANCH   4   7
ENDBRANCH   2   3
ENDBRANCH   1   2
BRANCH   1  26
ATOM     26  C   UNL A   1      31.613  32.114  26.802  1.00  0.00     0.023 C 
BRANCH  26  27
ATOM     27  C   UNL A   1      32.772  32.878  27.420  1.00  0.00     0.116 C 
BRANCH  27  28
ATOM     28  N   UNL A   1      32.444  34.270  27.684  1.00  0.00    -0.352 N 
ATOM     29  C   UNL A   1      33.005  35.099  28.627  1.00  0.00     0.251 C 
ATOM     30  H   UNL A   1      31.739  34.665  27.122  1.00  0.00     0.163 HD
ATOM     31  O   UNL A   1      32.550  36.208  28.848  1.00  0.00    -0.269 OA
BRANCH  29  32
ATOM     32  C   UNL A   1      34.156  34.590  29.397  1.00  0.00     0.039 A 
ATOM     33  C   UNL A   1      33.922  33.966  30.623  1.00  0.00     0.014 A 
ATOM     34  C   UNL A   1      35.447  34.674  28.868  1.00  0.00     0.014 A 
ATOM     35  C   UNL A   1      34.986  33.373  31.301  1.00  0.00     0.010 A 
ATOM     36  C   UNL A   1      36.494  34.026  29.511  1.00  0.00     0.010 A 
ATOM     37  C   UNL A   1      36.273  33.375  30.736  1.00  0.00    -0.014 A 
BRANCH  37  38
ATOM     38  C   UNL A   1      37.408  32.713  31.420  1.00  0.00     0.031 A 
ATOM     39  C   UNL A   1      38.104  31.557  30.763  1.00  0.00     0.074 A 
ATOM     40  C   UNL A   1      37.758  33.109  32.659  1.00  0.00     0.049 A 
ATOM     41  N   UNL A   1      39.075  30.809  31.220  1.00  0.00    -0.248 NA
ATOM     42  C   UNL A   1      37.623  31.170  29.427  1.00  0.00     0.031 C 
ATOM     43  C   UNL A   1      37.108  34.173  33.424  1.00  0.00     0.029 A 
ATOM     44  N   UNL A   1      38.741  32.647  33.499  1.00  0.00    -0.354 N 
ATOM     45  C   UNL A   1      39.302  29.850  30.241  1.00  0.00     0.074 A 
ATOM     46  C   UNL A   1      38.341  30.082  29.186  1.00  0.00     0.031 C 
ATOM     47  C   UNL A   1      37.717  34.293  34.615  1.00  0.00     0.029 A 
ATOM     48  C   UNL A   1      38.784  33.300  34.706  1.00  0.00     0.049 A 
ATOM     49  H   UNL A   1      39.357  31.918  33.257  1.00  0.00     0.167 HD
ATOM     50  C   UNL A   1      40.244  28.879  30.217  1.00  0.00     0.037 A 
ATOM     51  C   UNL A   1      39.593  33.114  35.765  1.00  0.00     0.037 A 
ATOM     52  C   UNL A   1      41.228  28.685  31.248  1.00  0.00     0.049 A 
ATOM     53  C   UNL A   1      40.664  32.059  35.691  1.00  0.00     0.074 A 
ATOM     54  C   UNL A   1      42.285  27.794  31.275  1.00  0.00     0.029 A 
ATOM     55  N   UNL A   1      41.276  29.401  32.435  1.00  0.00    -0.354 N 
ATOM     56  N   UNL A   1      40.930  31.220  34.720  1.00  0.00    -0.248 NA
ATOM     57  C   UNL A   1      41.555  31.937  36.852  1.00  0.00     0.031 C 
ATOM     58  C   UNL A   1      42.952  27.945  32.496  1.00  0.00     0.029 A 
ATOM     59  C   UNL A   1      42.333  28.957  33.211  1.00  0.00     0.049 A 
ATOM     60  H   UNL A   1      40.650  30.118  32.689  1.00  0.00     0.167 HD
ATOM     61  C   UNL A   1      42.030  30.486  35.142  1.00  0.00     0.074 A 
ATOM     62  C   UNL A   1      42.393  30.992  36.450  1.00  0.00     0.031 C 
ATOM     63  C   UNL A   1      42.680  29.481  34.506  1.00  0.00     0.037 A 
BRANCH  50  64
ATOM     64  C   UNL A   1      40.264  27.959  29.034  1.00  0.00     0.064 A 
ATOM     65  C   UNL A   1      39.549  26.751  29.031  1.00  0.00     0.173 A 
ATOM     66  C   UNL A   1      40.975  28.305  27.877  1.00  0.00     0.173 A 
ATOM     67  F   UNL A   1      38.865  26.369  30.120  1.00  0.00    -0.203 F 
ATOM     68  C   UNL A   1      39.564  25.913  27.920  1.00  0.00     0.198 A 
ATOM     69  C   UNL A   1      40.967  27.477  26.757  1.00  0.00     0.198 A 
ATOM     70  F   UNL A   1      41.673  29.449  27.827  1.00  0.00    -0.203 F 
ATOM     71  F   UNL A   1      38.909  24.745  27.954  1.00  0.00    -0.200 F 
ATOM     72  C   UNL A   1      40.267  26.280  26.781  1.00  0.00     0.200 A 
ATOM     73  F   UNL A   1      41.638  27.837  25.653  1.00  0.00    -0.200 F 
ATOM     74  F   UNL A   1      40.274  25.476  25.709  1.00  0.00    -0.200 F 
ENDBRANCH  50  64
BRANCH  51  75
ATOM     75  C   UNL A   1      39.440  33.962  36.974  1.00  0.00     0.064 A 
ATOM     76  C   UNL A   1      40.041  35.226  37.047  1.00  0.00     0.173 A 
ATOM     77  C   UNL A   1      38.699  33.526  38.081  1.00  0.00     0.173 A 
ATOM     78  F   UNL A   1      40.777  35.677  36.020  1.00  0.00    -0.203 F 
ATOM     79  C   UNL A   1      39.925  36.013  38.190  1.00  0.00     0.198 A 
ATOM     80  C   UNL A   1      38.563  34.325  39.215  1.00  0.00     0.198 A 
ATOM     81  F   UNL A   1      38.099  32.327  38.059  1.00  0.00    -0.203 F 
ATOM     82  F   UNL A   1      40.547  37.199  38.249  1.00  0.00    -0.200 F 
ATOM     83  C   UNL A   1      39.182  35.566  39.271  1.00  0.00     0.200 A 
ATOM     84  F   UNL A   1      37.834  33.894  40.253  1.00  0.00    -0.200 F 
ATOM     85  F   UNL A   1      39.071  36.324  40.370  1.00  0.00    -0.200 F 
ENDBRANCH  51  75
BRANCH  63  86
ATOM     86  C   UNL A   1      43.864  28.881  35.205  1.00  0.00     0.064 A 
ATOM     87  C   UNL A   1      45.160  29.376  35.004  1.00  0.00     0.173 A 
ATOM     88  C   UNL A   1      43.691  27.828  36.116  1.00  0.00     0.173 A 
ATOM     89  F   UNL A   1      45.375  30.371  34.132  1.00  0.00    -0.203 F 
ATOM     90  C   UNL A   1      46.246  28.822  35.676  1.00  0.00     0.198 A 
ATOM     91  C   UNL A   1      44.776  27.294  36.805  1.00  0.00     0.198 A 
ATOM     92  F   UNL A   1      42.469  27.326  36.345  1.00  0.00    -0.203 F 
ATOM     93  F   UNL A   1      47.483  29.280  35.438  1.00  0.00    -0.200 F 
ATOM     94  C   UNL A   1      46.053  27.788  36.580  1.00  0.00     0.200 A 
ATOM     95  F   UNL A   1      44.587  26.303  37.687  1.00  0.00    -0.200 F 
ATOM     96  F   UNL A   1      47.099  27.260  37.230  1.00  0.00    -0.200 F 
ENDBRANCH  63  86
ENDBRANCH  37  38
ENDBRANCH  29  32
ENDBRANCH  27  28
ENDBRANCH  26  27
ENDBRANCH   1  26
TORSDOF 14
ENDMDL
