MODEL 1
REMARK VINA RESULT:     -11.9      0.000      0.000
REMARK SMILES Cc1[nH]c2ccccc2c1CC(=O)N(C)CCCC(=O)NCCCCNC(=O)c1ccc(-c2c3nc(c(-c4c(F)c(F)c(F)c(F)c4F)c4ccc([nH]4)c(-c4c(F)c(F)c(F)c(F)c4F)c4nc(c(-c5c(F)c(F)c(F)c(F)c5F)c5ccc2[nH]5)C=C4)C=C3)cc1
REMARK SMILES IDX 19 1 20 2 21 3 18 5 17 6 16 7 14 8 15 9 12 10 13 11 11 12
REMARK SMILES IDX 10 13 1 14 2 15 3 16 4 17 9 19 5 20 8 21 6 22 7 23 22 24
REMARK SMILES IDX 23 25 24 26 25 27 26 28 27 29 28 31 29 32 30 33 91 34 31 35
REMARK SMILES IDX 90 36 32 37 33 38 34 39 84 40 35 41 89 42 83 43 85 44 36 45
REMARK SMILES IDX 88 46 82 47 81 48 37 50 69 51 49 52 68 53 50 54 53 55 67 56
REMARK SMILES IDX 86 57 51 58 52 59 66 61 87 62 54 63 38 64 39 65 47 66 40 67
REMARK SMILES IDX 41 68 45 69 48 70 42 71 43 72 46 73 44 74 70 75 71 76 79 77
REMARK SMILES IDX 72 78 73 79 77 80 80 81 74 82 75 83 78 84 76 85 55 86 56 87
REMARK SMILES IDX 64 88 57 89 58 90 62 91 65 92 59 93 60 94 63 95 61 96
REMARK H PARENT 21 4 3 18 26 30 85 49 53 60
REMARK Flexibility Score: inf
ROOT
ATOM      1  C   UNL A   1      33.770  28.165  24.711  1.00  0.00     0.220 C 
ATOM      2  O   UNL A   1      33.943  28.215  23.490  1.00  0.00    -0.275 OA
ATOM      3  N   UNL A   1      33.907  29.330  25.397  1.00  0.00    -0.356 N 
ATOM      4  H   UNL A   1      34.093  30.116  24.834  1.00  0.00     0.163 HD
ENDROOT
BRANCH   1   5
ATOM      5  C   UNL A   1      33.331  26.867  25.369  1.00  0.00     0.102 C 
BRANCH   5   6
ATOM      6  C   UNL A   1      34.153  25.588  25.180  1.00  0.00     0.031 C 
BRANCH   6   7
ATOM      7  C   UNL A   1      34.186  24.465  26.221  1.00  0.00     0.119 C 
BRANCH   7   8
ATOM      8  N   UNL A   1      33.199  23.367  26.251  1.00  0.00    -0.345 N 
ATOM      9  C   UNL A   1      33.799  22.036  26.243  1.00  0.00     0.146 C 
BRANCH   8  10
ATOM     10  C   UNL A   1      31.823  23.547  26.384  1.00  0.00     0.226 C 
ATOM     11  O   UNL A   1      31.296  24.022  27.390  1.00  0.00    -0.275 OA
BRANCH  10  12
ATOM     12  C   UNL A   1      30.889  23.137  25.252  1.00  0.00     0.138 C 
BRANCH  12  13
ATOM     13  C   UNL A   1      31.199  23.876  23.991  1.00  0.00    -0.010 A 
ATOM     14  C   UNL A   1      32.681  22.147  22.699  1.00  0.00     0.064 C 
ATOM     15  C   UNL A   1      31.981  23.437  22.934  1.00  0.00     0.016 A 
ATOM     16  N   UNL A   1      32.067  24.468  22.030  1.00  0.00    -0.358 N 
ATOM     17  C   UNL A   1      31.359  25.561  22.469  1.00  0.00     0.046 A 
ATOM     18  H   UNL A   1      32.568  24.428  21.184  1.00  0.00     0.166 HD
ATOM     19  C   UNL A   1      30.756  25.204  23.671  1.00  0.00     0.003 A 
ATOM     20  C   UNL A   1      31.205  26.829  21.897  1.00  0.00     0.026 A 
ATOM     21  C   UNL A   1      29.929  26.148  24.316  1.00  0.00     0.010 A 
ATOM     22  C   UNL A   1      30.403  27.756  22.571  1.00  0.00     0.002 A 
ATOM     23  C   UNL A   1      29.764  27.420  23.760  1.00  0.00     0.001 A 
ENDBRANCH  12  13
ENDBRANCH  10  12
ENDBRANCH   8  10
ENDBRANCH   7   8
ENDBRANCH   6   7
ENDBRANCH   5   6
ENDBRANCH   1   5
BRANCH   3  24
ATOM     24  C   UNL A   1      33.825  29.608  26.811  1.00  0.00     0.116 C 
BRANCH  24  25
ATOM     25  C   UNL A   1      32.415  30.063  27.197  1.00  0.00     0.023 C 
BRANCH  25  26
ATOM     26  C   UNL A   1      32.122  31.514  26.849  1.00  0.00     0.023 C 
BRANCH  26  27
ATOM     27  C   UNL A   1      33.120  32.500  27.439  1.00  0.00     0.116 C 
BRANCH  27  28
ATOM     28  N   UNL A   1      32.576  33.837  27.644  1.00  0.00    -0.352 N 
ATOM     29  C   UNL A   1      33.004  34.802  28.535  1.00  0.00     0.251 C 
ATOM     30  H   UNL A   1      31.810  34.083  27.077  1.00  0.00     0.163 HD
ATOM     31  O   UNL A   1      32.419  35.861  28.654  1.00  0.00    -0.269 OA
BRANCH  29  32
ATOM     32  C   UNL A   1      34.170  34.483  29.387  1.00  0.00     0.039 A 
ATOM     33  C   UNL A   1      33.952  33.927  30.648  1.00  0.00     0.014 A 
ATOM     34  C   UNL A   1      35.464  34.612  28.874  1.00  0.00     0.014 A 
ATOM     35  C   UNL A   1      35.034  33.406  31.359  1.00  0.00     0.010 A 
ATOM     36  C   UNL A   1      36.522  34.012  29.543  1.00  0.00     0.010 A 
ATOM     37  C   UNL A   1      36.317  33.396  30.787  1.00  0.00    -0.014 A 
BRANCH  37  38
ATOM     38  C   UNL A   1      37.462  32.738  31.466  1.00  0.00     0.031 A 
ATOM     39  C   UNL A   1      38.157  31.581  30.806  1.00  0.00     0.074 A 
ATOM     40  C   UNL A   1      37.816  33.120  32.709  1.00  0.00     0.049 A 
ATOM     41  N   UNL A   1      39.112  30.814  31.268  1.00  0.00    -0.248 NA
ATOM     42  C   UNL A   1      37.691  31.213  29.460  1.00  0.00     0.031 C 
ATOM     43  C   UNL A   1      37.176  34.183  33.486  1.00  0.00     0.029 A 
ATOM     44  N   UNL A   1      38.798  32.647  33.544  1.00  0.00    -0.354 N 
ATOM     45  C   UNL A   1      39.340  29.864  30.282  1.00  0.00     0.074 A 
ATOM     46  C   UNL A   1      38.387  30.112  29.223  1.00  0.00     0.031 C 
ATOM     47  C   UNL A   1      37.797  34.299  34.670  1.00  0.00     0.029 A 
ATOM     48  C   UNL A   1      38.857  33.299  34.753  1.00  0.00     0.049 A 
ATOM     49  H   UNL A   1      39.403  31.909  33.300  1.00  0.00     0.167 HD
ATOM     50  C   UNL A   1      40.278  28.890  30.250  1.00  0.00     0.037 A 
ATOM     51  C   UNL A   1      39.674  33.108  35.806  1.00  0.00     0.037 A 
ATOM     52  C   UNL A   1      41.254  28.672  31.284  1.00  0.00     0.049 A 
ATOM     53  C   UNL A   1      40.726  32.036  35.734  1.00  0.00     0.074 A 
ATOM     54  C   UNL A   1      42.296  27.763  31.310  1.00  0.00     0.029 A 
ATOM     55  N   UNL A   1      41.306  29.378  32.477  1.00  0.00    -0.354 N 
ATOM     56  N   UNL A   1      40.984  31.193  34.763  1.00  0.00    -0.248 NA
ATOM     57  C   UNL A   1      41.606  31.891  36.902  1.00  0.00     0.031 C 
ATOM     58  C   UNL A   1      42.959  27.895  32.535  1.00  0.00     0.029 A 
ATOM     59  C   UNL A   1      42.354  28.913  33.254  1.00  0.00     0.049 A 
ATOM     60  H   UNL A   1      40.690  30.102  32.733  1.00  0.00     0.167 HD
ATOM     61  C   UNL A   1      42.067  30.437  35.191  1.00  0.00     0.074 A 
ATOM     62  C   UNL A   1      42.429  30.931  36.503  1.00  0.00     0.031 C 
ATOM     63  C   UNL A   1      42.704  29.424  34.555  1.00  0.00     0.037 A 
BRANCH  50  64
ATOM     64  C   UNL A   1      40.301  27.995  29.045  1.00  0.00     0.064 A 
ATOM     65  C   UNL A   1      39.582  26.790  29.013  1.00  0.00     0.173 A 
ATOM     66  C   UNL A   1      41.035  28.353  27.905  1.00  0.00     0.173 A 
ATOM     67  F   UNL A   1      38.877  26.396  30.083  1.00  0.00    -0.203 F 
ATOM     68  C   UNL A   1      39.625  25.960  27.895  1.00  0.00     0.198 A 
ATOM     69  C   UNL A   1      41.051  27.536  26.778  1.00  0.00     0.198 A 
ATOM     70  F   UNL A   1      41.738  29.496  27.883  1.00  0.00    -0.203 F 
ATOM     71  F   UNL A   1      38.975  24.789  27.909  1.00  0.00    -0.200 F 
ATOM     72  C   UNL A   1      40.353  26.336  26.777  1.00  0.00     0.200 A 
ATOM     73  F   UNL A   1      41.747  27.904  25.694  1.00  0.00    -0.200 F 
ATOM     74  F   UNL A   1      40.391  25.538  25.702  1.00  0.00    -0.200 F 
ENDBRANCH  50  64
BRANCH  51  75
ATOM     75  C   UNL A   1      39.555  33.976  37.006  1.00  0.00     0.064 A 
ATOM     76  C   UNL A   1      40.195  35.223  37.054  1.00  0.00     0.173 A 
ATOM     77  C   UNL A   1      38.808  33.582  38.126  1.00  0.00     0.173 A 
ATOM     78  F   UNL A   1      40.937  35.634  36.015  1.00  0.00    -0.203 F 
ATOM     79  C   UNL A   1      40.110  36.033  38.185  1.00  0.00     0.198 A 
ATOM     80  C   UNL A   1      38.704  34.404  39.246  1.00  0.00     0.198 A 
ATOM     81  F   UNL A   1      38.174  32.401  38.128  1.00  0.00    -0.203 F 
ATOM     82  F   UNL A   1      40.767  37.200  38.219  1.00  0.00    -0.200 F 
ATOM     83  C   UNL A   1      39.360  35.626  39.277  1.00  0.00     0.200 A 
ATOM     84  F   UNL A   1      37.969  34.013  40.295  1.00  0.00    -0.200 F 
ATOM     85  F   UNL A   1      39.276  36.407  40.363  1.00  0.00    -0.200 F 
ENDBRANCH  51  75
BRANCH  63  86
ATOM     86  C   UNL A   1      43.874  28.801  35.255  1.00  0.00     0.064 A 
ATOM     87  C   UNL A   1      45.182  29.264  35.054  1.00  0.00     0.173 A 
ATOM     88  C   UNL A   1      43.678  27.757  36.172  1.00  0.00     0.173 A 
ATOM     89  F   UNL A   1      45.421  30.250  34.175  1.00  0.00    -0.203 F 
ATOM     90  C   UNL A   1      46.254  28.692  35.730  1.00  0.00     0.198 A 
ATOM     91  C   UNL A   1      44.750  27.205  36.867  1.00  0.00     0.198 A 
ATOM     92  F   UNL A   1      42.445  27.281  36.402  1.00  0.00    -0.203 F 
ATOM     93  F   UNL A   1      47.501  29.122  35.494  1.00  0.00    -0.200 F 
ATOM     94  C   UNL A   1      46.038  27.668  36.641  1.00  0.00     0.200 A 
ATOM     95  F   UNL A   1      44.537  26.224  37.755  1.00  0.00    -0.200 F 
ATOM     96  F   UNL A   1      47.071  27.124  37.298  1.00  0.00    -0.200 F 
ENDBRANCH  63  86
ENDBRANCH  37  38
ENDBRANCH  29  32
ENDBRANCH  27  28
ENDBRANCH  26  27
ENDBRANCH  25  26
ENDBRANCH  24  25
ENDBRANCH   3  24
TORSDOF 17
ENDMDL
MODEL 2
REMARK VINA RESULT:     -11.6      1.954      7.740
REMARK SMILES Cc1[nH]c2ccccc2c1CC(=O)N(C)CCCC(=O)NCCCCNC(=O)c1ccc(-c2c3nc(c(-c4c(F)c(F)c(F)c(F)c4F)c4ccc([nH]4)c(-c4c(F)c(F)c(F)c(F)c4F)c4nc(c(-c5c(F)c(F)c(F)c(F)c5F)c5ccc2[nH]5)C=C4)C=C3)cc1
REMARK SMILES IDX 19 1 20 2 21 3 18 5 17 6 16 7 14 8 15 9 12 10 13 11 11 12
REMARK SMILES IDX 10 13 1 14 2 15 3 16 4 17 9 19 5 20 8 21 6 22 7 23 22 24
REMARK SMILES IDX 23 25 24 26 25 27 26 28 27 29 28 31 29 32 30 33 91 34 31 35
REMARK SMILES IDX 90 36 32 37 33 38 34 39 84 40 35 41 89 42 83 43 85 44 36 45
REMARK SMILES IDX 88 46 82 47 81 48 37 50 69 51 49 52 68 53 50 54 53 55 67 56
REMARK SMILES IDX 86 57 51 58 52 59 66 61 87 62 54 63 38 64 39 65 47 66 40 67
REMARK SMILES IDX 41 68 45 69 48 70 42 71 43 72 46 73 44 74 70 75 71 76 79 77
REMARK SMILES IDX 72 78 73 79 77 80 80 81 74 82 75 83 78 84 76 85 55 86 56 87
REMARK SMILES IDX 64 88 57 89 58 90 62 91 65 92 59 93 60 94 63 95 61 96
REMARK H PARENT 21 4 3 18 26 30 85 49 53 60
REMARK Flexibility Score: inf
ROOT
ATOM      1  C   UNL A   1      36.144  30.236  27.640  1.00  0.00     0.220 C 
ATOM      2  O   UNL A   1      37.241  29.711  27.428  1.00  0.00    -0.275 OA
ATOM      3  N   UNL A   1      36.122  31.592  27.733  1.00  0.00    -0.356 N 
ATOM      4  H   UNL A   1      36.992  32.027  27.580  1.00  0.00     0.163 HD
ENDROOT
BRANCH   1   5
ATOM      5  C   UNL A   1      34.886  29.385  27.689  1.00  0.00     0.102 C 
BRANCH   5   6
ATOM      6  C   UNL A   1      34.257  28.859  26.396  1.00  0.00     0.031 C 
BRANCH   6   7
ATOM      7  C   UNL A   1      33.484  27.539  26.330  1.00  0.00     0.119 C 
BRANCH   7   8
ATOM      8  N   UNL A   1      32.013  27.462  26.448  1.00  0.00    -0.345 N 
ATOM      9  C   UNL A   1      31.442  28.458  27.350  1.00  0.00     0.146 C 
BRANCH   8  10
ATOM     10  C   UNL A   1      31.207  26.605  25.701  1.00  0.00     0.226 C 
ATOM     11  O   UNL A   1      30.250  25.991  26.174  1.00  0.00    -0.275 OA
BRANCH  10  12
ATOM     12  C   UNL A   1      31.499  26.383  24.222  1.00  0.00     0.138 C 
BRANCH  12  13
ATOM     13  C   UNL A   1      31.215  27.610  23.418  1.00  0.00    -0.010 A 
ATOM     14  C   UNL A   1      33.624  28.378  22.737  1.00  0.00     0.064 C 
ATOM     15  C   UNL A   1      32.142  28.448  22.817  1.00  0.00     0.016 A 
ATOM     16  N   UNL A   1      31.448  29.494  22.259  1.00  0.00    -0.358 N 
ATOM     17  C   UNL A   1      30.098  29.355  22.477  1.00  0.00     0.046 A 
ATOM     18  H   UNL A   1      31.862  30.241  21.770  1.00  0.00     0.166 HD
ATOM     19  C   UNL A   1      29.914  28.153  23.154  1.00  0.00     0.003 A 
ATOM     20  C   UNL A   1      29.033  30.194  22.127  1.00  0.00     0.026 A 
ATOM     21  C   UNL A   1      28.597  27.751  23.465  1.00  0.00     0.010 A 
ATOM     22  C   UNL A   1      27.741  29.786  22.474  1.00  0.00     0.002 A 
ATOM     23  C   UNL A   1      27.521  28.577  23.125  1.00  0.00     0.001 A 
ENDBRANCH  12  13
ENDBRANCH  10  12
ENDBRANCH   8  10
ENDBRANCH   7   8
ENDBRANCH   6   7
ENDBRANCH   5   6
ENDBRANCH   1   5
BRANCH   3  24
ATOM     24  C   UNL A   1      35.038  32.501  28.020  1.00  0.00     0.116 C 
BRANCH  24  25
ATOM     25  C   UNL A   1      35.572  33.863  28.470  1.00  0.00     0.023 C 
BRANCH  25  26
ATOM     26  C   UNL A   1      34.483  34.892  28.733  1.00  0.00     0.023 C 
BRANCH  26  27
ATOM     27  C   UNL A   1      33.278  34.334  29.477  1.00  0.00     0.116 C 
BRANCH  27  28
ATOM     28  N   UNL A   1      32.568  35.325  30.276  1.00  0.00    -0.352 N 
ATOM     29  C   UNL A   1      32.818  35.705  31.579  1.00  0.00     0.251 C 
ATOM     30  H   UNL A   1      31.817  35.781  29.831  1.00  0.00     0.163 HD
ATOM     31  O   UNL A   1      32.106  36.503  32.157  1.00  0.00    -0.269 OA
BRANCH  29  32
ATOM     32  C   UNL A   1      33.956  35.065  32.275  1.00  0.00     0.039 A 
ATOM     33  C   UNL A   1      33.784  33.789  32.814  1.00  0.00     0.014 A 
ATOM     34  C   UNL A   1      35.212  35.677  32.267  1.00  0.00     0.014 A 
ATOM     35  C   UNL A   1      34.902  33.082  33.259  1.00  0.00     0.010 A 
ATOM     36  C   UNL A   1      36.330  34.936  32.626  1.00  0.00     0.010 A 
ATOM     37  C   UNL A   1      36.188  33.629  33.117  1.00  0.00    -0.014 A 
BRANCH  37  38
ATOM     38  C   UNL A   1      37.403  32.851  33.466  1.00  0.00     0.031 A 
ATOM     39  C   UNL A   1      38.131  33.138  34.749  1.00  0.00     0.074 A 
ATOM     40  C   UNL A   1      37.900  31.953  32.592  1.00  0.00     0.049 A 
ATOM     41  N   UNL A   1      39.256  32.638  35.193  1.00  0.00    -0.248 NA
ATOM     42  C   UNL A   1      37.534  34.150  35.633  1.00  0.00     0.031 C 
ATOM     43  C   UNL A   1      37.326  31.634  31.284  1.00  0.00     0.029 A 
ATOM     44  N   UNL A   1      39.012  31.152  32.669  1.00  0.00    -0.354 N 
ATOM     45  C   UNL A   1      39.510  33.291  36.391  1.00  0.00     0.074 A 
ATOM     46  C   UNL A   1      38.456  34.264  36.577  1.00  0.00     0.031 C 
ATOM     47  C   UNL A   1      38.073  30.687  30.694  1.00  0.00     0.029 A 
ATOM     48  C   UNL A   1      39.197  30.355  31.564  1.00  0.00     0.049 A 
ATOM     49  H   UNL A   1      39.621  31.148  33.443  1.00  0.00     0.167 HD
ATOM     50  C   UNL A   1      40.515  33.080  37.272  1.00  0.00     0.037 A 
ATOM     51  C   UNL A   1      40.164  29.461  31.287  1.00  0.00     0.037 A 
ATOM     52  C   UNL A   1      41.539  32.083  37.107  1.00  0.00     0.049 A 
ATOM     53  C   UNL A   1      41.257  29.226  32.295  1.00  0.00     0.074 A 
ATOM     54  C   UNL A   1      42.555  31.736  37.978  1.00  0.00     0.029 A 
ATOM     55  N   UNL A   1      41.670  31.268  35.992  1.00  0.00    -0.354 N 
ATOM     56  N   UNL A   1      41.443  29.794  33.461  1.00  0.00    -0.248 NA
ATOM     57  C   UNL A   1      42.270  28.219  31.950  1.00  0.00     0.031 C 
ATOM     58  C   UNL A   1      43.323  30.734  37.375  1.00  0.00     0.029 A 
ATOM     59  C   UNL A   1      42.762  30.430  36.146  1.00  0.00     0.049 A 
ATOM     60  H   UNL A   1      41.075  31.283  35.207  1.00  0.00     0.167 HD
ATOM     61  C   UNL A   1      42.576  29.200  33.999  1.00  0.00     0.074 A 
ATOM     62  C   UNL A   1      43.027  28.215  33.038  1.00  0.00     0.031 C 
ATOM     63  C   UNL A   1      43.189  29.449  35.182  1.00  0.00     0.037 A 
BRANCH  50  64
ATOM     64  C   UNL A   1      40.546  33.939  38.502  1.00  0.00     0.064 A 
ATOM     65  C   UNL A   1      39.809  33.604  39.648  1.00  0.00     0.173 A 
ATOM     66  C   UNL A   1      41.333  35.098  38.543  1.00  0.00     0.173 A 
ATOM     67  F   UNL A   1      39.029  32.513  39.655  1.00  0.00    -0.203 F 
ATOM     68  C   UNL A   1      39.832  34.418  40.778  1.00  0.00     0.198 A 
ATOM     69  C   UNL A   1      41.379  35.893  39.685  1.00  0.00     0.198 A 
ATOM     70  F   UNL A   1      42.060  35.462  37.475  1.00  0.00    -0.203 F 
ATOM     71  F   UNL A   1      39.077  34.107  41.840  1.00  0.00    -0.200 F 
ATOM     72  C   UNL A   1      40.621  35.557  40.798  1.00  0.00     0.200 A 
ATOM     73  F   UNL A   1      42.149  36.989  39.707  1.00  0.00    -0.200 F 
ATOM     74  F   UNL A   1      40.646  36.337  41.887  1.00  0.00    -0.200 F 
ENDBRANCH  50  64
BRANCH  51  75
ATOM     75  C   UNL A   1      40.126  28.693  30.016  1.00  0.00     0.064 A 
ATOM     76  C   UNL A   1      39.477  27.451  29.949  1.00  0.00     0.173 A 
ATOM     77  C   UNL A   1      40.734  29.175  28.848  1.00  0.00     0.173 A 
ATOM     78  F   UNL A   1      38.898  26.940  31.046  1.00  0.00    -0.203 F 
ATOM     79  C   UNL A   1      39.456  26.712  28.769  1.00  0.00     0.198 A 
ATOM     80  C   UNL A   1      40.691  28.446  27.661  1.00  0.00     0.198 A 
ATOM     81  F   UNL A   1      41.363  30.359  28.859  1.00  0.00    -0.203 F 
ATOM     82  F   UNL A   1      38.866  25.509  28.745  1.00  0.00    -0.200 F 
ATOM     83  C   UNL A   1      40.058  27.212  27.624  1.00  0.00     0.200 A 
ATOM     84  F   UNL A   1      41.264  28.937  26.555  1.00  0.00    -0.200 F 
ATOM     85  F   UNL A   1      40.035  26.502  26.488  1.00  0.00    -0.200 F 
ENDBRANCH  51  75
BRANCH  63  86
ATOM     86  C   UNL A   1      44.396  28.625  35.517  1.00  0.00     0.064 A 
ATOM     87  C   UNL A   1      44.287  27.409  36.207  1.00  0.00     0.173 A 
ATOM     88  C   UNL A   1      45.673  29.035  35.103  1.00  0.00     0.173 A 
ATOM     89  F   UNL A   1      43.089  26.983  36.636  1.00  0.00    -0.203 F 
ATOM     90  C   UNL A   1      45.414  26.643  36.488  1.00  0.00     0.198 A 
ATOM     91  C   UNL A   1      46.795  28.253  35.363  1.00  0.00     0.198 A 
ATOM     92  F   UNL A   1      45.829  30.189  34.437  1.00  0.00    -0.203 F 
ATOM     93  F   UNL A   1      45.292  25.504  37.183  1.00  0.00    -0.200 F 
ATOM     94  C   UNL A   1      46.665  27.062  36.060  1.00  0.00     0.200 A 
ATOM     95  F   UNL A   1      48.001  28.654  34.938  1.00  0.00    -0.200 F 
ATOM     96  F   UNL A   1      47.749  26.318  36.324  1.00  0.00    -0.200 F 
ENDBRANCH  63  86
ENDBRANCH  37  38
ENDBRANCH  29  32
ENDBRANCH  27  28
ENDBRANCH  26  27
ENDBRANCH  25  26
ENDBRANCH  24  25
ENDBRANCH   3  24
TORSDOF 17
ENDMDL
MODEL 3
REMARK VINA RESULT:     -11.5      1.302      7.598
REMARK SMILES Cc1[nH]c2ccccc2c1CC(=O)N(C)CCCC(=O)NCCCCNC(=O)c1ccc(-c2c3nc(c(-c4c(F)c(F)c(F)c(F)c4F)c4ccc([nH]4)c(-c4c(F)c(F)c(F)c(F)c4F)c4nc(c(-c5c(F)c(F)c(F)c(F)c5F)c5ccc2[nH]5)C=C4)C=C3)cc1
REMARK SMILES IDX 19 1 20 2 21 3 18 5 17 6 16 7 14 8 15 9 12 10 13 11 11 12
REMARK SMILES IDX 10 13 1 14 2 15 3 16 4 17 9 19 5 20 8 21 6 22 7 23 22 24
REMARK SMILES IDX 23 25 24 26 25 27 26 28 27 29 28 31 29 32 30 33 91 34 31 35
REMARK SMILES IDX 90 36 32 37 33 38 34 39 84 40 35 41 89 42 83 43 85 44 36 45
REMARK SMILES IDX 88 46 82 47 81 48 37 50 69 51 49 52 68 53 50 54 53 55 67 56
REMARK SMILES IDX 86 57 51 58 52 59 66 61 87 62 54 63 38 64 39 65 47 66 40 67
REMARK SMILES IDX 41 68 45 69 48 70 42 71 43 72 46 73 44 74 70 75 71 76 79 77
REMARK SMILES IDX 72 78 73 79 77 80 80 81 74 82 75 83 78 84 76 85 55 86 56 87
REMARK SMILES IDX 64 88 57 89 58 90 62 91 65 92 59 93 60 94 63 95 61 96
REMARK H PARENT 21 4 3 18 26 30 85 49 53 60
REMARK Flexibility Score: inf
ROOT
ATOM      1  C   UNL A   1      33.649  28.484  24.532  1.00  0.00     0.220 C 
ATOM      2  O   UNL A   1      33.865  28.556  23.318  1.00  0.00    -0.275 OA
ATOM      3  N   UNL A   1      33.654  29.654  25.224  1.00  0.00    -0.356 N 
ATOM      4  H   UNL A   1      33.791  30.456  24.671  1.00  0.00     0.163 HD
ENDROOT
BRANCH   1   5
ATOM      5  C   UNL A   1      33.302  27.149  25.169  1.00  0.00     0.102 C 
BRANCH   5   6
ATOM      6  C   UNL A   1      31.861  26.842  25.586  1.00  0.00     0.031 C 
BRANCH   6   7
ATOM      7  C   UNL A   1      31.371  25.423  25.884  1.00  0.00     0.119 C 
BRANCH   7   8
ATOM      8  N   UNL A   1      31.062  24.440  24.825  1.00  0.00    -0.345 N 
ATOM      9  C   UNL A   1      30.390  25.019  23.663  1.00  0.00     0.146 C 
BRANCH   8  10
ATOM     10  C   UNL A   1      31.456  23.104  24.850  1.00  0.00     0.226 C 
ATOM     11  O   UNL A   1      31.038  22.290  25.673  1.00  0.00    -0.275 OA
BRANCH  10  12
ATOM     12  C   UNL A   1      32.463  22.589  23.829  1.00  0.00     0.138 C 
BRANCH  12  13
ATOM     13  C   UNL A   1      33.251  21.440  24.369  1.00  0.00    -0.010 A 
ATOM     14  C   UNL A   1      34.799  22.621  26.120  1.00  0.00     0.064 C 
ATOM     15  C   UNL A   1      34.251  21.489  25.327  1.00  0.00     0.016 A 
ATOM     16  N   UNL A   1      34.759  20.219  25.456  1.00  0.00    -0.358 N 
ATOM     17  C   UNL A   1      34.113  19.348  24.613  1.00  0.00     0.046 A 
ATOM     18  H   UNL A   1      35.487  19.969  26.070  1.00  0.00     0.166 HD
ATOM     19  C   UNL A   1      33.123  20.072  23.956  1.00  0.00     0.003 A 
ATOM     20  C   UNL A   1      34.326  17.983  24.384  1.00  0.00     0.026 A 
ATOM     21  C   UNL A   1      32.279  19.391  23.051  1.00  0.00     0.010 A 
ATOM     22  C   UNL A   1      33.496  17.340  23.461  1.00  0.00     0.002 A 
ATOM     23  C   UNL A   1      32.478  18.028  22.809  1.00  0.00     0.001 A 
ENDBRANCH  12  13
ENDBRANCH  10  12
ENDBRANCH   8  10
ENDBRANCH   7   8
ENDBRANCH   6   7
ENDBRANCH   5   6
ENDBRANCH   1   5
BRANCH   3  24
ATOM     24  C   UNL A   1      33.491  29.915  26.634  1.00  0.00     0.116 C 
BRANCH  24  25
ATOM     25  C   UNL A   1      32.050  30.325  26.950  1.00  0.00     0.023 C 
BRANCH  25  26
ATOM     26  C   UNL A   1      31.794  31.819  26.815  1.00  0.00     0.023 C 
BRANCH  26  27
ATOM     27  C   UNL A   1      32.884  32.686  27.427  1.00  0.00     0.116 C 
BRANCH  27  28
ATOM     28  N   UNL A   1      32.463  34.055  27.701  1.00  0.00    -0.352 N 
ATOM     29  C   UNL A   1      33.004  34.946  28.608  1.00  0.00     0.251 C 
ATOM     30  H   UNL A   1      31.700  34.386  27.175  1.00  0.00     0.163 HD
ATOM     31  O   UNL A   1      32.515  36.044  28.787  1.00  0.00    -0.269 OA
BRANCH  29  32
ATOM     32  C   UNL A   1      34.170  34.498  29.400  1.00  0.00     0.039 A 
ATOM     33  C   UNL A   1      33.949  33.847  30.615  1.00  0.00     0.014 A 
ATOM     34  C   UNL A   1      35.457  34.607  28.868  1.00  0.00     0.014 A 
ATOM     35  C   UNL A   1      35.018  33.214  31.252  1.00  0.00     0.010 A 
ATOM     36  C   UNL A   1      36.497  33.900  29.458  1.00  0.00     0.010 A 
ATOM     37  C   UNL A   1      36.287  33.190  30.650  1.00  0.00    -0.014 A 
BRANCH  37  38
ATOM     38  C   UNL A   1      37.410  32.421  31.242  1.00  0.00     0.031 A 
ATOM     39  C   UNL A   1      37.918  32.775  32.611  1.00  0.00     0.074 A 
ATOM     40  C   UNL A   1      38.027  31.467  30.516  1.00  0.00     0.049 A 
ATOM     41  N   UNL A   1      38.942  32.289  33.266  1.00  0.00    -0.248 NA
ATOM     42  C   UNL A   1      37.202  33.844  33.323  1.00  0.00     0.031 C 
ATOM     43  C   UNL A   1      37.673  31.077  29.150  1.00  0.00     0.029 A 
ATOM     44  N   UNL A   1      39.094  30.659  30.825  1.00  0.00    -0.354 N 
ATOM     45  C   UNL A   1      39.005  33.010  34.450  1.00  0.00     0.074 A 
ATOM     46  C   UNL A   1      37.956  34.004  34.400  1.00  0.00     0.031 C 
ATOM     47  C   UNL A   1      38.489  30.088  28.749  1.00  0.00     0.029 A 
ATOM     48  C   UNL A   1      39.444  29.797  29.813  1.00  0.00     0.049 A 
ATOM     49  H   UNL A   1      39.564  30.695  31.689  1.00  0.00     0.167 HD
ATOM     50  C   UNL A   1      39.844  32.840  35.498  1.00  0.00     0.037 A 
ATOM     51  C   UNL A   1      40.425  28.876  29.754  1.00  0.00     0.037 A 
ATOM     52  C   UNL A   1      40.860  31.823  35.565  1.00  0.00     0.049 A 
ATOM     53  C   UNL A   1      41.328  28.689  30.943  1.00  0.00     0.074 A 
ATOM     54  C   UNL A   1      41.708  31.517  36.613  1.00  0.00     0.029 A 
ATOM     55  N   UNL A   1      41.159  30.943  34.535  1.00  0.00    -0.354 N 
ATOM     56  N   UNL A   1      41.328  29.324  32.090  1.00  0.00    -0.248 NA
ATOM     57  C   UNL A   1      42.364  27.653  30.832  1.00  0.00     0.031 C 
ATOM     58  C   UNL A   1      42.546  30.474  36.206  1.00  0.00     0.029 A 
ATOM     59  C   UNL A   1      42.192  30.103  34.919  1.00  0.00     0.049 A 
ATOM     60  H   UNL A   1      40.704  30.918  33.662  1.00  0.00     0.167 HD
ATOM     61  C   UNL A   1      42.342  28.750  32.844  1.00  0.00     0.074 A 
ATOM     62  C   UNL A   1      42.927  27.705  32.031  1.00  0.00     0.031 C 
ATOM     63  C   UNL A   1      42.754  29.062  34.097  1.00  0.00     0.037 A 
BRANCH  50  64
ATOM     64  C   UNL A   1      39.686  33.770  36.665  1.00  0.00     0.064 A 
ATOM     65  C   UNL A   1      38.887  33.432  37.769  1.00  0.00     0.173 A 
ATOM     66  C   UNL A   1      40.353  35.003  36.691  1.00  0.00     0.173 A 
ATOM     67  F   UNL A   1      38.217  32.271  37.787  1.00  0.00    -0.203 F 
ATOM     68  C   UNL A   1      38.735  34.310  38.839  1.00  0.00     0.198 A 
ATOM     69  C   UNL A   1      40.224  35.865  37.775  1.00  0.00     0.198 A 
ATOM     70  F   UNL A   1      41.132  35.373  35.662  1.00  0.00    -0.203 F 
ATOM     71  F   UNL A   1      37.923  33.989  39.855  1.00  0.00    -0.200 F 
ATOM     72  C   UNL A   1      39.408  35.522  38.844  1.00  0.00     0.200 A 
ATOM     73  F   UNL A   1      40.882  37.032  37.785  1.00  0.00    -0.200 F 
ATOM     74  F   UNL A   1      39.263  36.365  39.876  1.00  0.00    -0.200 F 
ENDBRANCH  50  64
BRANCH  51  75
ATOM     75  C   UNL A   1      40.584  28.036  28.541  1.00  0.00     0.064 A 
ATOM     76  C   UNL A   1      41.361  28.478  27.460  1.00  0.00     0.173 A 
ATOM     77  C   UNL A   1      39.965  26.782  28.429  1.00  0.00     0.173 A 
ATOM     78  F   UNL A   1      41.956  29.679  27.512  1.00  0.00    -0.203 F 
ATOM     79  C   UNL A   1      41.496  27.708  26.306  1.00  0.00     0.198 A 
ATOM     80  C   UNL A   1      40.122  26.002  27.285  1.00  0.00     0.198 A 
ATOM     81  F   UNL A   1      39.216  26.312  29.436  1.00  0.00    -0.203 F 
ATOM     82  F   UNL A   1      42.210  28.175  25.273  1.00  0.00    -0.200 F 
ATOM     83  C   UNL A   1      40.881  26.468  26.222  1.00  0.00     0.200 A 
ATOM     84  F   UNL A   1      39.535  24.800  27.211  1.00  0.00    -0.200 F 
ATOM     85  F   UNL A   1      41.014  25.728  25.114  1.00  0.00    -0.200 F 
ENDBRANCH  51  75
BRANCH  63  86
ATOM     86  C   UNL A   1      43.870  28.246  34.677  1.00  0.00     0.064 A 
ATOM     87  C   UNL A   1      45.208  28.654  34.575  1.00  0.00     0.173 A 
ATOM     88  C   UNL A   1      43.593  27.064  35.383  1.00  0.00     0.173 A 
ATOM     89  F   UNL A   1      45.523  29.768  33.897  1.00  0.00    -0.203 F 
ATOM     90  C   UNL A   1      46.230  27.898  35.141  1.00  0.00     0.198 A 
ATOM     91  C   UNL A   1      44.616  26.326  35.970  1.00  0.00     0.198 A 
ATOM     92  F   UNL A   1      42.329  26.635  35.512  1.00  0.00    -0.203 F 
ATOM     93  F   UNL A   1      47.505  28.285  34.998  1.00  0.00    -0.200 F 
ATOM     94  C   UNL A   1      45.933  26.740  35.844  1.00  0.00     0.200 A 
ATOM     95  F   UNL A   1      44.326  25.213  36.659  1.00  0.00    -0.200 F 
ATOM     96  F   UNL A   1      46.919  26.018  36.396  1.00  0.00    -0.200 F 
ENDBRANCH  63  86
ENDBRANCH  37  38
ENDBRANCH  29  32
ENDBRANCH  27  28
ENDBRANCH  26  27
ENDBRANCH  25  26
ENDBRANCH  24  25
ENDBRANCH   3  24
TORSDOF 17
ENDMDL
