MODEL 1
REMARK VINA RESULT:     -11.3      0.000      0.000
REMARK SMILES CCCN(CCC)c1cc(C(=O)NCCCCNC(=O)c2ccc(-c3c4nc(c(-c5c(F)c(F)c(F)c(F)c5F)c5ccc([nH]5)c(-c5c(F)c(F)c(F)c(F)c5F)c5nc(c(-c6c(F)c(F)c(F)c(F)c6F)c6ccc3[nH]6)C=C5)C=C4)cc2)cc(C(F)(F)F)c1
REMARK SMILES IDX 15 1 14 2 13 3 11 4 12 5 10 7 8 8 9 9 90 10 85 11 84 12 4 13
REMARK SMILES IDX 3 14 2 15 1 16 5 17 6 18 7 19 86 20 87 21 88 22 89 23 16 24
REMARK SMILES IDX 17 25 18 26 19 27 20 29 21 30 22 31 83 32 23 33 82 34 24 35
REMARK SMILES IDX 25 36 26 37 76 38 27 39 81 40 75 41 77 42 28 43 80 44 74 45
REMARK SMILES IDX 73 46 29 48 61 49 41 50 60 51 42 52 45 53 59 54 78 55 43 56
REMARK SMILES IDX 44 57 58 59 79 60 46 61 30 62 31 63 39 64 32 65 33 66 37 67
REMARK SMILES IDX 40 68 34 69 35 70 38 71 36 72 62 73 63 74 71 75 64 76 65 77
REMARK SMILES IDX 69 78 72 79 66 80 67 81 70 82 68 83 47 84 48 85 56 86 49 87
REMARK SMILES IDX 50 88 54 89 57 90 51 91 52 92 55 93 53 94
REMARK H PARENT 13 6 18 28 77 47 45 58
REMARK Flexibility Score: inf
ROOT
ATOM      1  C   UNL A   1      34.579  30.937  27.778  1.00  0.00     0.023 C 
ENDROOT
BRANCH   1   2
ATOM      2  C   UNL A   1      34.171  29.561  27.274  1.00  0.00     0.116 C 
BRANCH   2   3
ATOM      3  N   UNL A   1      32.993  28.972  27.892  1.00  0.00    -0.352 N 
ATOM      4  C   UNL A   1      31.966  28.262  27.296  1.00  0.00     0.251 C 
ATOM      5  O   UNL A   1      31.066  27.793  27.985  1.00  0.00    -0.269 OA
ATOM      6  H   UNL A   1      32.917  29.095  28.866  1.00  0.00     0.163 HD
BRANCH   4   7
ATOM      7  C   UNL A   1      31.899  28.168  25.813  1.00  0.00     0.042 A 
ATOM      8  C   UNL A   1      32.016  26.647  23.902  1.00  0.00     0.038 A 
ATOM      9  C   UNL A   1      32.363  26.990  25.210  1.00  0.00     0.039 A 
ATOM     10  C   UNL A   1      31.200  27.562  23.224  1.00  0.00     0.039 A 
ATOM     11  C   UNL A   1      30.792  28.784  23.777  1.00  0.00     0.058 A 
ATOM     12  C   UNL A   1      31.232  29.121  25.054  1.00  0.00     0.027 A 
BRANCH   8  13
ATOM     13  N   UNL A   1      32.380  25.446  23.313  1.00  0.00    -0.372 N 
BRANCH  13  14
ATOM     14  C   UNL A   1      31.432  24.319  23.283  1.00  0.00     0.116 C 
BRANCH  14  15
ATOM     15  C   UNL A   1      30.913  23.892  24.667  1.00  0.00     0.018 C 
ATOM     16  C   UNL A   1      31.443  22.558  25.180  1.00  0.00     0.006 C 
ENDBRANCH  14  15
ENDBRANCH  13  14
BRANCH  13  17
ATOM     17  C   UNL A   1      33.737  25.233  22.775  1.00  0.00     0.116 C 
BRANCH  17  18
ATOM     18  C   UNL A   1      34.488  24.059  23.412  1.00  0.00     0.018 C 
ATOM     19  C   UNL A   1      34.904  24.345  24.855  1.00  0.00     0.006 C 
ENDBRANCH  17  18
ENDBRANCH  13  17
ENDBRANCH   8  13
BRANCH  11  20
ATOM     20  C   UNL A   1      29.741  29.624  23.104  1.00  0.00     0.416 C 
ATOM     21  F   UNL A   1      30.087  29.904  21.814  1.00  0.00    -0.166 F 
ATOM     22  F   UNL A   1      28.532  29.008  23.035  1.00  0.00    -0.166 F 
ATOM     23  F   UNL A   1      29.526  30.827  23.700  1.00  0.00    -0.166 F 
ENDBRANCH  11  20
ENDBRANCH   4   7
ENDBRANCH   2   3
ENDBRANCH   1   2
BRANCH   1  24
ATOM     24  C   UNL A   1      33.454  31.907  28.097  1.00  0.00     0.023 C 
BRANCH  24  25
ATOM     25  C   UNL A   1      33.221  33.022  27.088  1.00  0.00     0.116 C 
BRANCH  25  26
ATOM     26  N   UNL A   1      32.657  34.236  27.661  1.00  0.00    -0.352 N 
ATOM     27  C   UNL A   1      33.060  34.969  28.753  1.00  0.00     0.251 C 
ATOM     28  H   UNL A   1      31.864  34.586  27.195  1.00  0.00     0.163 HD
ATOM     29  O   UNL A   1      32.404  35.939  29.121  1.00  0.00    -0.269 OA
BRANCH  27  30
ATOM     30  C   UNL A   1      34.256  34.559  29.521  1.00  0.00     0.039 A 
ATOM     31  C   UNL A   1      34.080  34.020  30.799  1.00  0.00     0.014 A 
ATOM     32  C   UNL A   1      35.537  34.665  28.976  1.00  0.00     0.014 A 
ATOM     33  C   UNL A   1      35.177  33.491  31.482  1.00  0.00     0.010 A 
ATOM     34  C   UNL A   1      36.610  34.054  29.616  1.00  0.00     0.010 A 
ATOM     35  C   UNL A   1      36.441  33.452  30.872  1.00  0.00    -0.014 A 
BRANCH  35  36
ATOM     36  C   UNL A   1      37.592  32.772  31.521  1.00  0.00     0.031 A 
ATOM     37  C   UNL A   1      38.251  31.598  30.853  1.00  0.00     0.074 A 
ATOM     38  C   UNL A   1      37.994  33.162  32.747  1.00  0.00     0.049 A 
ATOM     39  N   UNL A   1      39.211  30.825  31.295  1.00  0.00    -0.248 NA
ATOM     40  C   UNL A   1      37.742  31.222  29.524  1.00  0.00     0.031 C 
ATOM     41  C   UNL A   1      37.398  34.250  33.526  1.00  0.00     0.029 A 
ATOM     42  N   UNL A   1      38.988  32.679  33.560  1.00  0.00    -0.354 N 
ATOM     43  C   UNL A   1      39.407  29.866  30.310  1.00  0.00     0.074 A 
ATOM     44  C   UNL A   1      38.429  30.117  29.274  1.00  0.00     0.031 C 
ATOM     45  C   UNL A   1      38.056  34.368  34.691  1.00  0.00     0.029 A 
ATOM     46  C   UNL A   1      39.091  33.341  34.761  1.00  0.00     0.049 A 
ATOM     47  H   UNL A   1      39.575  31.930  33.308  1.00  0.00     0.167 HD
ATOM     48  C   UNL A   1      40.335  28.881  30.261  1.00  0.00     0.037 A 
ATOM     49  C   UNL A   1      39.921  33.138  35.802  1.00  0.00     0.037 A 
ATOM     50  C   UNL A   1      41.326  28.652  31.278  1.00  0.00     0.049 A 
ATOM     51  C   UNL A   1      40.942  32.035  35.722  1.00  0.00     0.074 A 
ATOM     52  C   UNL A   1      42.356  27.727  31.287  1.00  0.00     0.029 A 
ATOM     53  N   UNL A   1      41.410  29.354  32.471  1.00  0.00    -0.354 N 
ATOM     54  N   UNL A   1      41.168  31.185  34.752  1.00  0.00    -0.248 NA
ATOM     55  C   UNL A   1      41.826  31.867  36.885  1.00  0.00     0.031 C 
ATOM     56  C   UNL A   1      43.034  27.839  32.505  1.00  0.00     0.029 A 
ATOM     57  C   UNL A   1      42.458  28.866  33.235  1.00  0.00     0.049 A 
ATOM     58  H   UNL A   1      40.813  30.092  32.736  1.00  0.00     0.167 HD
ATOM     59  C   UNL A   1      42.232  30.399  35.173  1.00  0.00     0.074 A 
ATOM     60  C   UNL A   1      42.619  30.885  36.480  1.00  0.00     0.031 C 
ATOM     61  C   UNL A   1      42.832  29.365  34.534  1.00  0.00     0.037 A 
BRANCH  48  62
ATOM     62  C   UNL A   1      40.327  27.980  29.060  1.00  0.00     0.064 A 
ATOM     63  C   UNL A   1      41.064  28.286  27.906  1.00  0.00     0.173 A 
ATOM     64  C   UNL A   1      39.597  26.782  29.072  1.00  0.00     0.173 A 
ATOM     65  F   UNL A   1      41.770  29.426  27.838  1.00  0.00    -0.203 F 
ATOM     66  C   UNL A   1      41.047  27.443  26.799  1.00  0.00     0.198 A 
ATOM     67  C   UNL A   1      39.607  25.925  27.975  1.00  0.00     0.198 A 
ATOM     68  F   UNL A   1      38.878  26.438  30.152  1.00  0.00    -0.203 F 
ATOM     69  F   UNL A   1      41.718  27.782  25.690  1.00  0.00    -0.200 F 
ATOM     70  C   UNL A   1      40.325  26.260  26.837  1.00  0.00     0.200 A 
ATOM     71  F   UNL A   1      38.919  24.776  28.018  1.00  0.00    -0.200 F 
ATOM     72  F   UNL A   1      40.314  25.446  25.772  1.00  0.00    -0.200 F 
ENDBRANCH  48  62
BRANCH  49  73
ATOM     73  C   UNL A   1      39.837  34.012  37.001  1.00  0.00     0.064 A 
ATOM     74  C   UNL A   1      40.561  35.212  37.066  1.00  0.00     0.173 A 
ATOM     75  C   UNL A   1      39.046  33.667  38.106  1.00  0.00     0.173 A 
ATOM     76  F   UNL A   1      41.350  35.574  36.044  1.00  0.00    -0.203 F 
ATOM     77  C   UNL A   1      40.511  36.022  38.199  1.00  0.00     0.198 A 
ATOM     78  C   UNL A   1      38.974  34.492  39.226  1.00  0.00     0.198 A 
ATOM     79  F   UNL A   1      38.331  32.532  38.093  1.00  0.00    -0.203 F 
ATOM     80  F   UNL A   1      41.249  37.140  38.253  1.00  0.00    -0.200 F 
ATOM     81  C   UNL A   1      39.713  35.665  39.275  1.00  0.00     0.200 A 
ATOM     82  F   UNL A   1      38.192  34.152  40.259  1.00  0.00    -0.200 F 
ATOM     83  F   UNL A   1      39.663  36.447  40.363  1.00  0.00    -0.200 F 
ENDBRANCH  49  73
BRANCH  61  84
ATOM     84  C   UNL A   1      43.988  28.706  35.229  1.00  0.00     0.064 A 
ATOM     85  C   UNL A   1      45.305  29.155  35.052  1.00  0.00     0.173 A 
ATOM     86  C   UNL A   1      43.770  27.641  36.116  1.00  0.00     0.173 A 
ATOM     87  F   UNL A   1      45.567  30.160  34.203  1.00  0.00    -0.203 F 
ATOM     88  C   UNL A   1      46.364  28.546  35.720  1.00  0.00     0.198 A 
ATOM     89  C   UNL A   1      44.827  27.054  36.805  1.00  0.00     0.198 A 
ATOM     90  F   UNL A   1      42.528  27.177  36.324  1.00  0.00    -0.203 F 
ATOM     91  F   UNL A   1      47.619  28.962  35.501  1.00  0.00    -0.200 F 
ATOM     92  C   UNL A   1      46.124  27.503  36.602  1.00  0.00     0.200 A 
ATOM     93  F   UNL A   1      44.592  26.054  37.666  1.00  0.00    -0.200 F 
ATOM     94  F   UNL A   1      47.143  26.923  37.250  1.00  0.00    -0.200 F 
ENDBRANCH  61  84
ENDBRANCH  35  36
ENDBRANCH  27  30
ENDBRANCH  25  26
ENDBRANCH  24  25
ENDBRANCH   1  24
TORSDOF 17
ENDMDL
MODEL 2
REMARK VINA RESULT:     -11.3      6.130     11.379
REMARK SMILES CCCN(CCC)c1cc(C(=O)NCCCCNC(=O)c2ccc(-c3c4nc(c(-c5c(F)c(F)c(F)c(F)c5F)c5ccc([nH]5)c(-c5c(F)c(F)c(F)c(F)c5F)c5nc(c(-c6c(F)c(F)c(F)c(F)c6F)c6ccc3[nH]6)C=C5)C=C4)cc2)cc(C(F)(F)F)c1
REMARK SMILES IDX 15 1 14 2 13 3 11 4 12 5 10 7 8 8 9 9 90 10 85 11 84 12 4 13
REMARK SMILES IDX 3 14 2 15 1 16 5 17 6 18 7 19 86 20 87 21 88 22 89 23 16 24
REMARK SMILES IDX 17 25 18 26 19 27 20 29 21 30 22 31 83 32 23 33 82 34 24 35
REMARK SMILES IDX 25 36 26 37 76 38 27 39 81 40 75 41 77 42 28 43 80 44 74 45
REMARK SMILES IDX 73 46 29 48 61 49 41 50 60 51 42 52 45 53 59 54 78 55 43 56
REMARK SMILES IDX 44 57 58 59 79 60 46 61 30 62 31 63 39 64 32 65 33 66 37 67
REMARK SMILES IDX 40 68 34 69 35 70 38 71 36 72 62 73 63 74 71 75 64 76 65 77
REMARK SMILES IDX 69 78 72 79 66 80 67 81 70 82 68 83 47 84 48 85 56 86 49 87
REMARK SMILES IDX 50 88 54 89 57 90 51 91 52 92 55 93 53 94
REMARK H PARENT 13 6 18 28 77 47 45 58
REMARK Flexibility Score: inf
ROOT
ATOM      1  C   UNL A   1      39.013  22.763  26.307  1.00  0.00     0.023 C 
ENDROOT
BRANCH   1   2
ATOM      2  C   UNL A   1      37.700  23.350  25.813  1.00  0.00     0.116 C 
BRANCH   2   3
ATOM      3  N   UNL A   1      37.464  23.284  24.379  1.00  0.00    -0.352 N 
ATOM      4  C   UNL A   1      36.316  22.903  23.707  1.00  0.00     0.251 C 
ATOM      5  O   UNL A   1      36.279  22.953  22.482  1.00  0.00    -0.269 OA
ATOM      6  H   UNL A   1      38.223  23.547  23.810  1.00  0.00     0.163 HD
BRANCH   4   7
ATOM      7  C   UNL A   1      35.174  22.328  24.467  1.00  0.00     0.042 A 
ATOM      8  C   UNL A   1      32.886  22.723  25.235  1.00  0.00     0.038 A 
ATOM      9  C   UNL A   1      34.145  23.196  24.858  1.00  0.00     0.039 A 
ATOM     10  C   UNL A   1      32.726  21.331  25.222  1.00  0.00     0.039 A 
ATOM     11  C   UNL A   1      33.764  20.441  24.914  1.00  0.00     0.058 A 
ATOM     12  C   UNL A   1      35.024  20.956  24.626  1.00  0.00     0.027 A 
BRANCH   8  13
ATOM     13  N   UNL A   1      31.822  23.559  25.534  1.00  0.00    -0.372 N 
BRANCH  13  14
ATOM     14  C   UNL A   1      30.704  23.702  24.587  1.00  0.00     0.116 C 
BRANCH  14  15
ATOM     15  C   UNL A   1      31.136  23.920  23.126  1.00  0.00     0.018 C 
ATOM     16  C   UNL A   1      31.476  25.359  22.753  1.00  0.00     0.006 C 
ENDBRANCH  14  15
ENDBRANCH  13  14
BRANCH  13  17
ATOM     17  C   UNL A   1      31.811  24.383  26.758  1.00  0.00     0.116 C 
BRANCH  17  18
ATOM     18  C   UNL A   1      31.749  25.893  26.498  1.00  0.00     0.018 C 
ATOM     19  C   UNL A   1      33.069  26.451  25.967  1.00  0.00     0.006 C 
ENDBRANCH  17  18
ENDBRANCH  13  17
ENDBRANCH   8  13
BRANCH  11  20
ATOM     20  C   UNL A   1      33.487  18.978  24.694  1.00  0.00     0.416 C 
ATOM     21  F   UNL A   1      34.649  18.267  24.601  1.00  0.00    -0.166 F 
ATOM     22  F   UNL A   1      32.789  18.410  25.712  1.00  0.00    -0.166 F 
ATOM     23  F   UNL A   1      32.795  18.709  23.555  1.00  0.00    -0.166 F 
ENDBRANCH  11  20
ENDBRANCH   4   7
ENDBRANCH   2   3
ENDBRANCH   1   2
BRANCH   1  24
ATOM     24  C   UNL A   1      39.472  21.471  25.650  1.00  0.00     0.023 C 
BRANCH  24  25
ATOM     25  C   UNL A   1      39.374  20.213  26.501  1.00  0.00     0.116 C 
BRANCH  25  26
ATOM     26  N   UNL A   1      40.366  19.198  26.177  1.00  0.00    -0.352 N 
ATOM     27  C   UNL A   1      41.737  19.288  26.112  1.00  0.00     0.251 C 
ATOM     28  H   UNL A   1      39.997  18.307  25.972  1.00  0.00     0.163 HD
ATOM     29  O   UNL A   1      42.402  18.321  25.751  1.00  0.00    -0.269 OA
BRANCH  27  30
ATOM     30  C   UNL A   1      42.412  20.567  26.425  1.00  0.00     0.039 A 
ATOM     31  C   UNL A   1      42.967  21.306  25.377  1.00  0.00     0.014 A 
ATOM     32  C   UNL A   1      42.463  21.056  27.731  1.00  0.00     0.014 A 
ATOM     33  C   UNL A   1      43.477  22.582  25.625  1.00  0.00     0.010 A 
ATOM     34  C   UNL A   1      42.884  22.362  27.961  1.00  0.00     0.010 A 
ATOM     35  C   UNL A   1      43.387  23.143  26.909  1.00  0.00    -0.014 A 
BRANCH  35  36
ATOM     36  C   UNL A   1      43.796  24.547  27.170  1.00  0.00     0.031 A 
ATOM     37  C   UNL A   1      42.793  25.547  27.673  1.00  0.00     0.074 A 
ATOM     38  C   UNL A   1      45.052  24.942  26.877  1.00  0.00     0.049 A 
ATOM     39  N   UNL A   1      42.936  26.831  27.881  1.00  0.00    -0.248 NA
ATOM     40  C   UNL A   1      41.438  25.041  27.949  1.00  0.00     0.031 C 
ATOM     41  C   UNL A   1      46.103  24.083  26.329  1.00  0.00     0.029 A 
ATOM     42  N   UNL A   1      45.653  26.171  26.988  1.00  0.00    -0.354 N 
ATOM     43  C   UNL A   1      41.691  27.287  28.294  1.00  0.00     0.074 A 
ATOM     44  C   UNL A   1      40.790  26.156  28.251  1.00  0.00     0.031 C 
ATOM     45  C   UNL A   1      47.226  24.805  26.176  1.00  0.00     0.029 A 
ATOM     46  C   UNL A   1      46.965  26.184  26.576  1.00  0.00     0.049 A 
ATOM     47  H   UNL A   1      45.190  26.969  27.332  1.00  0.00     0.167 HD
ATOM     48  C   UNL A   1      41.336  28.531  28.697  1.00  0.00     0.037 A 
ATOM     49  C   UNL A   1      47.853  27.194  26.522  1.00  0.00     0.037 A 
ATOM     50  C   UNL A   1      42.240  29.647  28.767  1.00  0.00     0.049 A 
ATOM     51  C   UNL A   1      47.433  28.567  26.974  1.00  0.00     0.074 A 
ATOM     52  C   UNL A   1      41.996  30.928  29.232  1.00  0.00     0.029 A 
ATOM     53  N   UNL A   1      43.566  29.616  28.359  1.00  0.00    -0.354 N 
ATOM     54  N   UNL A   1      46.275  28.967  27.436  1.00  0.00    -0.248 NA
ATOM     55  C   UNL A   1      48.448  29.627  26.899  1.00  0.00     0.031 C 
ATOM     56  C   UNL A   1      43.160  31.684  29.062  1.00  0.00     0.029 A 
ATOM     57  C   UNL A   1      44.145  30.863  28.536  1.00  0.00     0.049 A 
ATOM     58  H   UNL A   1      44.028  28.825  27.997  1.00  0.00     0.167 HD
ATOM     59  C   UNL A   1      46.426  30.316  27.729  1.00  0.00     0.074 A 
ATOM     60  C   UNL A   1      47.795  30.661  27.411  1.00  0.00     0.031 C 
ATOM     61  C   UNL A   1      45.511  31.189  28.218  1.00  0.00     0.037 A 
BRANCH  48  62
ATOM     62  C   UNL A   1      39.907  28.746  29.103  1.00  0.00     0.064 A 
ATOM     63  C   UNL A   1      39.484  28.573  30.429  1.00  0.00     0.173 A 
ATOM     64  C   UNL A   1      38.953  29.160  28.160  1.00  0.00     0.173 A 
ATOM     65  F   UNL A   1      40.355  28.168  31.367  1.00  0.00    -0.203 F 
ATOM     66  C   UNL A   1      38.156  28.775  30.791  1.00  0.00     0.198 A 
ATOM     67  C   UNL A   1      37.631  29.392  28.533  1.00  0.00     0.198 A 
ATOM     68  F   UNL A   1      39.304  29.346  26.878  1.00  0.00    -0.203 F 
ATOM     69  F   UNL A   1      37.766  28.554  32.055  1.00  0.00    -0.200 F 
ATOM     70  C   UNL A   1      37.232  29.192  29.846  1.00  0.00     0.200 A 
ATOM     71  F   UNL A   1      36.742  29.806  27.619  1.00  0.00    -0.200 F 
ATOM     72  F   UNL A   1      35.955  29.392  30.197  1.00  0.00    -0.200 F 
ENDBRANCH  48  62
BRANCH  49  73
ATOM     73  C   UNL A   1      49.237  26.943  26.040  1.00  0.00     0.064 A 
ATOM     74  C   UNL A   1      50.248  26.557  26.932  1.00  0.00     0.173 A 
ATOM     75  C   UNL A   1      49.581  27.090  24.688  1.00  0.00     0.173 A 
ATOM     76  F   UNL A   1      49.974  26.425  28.238  1.00  0.00    -0.203 F 
ATOM     77  C   UNL A   1      51.554  26.348  26.493  1.00  0.00     0.198 A 
ATOM     78  C   UNL A   1      50.881  26.853  24.247  1.00  0.00     0.198 A 
ATOM     79  F   UNL A   1      48.650  27.453  23.794  1.00  0.00    -0.203 F 
ATOM     80  F   UNL A   1      52.511  26.025  27.375  1.00  0.00    -0.200 F 
ATOM     81  C   UNL A   1      51.868  26.490  25.151  1.00  0.00     0.200 A 
ATOM     82  F   UNL A   1      51.178  26.977  22.946  1.00  0.00    -0.200 F 
ATOM     83  F   UNL A   1      53.124  26.286  24.728  1.00  0.00    -0.200 F 
ENDBRANCH  49  73
BRANCH  61  84
ATOM     84  C   UNL A   1      45.968  32.598  28.460  1.00  0.00     0.064 A 
ATOM     85  C   UNL A   1      46.548  32.983  29.678  1.00  0.00     0.173 A 
ATOM     86  C   UNL A   1      45.864  33.564  27.448  1.00  0.00     0.173 A 
ATOM     87  F   UNL A   1      46.656  32.100  30.683  1.00  0.00    -0.203 F 
ATOM     88  C   UNL A   1      46.986  34.289  29.881  1.00  0.00     0.198 A 
ATOM     89  C   UNL A   1      46.330  34.860  27.643  1.00  0.00     0.198 A 
ATOM     90  F   UNL A   1      45.322  33.245  26.262  1.00  0.00    -0.203 F 
ATOM     91  F   UNL A   1      47.495  34.645  31.068  1.00  0.00    -0.200 F 
ATOM     92  C   UNL A   1      46.885  35.224  28.861  1.00  0.00     0.200 A 
ATOM     93  F   UNL A   1      46.243  35.759  26.652  1.00  0.00    -0.200 F 
ATOM     94  F   UNL A   1      47.314  36.478  29.055  1.00  0.00    -0.200 F 
ENDBRANCH  61  84
ENDBRANCH  35  36
ENDBRANCH  27  30
ENDBRANCH  25  26
ENDBRANCH  24  25
ENDBRANCH   1  24
TORSDOF 17
ENDMDL
MODEL 3
REMARK VINA RESULT:     -11.1      5.690     10.107
REMARK SMILES CCCN(CCC)c1cc(C(=O)NCCCCNC(=O)c2ccc(-c3c4nc(c(-c5c(F)c(F)c(F)c(F)c5F)c5ccc([nH]5)c(-c5c(F)c(F)c(F)c(F)c5F)c5nc(c(-c6c(F)c(F)c(F)c(F)c6F)c6ccc3[nH]6)C=C5)C=C4)cc2)cc(C(F)(F)F)c1
REMARK SMILES IDX 15 1 14 2 13 3 11 4 12 5 10 7 8 8 9 9 90 10 85 11 84 12 4 13
REMARK SMILES IDX 3 14 2 15 1 16 5 17 6 18 7 19 86 20 87 21 88 22 89 23 16 24
REMARK SMILES IDX 17 25 18 26 19 27 20 29 21 30 22 31 83 32 23 33 82 34 24 35
REMARK SMILES IDX 25 36 26 37 76 38 27 39 81 40 75 41 77 42 28 43 80 44 74 45
REMARK SMILES IDX 73 46 29 48 61 49 41 50 60 51 42 52 45 53 59 54 78 55 43 56
REMARK SMILES IDX 44 57 58 59 79 60 46 61 30 62 31 63 39 64 32 65 33 66 37 67
REMARK SMILES IDX 40 68 34 69 35 70 38 71 36 72 62 73 63 74 71 75 64 76 65 77
REMARK SMILES IDX 69 78 72 79 66 80 67 81 70 82 68 83 47 84 48 85 56 86 49 87
REMARK SMILES IDX 50 88 54 89 57 90 51 91 52 92 55 93 53 94
REMARK H PARENT 13 6 18 28 77 47 45 58
REMARK Flexibility Score: inf
ROOT
ATOM      1  C   UNL A   1      38.806  22.591  26.368  1.00  0.00     0.023 C 
ENDROOT
BRANCH   1   2
ATOM      2  C   UNL A   1      37.604  23.315  25.782  1.00  0.00     0.116 C 
BRANCH   2   3
ATOM      3  N   UNL A   1      37.464  23.265  24.335  1.00  0.00    -0.352 N 
ATOM      4  C   UNL A   1      36.354  22.924  23.583  1.00  0.00     0.251 C 
ATOM      5  O   UNL A   1      36.402  22.982  22.359  1.00  0.00    -0.269 OA
ATOM      6  H   UNL A   1      38.268  23.507  23.821  1.00  0.00     0.163 HD
BRANCH   4   7
ATOM      7  C   UNL A   1      35.146  22.380  24.259  1.00  0.00     0.042 A 
ATOM      8  C   UNL A   1      32.753  22.712  24.643  1.00  0.00     0.038 A 
ATOM      9  C   UNL A   1      34.027  23.217  24.374  1.00  0.00     0.039 A 
ATOM     10  C   UNL A   1      32.669  21.325  24.816  1.00  0.00     0.039 A 
ATOM     11  C   UNL A   1      33.785  20.477  24.787  1.00  0.00     0.058 A 
ATOM     12  C   UNL A   1      35.046  21.036  24.599  1.00  0.00     0.027 A 
BRANCH   8  13
ATOM     13  N   UNL A   1      31.616  23.503  24.668  1.00  0.00    -0.372 N 
BRANCH  13  14
ATOM     14  C   UNL A   1      31.129  24.061  25.940  1.00  0.00     0.116 C 
BRANCH  14  15
ATOM     15  C   UNL A   1      32.052  25.125  26.559  1.00  0.00     0.018 C 
ATOM     16  C   UNL A   1      31.605  26.570  26.367  1.00  0.00     0.006 C 
ENDBRANCH  14  15
ENDBRANCH  13  14
BRANCH  13  17
ATOM     17  C   UNL A   1      30.820  23.745  23.449  1.00  0.00     0.116 C 
BRANCH  17  18
ATOM     18  C   UNL A   1      30.765  25.215  23.017  1.00  0.00     0.018 C 
ATOM     19  C   UNL A   1      32.152  25.796  22.740  1.00  0.00     0.006 C 
ENDBRANCH  17  18
ENDBRANCH  13  17
ENDBRANCH   8  13
BRANCH  11  20
ATOM     20  C   UNL A   1      33.619  18.982  24.752  1.00  0.00     0.416 C 
ATOM     21  F   UNL A   1      32.836  18.598  23.702  1.00  0.00    -0.166 F 
ATOM     22  F   UNL A   1      34.796  18.320  24.594  1.00  0.00    -0.166 F 
ATOM     23  F   UNL A   1      33.032  18.462  25.863  1.00  0.00    -0.166 F 
ENDBRANCH  11  20
ENDBRANCH   4   7
ENDBRANCH   2   3
ENDBRANCH   1   2
BRANCH   1  24
ATOM     24  C   UNL A   1      39.241  21.314  25.667  1.00  0.00     0.023 C 
BRANCH  24  25
ATOM     25  C   UNL A   1      39.655  20.160  26.570  1.00  0.00     0.116 C 
BRANCH  25  26
ATOM     26  N   UNL A   1      40.719  19.331  26.023  1.00  0.00    -0.352 N 
ATOM     27  C   UNL A   1      42.060  19.598  25.868  1.00  0.00     0.251 C 
ATOM     28  H   UNL A   1      40.435  18.439  25.716  1.00  0.00     0.163 HD
ATOM     29  O   UNL A   1      42.792  18.782  25.317  1.00  0.00    -0.269 OA
BRANCH  27  30
ATOM     30  C   UNL A   1      42.614  20.894  26.316  1.00  0.00     0.039 A 
ATOM     31  C   UNL A   1      43.048  21.808  25.352  1.00  0.00     0.014 A 
ATOM     32  C   UNL A   1      42.670  21.227  27.671  1.00  0.00     0.014 A 
ATOM     33  C   UNL A   1      43.436  23.092  25.740  1.00  0.00     0.010 A 
ATOM     34  C   UNL A   1      42.966  22.533  28.047  1.00  0.00     0.010 A 
ATOM     35  C   UNL A   1      43.343  23.483  27.086  1.00  0.00    -0.014 A 
BRANCH  35  36
ATOM     36  C   UNL A   1      43.619  24.881  27.505  1.00  0.00     0.031 A 
ATOM     37  C   UNL A   1      45.035  25.356  27.670  1.00  0.00     0.074 A 
ATOM     38  C   UNL A   1      42.593  25.700  27.814  1.00  0.00     0.049 A 
ATOM     39  N   UNL A   1      45.477  26.509  28.105  1.00  0.00    -0.248 NA
ATOM     40  C   UNL A   1      46.098  24.395  27.332  1.00  0.00     0.031 C 
ATOM     41  C   UNL A   1      41.175  25.342  27.752  1.00  0.00     0.029 A 
ATOM     42  N   UNL A   1      42.586  27.000  28.255  1.00  0.00    -0.354 N 
ATOM     43  C   UNL A   1      46.862  26.406  28.108  1.00  0.00     0.074 A 
ATOM     44  C   UNL A   1      47.187  25.060  27.688  1.00  0.00     0.031 C 
ATOM     45  C   UNL A   1      40.436  26.403  28.115  1.00  0.00     0.029 A 
ATOM     46  C   UNL A   1      41.325  27.503  28.474  1.00  0.00     0.049 A 
ATOM     47  H   UNL A   1      43.407  27.525  28.401  1.00  0.00     0.167 HD
ATOM     48  C   UNL A   1      47.780  27.355  28.409  1.00  0.00     0.037 A 
ATOM     49  C   UNL A   1      40.933  28.711  28.920  1.00  0.00     0.037 A 
ATOM     50  C   UNL A   1      47.455  28.701  28.796  1.00  0.00     0.049 A 
ATOM     51  C   UNL A   1      41.974  29.747  29.248  1.00  0.00     0.074 A 
ATOM     52  C   UNL A   1      48.314  29.757  29.050  1.00  0.00     0.029 A 
ATOM     53  N   UNL A   1      46.167  29.178  28.989  1.00  0.00    -0.354 N 
ATOM     54  N   UNL A   1      43.279  29.662  29.172  1.00  0.00    -0.248 NA
ATOM     55  C   UNL A   1      41.484  31.049  29.722  1.00  0.00     0.031 C 
ATOM     56  C   UNL A   1      47.547  30.860  29.441  1.00  0.00     0.029 A 
ATOM     57  C   UNL A   1      46.209  30.506  29.384  1.00  0.00     0.049 A 
ATOM     58  H   UNL A   1      45.345  28.651  28.863  1.00  0.00     0.167 HD
ATOM     59  C   UNL A   1      43.766  30.901  29.564  1.00  0.00     0.074 A 
ATOM     60  C   UNL A   1      42.615  31.728  29.859  1.00  0.00     0.031 C 
ATOM     61  C   UNL A   1      45.052  31.316  29.670  1.00  0.00     0.037 A 
BRANCH  48  62
ATOM     62  C   UNL A   1      49.229  26.969  28.320  1.00  0.00     0.064 A 
ATOM     63  C   UNL A   1      49.928  27.011  27.104  1.00  0.00     0.173 A 
ATOM     64  C   UNL A   1      49.935  26.583  29.469  1.00  0.00     0.173 A 
ATOM     65  F   UNL A   1      49.296  27.362  25.973  1.00  0.00    -0.203 F 
ATOM     66  C   UNL A   1      51.270  26.650  27.036  1.00  0.00     0.198 A 
ATOM     67  C   UNL A   1      51.286  26.253  29.403  1.00  0.00     0.198 A 
ATOM     68  F   UNL A   1      49.317  26.532  30.659  1.00  0.00    -0.203 F 
ATOM     69  F   UNL A   1      51.903  26.647  25.855  1.00  0.00    -0.200 F 
ATOM     70  C   UNL A   1      51.951  26.279  28.186  1.00  0.00     0.200 A 
ATOM     71  F   UNL A   1      51.946  25.907  30.517  1.00  0.00    -0.200 F 
ATOM     72  F   UNL A   1      53.245  25.938  28.120  1.00  0.00    -0.200 F 
ENDBRANCH  48  62
BRANCH  49  73
ATOM     73  C   UNL A   1      39.485  29.017  29.061  1.00  0.00     0.064 A 
ATOM     74  C   UNL A   1      38.725  29.419  27.954  1.00  0.00     0.173 A 
ATOM     75  C   UNL A   1      38.833  28.924  30.300  1.00  0.00     0.173 A 
ATOM     76  F   UNL A   1      39.308  29.544  26.752  1.00  0.00    -0.203 F 
ATOM     77  C   UNL A   1      37.374  29.735  28.083  1.00  0.00     0.198 A 
ATOM     78  C   UNL A   1      37.476  29.213  30.423  1.00  0.00     0.198 A 
ATOM     79  F   UNL A   1      39.514  28.540  31.390  1.00  0.00    -0.203 F 
ATOM     80  F   UNL A   1      36.683  30.162  27.017  1.00  0.00    -0.200 F 
ATOM     81  C   UNL A   1      36.750  29.627  29.316  1.00  0.00     0.200 A 
ATOM     82  F   UNL A   1      36.872  29.093  31.613  1.00  0.00    -0.200 F 
ATOM     83  F   UNL A   1      35.449  29.928  29.440  1.00  0.00    -0.200 F 
ENDBRANCH  49  73
BRANCH  61  84
ATOM     84  C   UNL A   1      45.283  32.735  30.102  1.00  0.00     0.064 A 
ATOM     85  C   UNL A   1      45.482  33.071  31.449  1.00  0.00     0.173 A 
ATOM     86  C   UNL A   1      45.349  33.765  29.151  1.00  0.00     0.173 A 
ATOM     87  F   UNL A   1      45.413  32.123  32.397  1.00  0.00    -0.203 F 
ATOM     88  C   UNL A   1      45.715  34.389  31.831  1.00  0.00     0.198 A 
ATOM     89  C   UNL A   1      45.612  35.077  29.533  1.00  0.00     0.198 A 
ATOM     90  F   UNL A   1      45.172  33.496  27.849  1.00  0.00    -0.203 F 
ATOM     91  F   UNL A   1      45.856  34.693  33.128  1.00  0.00    -0.200 F 
ATOM     92  C   UNL A   1      45.789  35.389  30.873  1.00  0.00     0.200 A 
ATOM     93  F   UNL A   1      45.695  36.040  28.605  1.00  0.00    -0.200 F 
ATOM     94  F   UNL A   1      46.021  36.656  31.242  1.00  0.00    -0.200 F 
ENDBRANCH  61  84
ENDBRANCH  35  36
ENDBRANCH  27  30
ENDBRANCH  25  26
ENDBRANCH  24  25
ENDBRANCH   1  24
TORSDOF 17
ENDMDL
