MODEL 1
REMARK VINA RESULT:     -12.0      0.000      0.000
REMARK SMILES CC(C)(Cn1ccc(=O)nc1SCC(=O)NCCCCNC(=O)c1ccc(-c2c3nc(c(-c4c(F)c(F)c(F)c(F)c4F)c4ccc([nH]4)c(-c4c(F)c(F)c(F)c(F)c4F)c4nc(c(-c5c(F)c(F)c(F)c(F)c5F)c5ccc2[nH]5)C=C4)C=C3)cc1)S(C)(=O)=O
REMARK SMILES IDX 17 1 16 2 14 3 15 4 13 6 12 7 11 8 5 9 6 10 7 11 10 12 8 13
REMARK SMILES IDX 9 14 4 15 2 16 1 17 3 18 87 19 88 20 89 21 90 22 18 23 19 24
REMARK SMILES IDX 20 25 21 26 22 27 23 29 24 30 25 31 86 32 26 33 85 34 27 35
REMARK SMILES IDX 28 36 29 37 79 38 30 39 84 40 78 41 80 42 31 43 83 44 77 45
REMARK SMILES IDX 76 46 32 48 64 49 44 50 63 51 45 52 48 53 62 54 81 55 46 56
REMARK SMILES IDX 47 57 61 59 82 60 49 61 33 62 34 63 42 64 35 65 36 66 40 67
REMARK SMILES IDX 43 68 37 69 38 70 41 71 39 72 65 73 66 74 74 75 67 76 68 77
REMARK SMILES IDX 72 78 75 79 69 80 70 81 73 82 71 83 50 84 51 85 59 86 52 87
REMARK SMILES IDX 53 88 57 89 60 90 54 91 55 92 58 93 56 94
REMARK H PARENT 16 5 21 28 80 47 48 58
REMARK Flexibility Score: inf
ROOT
ATOM      1  C   UNL A   1      31.673  29.734  25.288  1.00  0.00     0.116 C 
ENDROOT
BRANCH   1   2
ATOM      2  N   UNL A   1      30.582  30.276  24.460  1.00  0.00    -0.355 N 
ATOM      3  C   UNL A   1      29.810  29.899  23.392  1.00  0.00     0.230 C 
ATOM      4  O   UNL A   1      28.858  30.679  23.211  1.00  0.00    -0.274 OA
ATOM      5  H   UNL A   1      30.333  31.179  24.764  1.00  0.00     0.163 HD
BRANCH   3   6
ATOM      6  C   UNL A   1      29.970  28.673  22.459  1.00  0.00     0.178 C 
BRANCH   6   7
ATOM      7  S   UNL A   1      30.012  27.081  23.420  1.00  0.00    -0.078 SA
BRANCH   7   8
ATOM      8  C   UNL A   1      31.160  25.920  22.705  1.00  0.00     0.172 A 
ATOM      9  N   UNL A   1      31.644  24.832  23.449  1.00  0.00    -0.326 N 
ATOM     10  C   UNL A   1      32.829  24.243  23.043  1.00  0.00     0.094 A 
ATOM     11  C   UNL A   1      33.382  24.525  21.866  1.00  0.00     0.091 A 
ATOM     12  N   UNL A   1      31.664  26.271  21.559  1.00  0.00    -0.185 NA
ATOM     13  C   UNL A   1      32.660  25.490  20.997  1.00  0.00     0.273 A 
ATOM     14  O   UNL A   1      33.033  25.590  19.830  1.00  0.00    -0.267 OA
BRANCH   9  15
ATOM     15  C   UNL A   1      30.843  24.137  24.436  1.00  0.00     0.146 C 
BRANCH  15  16
ATOM     16  C   UNL A   1      31.280  24.390  25.912  1.00  0.00     0.084 C 
ATOM     17  C   UNL A   1      32.098  25.668  26.119  1.00  0.00     0.030 C 
ATOM     18  C   UNL A   1      29.958  24.640  26.649  1.00  0.00     0.030 C 
BRANCH  16  19
ATOM     19  S   UNL A   1      32.338  22.994  26.577  1.00  0.00     0.154 S 
ATOM     20  C   UNL A   1      34.053  23.436  26.456  1.00  0.00     0.158 C 
ATOM     21  O   UNL A   1      32.062  22.810  27.978  1.00  0.00    -0.229 OA
ATOM     22  O   UNL A   1      32.250  21.840  25.702  1.00  0.00    -0.229 OA
ENDBRANCH  16  19
ENDBRANCH  15  16
ENDBRANCH   9  15
ENDBRANCH   7   8
ENDBRANCH   6   7
ENDBRANCH   3   6
ENDBRANCH   1   2
BRANCH   1  23
ATOM     23  C   UNL A   1      32.000  30.463  26.608  1.00  0.00     0.023 C 
BRANCH  23  24
ATOM     24  C   UNL A   1      31.709  31.943  26.855  1.00  0.00     0.023 C 
BRANCH  24  25
ATOM     25  C   UNL A   1      32.827  32.876  27.255  1.00  0.00     0.116 C 
BRANCH  25  26
ATOM     26  N   UNL A   1      32.432  34.209  27.673  1.00  0.00    -0.352 N 
ATOM     27  C   UNL A   1      32.993  35.046  28.622  1.00  0.00     0.251 C 
ATOM     28  H   UNL A   1      31.644  34.575  27.210  1.00  0.00     0.163 HD
ATOM     29  O   UNL A   1      32.513  36.162  28.802  1.00  0.00    -0.269 OA
BRANCH  27  30
ATOM     30  C   UNL A   1      34.117  34.586  29.483  1.00  0.00     0.039 A 
ATOM     31  C   UNL A   1      35.432  34.615  29.036  1.00  0.00     0.014 A 
ATOM     32  C   UNL A   1      33.844  34.051  30.748  1.00  0.00     0.014 A 
ATOM     33  C   UNL A   1      36.399  33.863  29.689  1.00  0.00     0.010 A 
ATOM     34  C   UNL A   1      34.867  33.444  31.495  1.00  0.00     0.010 A 
ATOM     35  C   UNL A   1      36.143  33.280  30.939  1.00  0.00    -0.014 A 
BRANCH  35  36
ATOM     36  C   UNL A   1      37.245  32.540  31.622  1.00  0.00     0.031 A 
ATOM     37  C   UNL A   1      38.016  31.450  30.923  1.00  0.00     0.074 A 
ATOM     38  C   UNL A   1      37.608  32.924  32.865  1.00  0.00     0.049 A 
ATOM     39  N   UNL A   1      39.030  30.747  31.368  1.00  0.00    -0.248 NA
ATOM     40  C   UNL A   1      37.603  31.088  29.557  1.00  0.00     0.031 C 
ATOM     41  C   UNL A   1      36.935  33.960  33.654  1.00  0.00     0.029 A 
ATOM     42  N   UNL A   1      38.652  32.533  33.668  1.00  0.00    -0.354 N 
ATOM     43  C   UNL A   1      39.344  29.842  30.361  1.00  0.00     0.074 A 
ATOM     44  C   UNL A   1      38.410  30.071  29.282  1.00  0.00     0.031 C 
ATOM     45  C   UNL A   1      37.630  34.189  34.774  1.00  0.00     0.029 A 
ATOM     46  C   UNL A   1      38.739  33.246  34.841  1.00  0.00     0.049 A 
ATOM     47  H   UNL A   1      39.276  31.811  33.427  1.00  0.00     0.167 HD
ATOM     48  C   UNL A   1      40.328  28.912  30.340  1.00  0.00     0.037 A 
ATOM     49  C   UNL A   1      39.596  33.143  35.875  1.00  0.00     0.037 A 
ATOM     50  C   UNL A   1      41.292  28.725  31.394  1.00  0.00     0.049 A 
ATOM     51  C   UNL A   1      40.674  32.100  35.821  1.00  0.00     0.074 A 
ATOM     52  C   UNL A   1      42.357  27.842  31.436  1.00  0.00     0.029 A 
ATOM     53  N   UNL A   1      41.313  29.435  32.584  1.00  0.00    -0.354 N 
ATOM     54  N   UNL A   1      40.963  31.268  34.852  1.00  0.00    -0.248 NA
ATOM     55  C   UNL A   1      41.529  31.964  37.007  1.00  0.00     0.031 C 
ATOM     56  C   UNL A   1      42.995  27.984  32.669  1.00  0.00     0.029 A 
ATOM     57  C   UNL A   1      42.358  28.991  33.377  1.00  0.00     0.049 A 
ATOM     58  H   UNL A   1      40.681  30.149  32.829  1.00  0.00     0.167 HD
ATOM     59  C   UNL A   1      42.034  30.513  35.307  1.00  0.00     0.074 A 
ATOM     60  C   UNL A   1      42.362  31.003  36.629  1.00  0.00     0.031 C 
ATOM     61  C   UNL A   1      42.678  29.498  34.686  1.00  0.00     0.037 A 
BRANCH  48  62
ATOM     62  C   UNL A   1      40.437  28.006  29.147  1.00  0.00     0.064 A 
ATOM     63  C   UNL A   1      39.672  26.837  29.037  1.00  0.00     0.173 A 
ATOM     64  C   UNL A   1      41.221  28.386  28.044  1.00  0.00     0.173 A 
ATOM     65  F   UNL A   1      38.913  26.428  30.063  1.00  0.00    -0.203 F 
ATOM     66  C   UNL A   1      39.687  26.081  27.867  1.00  0.00     0.198 A 
ATOM     67  C   UNL A   1      41.215  27.639  26.868  1.00  0.00     0.198 A 
ATOM     68  F   UNL A   1      41.963  29.501  28.095  1.00  0.00    -0.203 F 
ATOM     69  F   UNL A   1      38.958  24.959  27.787  1.00  0.00    -0.200 F 
ATOM     70  C   UNL A   1      40.447  26.489  26.780  1.00  0.00     0.200 A 
ATOM     71  F   UNL A   1      41.936  28.046  25.814  1.00  0.00    -0.200 F 
ATOM     72  F   UNL A   1      40.436  25.774  25.646  1.00  0.00    -0.200 F 
ENDBRANCH  48  62
BRANCH  49  73
ATOM     73  C   UNL A   1      39.443  34.039  37.050  1.00  0.00     0.064 A 
ATOM     74  C   UNL A   1      38.717  33.638  38.178  1.00  0.00     0.173 A 
ATOM     75  C   UNL A   1      40.054  35.303  37.084  1.00  0.00     0.173 A 
ATOM     76  F   UNL A   1      38.101  32.447  38.190  1.00  0.00    -0.203 F 
ATOM     77  C   UNL A   1      38.601  34.468  39.292  1.00  0.00     0.198 A 
ATOM     78  C   UNL A   1      39.967  36.117  38.211  1.00  0.00     0.198 A 
ATOM     79  F   UNL A   1      40.767  35.733  36.033  1.00  0.00    -0.203 F 
ATOM     80  F   UNL A   1      37.873  34.074  40.346  1.00  0.00    -0.200 F 
ATOM     81  C   UNL A   1      39.236  35.701  39.311  1.00  0.00     0.200 A 
ATOM     82  F   UNL A   1      40.603  37.296  38.232  1.00  0.00    -0.200 F 
ATOM     83  F   UNL A   1      39.141  36.490  40.391  1.00  0.00    -0.200 F 
ENDBRANCH  49  73
BRANCH  61  84
ATOM     84  C   UNL A   1      43.813  28.845  35.412  1.00  0.00     0.064 A 
ATOM     85  C   UNL A   1      45.132  29.295  35.255  1.00  0.00     0.173 A 
ATOM     86  C   UNL A   1      43.566  27.835  36.355  1.00  0.00     0.173 A 
ATOM     87  F   UNL A   1      45.415  30.248  34.356  1.00  0.00    -0.203 F 
ATOM     88  C   UNL A   1      46.163  28.756  36.016  1.00  0.00     0.198 A 
ATOM     89  C   UNL A   1      44.597  27.316  37.132  1.00  0.00     0.198 A 
ATOM     90  F   UNL A   1      42.319  27.379  36.546  1.00  0.00    -0.203 F 
ATOM     91  F   UNL A   1      47.420  29.187  35.838  1.00  0.00    -0.200 F 
ATOM     92  C   UNL A   1      45.893  27.777  36.962  1.00  0.00     0.200 A 
ATOM     93  F   UNL A   1      44.332  26.384  38.056  1.00  0.00    -0.200 F 
ATOM     94  F   UNL A   1      46.885  27.280  37.714  1.00  0.00    -0.200 F 
ENDBRANCH  61  84
ENDBRANCH  35  36
ENDBRANCH  27  30
ENDBRANCH  25  26
ENDBRANCH  24  25
ENDBRANCH  23  24
ENDBRANCH   1  23
TORSDOF 16
ENDMDL
MODEL 2
REMARK VINA RESULT:     -11.9      1.916      3.463
REMARK SMILES CC(C)(Cn1ccc(=O)nc1SCC(=O)NCCCCNC(=O)c1ccc(-c2c3nc(c(-c4c(F)c(F)c(F)c(F)c4F)c4ccc([nH]4)c(-c4c(F)c(F)c(F)c(F)c4F)c4nc(c(-c5c(F)c(F)c(F)c(F)c5F)c5ccc2[nH]5)C=C4)C=C3)cc1)S(C)(=O)=O
REMARK SMILES IDX 17 1 16 2 14 3 15 4 13 6 12 7 11 8 5 9 6 10 7 11 10 12 8 13
REMARK SMILES IDX 9 14 4 15 2 16 1 17 3 18 87 19 88 20 89 21 90 22 18 23 19 24
REMARK SMILES IDX 20 25 21 26 22 27 23 29 24 30 25 31 86 32 26 33 85 34 27 35
REMARK SMILES IDX 28 36 29 37 79 38 30 39 84 40 78 41 80 42 31 43 83 44 77 45
REMARK SMILES IDX 76 46 32 48 64 49 44 50 63 51 45 52 48 53 62 54 81 55 46 56
REMARK SMILES IDX 47 57 61 59 82 60 49 61 33 62 34 63 42 64 35 65 36 66 40 67
REMARK SMILES IDX 43 68 37 69 38 70 41 71 39 72 65 73 66 74 74 75 67 76 68 77
REMARK SMILES IDX 72 78 75 79 69 80 70 81 73 82 71 83 50 84 51 85 59 86 52 87
REMARK SMILES IDX 53 88 57 89 60 90 54 91 55 92 58 93 56 94
REMARK H PARENT 16 5 21 28 80 47 48 58
REMARK Flexibility Score: inf
ROOT
ATOM      1  C   UNL A   1      34.732  31.794  28.711  1.00  0.00     0.116 C 
ENDROOT
BRANCH   1   2
ATOM      2  N   UNL A   1      33.560  31.243  28.008  1.00  0.00    -0.355 N 
ATOM      3  C   UNL A   1      33.238  30.166  27.224  1.00  0.00     0.230 C 
ATOM      4  O   UNL A   1      32.009  30.067  27.057  1.00  0.00    -0.274 OA
ATOM      5  H   UNL A   1      32.775  31.822  28.139  1.00  0.00     0.163 HD
BRANCH   3   6
ATOM      6  C   UNL A   1      34.175  29.112  26.583  1.00  0.00     0.178 C 
BRANCH   6   7
ATOM      7  S   UNL A   1      33.670  28.719  24.837  1.00  0.00    -0.078 SA
BRANCH   7   8
ATOM      8  C   UNL A   1      33.136  27.026  24.679  1.00  0.00     0.172 A 
ATOM      9  N   UNL A   1      31.857  26.630  25.103  1.00  0.00    -0.326 N 
ATOM     10  C   UNL A   1      31.650  25.291  25.383  1.00  0.00     0.094 A 
ATOM     11  C   UNL A   1      32.542  24.362  25.049  1.00  0.00     0.091 A 
ATOM     12  N   UNL A   1      34.067  26.176  24.360  1.00  0.00    -0.185 NA
ATOM     13  C   UNL A   1      33.766  24.825  24.344  1.00  0.00     0.273 A 
ATOM     14  O   UNL A   1      34.484  23.968  23.835  1.00  0.00    -0.267 OA
BRANCH   9  15
ATOM     15  C   UNL A   1      30.695  27.490  25.001  1.00  0.00     0.146 C 
BRANCH  15  16
ATOM     16  C   UNL A   1      29.999  27.463  23.605  1.00  0.00     0.084 C 
ATOM     17  C   UNL A   1      30.841  26.836  22.489  1.00  0.00     0.030 C 
ATOM     18  C   UNL A   1      28.819  26.503  23.801  1.00  0.00     0.030 C 
BRANCH  16  19
ATOM     19  S   UNL A   1      29.563  29.186  23.007  1.00  0.00     0.154 S 
ATOM     20  C   UNL A   1      27.800  29.345  22.881  1.00  0.00     0.158 C 
ATOM     21  O   UNL A   1      29.992  30.153  23.984  1.00  0.00    -0.229 OA
ATOM     22  O   UNL A   1      29.993  29.360  21.633  1.00  0.00    -0.229 OA
ENDBRANCH  16  19
ENDBRANCH  15  16
ENDBRANCH   9  15
ENDBRANCH   7   8
ENDBRANCH   6   7
ENDBRANCH   3   6
ENDBRANCH   1   2
BRANCH   1  23
ATOM     23  C   UNL A   1      34.614  33.218  29.291  1.00  0.00     0.023 C 
BRANCH  23  24
ATOM     24  C   UNL A   1      33.518  34.208  28.897  1.00  0.00     0.023 C 
BRANCH  24  25
ATOM     25  C   UNL A   1      33.567  35.630  29.403  1.00  0.00     0.116 C 
BRANCH  25  26
ATOM     26  N   UNL A   1      32.573  35.993  30.397  1.00  0.00    -0.352 N 
ATOM     27  C   UNL A   1      32.603  35.862  31.774  1.00  0.00     0.251 C 
ATOM     28  H   UNL A   1      31.750  36.395  30.035  1.00  0.00     0.163 HD
ATOM     29  O   UNL A   1      31.653  36.267  32.439  1.00  0.00    -0.269 OA
BRANCH  27  30
ATOM     30  C   UNL A   1      33.731  35.169  32.455  1.00  0.00     0.039 A 
ATOM     31  C   UNL A   1      34.980  35.765  32.580  1.00  0.00     0.014 A 
ATOM     32  C   UNL A   1      33.555  33.862  32.925  1.00  0.00     0.014 A 
ATOM     33  C   UNL A   1      36.088  34.986  32.879  1.00  0.00     0.010 A 
ATOM     34  C   UNL A   1      34.654  33.127  33.400  1.00  0.00     0.010 A 
ATOM     35  C   UNL A   1      35.947  33.659  33.314  1.00  0.00    -0.014 A 
BRANCH  35  36
ATOM     36  C   UNL A   1      37.174  32.895  33.685  1.00  0.00     0.031 A 
ATOM     37  C   UNL A   1      37.822  31.927  32.728  1.00  0.00     0.074 A 
ATOM     38  C   UNL A   1      37.759  33.149  34.877  1.00  0.00     0.049 A 
ATOM     39  N   UNL A   1      38.916  31.222  32.889  1.00  0.00    -0.248 NA
ATOM     40  C   UNL A   1      37.165  31.707  31.429  1.00  0.00     0.031 C 
ATOM     41  C   UNL A   1      37.225  34.057  35.896  1.00  0.00     0.029 A 
ATOM     42  N   UNL A   1      38.943  32.714  35.419  1.00  0.00    -0.354 N 
ATOM     43  C   UNL A   1      39.053  30.453  31.739  1.00  0.00     0.074 A 
ATOM     44  C   UNL A   1      37.927  30.764  30.889  1.00  0.00     0.031 C 
ATOM     45  C   UNL A   1      38.115  34.185  36.887  1.00  0.00     0.029 A 
ATOM     46  C   UNL A   1      39.236  33.290  36.632  1.00  0.00     0.049 A 
ATOM     47  H   UNL A   1      39.526  32.052  34.980  1.00  0.00     0.167 HD
ATOM     48  C   UNL A   1      40.035  29.575  31.424  1.00  0.00     0.037 A 
ATOM     49  C   UNL A   1      40.275  33.106  37.469  1.00  0.00     0.037 A 
ATOM     50  C   UNL A   1      41.185  29.311  32.250  1.00  0.00     0.049 A 
ATOM     51  C   UNL A   1      41.345  32.124  37.090  1.00  0.00     0.074 A 
ATOM     52  C   UNL A   1      42.257  28.476  31.986  1.00  0.00     0.029 A 
ATOM     53  N   UNL A   1      41.416  29.880  33.492  1.00  0.00    -0.354 N 
ATOM     54  N   UNL A   1      41.463  31.423  35.991  1.00  0.00    -0.248 NA
ATOM     55  C   UNL A   1      42.412  31.891  38.072  1.00  0.00     0.031 C 
ATOM     56  C   UNL A   1      43.114  28.503  33.087  1.00  0.00     0.029 A 
ATOM     57  C   UNL A   1      42.601  29.393  34.018  1.00  0.00     0.049 A 
ATOM     58  H   UNL A   1      40.826  30.532  33.935  1.00  0.00     0.167 HD
ATOM     59  C   UNL A   1      42.617  30.668  36.144  1.00  0.00     0.074 A 
ATOM     60  C   UNL A   1      43.178  31.017  37.432  1.00  0.00     0.031 C 
ATOM     61  C   UNL A   1      43.153  29.760  35.296  1.00  0.00     0.037 A 
BRANCH  48  62
ATOM     62  C   UNL A   1      39.935  28.819  30.130  1.00  0.00     0.064 A 
ATOM     63  C   UNL A   1      40.533  29.292  28.953  1.00  0.00     0.173 A 
ATOM     64  C   UNL A   1      39.346  27.544  30.102  1.00  0.00     0.173 A 
ATOM     65  F   UNL A   1      41.102  30.505  28.926  1.00  0.00    -0.203 F 
ATOM     66  C   UNL A   1      40.545  28.515  27.797  1.00  0.00     0.198 A 
ATOM     67  C   UNL A   1      39.381  26.762  28.951  1.00  0.00     0.198 A 
ATOM     68  F   UNL A   1      38.770  27.043  31.205  1.00  0.00    -0.203 F 
ATOM     69  F   UNL A   1      41.111  28.991  26.679  1.00  0.00    -0.200 F 
ATOM     70  C   UNL A   1      39.981  27.247  27.800  1.00  0.00     0.200 A 
ATOM     71  F   UNL A   1      38.851  25.531  28.962  1.00  0.00    -0.200 F 
ATOM     72  F   UNL A   1      40.020  26.491  26.693  1.00  0.00    -0.200 F 
ENDBRANCH  48  62
BRANCH  49  73
ATOM     73  C   UNL A   1      40.329  33.854  38.753  1.00  0.00     0.064 A 
ATOM     74  C   UNL A   1      41.071  35.035  38.873  1.00  0.00     0.173 A 
ATOM     75  C   UNL A   1      39.607  33.420  39.876  1.00  0.00     0.173 A 
ATOM     76  F   UNL A   1      41.791  35.483  37.835  1.00  0.00    -0.203 F 
ATOM     77  C   UNL A   1      41.094  35.751  40.069  1.00  0.00     0.198 A 
ATOM     78  C   UNL A   1      39.603  34.154  41.059  1.00  0.00     0.198 A 
ATOM     79  F   UNL A   1      38.874  32.299  39.811  1.00  0.00    -0.203 F 
ATOM     80  F   UNL A   1      41.838  36.861  40.168  1.00  0.00    -0.200 F 
ATOM     81  C   UNL A   1      40.351  35.316  41.157  1.00  0.00     0.200 A 
ATOM     82  F   UNL A   1      38.863  33.742  42.097  1.00  0.00    -0.200 F 
ATOM     83  F   UNL A   1      40.357  36.016  42.299  1.00  0.00    -0.200 F 
ENDBRANCH  49  73
BRANCH  61  84
ATOM     84  C   UNL A   1      44.418  29.078  35.715  1.00  0.00     0.064 A 
ATOM     85  C   UNL A   1      45.673  29.630  35.421  1.00  0.00     0.173 A 
ATOM     86  C   UNL A   1      44.373  27.922  36.509  1.00  0.00     0.173 A 
ATOM     87  F   UNL A   1      45.764  30.726  34.654  1.00  0.00    -0.203 F 
ATOM     88  C   UNL A   1      46.839  29.049  35.909  1.00  0.00     0.198 A 
ATOM     89  C   UNL A   1      45.540  27.358  37.016  1.00  0.00     0.198 A 
ATOM     90  F   UNL A   1      43.194  27.363  36.823  1.00  0.00    -0.203 F 
ATOM     91  F   UNL A   1      48.030  29.582  35.602  1.00  0.00    -0.200 F 
ATOM     92  C   UNL A   1      46.770  27.921  36.716  1.00  0.00     0.200 A 
ATOM     93  F   UNL A   1      45.470  26.280  37.808  1.00  0.00    -0.200 F 
ATOM     94  F   UNL A   1      47.893  27.380  37.208  1.00  0.00    -0.200 F 
ENDBRANCH  61  84
ENDBRANCH  35  36
ENDBRANCH  27  30
ENDBRANCH  25  26
ENDBRANCH  24  25
ENDBRANCH  23  24
ENDBRANCH   1  23
TORSDOF 16
ENDMDL
MODEL 3
REMARK VINA RESULT:     -11.9      1.713      3.211
REMARK SMILES CC(C)(Cn1ccc(=O)nc1SCC(=O)NCCCCNC(=O)c1ccc(-c2c3nc(c(-c4c(F)c(F)c(F)c(F)c4F)c4ccc([nH]4)c(-c4c(F)c(F)c(F)c(F)c4F)c4nc(c(-c5c(F)c(F)c(F)c(F)c5F)c5ccc2[nH]5)C=C4)C=C3)cc1)S(C)(=O)=O
REMARK SMILES IDX 17 1 16 2 14 3 15 4 13 6 12 7 11 8 5 9 6 10 7 11 10 12 8 13
REMARK SMILES IDX 9 14 4 15 2 16 1 17 3 18 87 19 88 20 89 21 90 22 18 23 19 24
REMARK SMILES IDX 20 25 21 26 22 27 23 29 24 30 25 31 86 32 26 33 85 34 27 35
REMARK SMILES IDX 28 36 29 37 79 38 30 39 84 40 78 41 80 42 31 43 83 44 77 45
REMARK SMILES IDX 76 46 32 48 64 49 44 50 63 51 45 52 48 53 62 54 81 55 46 56
REMARK SMILES IDX 47 57 61 59 82 60 49 61 33 62 34 63 42 64 35 65 36 66 40 67
REMARK SMILES IDX 43 68 37 69 38 70 41 71 39 72 65 73 66 74 74 75 67 76 68 77
REMARK SMILES IDX 72 78 75 79 69 80 70 81 73 82 71 83 50 84 51 85 59 86 52 87
REMARK SMILES IDX 53 88 57 89 60 90 54 91 55 92 58 93 56 94
REMARK H PARENT 16 5 21 28 80 47 48 58
REMARK Flexibility Score: inf
ROOT
ATOM      1  C   UNL A   1      34.836  31.938  28.473  1.00  0.00     0.116 C 
ENDROOT
BRANCH   1   2
ATOM      2  N   UNL A   1      33.641  31.140  28.151  1.00  0.00    -0.355 N 
ATOM      3  C   UNL A   1      33.255  30.171  27.262  1.00  0.00     0.230 C 
ATOM      4  O   UNL A   1      32.155  29.676  27.568  1.00  0.00    -0.274 OA
ATOM      5  H   UNL A   1      32.898  31.372  28.753  1.00  0.00     0.163 HD
BRANCH   3   6
ATOM      6  C   UNL A   1      34.000  29.643  26.011  1.00  0.00     0.178 C 
BRANCH   6   7
ATOM      7  S   UNL A   1      33.453  27.922  25.564  1.00  0.00    -0.078 SA
BRANCH   7   8
ATOM      8  C   UNL A   1      32.061  27.951  24.451  1.00  0.00     0.172 A 
ATOM      9  N   UNL A   1      31.893  26.951  23.479  1.00  0.00    -0.326 N 
ATOM     10  C   UNL A   1      31.098  27.237  22.383  1.00  0.00     0.094 A 
ATOM     11  C   UNL A   1      30.327  28.321  22.343  1.00  0.00     0.091 A 
ATOM     12  N   UNL A   1      31.363  29.047  24.463  1.00  0.00    -0.185 NA
ATOM     13  C   UNL A   1      30.344  29.204  23.539  1.00  0.00     0.273 A 
ATOM     14  O   UNL A   1      29.481  30.076  23.611  1.00  0.00    -0.267 OA
BRANCH   9  15
ATOM     15  C   UNL A   1      32.277  25.571  23.698  1.00  0.00     0.146 C 
BRANCH  15  16
ATOM     16  C   UNL A   1      31.257  24.747  24.543  1.00  0.00     0.084 C 
ATOM     17  C   UNL A   1      30.067  25.558  25.066  1.00  0.00     0.030 C 
ATOM     18  C   UNL A   1      30.655  23.761  23.534  1.00  0.00     0.030 C 
BRANCH  16  19
ATOM     19  S   UNL A   1      32.058  23.984  26.057  1.00  0.00     0.154 S 
ATOM     20  C   UNL A   1      31.880  22.219  25.999  1.00  0.00     0.158 C 
ATOM     21  O   UNL A   1      33.472  24.252  26.036  1.00  0.00    -0.229 OA
ATOM     22  O   UNL A   1      31.309  24.336  27.248  1.00  0.00    -0.229 OA
ENDBRANCH  16  19
ENDBRANCH  15  16
ENDBRANCH   9  15
ENDBRANCH   7   8
ENDBRANCH   6   7
ENDBRANCH   3   6
ENDBRANCH   1   2
BRANCH   1  23
ATOM     23  C   UNL A   1      34.623  33.299  29.168  1.00  0.00     0.023 C 
BRANCH  23  24
ATOM     24  C   UNL A   1      33.558  34.310  28.745  1.00  0.00     0.023 C 
BRANCH  24  25
ATOM     25  C   UNL A   1      33.570  35.705  29.324  1.00  0.00     0.116 C 
BRANCH  25  26
ATOM     26  N   UNL A   1      32.535  36.006  30.297  1.00  0.00    -0.352 N 
ATOM     27  C   UNL A   1      32.523  35.822  31.669  1.00  0.00     0.251 C 
ATOM     28  H   UNL A   1      31.715  36.403  29.924  1.00  0.00     0.163 HD
ATOM     29  O   UNL A   1      31.543  36.179  32.316  1.00  0.00    -0.269 OA
BRANCH  27  30
ATOM     30  C   UNL A   1      33.644  35.129  32.360  1.00  0.00     0.039 A 
ATOM     31  C   UNL A   1      34.889  35.730  32.507  1.00  0.00     0.014 A 
ATOM     32  C   UNL A   1      33.469  33.817  32.817  1.00  0.00     0.014 A 
ATOM     33  C   UNL A   1      35.997  34.954  32.815  1.00  0.00     0.010 A 
ATOM     34  C   UNL A   1      34.564  33.084  33.301  1.00  0.00     0.010 A 
ATOM     35  C   UNL A   1      35.856  33.623  33.238  1.00  0.00    -0.014 A 
BRANCH  35  36
ATOM     36  C   UNL A   1      37.081  32.862  33.621  1.00  0.00     0.031 A 
ATOM     37  C   UNL A   1      37.731  31.883  32.676  1.00  0.00     0.074 A 
ATOM     38  C   UNL A   1      37.663  33.128  34.811  1.00  0.00     0.049 A 
ATOM     39  N   UNL A   1      38.824  31.179  32.847  1.00  0.00    -0.248 NA
ATOM     40  C   UNL A   1      37.077  31.650  31.378  1.00  0.00     0.031 C 
ATOM     41  C   UNL A   1      37.128  34.048  35.819  1.00  0.00     0.029 A 
ATOM     42  N   UNL A   1      38.846  32.698  35.361  1.00  0.00    -0.354 N 
ATOM     43  C   UNL A   1      38.963  30.398  31.706  1.00  0.00     0.074 A 
ATOM     44  C   UNL A   1      37.840  30.700  30.849  1.00  0.00     0.031 C 
ATOM     45  C   UNL A   1      38.015  34.186  36.811  1.00  0.00     0.029 A 
ATOM     46  C   UNL A   1      39.136  33.287  36.569  1.00  0.00     0.049 A 
ATOM     47  H   UNL A   1      39.429  32.031  34.931  1.00  0.00     0.167 HD
ATOM     48  C   UNL A   1      39.945  29.516  31.403  1.00  0.00     0.037 A 
ATOM     49  C   UNL A   1      40.173  33.111  37.410  1.00  0.00     0.037 A 
ATOM     50  C   UNL A   1      41.093  29.260  32.234  1.00  0.00     0.049 A 
ATOM     51  C   UNL A   1      41.243  32.124  37.044  1.00  0.00     0.074 A 
ATOM     52  C   UNL A   1      42.165  28.421  31.982  1.00  0.00     0.029 A 
ATOM     53  N   UNL A   1      41.321  29.842  33.471  1.00  0.00    -0.354 N 
ATOM     54  N   UNL A   1      41.363  31.411  35.954  1.00  0.00    -0.248 NA
ATOM     55  C   UNL A   1      42.308  31.901  38.032  1.00  0.00     0.031 C 
ATOM     56  C   UNL A   1      43.019  28.459  33.085  1.00  0.00     0.029 A 
ATOM     57  C   UNL A   1      42.505  29.359  34.005  1.00  0.00     0.049 A 
ATOM     58  H   UNL A   1      40.731  30.499  33.905  1.00  0.00     0.167 HD
ATOM     59  C   UNL A   1      42.516  30.657  36.118  1.00  0.00     0.074 A 
ATOM     60  C   UNL A   1      43.074  31.019  37.403  1.00  0.00     0.031 C 
ATOM     61  C   UNL A   1      43.053  29.739  35.281  1.00  0.00     0.037 A 
BRANCH  48  62
ATOM     62  C   UNL A   1      39.848  28.746  30.117  1.00  0.00     0.064 A 
ATOM     63  C   UNL A   1      40.414  29.225  28.927  1.00  0.00     0.173 A 
ATOM     64  C   UNL A   1      39.295  27.454  30.108  1.00  0.00     0.173 A 
ATOM     65  F   UNL A   1      40.948  30.454  28.881  1.00  0.00    -0.203 F 
ATOM     66  C   UNL A   1      40.431  28.439  27.777  1.00  0.00     0.198 A 
ATOM     67  C   UNL A   1      39.336  26.663  28.963  1.00  0.00     0.198 A 
ATOM     68  F   UNL A   1      38.751  26.946  31.224  1.00  0.00    -0.203 F 
ATOM     69  F   UNL A   1      40.966  28.922  26.646  1.00  0.00    -0.200 F 
ATOM     70  C   UNL A   1      39.905  27.156  27.799  1.00  0.00     0.200 A 
ATOM     71  F   UNL A   1      38.842  25.418  28.992  1.00  0.00    -0.200 F 
ATOM     72  F   UNL A   1      39.949  26.392  26.698  1.00  0.00    -0.200 F 
ENDBRANCH  48  62
BRANCH  49  73
ATOM     73  C   UNL A   1      40.224  33.873  38.686  1.00  0.00     0.064 A 
ATOM     74  C   UNL A   1      40.957  35.061  38.792  1.00  0.00     0.173 A 
ATOM     75  C   UNL A   1      39.508  33.445  39.815  1.00  0.00     0.173 A 
ATOM     76  F   UNL A   1      41.671  35.504  37.747  1.00  0.00    -0.203 F 
ATOM     77  C   UNL A   1      40.978  35.790  39.980  1.00  0.00     0.198 A 
ATOM     78  C   UNL A   1      39.501  34.191  40.991  1.00  0.00     0.198 A 
ATOM     79  F   UNL A   1      38.784  32.317  39.764  1.00  0.00    -0.203 F 
ATOM     80  F   UNL A   1      41.713  36.906  40.066  1.00  0.00    -0.200 F 
ATOM     81  C   UNL A   1      40.241  35.360  41.075  1.00  0.00     0.200 A 
ATOM     82  F   UNL A   1      38.768  33.784  42.035  1.00  0.00    -0.200 F 
ATOM     83  F   UNL A   1      40.244  36.072  42.210  1.00  0.00    -0.200 F 
ENDBRANCH  49  73
BRANCH  61  84
ATOM     84  C   UNL A   1      44.317  29.061  35.710  1.00  0.00     0.064 A 
ATOM     85  C   UNL A   1      44.288  27.854  36.423  1.00  0.00     0.173 A 
ATOM     86  C   UNL A   1      45.565  29.565  35.312  1.00  0.00     0.173 A 
ATOM     87  F   UNL A   1      43.119  27.342  36.835  1.00  0.00    -0.203 F 
ATOM     88  C   UNL A   1      45.465  27.175  36.721  1.00  0.00     0.198 A 
ATOM     89  C   UNL A   1      46.737  28.871  35.591  1.00  0.00     0.198 A 
ATOM     90  F   UNL A   1      45.640  30.713  34.622  1.00  0.00    -0.203 F 
ATOM     91  F   UNL A   1      45.418  26.031  37.418  1.00  0.00    -0.200 F 
ATOM     92  C   UNL A   1      46.687  27.677  36.294  1.00  0.00     0.200 A 
ATOM     93  F   UNL A   1      47.914  29.348  35.163  1.00  0.00    -0.200 F 
ATOM     94  F   UNL A   1      47.816  27.006  36.558  1.00  0.00    -0.200 F 
ENDBRANCH  61  84
ENDBRANCH  35  36
ENDBRANCH  27  30
ENDBRANCH  25  26
ENDBRANCH  24  25
ENDBRANCH  23  24
ENDBRANCH   1  23
TORSDOF 16
ENDMDL
