MODEL 1
REMARK VINA RESULT:     -11.7      0.000      0.000
REMARK SMILES CCC[C@H](C)C(=O)N1CC[C@H](C(=O)NCCCCNC(=O)c2ccc(-c3c4nc(c(-c5c(F)c(F)c(F)c(F)c5F)c5ccc([nH]5)c(-c5c(F)c(F)c(F)c(F)c5F)c5nc(c(-c6c(F)c(F)c(F)c(F)c6F)c6ccc3[nH]6)C=C5)C=C4)cc2)[C@@H]1C
REMARK SMILES IDX 15 1 14 2 12 3 13 4 11 6 8 7 9 8 85 9 10 10 86 11 6 12 7 13
REMARK SMILES IDX 4 14 5 15 3 16 2 17 1 18 16 19 17 20 18 21 19 22 20 23 21 25
REMARK SMILES IDX 22 26 23 27 84 28 24 29 83 30 25 31 26 32 27 33 77 34 28 35
REMARK SMILES IDX 82 36 76 37 78 38 29 39 81 40 75 41 74 42 30 44 62 45 42 46
REMARK SMILES IDX 61 47 43 48 46 49 60 50 79 51 44 52 45 53 59 55 80 56 47 57
REMARK SMILES IDX 31 58 32 59 40 60 33 61 34 62 38 63 41 64 35 65 36 66 39 67
REMARK SMILES IDX 37 68 63 69 64 70 72 71 65 72 66 73 70 74 73 75 67 76 68 77
REMARK SMILES IDX 71 78 69 79 48 80 49 81 57 82 50 83 51 84 55 85 58 86 52 87
REMARK SMILES IDX 53 88 56 89 54 90
REMARK H PARENT 14 5 19 24 78 43 46 54
REMARK Flexibility Score: inf
ROOT
ATOM      1  C   UNL A   1      35.530  20.647  25.177  1.00  0.00     0.116 C 
ENDROOT
BRANCH   1   2
ATOM      2  N   UNL A   1      34.846  21.079  26.377  1.00  0.00    -0.356 N 
ATOM      3  C   UNL A   1      33.677  21.721  26.621  1.00  0.00     0.225 C 
ATOM      4  O   UNL A   1      33.512  22.020  27.810  1.00  0.00    -0.275 OA
ATOM      5  H   UNL A   1      35.339  20.857  27.200  1.00  0.00     0.163 HD
BRANCH   3   6
ATOM      6  C   UNL A   1      32.665  22.194  25.562  1.00  0.00     0.102 C 
ATOM      7  N   UNL A   1      31.433  24.224  25.967  1.00  0.00    -0.339 N 
ATOM      8  C   UNL A   1      30.796  23.138  26.671  1.00  0.00     0.120 C 
ATOM      9  C   UNL A   1      32.657  23.750  25.293  1.00  0.00     0.094 C 
ATOM     10  C   UNL A   1      31.172  21.968  25.787  1.00  0.00     0.037 C 
ATOM     11  C   UNL A   1      33.864  24.552  25.770  1.00  0.00     0.032 C 
BRANCH   7  12
ATOM     12  C   UNL A   1      30.753  25.411  25.881  1.00  0.00     0.225 C 
ATOM     13  O   UNL A   1      29.744  25.591  26.572  1.00  0.00    -0.275 OA
BRANCH  12  14
ATOM     14  C   UNL A   1      31.102  26.425  24.788  1.00  0.00     0.075 C 
ATOM     15  C   UNL A   1      29.903  26.906  23.978  1.00  0.00     0.018 C 
BRANCH  14  16
ATOM     16  C   UNL A   1      31.964  27.618  25.253  1.00  0.00     0.013 C 
BRANCH  16  17
ATOM     17  C   UNL A   1      32.400  27.692  26.723  1.00  0.00    -0.003 C 
ATOM     18  C   UNL A   1      31.494  28.452  27.674  1.00  0.00     0.004 C 
ENDBRANCH  16  17
ENDBRANCH  14  16
ENDBRANCH  12  14
ENDBRANCH   7  12
ENDBRANCH   3   6
ENDBRANCH   1   2
BRANCH   1  19
ATOM     19  C   UNL A   1      36.956  21.176  25.064  1.00  0.00     0.023 C 
BRANCH  19  20
ATOM     20  C   UNL A   1      38.056  20.131  24.959  1.00  0.00     0.023 C 
BRANCH  20  21
ATOM     21  C   UNL A   1      39.281  20.384  25.826  1.00  0.00     0.116 C 
BRANCH  21  22
ATOM     22  N   UNL A   1      40.194  19.251  25.887  1.00  0.00    -0.352 N 
ATOM     23  C   UNL A   1      41.552  19.227  26.112  1.00  0.00     0.251 C 
ATOM     24  H   UNL A   1      39.778  18.371  25.745  1.00  0.00     0.163 HD
ATOM     25  O   UNL A   1      42.179  18.184  26.019  1.00  0.00    -0.269 OA
BRANCH  23  26
ATOM     26  C   UNL A   1      42.255  20.489  26.426  1.00  0.00     0.039 A 
ATOM     27  C   UNL A   1      42.837  21.214  25.384  1.00  0.00     0.014 A 
ATOM     28  C   UNL A   1      42.290  20.975  27.733  1.00  0.00     0.014 A 
ATOM     29  C   UNL A   1      43.374  22.477  25.641  1.00  0.00     0.010 A 
ATOM     30  C   UNL A   1      42.743  22.267  27.972  1.00  0.00     0.010 A 
ATOM     31  C   UNL A   1      43.285  23.032  26.927  1.00  0.00    -0.014 A 
BRANCH  31  32
ATOM     32  C   UNL A   1      43.742  24.416  27.206  1.00  0.00     0.031 A 
ATOM     33  C   UNL A   1      42.762  25.448  27.687  1.00  0.00     0.074 A 
ATOM     34  C   UNL A   1      45.013  24.767  26.930  1.00  0.00     0.049 A 
ATOM     35  N   UNL A   1      42.940  26.728  27.894  1.00  0.00    -0.248 NA
ATOM     36  C   UNL A   1      41.386  24.986  27.931  1.00  0.00     0.031 C 
ATOM     37  C   UNL A   1      46.038  23.874  26.387  1.00  0.00     0.029 A 
ATOM     38  N   UNL A   1      45.653  25.975  27.049  1.00  0.00    -0.354 N 
ATOM     39  C   UNL A   1      41.697  27.226  28.260  1.00  0.00     0.074 A 
ATOM     40  C   UNL A   1      40.764  26.123  28.199  1.00  0.00     0.031 C 
ATOM     41  C   UNL A   1      47.182  24.560  26.234  1.00  0.00     0.029 A 
ATOM     42  C   UNL A   1      46.963  25.946  26.636  1.00  0.00     0.049 A 
ATOM     43  H   UNL A   1      45.216  26.785  27.397  1.00  0.00     0.167 HD
ATOM     44  C   UNL A   1      41.371  28.485  28.636  1.00  0.00     0.037 A 
ATOM     45  C   UNL A   1      47.882  26.929  26.582  1.00  0.00     0.037 A 
ATOM     46  C   UNL A   1      42.313  29.567  28.737  1.00  0.00     0.049 A 
ATOM     47  C   UNL A   1      47.508  28.309  27.048  1.00  0.00     0.074 A 
ATOM     48  C   UNL A   1      42.105  30.852  29.205  1.00  0.00     0.029 A 
ATOM     49  N   UNL A   1      43.647  29.488  28.360  1.00  0.00    -0.354 N 
ATOM     50  N   UNL A   1      46.352  28.749  27.483  1.00  0.00    -0.248 NA
ATOM     51  C   UNL A   1      48.567  29.327  27.025  1.00  0.00     0.031 C 
ATOM     52  C   UNL A   1      43.303  31.564  29.071  1.00  0.00     0.029 A 
ATOM     53  C   UNL A   1      44.268  30.709  28.564  1.00  0.00     0.049 A 
ATOM     54  H   UNL A   1      44.086  28.683  28.002  1.00  0.00     0.167 HD
ATOM     55  C   UNL A   1      46.547  30.085  27.803  1.00  0.00     0.074 A 
ATOM     56  C   UNL A   1      47.939  30.380  27.528  1.00  0.00     0.031 C 
ATOM     57  C   UNL A   1      45.655  30.986  28.282  1.00  0.00     0.037 A 
BRANCH  44  58
ATOM     58  C   UNL A   1      39.931  28.756  28.965  1.00  0.00     0.064 A 
ATOM     59  C   UNL A   1      39.420  28.555  30.256  1.00  0.00     0.173 A 
ATOM     60  C   UNL A   1      39.055  29.234  27.980  1.00  0.00     0.173 A 
ATOM     61  F   UNL A   1      40.213  28.088  31.232  1.00  0.00    -0.203 F 
ATOM     62  C   UNL A   1      38.076  28.786  30.539  1.00  0.00     0.198 A 
ATOM     63  C   UNL A   1      37.720  29.494  28.273  1.00  0.00     0.198 A 
ATOM     64  F   UNL A   1      39.494  29.448  26.730  1.00  0.00    -0.203 F 
ATOM     65  F   UNL A   1      37.597  28.531  31.764  1.00  0.00    -0.200 F 
ATOM     66  C   UNL A   1      37.229  29.260  29.549  1.00  0.00     0.200 A 
ATOM     67  F   UNL A   1      36.904  29.963  27.319  1.00  0.00    -0.200 F 
ATOM     68  F   UNL A   1      35.935  29.483  29.823  1.00  0.00    -0.200 F 
ENDBRANCH  44  58
BRANCH  45  69
ATOM     69  C   UNL A   1      49.252  26.628  26.096  1.00  0.00     0.064 A 
ATOM     70  C   UNL A   1      49.629  26.927  24.780  1.00  0.00     0.173 A 
ATOM     71  C   UNL A   1      50.217  26.061  26.940  1.00  0.00     0.173 A 
ATOM     72  F   UNL A   1      48.735  27.453  23.930  1.00  0.00    -0.203 F 
ATOM     73  C   UNL A   1      50.918  26.660  24.322  1.00  0.00     0.198 A 
ATOM     74  C   UNL A   1      51.512  25.816  26.489  1.00  0.00     0.198 A 
ATOM     75  F   UNL A   1      49.907  25.764  28.210  1.00  0.00    -0.203 F 
ATOM     76  F   UNL A   1      51.244  26.926  23.050  1.00  0.00    -0.200 F 
ATOM     77  C   UNL A   1      51.861  26.111  25.179  1.00  0.00     0.200 A 
ATOM     78  F   UNL A   1      52.425  25.301  27.323  1.00  0.00    -0.200 F 
ATOM     79  F   UNL A   1      53.103  25.864  24.742  1.00  0.00    -0.200 F 
ENDBRANCH  45  69
BRANCH  57  80
ATOM     80  C   UNL A   1      46.158  32.372  28.558  1.00  0.00     0.064 A 
ATOM     81  C   UNL A   1      46.713  32.717  29.798  1.00  0.00     0.173 A 
ATOM     82  C   UNL A   1      46.124  33.352  27.554  1.00  0.00     0.173 A 
ATOM     83  F   UNL A   1      46.753  31.820  30.794  1.00  0.00    -0.203 F 
ATOM     84  C   UNL A   1      47.202  34.001  30.028  1.00  0.00     0.198 A 
ATOM     85  C   UNL A   1      46.638  34.625  27.780  1.00  0.00     0.198 A 
ATOM     86  F   UNL A   1      45.608  33.068  26.349  1.00  0.00    -0.203 F 
ATOM     87  F   UNL A   1      47.692  34.322  31.234  1.00  0.00    -0.200 F 
ATOM     88  C   UNL A   1      47.170  34.950  29.018  1.00  0.00     0.200 A 
ATOM     89  F   UNL A   1      46.619  35.537  26.798  1.00  0.00    -0.200 F 
ATOM     90  F   UNL A   1      47.649  36.182  29.240  1.00  0.00    -0.200 F 
ENDBRANCH  57  80
ENDBRANCH  31  32
ENDBRANCH  23  26
ENDBRANCH  21  22
ENDBRANCH  20  21
ENDBRANCH  19  20
ENDBRANCH   1  19
TORSDOF 15
ENDMDL
MODEL 2
REMARK VINA RESULT:     -11.6      5.847     11.364
REMARK SMILES CCC[C@H](C)C(=O)N1CC[C@H](C(=O)NCCCCNC(=O)c2ccc(-c3c4nc(c(-c5c(F)c(F)c(F)c(F)c5F)c5ccc([nH]5)c(-c5c(F)c(F)c(F)c(F)c5F)c5nc(c(-c6c(F)c(F)c(F)c(F)c6F)c6ccc3[nH]6)C=C5)C=C4)cc2)[C@@H]1C
REMARK SMILES IDX 15 1 14 2 12 3 13 4 11 6 8 7 9 8 85 9 10 10 86 11 6 12 7 13
REMARK SMILES IDX 4 14 5 15 3 16 2 17 1 18 16 19 17 20 18 21 19 22 20 23 21 25
REMARK SMILES IDX 22 26 23 27 84 28 24 29 83 30 25 31 26 32 27 33 77 34 28 35
REMARK SMILES IDX 82 36 76 37 78 38 29 39 81 40 75 41 74 42 30 44 62 45 42 46
REMARK SMILES IDX 61 47 43 48 46 49 60 50 79 51 44 52 45 53 59 55 80 56 47 57
REMARK SMILES IDX 31 58 32 59 40 60 33 61 34 62 38 63 41 64 35 65 36 66 39 67
REMARK SMILES IDX 37 68 63 69 64 70 72 71 65 72 66 73 70 74 73 75 67 76 68 77
REMARK SMILES IDX 71 78 69 79 48 80 49 81 57 82 50 83 51 84 55 85 58 86 52 87
REMARK SMILES IDX 53 88 56 89 54 90
REMARK H PARENT 14 5 19 24 78 43 46 54
REMARK Flexibility Score: inf
ROOT
ATOM      1  C   UNL A   1      33.170  29.573  26.495  1.00  0.00     0.116 C 
ENDROOT
BRANCH   1   2
ATOM      2  N   UNL A   1      33.532  29.625  25.094  1.00  0.00    -0.356 N 
ATOM      3  C   UNL A   1      33.187  28.900  24.001  1.00  0.00     0.225 C 
ATOM      4  O   UNL A   1      33.830  29.195  22.986  1.00  0.00    -0.275 OA
ATOM      5  H   UNL A   1      34.169  30.346  24.890  1.00  0.00     0.163 HD
BRANCH   3   6
ATOM      6  C   UNL A   1      32.205  27.716  23.972  1.00  0.00     0.102 C 
ATOM      7  N   UNL A   1      32.972  25.600  23.111  1.00  0.00    -0.339 N 
ATOM      8  C   UNL A   1      32.603  26.452  22.007  1.00  0.00     0.120 C 
ATOM      9  C   UNL A   1      32.824  26.324  24.388  1.00  0.00     0.094 C 
ATOM     10  C   UNL A   1      31.541  27.314  22.657  1.00  0.00     0.037 C 
ATOM     11  C   UNL A   1      34.152  26.341  25.139  1.00  0.00     0.032 C 
BRANCH   7  12
ATOM     12  C   UNL A   1      33.211  24.278  22.841  1.00  0.00     0.225 C 
ATOM     13  O   UNL A   1      33.334  23.904  21.669  1.00  0.00    -0.275 OA
BRANCH  12  14
ATOM     14  C   UNL A   1      33.113  23.231  23.953  1.00  0.00     0.075 C 
ATOM     15  C   UNL A   1      31.703  22.700  24.189  1.00  0.00     0.018 C 
BRANCH  14  16
ATOM     16  C   UNL A   1      34.126  22.070  23.852  1.00  0.00     0.013 C 
BRANCH  16  17
ATOM     17  C   UNL A   1      35.577  22.312  24.289  1.00  0.00    -0.003 C 
ATOM     18  C   UNL A   1      36.519  22.906  23.258  1.00  0.00     0.004 C 
ENDBRANCH  16  17
ENDBRANCH  14  16
ENDBRANCH  12  14
ENDBRANCH   7  12
ENDBRANCH   3   6
ENDBRANCH   1   2
BRANCH   1  19
ATOM     19  C   UNL A   1      31.807  30.186  26.796  1.00  0.00     0.023 C 
BRANCH  19  20
ATOM     20  C   UNL A   1      31.706  31.699  26.672  1.00  0.00     0.023 C 
BRANCH  20  21
ATOM     21  C   UNL A   1      32.805  32.486  27.371  1.00  0.00     0.116 C 
BRANCH  21  22
ATOM     22  N   UNL A   1      32.457  33.879  27.614  1.00  0.00    -0.352 N 
ATOM     23  C   UNL A   1      33.004  34.781  28.499  1.00  0.00     0.251 C 
ATOM     24  H   UNL A   1      31.719  34.228  27.064  1.00  0.00     0.163 HD
ATOM     25  O   UNL A   1      32.509  35.887  28.644  1.00  0.00    -0.269 OA
BRANCH  23  26
ATOM     26  C   UNL A   1      34.177  34.382  29.304  1.00  0.00     0.039 A 
ATOM     27  C   UNL A   1      33.968  33.771  30.543  1.00  0.00     0.014 A 
ATOM     28  C   UNL A   1      35.471  34.562  28.814  1.00  0.00     0.014 A 
ATOM     29  C   UNL A   1      35.057  33.256  31.249  1.00  0.00     0.010 A 
ATOM     30  C   UNL A   1      36.542  33.970  29.472  1.00  0.00     0.010 A 
ATOM     31  C   UNL A   1      36.345  33.307  30.693  1.00  0.00    -0.014 A 
BRANCH  31  32
ATOM     32  C   UNL A   1      37.502  32.666  31.364  1.00  0.00     0.031 A 
ATOM     33  C   UNL A   1      38.195  31.501  30.717  1.00  0.00     0.074 A 
ATOM     34  C   UNL A   1      37.865  33.067  32.598  1.00  0.00     0.049 A 
ATOM     35  N   UNL A   1      39.158  30.746  31.181  1.00  0.00    -0.248 NA
ATOM     36  C   UNL A   1      37.714  31.107  29.383  1.00  0.00     0.031 C 
ATOM     37  C   UNL A   1      37.220  34.138  33.362  1.00  0.00     0.029 A 
ATOM     38  N   UNL A   1      38.851  32.609  33.435  1.00  0.00    -0.354 N 
ATOM     39  C   UNL A   1      39.373  29.774  30.214  1.00  0.00     0.074 A 
ATOM     40  C   UNL A   1      38.410  30.003  29.161  1.00  0.00     0.031 C 
ATOM     41  C   UNL A   1      37.837  34.263  34.549  1.00  0.00     0.029 A 
ATOM     42  C   UNL A   1      38.896  33.262  34.642  1.00  0.00     0.049 A 
ATOM     43  H   UNL A   1      39.467  31.880  33.193  1.00  0.00     0.167 HD
ATOM     44  C   UNL A   1      40.308  28.794  30.197  1.00  0.00     0.037 A 
ATOM     45  C   UNL A   1      39.698  33.072  35.706  1.00  0.00     0.037 A 
ATOM     46  C   UNL A   1      41.292  28.600  31.227  1.00  0.00     0.049 A 
ATOM     47  C   UNL A   1      40.757  32.007  35.645  1.00  0.00     0.074 A 
ATOM     48  C   UNL A   1      42.345  27.703  31.257  1.00  0.00     0.029 A 
ATOM     49  N   UNL A   1      41.342  29.317  32.415  1.00  0.00    -0.354 N 
ATOM     50  N   UNL A   1      41.016  31.153  34.686  1.00  0.00    -0.248 NA
ATOM     51  C   UNL A   1      41.644  31.886  36.810  1.00  0.00     0.031 C 
ATOM     52  C   UNL A   1      43.006  27.847  32.482  1.00  0.00     0.029 A 
ATOM     53  C   UNL A   1      42.394  28.866  33.195  1.00  0.00     0.049 A 
ATOM     54  H   UNL A   1      40.722  30.039  32.665  1.00  0.00     0.167 HD
ATOM     55  C   UNL A   1      42.103  30.407  35.119  1.00  0.00     0.074 A 
ATOM     56  C   UNL A   1      42.467  30.921  36.423  1.00  0.00     0.031 C 
ATOM     57  C   UNL A   1      42.741  29.388  34.493  1.00  0.00     0.037 A 
BRANCH  44  58
ATOM     58  C   UNL A   1      40.305  27.858  29.023  1.00  0.00     0.064 A 
ATOM     59  C   UNL A   1      39.561  26.668  29.030  1.00  0.00     0.173 A 
ATOM     60  C   UNL A   1      41.044  28.162  27.871  1.00  0.00     0.173 A 
ATOM     61  F   UNL A   1      38.846  26.324  30.112  1.00  0.00    -0.203 F 
ATOM     62  C   UNL A   1      39.590  25.798  27.943  1.00  0.00     0.198 A 
ATOM     63  C   UNL A   1      41.046  27.307  26.773  1.00  0.00     0.198 A 
ATOM     64  F   UNL A   1      41.769  29.291  27.810  1.00  0.00    -0.203 F 
ATOM     65  F   UNL A   1      38.919  24.639  27.996  1.00  0.00    -0.200 F 
ATOM     66  C   UNL A   1      40.328  26.121  26.814  1.00  0.00     0.200 A 
ATOM     67  F   UNL A   1      41.750  27.624  25.678  1.00  0.00    -0.200 F 
ATOM     68  F   UNL A   1      40.354  25.283  25.767  1.00  0.00    -0.200 F 
ENDBRANCH  44  58
BRANCH  45  69
ATOM     69  C   UNL A   1      39.544  33.935  36.905  1.00  0.00     0.064 A 
ATOM     70  C   UNL A   1      38.773  33.516  37.998  1.00  0.00     0.173 A 
ATOM     71  C   UNL A   1      40.184  35.179  36.994  1.00  0.00     0.173 A 
ATOM     72  F   UNL A   1      38.128  32.341  37.951  1.00  0.00    -0.203 F 
ATOM     73  C   UNL A   1      38.637  34.315  39.132  1.00  0.00     0.198 A 
ATOM     74  C   UNL A   1      40.067  35.967  38.138  1.00  0.00     0.198 A 
ATOM     75  F   UNL A   1      40.939  35.621  35.979  1.00  0.00    -0.203 F 
ATOM     76  F   UNL A   1      37.868  33.905  40.149  1.00  0.00    -0.200 F 
ATOM     77  C   UNL A   1      39.290  35.537  39.204  1.00  0.00     0.200 A 
ATOM     78  F   UNL A   1      40.711  37.139  38.211  1.00  0.00    -0.200 F 
ATOM     79  F   UNL A   1      39.168  36.300  40.298  1.00  0.00    -0.200 F 
ENDBRANCH  45  69
BRANCH  57  80
ATOM     80  C   UNL A   1      43.912  28.772  35.201  1.00  0.00     0.064 A 
ATOM     81  C   UNL A   1      45.211  29.273  35.042  1.00  0.00     0.173 A 
ATOM     82  C   UNL A   1      43.722  27.697  36.083  1.00  0.00     0.173 A 
ATOM     83  F   UNL A   1      45.445  30.289  34.198  1.00  0.00    -0.203 F 
ATOM     84  C   UNL A   1      46.283  28.707  35.729  1.00  0.00     0.198 A 
ATOM     85  C   UNL A   1      44.791  27.153  36.788  1.00  0.00     0.198 A 
ATOM     86  F   UNL A   1      42.496  27.186  36.273  1.00  0.00    -0.203 F 
ATOM     87  F   UNL A   1      47.523  29.175  35.532  1.00  0.00    -0.200 F 
ATOM     88  C   UNL A   1      46.071  27.654  36.605  1.00  0.00     0.200 A 
ATOM     89  F   UNL A   1      44.582  26.143  37.644  1.00  0.00    -0.200 F 
ATOM     90  F   UNL A   1      47.103  27.117  37.271  1.00  0.00    -0.200 F 
ENDBRANCH  57  80
ENDBRANCH  31  32
ENDBRANCH  23  26
ENDBRANCH  21  22
ENDBRANCH  20  21
ENDBRANCH  19  20
ENDBRANCH   1  19
TORSDOF 15
ENDMDL
MODEL 3
REMARK VINA RESULT:     -11.6      5.807     11.362
REMARK SMILES CCC[C@H](C)C(=O)N1CC[C@H](C(=O)NCCCCNC(=O)c2ccc(-c3c4nc(c(-c5c(F)c(F)c(F)c(F)c5F)c5ccc([nH]5)c(-c5c(F)c(F)c(F)c(F)c5F)c5nc(c(-c6c(F)c(F)c(F)c(F)c6F)c6ccc3[nH]6)C=C5)C=C4)cc2)[C@@H]1C
REMARK SMILES IDX 15 1 14 2 12 3 13 4 11 6 8 7 9 8 85 9 10 10 86 11 6 12 7 13
REMARK SMILES IDX 4 14 5 15 3 16 2 17 1 18 16 19 17 20 18 21 19 22 20 23 21 25
REMARK SMILES IDX 22 26 23 27 84 28 24 29 83 30 25 31 26 32 27 33 77 34 28 35
REMARK SMILES IDX 82 36 76 37 78 38 29 39 81 40 75 41 74 42 30 44 62 45 42 46
REMARK SMILES IDX 61 47 43 48 46 49 60 50 79 51 44 52 45 53 59 55 80 56 47 57
REMARK SMILES IDX 31 58 32 59 40 60 33 61 34 62 38 63 41 64 35 65 36 66 39 67
REMARK SMILES IDX 37 68 63 69 64 70 72 71 65 72 66 73 70 74 73 75 67 76 68 77
REMARK SMILES IDX 71 78 69 79 48 80 49 81 57 82 50 83 51 84 55 85 58 86 52 87
REMARK SMILES IDX 53 88 56 89 54 90
REMARK H PARENT 14 5 19 24 78 43 46 54
REMARK Flexibility Score: inf
ROOT
ATOM      1  C   UNL A   1      32.365  29.691  25.387  1.00  0.00     0.116 C 
ENDROOT
BRANCH   1   2
ATOM      2  N   UNL A   1      31.447  28.678  24.913  1.00  0.00    -0.356 N 
ATOM      3  C   UNL A   1      31.478  27.323  24.857  1.00  0.00     0.225 C 
ATOM      4  O   UNL A   1      30.521  26.827  24.250  1.00  0.00    -0.275 OA
ATOM      5  H   UNL A   1      30.614  29.056  24.549  1.00  0.00     0.163 HD
BRANCH   3   6
ATOM      6  C   UNL A   1      32.623  26.423  25.354  1.00  0.00     0.102 C 
ATOM      7  N   UNL A   1      33.266  24.527  24.013  1.00  0.00    -0.339 N 
ATOM      8  C   UNL A   1      32.111  24.176  24.802  1.00  0.00     0.120 C 
ATOM      9  C   UNL A   1      33.627  25.940  24.234  1.00  0.00     0.094 C 
ATOM     10  C   UNL A   1      32.303  25.078  26.002  1.00  0.00     0.037 C 
ATOM     11  C   UNL A   1      33.620  26.699  22.909  1.00  0.00     0.032 C 
BRANCH   7  12
ATOM     12  C   UNL A   1      33.921  23.516  23.361  1.00  0.00     0.225 C 
ATOM     13  O   UNL A   1      33.447  23.047  22.320  1.00  0.00    -0.275 OA
BRANCH  12  14
ATOM     14  C   UNL A   1      35.113  22.815  24.019  1.00  0.00     0.075 C 
ATOM     15  C   UNL A   1      36.441  23.036  23.304  1.00  0.00     0.018 C 
BRANCH  14  16
ATOM     16  C   UNL A   1      35.260  23.060  25.537  1.00  0.00     0.013 C 
BRANCH  16  17
ATOM     17  C   UNL A   1      34.935  21.918  26.508  1.00  0.00    -0.003 C 
ATOM     18  C   UNL A   1      33.964  22.223  27.634  1.00  0.00     0.004 C 
ENDBRANCH  16  17
ENDBRANCH  14  16
ENDBRANCH  12  14
ENDBRANCH   7  12
ENDBRANCH   3   6
ENDBRANCH   1   2
BRANCH   1  19
ATOM     19  C   UNL A   1      31.960  30.304  26.722  1.00  0.00     0.023 C 
BRANCH  19  20
ATOM     20  C   UNL A   1      31.728  31.807  26.731  1.00  0.00     0.023 C 
BRANCH  20  21
ATOM     21  C   UNL A   1      32.854  32.638  27.329  1.00  0.00     0.116 C 
BRANCH  21  22
ATOM     22  N   UNL A   1      32.468  34.010  27.628  1.00  0.00    -0.352 N 
ATOM     23  C   UNL A   1      32.987  34.888  28.553  1.00  0.00     0.251 C 
ATOM     24  H   UNL A   1      31.725  34.362  27.088  1.00  0.00     0.163 HD
ATOM     25  O   UNL A   1      32.461  35.974  28.741  1.00  0.00    -0.269 OA
BRANCH  23  26
ATOM     26  C   UNL A   1      34.165  34.486  29.350  1.00  0.00     0.039 A 
ATOM     27  C   UNL A   1      33.965  33.927  30.614  1.00  0.00     0.014 A 
ATOM     28  C   UNL A   1      35.452  34.611  28.827  1.00  0.00     0.014 A 
ATOM     29  C   UNL A   1      35.053  33.407  31.317  1.00  0.00     0.010 A 
ATOM     30  C   UNL A   1      36.521  34.014  29.486  1.00  0.00     0.010 A 
ATOM     31  C   UNL A   1      36.331  33.402  30.735  1.00  0.00    -0.014 A 
BRANCH  31  32
ATOM     32  C   UNL A   1      37.484  32.754  31.405  1.00  0.00     0.031 A 
ATOM     33  C   UNL A   1      38.180  31.594  30.751  1.00  0.00     0.074 A 
ATOM     34  C   UNL A   1      37.840  33.144  32.645  1.00  0.00     0.049 A 
ATOM     35  N   UNL A   1      39.139  30.834  31.214  1.00  0.00    -0.248 NA
ATOM     36  C   UNL A   1      37.705  31.213  29.412  1.00  0.00     0.031 C 
ATOM     37  C   UNL A   1      37.192  34.207  33.416  1.00  0.00     0.029 A 
ATOM     38  N   UNL A   1      38.821  32.676  33.483  1.00  0.00    -0.354 N 
ATOM     39  C   UNL A   1      39.359  29.871  30.239  1.00  0.00     0.074 A 
ATOM     40  C   UNL A   1      38.401  30.111  29.183  1.00  0.00     0.031 C 
ATOM     41  C   UNL A   1      37.803  34.321  34.607  1.00  0.00     0.029 A 
ATOM     42  C   UNL A   1      38.860  33.319  34.697  1.00  0.00     0.049 A 
ATOM     43  H   UNL A   1      39.438  31.950  33.238  1.00  0.00     0.167 HD
ATOM     44  C   UNL A   1      40.292  28.890  30.218  1.00  0.00     0.037 A 
ATOM     45  C   UNL A   1      39.657  33.119  35.763  1.00  0.00     0.037 A 
ATOM     46  C   UNL A   1      41.271  28.686  31.252  1.00  0.00     0.049 A 
ATOM     47  C   UNL A   1      40.715  32.053  35.698  1.00  0.00     0.074 A 
ATOM     48  C   UNL A   1      42.322  27.788  31.279  1.00  0.00     0.029 A 
ATOM     49  N   UNL A   1      41.315  29.392  32.446  1.00  0.00    -0.354 N 
ATOM     50  N   UNL A   1      40.978  31.207  34.732  1.00  0.00    -0.248 NA
ATOM     51  C   UNL A   1      41.596  31.920  36.867  1.00  0.00     0.031 C 
ATOM     52  C   UNL A   1      42.978  27.920  32.509  1.00  0.00     0.029 A 
ATOM     53  C   UNL A   1      42.363  28.933  33.228  1.00  0.00     0.049 A 
ATOM     54  H   UNL A   1      40.694  30.112  32.700  1.00  0.00     0.167 HD
ATOM     55  C   UNL A   1      42.062  30.456  35.164  1.00  0.00     0.074 A 
ATOM     56  C   UNL A   1      42.419  30.958  36.476  1.00  0.00     0.031 C 
ATOM     57  C   UNL A   1      42.703  29.443  34.533  1.00  0.00     0.037 A 
BRANCH  44  58
ATOM     58  C   UNL A   1      40.295  27.966  29.036  1.00  0.00     0.064 A 
ATOM     59  C   UNL A   1      41.031  28.254  27.876  1.00  0.00     0.173 A 
ATOM     60  C   UNL A   1      39.563  26.771  29.067  1.00  0.00     0.173 A 
ATOM     61  F   UNL A   1      41.739  29.390  27.790  1.00  0.00    -0.203 F 
ATOM     62  C   UNL A   1      41.002  27.398  26.777  1.00  0.00     0.198 A 
ATOM     63  C   UNL A   1      39.561  25.902  27.979  1.00  0.00     0.198 A 
ATOM     64  F   UNL A   1      38.846  26.444  30.153  1.00  0.00    -0.203 F 
ATOM     65  F   UNL A   1      41.665  27.724  25.659  1.00  0.00    -0.200 F 
ATOM     66  C   UNL A   1      40.272  26.221  26.832  1.00  0.00     0.200 A 
ATOM     67  F   UNL A   1      38.864  24.758  28.037  1.00  0.00    -0.200 F 
ATOM     68  F   UNL A   1      40.245  25.398  25.774  1.00  0.00    -0.200 F 
ENDBRANCH  44  58
BRANCH  45  69
ATOM     69  C   UNL A   1      39.497  33.970  36.969  1.00  0.00     0.064 A 
ATOM     70  C   UNL A   1      38.750  33.527  38.069  1.00  0.00     0.173 A 
ATOM     71  C   UNL A   1      40.108  35.229  37.058  1.00  0.00     0.173 A 
ATOM     72  F   UNL A   1      38.132  32.337  38.022  1.00  0.00    -0.203 F 
ATOM     73  C   UNL A   1      38.608  34.316  39.209  1.00  0.00     0.198 A 
ATOM     74  C   UNL A   1      39.987  36.007  38.208  1.00  0.00     0.198 A 
ATOM     75  F   UNL A   1      40.840  35.694  36.036  1.00  0.00    -0.203 F 
ATOM     76  F   UNL A   1      37.862  33.882  40.233  1.00  0.00    -0.200 F 
ATOM     77  C   UNL A   1      39.233  35.552  39.280  1.00  0.00     0.200 A 
ATOM     78  F   UNL A   1      40.603  37.194  38.281  1.00  0.00    -0.200 F 
ATOM     79  F   UNL A   1      39.106  36.306  40.381  1.00  0.00    -0.200 F 
ENDBRANCH  45  69
BRANCH  57  80
ATOM     80  C   UNL A   1      43.869  28.819  35.241  1.00  0.00     0.064 A 
ATOM     81  C   UNL A   1      43.708  27.713  36.086  1.00  0.00     0.173 A 
ATOM     82  C   UNL A   1      45.169  29.307  35.033  1.00  0.00     0.173 A 
ATOM     83  F   UNL A   1      42.484  27.221  36.328  1.00  0.00    -0.203 F 
ATOM     84  C   UNL A   1      44.805  27.129  36.714  1.00  0.00     0.198 A 
ATOM     85  C   UNL A   1      46.265  28.703  35.641  1.00  0.00     0.198 A 
ATOM     86  F   UNL A   1      45.375  30.360  34.228  1.00  0.00    -0.203 F 
ATOM     87  F   UNL A   1      44.624  26.097  37.551  1.00  0.00    -0.200 F 
ATOM     88  C   UNL A   1      46.082  27.619  36.485  1.00  0.00     0.200 A 
ATOM     89  F   UNL A   1      47.499  29.170  35.408  1.00  0.00    -0.200 F 
ATOM     90  F   UNL A   1      47.137  27.049  37.084  1.00  0.00    -0.200 F 
ENDBRANCH  57  80
ENDBRANCH  31  32
ENDBRANCH  23  26
ENDBRANCH  21  22
ENDBRANCH  20  21
ENDBRANCH  19  20
ENDBRANCH   1  19
TORSDOF 15
ENDMDL
