MODEL 1
REMARK VINA RESULT:     -12.8      0.000      0.000
REMARK SMILES O=C(NCCCCNC(=O)[C@H]1C[C@H]2CCCC[C@@H]2[N@@H+]1CC[C@@H]1CCCO1)c1ccc(-c2c3nc(c(-c4c(F)c(F)c(F)c(F)c4F)c4ccc([nH]4)c(-c4c(F)c(F)c(F)c(F)c4F)c4nc(c(-c5c(F)c(F)c(F)c(F)c5F)c5ccc2[nH]5)C=C4)C=C3)cc1
REMARK SMILES IDX 6 1 5 2 4 3 3 4 1 5 2 6 27 8 28 9 89 10 29 11 88 12 30 13
REMARK SMILES IDX 31 14 32 15 82 16 33 17 87 18 81 19 83 20 34 21 86 22 80 23
REMARK SMILES IDX 79 24 35 26 67 27 47 28 66 29 48 30 51 31 65 32 84 33 49 34
REMARK SMILES IDX 50 35 64 37 85 38 52 39 36 40 37 41 45 42 38 43 39 44 43 45
REMARK SMILES IDX 46 46 40 47 41 48 44 49 42 50 68 51 69 52 77 53 70 54 71 55
REMARK SMILES IDX 75 56 78 57 72 58 73 59 76 60 74 61 53 62 54 63 62 64 55 65
REMARK SMILES IDX 56 66 60 67 63 68 57 69 58 70 61 71 59 72 7 73 8 74 9 75
REMARK SMILES IDX 10 77 11 78 12 79 19 80 13 81 18 82 14 84 17 85 15 86 16 87
REMARK SMILES IDX 20 88 21 89 22 90 23 91 26 92 24 93 25 94
REMARK H PARENT 3 7 83 25 51 36 8 76 19 83
REMARK Flexibility Score: inf
ROOT
ATOM      1  C   UNL A   1      31.626  30.824  26.186  1.00  0.00     0.023 C 
ENDROOT
BRANCH   1   2
ATOM      2  C   UNL A   1      31.375  32.265  26.597  1.00  0.00     0.023 C 
BRANCH   2   3
ATOM      3  C   UNL A   1      32.579  32.987  27.165  1.00  0.00     0.116 C 
BRANCH   3   4
ATOM      4  N   UNL A   1      32.304  34.305  27.719  1.00  0.00    -0.352 N 
ATOM      5  O   UNL A   1      32.705  36.014  29.172  1.00  0.00    -0.269 OA
ATOM      6  C   UNL A   1      33.030  34.927  28.712  1.00  0.00     0.251 C 
ATOM      7  H   UNL A   1      31.533  34.794  27.352  1.00  0.00     0.163 HD
BRANCH   6   8
ATOM      8  C   UNL A   1      34.205  34.203  29.234  1.00  0.00     0.039 A 
ATOM      9  C   UNL A   1      34.041  33.338  30.318  1.00  0.00     0.014 A 
ATOM     10  C   UNL A   1      35.474  34.510  28.741  1.00  0.00     0.014 A 
ATOM     11  C   UNL A   1      35.158  32.885  31.002  1.00  0.00     0.010 A 
ATOM     12  C   UNL A   1      36.597  33.971  29.372  1.00  0.00     0.010 A 
ATOM     13  C   UNL A   1      36.446  33.170  30.516  1.00  0.00    -0.014 A 
BRANCH  13  14
ATOM     14  C   UNL A   1      37.608  32.498  31.140  1.00  0.00     0.031 A 
ATOM     15  C   UNL A   1      38.344  31.387  30.453  1.00  0.00     0.074 A 
ATOM     16  C   UNL A   1      37.978  32.922  32.363  1.00  0.00     0.049 A 
ATOM     17  N   UNL A   1      39.348  30.675  30.898  1.00  0.00    -0.248 NA
ATOM     18  C   UNL A   1      37.900  31.017  29.101  1.00  0.00     0.031 C 
ATOM     19  C   UNL A   1      37.311  33.987  33.118  1.00  0.00     0.029 A 
ATOM     20  N   UNL A   1      38.998  32.525  33.185  1.00  0.00    -0.354 N 
ATOM     21  C   UNL A   1      39.639  29.757  29.898  1.00  0.00     0.074 A 
ATOM     22  C   UNL A   1      38.704  29.997  28.820  1.00  0.00     0.031 C 
ATOM     23  C   UNL A   1      37.954  34.179  34.276  1.00  0.00     0.029 A 
ATOM     24  C   UNL A   1      39.027  33.201  34.381  1.00  0.00     0.049 A 
ATOM     25  H   UNL A   1      39.647  31.825  32.944  1.00  0.00     0.167 HD
ATOM     26  C   UNL A   1      40.601  28.803  29.895  1.00  0.00     0.037 A 
ATOM     27  C   UNL A   1      39.802  33.022  35.464  1.00  0.00     0.037 A 
ATOM     28  C   UNL A   1      41.542  28.602  30.969  1.00  0.00     0.049 A 
ATOM     29  C   UNL A   1      40.839  31.941  35.432  1.00  0.00     0.074 A 
ATOM     30  C   UNL A   1      42.610  27.721  31.026  1.00  0.00     0.029 A 
ATOM     31  N   UNL A   1      41.523  29.284  32.177  1.00  0.00    -0.354 N 
ATOM     32  N   UNL A   1      41.139  31.115  34.460  1.00  0.00    -0.248 NA
ATOM     33  C   UNL A   1      41.638  31.757  36.650  1.00  0.00     0.031 C 
ATOM     34  C   UNL A   1      43.201  27.832  32.288  1.00  0.00     0.029 A 
ATOM     35  C   UNL A   1      42.532  28.813  33.002  1.00  0.00     0.049 A 
ATOM     36  H   UNL A   1      40.886  29.996  32.413  1.00  0.00     0.167 HD
ATOM     37  C   UNL A   1      42.157  30.312  34.946  1.00  0.00     0.074 A 
ATOM     38  C   UNL A   1      42.448  30.773  36.288  1.00  0.00     0.031 C 
ATOM     39  C   UNL A   1      42.788  29.277  34.341  1.00  0.00     0.037 A 
BRANCH  26  40
ATOM     40  C   UNL A   1      40.694  27.882  28.714  1.00  0.00     0.064 A 
ATOM     41  C   UNL A   1      39.943  26.701  28.637  1.00  0.00     0.173 A 
ATOM     42  C   UNL A   1      41.461  28.248  27.596  1.00  0.00     0.173 A 
ATOM     43  F   UNL A   1      39.199  26.305  29.679  1.00  0.00    -0.203 F 
ATOM     44  C   UNL A   1      39.959  25.918  27.484  1.00  0.00     0.198 A 
ATOM     45  C   UNL A   1      41.459  27.474  26.439  1.00  0.00     0.198 A 
ATOM     46  F   UNL A   1      42.192  29.373  27.617  1.00  0.00    -0.203 F 
ATOM     47  F   UNL A   1      39.245  24.785  27.436  1.00  0.00    -0.200 F 
ATOM     48  C   UNL A   1      40.708  26.310  26.383  1.00  0.00     0.200 A 
ATOM     49  F   UNL A   1      42.173  27.862  25.373  1.00  0.00    -0.200 F 
ATOM     50  F   UNL A   1      40.703  25.567  25.268  1.00  0.00    -0.200 F 
ENDBRANCH  26  40
BRANCH  27  51
ATOM     51  C   UNL A   1      39.579  33.852  36.673  1.00  0.00     0.064 A 
ATOM     52  C   UNL A   1      40.156  35.122  36.796  1.00  0.00     0.173 A 
ATOM     53  C   UNL A   1      38.769  33.395  37.726  1.00  0.00     0.173 A 
ATOM     54  F   UNL A   1      40.949  35.594  35.824  1.00  0.00    -0.203 F 
ATOM     55  C   UNL A   1      39.945  35.898  37.935  1.00  0.00     0.198 A 
ATOM     56  C   UNL A   1      38.533  34.184  38.847  1.00  0.00     0.198 A 
ATOM     57  F   UNL A   1      38.187  32.189  37.651  1.00  0.00    -0.203 F 
ATOM     58  F   UNL A   1      40.543  37.091  38.049  1.00  0.00    -0.200 F 
ATOM     59  C   UNL A   1      39.129  35.431  38.955  1.00  0.00     0.200 A 
ATOM     60  F   UNL A   1      37.727  33.738  39.820  1.00  0.00    -0.200 F 
ATOM     61  F   UNL A   1      38.921  36.182  40.046  1.00  0.00    -0.200 F 
ENDBRANCH  27  51
BRANCH  39  62
ATOM     62  C   UNL A   1      43.845  28.577  35.138  1.00  0.00     0.064 A 
ATOM     63  C   UNL A   1      45.181  29.006  35.107  1.00  0.00     0.173 A 
ATOM     64  C   UNL A   1      43.521  27.484  35.952  1.00  0.00     0.173 A 
ATOM     65  F   UNL A   1      45.541  30.035  34.326  1.00  0.00    -0.203 F 
ATOM     66  C   UNL A   1      46.158  28.347  35.845  1.00  0.00     0.198 A 
ATOM     67  C   UNL A   1      44.497  26.845  36.712  1.00  0.00     0.198 A 
ATOM     68  F   UNL A   1      42.257  27.039  36.016  1.00  0.00    -0.203 F 
ATOM     69  F   UNL A   1      47.436  28.742  35.763  1.00  0.00    -0.200 F 
ATOM     70  C   UNL A   1      45.815  27.272  36.651  1.00  0.00     0.200 A 
ATOM     71  F   UNL A   1      44.163  25.812  37.497  1.00  0.00    -0.200 F 
ATOM     72  F   UNL A   1      46.758  26.641  37.364  1.00  0.00    -0.200 F 
ENDBRANCH  39  62
ENDBRANCH  13  14
ENDBRANCH   6   8
ENDBRANCH   3   4
ENDBRANCH   2   3
ENDBRANCH   1   2
BRANCH   1  73
ATOM     73  C   UNL A   1      32.413  29.970  27.186  1.00  0.00     0.116 C 
BRANCH  73  74
ATOM     74  N   UNL A   1      31.884  28.633  27.353  1.00  0.00    -0.351 N 
ATOM     75  C   UNL A   1      31.735  27.573  26.508  1.00  0.00     0.278 C 
ATOM     76  H   UNL A   1      31.567  28.449  28.267  1.00  0.00     0.163 HD
ATOM     77  O   UNL A   1      31.379  26.519  27.055  1.00  0.00    -0.268 OA
BRANCH  75  78
ATOM     78  C   UNL A   1      31.961  27.599  24.965  1.00  0.00     0.274 C 
ATOM     79  C   UNL A   1      33.329  27.175  24.438  1.00  0.00     0.085 C 
ATOM     80  N   UNL A   1      30.980  26.720  24.251  1.00  0.00    -0.322 N 
ATOM     81  C   UNL A   1      33.065  25.870  23.708  1.00  0.00     0.054 C 
ATOM     82  C   UNL A   1      31.664  25.439  24.092  1.00  0.00     0.188 C 
ATOM     83  H   UNL A   1      30.123  26.571  24.785  1.00  0.00     0.349 HD
ATOM     84  C   UNL A   1      34.081  24.744  23.732  1.00  0.00     0.010 C 
ATOM     85  C   UNL A   1      31.158  24.375  23.121  1.00  0.00     0.065 C 
ATOM     86  C   UNL A   1      33.590  23.602  22.830  1.00  0.00     0.001 C 
ATOM     87  C   UNL A   1      32.136  23.188  23.108  1.00  0.00     0.006 C 
BRANCH  80  88
ATOM     88  C   UNL A   1      30.382  27.336  23.048  1.00  0.00     0.265 C 
BRANCH  88  89
ATOM     89  C   UNL A   1      29.158  28.303  23.064  1.00  0.00     0.093 C 
BRANCH  89  90
ATOM     90  C   UNL A   1      29.351  29.754  22.567  1.00  0.00     0.123 C 
ATOM     91  C   UNL A   1      28.767  30.877  23.429  1.00  0.00     0.034 C 
ATOM     92  O   UNL A   1      28.651  29.906  21.309  1.00  0.00    -0.378 OA
ATOM     93  C   UNL A   1      28.061  31.830  22.499  1.00  0.00     0.031 C 
ATOM     94  C   UNL A   1      28.394  31.302  21.131  1.00  0.00     0.160 C 
ENDBRANCH  89  90
ENDBRANCH  88  89
ENDBRANCH  80  88
ENDBRANCH  75  78
ENDBRANCH  73  74
ENDBRANCH   1  73
TORSDOF 14
ENDMDL
MODEL 2
REMARK VINA RESULT:     -12.8      0.364      1.717
REMARK SMILES O=C(NCCCCNC(=O)[C@H]1C[C@H]2CCCC[C@@H]2[N@@H+]1CC[C@@H]1CCCO1)c1ccc(-c2c3nc(c(-c4c(F)c(F)c(F)c(F)c4F)c4ccc([nH]4)c(-c4c(F)c(F)c(F)c(F)c4F)c4nc(c(-c5c(F)c(F)c(F)c(F)c5F)c5ccc2[nH]5)C=C4)C=C3)cc1
REMARK SMILES IDX 6 1 5 2 4 3 3 4 1 5 2 6 27 8 28 9 89 10 29 11 88 12 30 13
REMARK SMILES IDX 31 14 32 15 82 16 33 17 87 18 81 19 83 20 34 21 86 22 80 23
REMARK SMILES IDX 79 24 35 26 67 27 47 28 66 29 48 30 51 31 65 32 84 33 49 34
REMARK SMILES IDX 50 35 64 37 85 38 52 39 36 40 37 41 45 42 38 43 39 44 43 45
REMARK SMILES IDX 46 46 40 47 41 48 44 49 42 50 68 51 69 52 77 53 70 54 71 55
REMARK SMILES IDX 75 56 78 57 72 58 73 59 76 60 74 61 53 62 54 63 62 64 55 65
REMARK SMILES IDX 56 66 60 67 63 68 57 69 58 70 61 71 59 72 7 73 8 74 9 75
REMARK SMILES IDX 10 77 11 78 12 79 19 80 13 81 18 82 14 84 17 85 15 86 16 87
REMARK SMILES IDX 20 88 21 89 22 90 23 91 26 92 24 93 25 94
REMARK H PARENT 3 7 83 25 51 36 8 76 19 83
REMARK Flexibility Score: inf
ROOT
ATOM      1  C   UNL A   1      31.992  30.842  26.308  1.00  0.00     0.023 C 
ENDROOT
BRANCH   1   2
ATOM      2  C   UNL A   1      31.578  32.193  26.869  1.00  0.00     0.023 C 
BRANCH   2   3
ATOM      3  C   UNL A   1      32.697  32.990  27.506  1.00  0.00     0.116 C 
BRANCH   3   4
ATOM      4  N   UNL A   1      32.375  34.380  27.798  1.00  0.00    -0.352 N 
ATOM      5  O   UNL A   1      32.672  36.329  28.941  1.00  0.00    -0.269 OA
ATOM      6  C   UNL A   1      33.035  35.184  28.703  1.00  0.00     0.251 C 
ATOM      7  H   UNL A   1      31.623  34.779  27.306  1.00  0.00     0.163 HD
BRANCH   6   8
ATOM      8  C   UNL A   1      34.182  34.589  29.414  1.00  0.00     0.039 A 
ATOM      9  C   UNL A   1      35.456  34.693  28.851  1.00  0.00     0.014 A 
ATOM     10  C   UNL A   1      33.955  33.804  30.545  1.00  0.00     0.014 A 
ATOM     11  C   UNL A   1      36.482  33.900  29.339  1.00  0.00     0.010 A 
ATOM     12  C   UNL A   1      35.017  33.082  31.096  1.00  0.00     0.010 A 
ATOM     13  C   UNL A   1      36.280  33.113  30.486  1.00  0.00    -0.014 A 
BRANCH  13  14
ATOM     14  C   UNL A   1      37.448  32.447  31.107  1.00  0.00     0.031 A 
ATOM     15  C   UNL A   1      38.179  31.330  30.424  1.00  0.00     0.074 A 
ATOM     16  C   UNL A   1      37.827  32.882  32.323  1.00  0.00     0.049 A 
ATOM     17  N   UNL A   1      39.188  30.623  30.868  1.00  0.00    -0.248 NA
ATOM     18  C   UNL A   1      37.726  30.948  29.079  1.00  0.00     0.031 C 
ATOM     19  C   UNL A   1      37.164  33.953  33.074  1.00  0.00     0.029 A 
ATOM     20  N   UNL A   1      38.854  32.493  33.141  1.00  0.00    -0.354 N 
ATOM     21  C   UNL A   1      39.472  29.697  29.874  1.00  0.00     0.074 A 
ATOM     22  C   UNL A   1      38.528  29.927  28.801  1.00  0.00     0.031 C 
ATOM     23  C   UNL A   1      37.816  34.156  34.225  1.00  0.00     0.029 A 
ATOM     24  C   UNL A   1      38.891  33.179  34.330  1.00  0.00     0.049 A 
ATOM     25  H   UNL A   1      39.501  31.791  32.901  1.00  0.00     0.167 HD
ATOM     26  C   UNL A   1      40.435  28.744  29.872  1.00  0.00     0.037 A 
ATOM     27  C   UNL A   1      39.674  33.011  35.409  1.00  0.00     0.037 A 
ATOM     28  C   UNL A   1      41.384  28.553  30.940  1.00  0.00     0.049 A 
ATOM     29  C   UNL A   1      40.713  31.931  35.379  1.00  0.00     0.074 A 
ATOM     30  C   UNL A   1      42.453  27.674  30.996  1.00  0.00     0.029 A 
ATOM     31  N   UNL A   1      41.374  29.246  32.142  1.00  0.00    -0.354 N 
ATOM     32  N   UNL A   1      41.006  31.097  34.412  1.00  0.00    -0.248 NA
ATOM     33  C   UNL A   1      41.521  31.758  36.592  1.00  0.00     0.031 C 
ATOM     34  C   UNL A   1      43.054  27.796  32.253  1.00  0.00     0.029 A 
ATOM     35  C   UNL A   1      42.389  28.783  32.964  1.00  0.00     0.049 A 
ATOM     36  H   UNL A   1      40.738  29.959  32.377  1.00  0.00     0.167 HD
ATOM     37  C   UNL A   1      42.028  30.299  34.897  1.00  0.00     0.074 A 
ATOM     38  C   UNL A   1      42.329  30.772  36.233  1.00  0.00     0.031 C 
ATOM     39  C   UNL A   1      42.655  29.259  34.296  1.00  0.00     0.037 A 
BRANCH  26  40
ATOM     40  C   UNL A   1      40.519  27.813  28.698  1.00  0.00     0.064 A 
ATOM     41  C   UNL A   1      39.787  26.619  28.648  1.00  0.00     0.173 A 
ATOM     42  C   UNL A   1      41.258  28.180  27.561  1.00  0.00     0.173 A 
ATOM     43  F   UNL A   1      39.070  26.222  29.708  1.00  0.00    -0.203 F 
ATOM     44  C   UNL A   1      39.793  25.824  27.502  1.00  0.00     0.198 A 
ATOM     45  C   UNL A   1      41.246  27.394  26.412  1.00  0.00     0.198 A 
ATOM     46  F   UNL A   1      41.971  29.316  27.557  1.00  0.00    -0.203 F 
ATOM     47  F   UNL A   1      39.096  24.680  27.480  1.00  0.00    -0.200 F 
ATOM     48  C   UNL A   1      40.513  26.217  26.383  1.00  0.00     0.200 A 
ATOM     49  F   UNL A   1      41.933  27.782  25.329  1.00  0.00    -0.200 F 
ATOM     50  F   UNL A   1      40.499  25.463  25.276  1.00  0.00    -0.200 F 
ENDBRANCH  26  40
BRANCH  27  51
ATOM     51  C   UNL A   1      39.460  33.851  36.613  1.00  0.00     0.064 A 
ATOM     52  C   UNL A   1      38.693  33.393  37.690  1.00  0.00     0.173 A 
ATOM     53  C   UNL A   1      40.035  35.129  36.714  1.00  0.00     0.173 A 
ATOM     54  F   UNL A   1      38.113  32.186  37.633  1.00  0.00    -0.203 F 
ATOM     55  C   UNL A   1      38.493  34.187  38.818  1.00  0.00     0.198 A 
ATOM     56  C   UNL A   1      39.862  35.907  37.854  1.00  0.00     0.198 A 
ATOM     57  F   UNL A   1      40.786  35.610  35.712  1.00  0.00    -0.203 F 
ATOM     58  F   UNL A   1      37.720  33.744  39.817  1.00  0.00    -0.200 F 
ATOM     59  C   UNL A   1      39.084  35.441  38.901  1.00  0.00     0.200 A 
ATOM     60  F   UNL A   1      40.452  37.108  37.939  1.00  0.00    -0.200 F 
ATOM     61  F   UNL A   1      38.897  36.200  39.989  1.00  0.00    -0.200 F 
ENDBRANCH  27  51
BRANCH  39  62
ATOM     62  C   UNL A   1      43.719  28.567  35.092  1.00  0.00     0.064 A 
ATOM     63  C   UNL A   1      43.412  27.482  35.926  1.00  0.00     0.173 A 
ATOM     64  C   UNL A   1      45.057  28.977  35.007  1.00  0.00     0.173 A 
ATOM     65  F   UNL A   1      42.142  27.069  36.054  1.00  0.00    -0.203 F 
ATOM     66  C   UNL A   1      44.403  26.849  36.667  1.00  0.00     0.198 A 
ATOM     67  C   UNL A   1      46.051  28.323  35.728  1.00  0.00     0.198 A 
ATOM     68  F   UNL A   1      45.399  30.009  34.222  1.00  0.00    -0.203 F 
ATOM     69  F   UNL A   1      44.081  25.846  37.496  1.00  0.00    -0.200 F 
ATOM     70  C   UNL A   1      45.722  27.264  36.563  1.00  0.00     0.200 A 
ATOM     71  F   UNL A   1      47.326  28.720  35.621  1.00  0.00    -0.200 F 
ATOM     72  F   UNL A   1      46.677  26.650  37.275  1.00  0.00    -0.200 F 
ENDBRANCH  39  62
ENDBRANCH  13  14
ENDBRANCH   6   8
ENDBRANCH   3   4
ENDBRANCH   2   3
ENDBRANCH   1   2
BRANCH   1  73
ATOM     73  C   UNL A   1      32.743  29.918  27.274  1.00  0.00     0.116 C 
BRANCH  73  74
ATOM     74  N   UNL A   1      32.088  28.647  27.493  1.00  0.00    -0.351 N 
ATOM     75  C   UNL A   1      31.819  27.581  26.685  1.00  0.00     0.278 C 
ATOM     76  H   UNL A   1      31.771  28.524  28.417  1.00  0.00     0.163 HD
ATOM     77  O   UNL A   1      31.370  26.586  27.272  1.00  0.00    -0.268 OA
BRANCH  75  78
ATOM     78  C   UNL A   1      32.018  27.536  25.138  1.00  0.00     0.274 C 
ATOM     79  C   UNL A   1      33.277  26.862  24.601  1.00  0.00     0.085 C 
ATOM     80  N   UNL A   1      30.882  26.836  24.459  1.00  0.00    -0.322 N 
ATOM     81  C   UNL A   1      32.768  25.613  23.904  1.00  0.00     0.054 C 
ATOM     82  C   UNL A   1      31.320  25.450  24.317  1.00  0.00     0.188 C 
ATOM     83  H   UNL A   1      30.022  26.855  25.008  1.00  0.00     0.349 HD
ATOM     84  C   UNL A   1      33.565  24.323  23.938  1.00  0.00     0.010 C 
ATOM     85  C   UNL A   1      30.613  24.477  23.378  1.00  0.00     0.065 C 
ATOM     86  C   UNL A   1      32.859  23.272  23.069  1.00  0.00     0.001 C 
ATOM     87  C   UNL A   1      31.361  23.133  23.377  1.00  0.00     0.006 C 
BRANCH  80  88
ATOM     88  C   UNL A   1      30.383  27.527  23.251  1.00  0.00     0.265 C 
BRANCH  88  89
ATOM     89  C   UNL A   1      30.997  28.835  22.663  1.00  0.00     0.093 C 
BRANCH  89  90
ATOM     90  C   UNL A   1      30.061  30.032  22.378  1.00  0.00     0.123 C 
ATOM     91  C   UNL A   1      29.152  30.502  23.517  1.00  0.00     0.034 C 
ATOM     92  O   UNL A   1      29.123  29.647  21.346  1.00  0.00    -0.378 OA
ATOM     93  C   UNL A   1      27.780  30.718  22.932  1.00  0.00     0.031 C 
ATOM     94  C   UNL A   1      27.988  30.511  21.457  1.00  0.00     0.160 C 
ENDBRANCH  89  90
ENDBRANCH  88  89
ENDBRANCH  80  88
ENDBRANCH  75  78
ENDBRANCH  73  74
ENDBRANCH   1  73
TORSDOF 14
ENDMDL
MODEL 3
REMARK VINA RESULT:     -12.7      0.671      2.142
REMARK SMILES O=C(NCCCCNC(=O)[C@H]1C[C@H]2CCCC[C@@H]2[N@@H+]1CC[C@@H]1CCCO1)c1ccc(-c2c3nc(c(-c4c(F)c(F)c(F)c(F)c4F)c4ccc([nH]4)c(-c4c(F)c(F)c(F)c(F)c4F)c4nc(c(-c5c(F)c(F)c(F)c(F)c5F)c5ccc2[nH]5)C=C4)C=C3)cc1
REMARK SMILES IDX 6 1 5 2 4 3 3 4 1 5 2 6 27 8 28 9 89 10 29 11 88 12 30 13
REMARK SMILES IDX 31 14 32 15 82 16 33 17 87 18 81 19 83 20 34 21 86 22 80 23
REMARK SMILES IDX 79 24 35 26 67 27 47 28 66 29 48 30 51 31 65 32 84 33 49 34
REMARK SMILES IDX 50 35 64 37 85 38 52 39 36 40 37 41 45 42 38 43 39 44 43 45
REMARK SMILES IDX 46 46 40 47 41 48 44 49 42 50 68 51 69 52 77 53 70 54 71 55
REMARK SMILES IDX 75 56 78 57 72 58 73 59 76 60 74 61 53 62 54 63 62 64 55 65
REMARK SMILES IDX 56 66 60 67 63 68 57 69 58 70 61 71 59 72 7 73 8 74 9 75
REMARK SMILES IDX 10 77 11 78 12 79 19 80 13 81 18 82 14 84 17 85 15 86 16 87
REMARK SMILES IDX 20 88 21 89 22 90 23 91 26 92 24 93 25 94
REMARK H PARENT 3 7 83 25 51 36 8 76 19 83
REMARK Flexibility Score: inf
ROOT
ATOM      1  C   UNL A   1      31.928  30.629  26.262  1.00  0.00     0.023 C 
ENDROOT
BRANCH   1   2
ATOM      2  C   UNL A   1      31.548  31.967  26.875  1.00  0.00     0.023 C 
BRANCH   2   3
ATOM      3  C   UNL A   1      32.718  32.856  27.244  1.00  0.00     0.116 C 
BRANCH   3   4
ATOM      4  N   UNL A   1      32.363  34.214  27.630  1.00  0.00    -0.352 N 
ATOM      5  O   UNL A   1      32.595  36.078  28.921  1.00  0.00    -0.269 OA
ATOM      6  C   UNL A   1      32.985  34.961  28.608  1.00  0.00     0.251 C 
ATOM      7  H   UNL A   1      31.615  34.636  27.151  1.00  0.00     0.163 HD
BRANCH   6   8
ATOM      8  C   UNL A   1      34.128  34.334  29.300  1.00  0.00     0.039 A 
ATOM      9  C   UNL A   1      35.419  34.558  28.816  1.00  0.00     0.014 A 
ATOM     10  C   UNL A   1      33.889  33.412  30.320  1.00  0.00     0.014 A 
ATOM     11  C   UNL A   1      36.459  33.756  29.259  1.00  0.00     0.010 A 
ATOM     12  C   UNL A   1      34.959  32.676  30.835  1.00  0.00     0.010 A 
ATOM     13  C   UNL A   1      36.245  32.832  30.295  1.00  0.00    -0.014 A 
BRANCH  13  14
ATOM     14  C   UNL A   1      37.415  32.147  30.891  1.00  0.00     0.031 A 
ATOM     15  C   UNL A   1      38.181  31.095  30.148  1.00  0.00     0.074 A 
ATOM     16  C   UNL A   1      37.764  32.505  32.142  1.00  0.00     0.049 A 
ATOM     17  N   UNL A   1      39.196  30.378  30.561  1.00  0.00    -0.248 NA
ATOM     18  C   UNL A   1      37.759  30.797  28.771  1.00  0.00     0.031 C 
ATOM     19  C   UNL A   1      37.066  33.509  32.952  1.00  0.00     0.029 A 
ATOM     20  N   UNL A   1      38.784  32.080  32.950  1.00  0.00    -0.354 N 
ATOM     21  C   UNL A   1      39.516  29.528  29.512  1.00  0.00     0.074 A 
ATOM     22  C   UNL A   1      38.587  29.813  28.439  1.00  0.00     0.031 C 
ATOM     23  C   UNL A   1      37.693  33.644  34.126  1.00  0.00     0.029 A 
ATOM     24  C   UNL A   1      38.786  32.683  34.184  1.00  0.00     0.049 A 
ATOM     25  H   UNL A   1      39.449  31.409  32.675  1.00  0.00     0.167 HD
ATOM     26  C   UNL A   1      40.499  28.596  29.462  1.00  0.00     0.037 A 
ATOM     27  C   UNL A   1      39.553  32.455  35.264  1.00  0.00     0.037 A 
ATOM     28  C   UNL A   1      41.432  28.350  30.533  1.00  0.00     0.049 A 
ATOM     29  C   UNL A   1      40.613  31.400  35.179  1.00  0.00     0.074 A 
ATOM     30  C   UNL A   1      42.518  27.490  30.549  1.00  0.00     0.029 A 
ATOM     31  N   UNL A   1      41.386  28.958  31.779  1.00  0.00    -0.354 N 
ATOM     32  N   UNL A   1      40.941  30.641  34.163  1.00  0.00    -0.248 NA
ATOM     33  C   UNL A   1      41.403  31.160  36.393  1.00  0.00     0.031 C 
ATOM     34  C   UNL A   1      43.093  27.537  31.822  1.00  0.00     0.029 A 
ATOM     35  C   UNL A   1      42.397  28.459  32.586  1.00  0.00     0.049 A 
ATOM     36  H   UNL A   1      40.732  29.641  32.050  1.00  0.00     0.167 HD
ATOM     37  C   UNL A   1      41.970  29.831  34.612  1.00  0.00     0.074 A 
ATOM     38  C   UNL A   1      42.238  30.216  35.983  1.00  0.00     0.031 C 
ATOM     39  C   UNL A   1      42.629  28.847  33.953  1.00  0.00     0.037 A 
BRANCH  26  40
ATOM     40  C   UNL A   1      40.622  27.750  28.229  1.00  0.00     0.064 A 
ATOM     41  C   UNL A   1      41.398  28.149  27.133  1.00  0.00     0.173 A 
ATOM     42  C   UNL A   1      40.044  26.470  28.194  1.00  0.00     0.173 A 
ATOM     43  F   UNL A   1      41.967  29.363  27.115  1.00  0.00    -0.203 F 
ATOM     44  C   UNL A   1      41.590  27.299  26.045  1.00  0.00     0.198 A 
ATOM     45  C   UNL A   1      40.254  25.616  27.115  1.00  0.00     0.198 A 
ATOM     46  F   UNL A   1      39.297  26.038  29.222  1.00  0.00    -0.203 F 
ATOM     47  F   UNL A   1      42.325  27.706  25.001  1.00  0.00    -0.200 F 
ATOM     48  C   UNL A   1      41.027  26.031  26.041  1.00  0.00     0.200 A 
ATOM     49  F   UNL A   1      39.719  24.388  27.120  1.00  0.00    -0.200 F 
ATOM     50  F   UNL A   1      41.231  25.208  25.004  1.00  0.00    -0.200 F 
ENDBRANCH  26  40
BRANCH  27  51
ATOM     51  C   UNL A   1      39.300  33.207  36.518  1.00  0.00     0.064 A 
ATOM     52  C   UNL A   1      38.447  32.702  37.506  1.00  0.00     0.173 A 
ATOM     53  C   UNL A   1      39.923  34.443  36.758  1.00  0.00     0.173 A 
ATOM     54  F   UNL A   1      37.819  31.534  37.315  1.00  0.00    -0.203 F 
ATOM     55  C   UNL A   1      38.212  33.413  38.682  1.00  0.00     0.198 A 
ATOM     56  C   UNL A   1      39.713  35.135  37.946  1.00  0.00     0.198 A 
ATOM     57  F   UNL A   1      40.756  34.964  35.846  1.00  0.00    -0.203 F 
ATOM     58  F   UNL A   1      37.357  32.930  39.594  1.00  0.00    -0.200 F 
ATOM     59  C   UNL A   1      38.850  34.625  38.903  1.00  0.00     0.200 A 
ATOM     60  F   UNL A   1      40.349  36.295  38.165  1.00  0.00    -0.200 F 
ATOM     61  F   UNL A   1      38.629  35.303  40.038  1.00  0.00    -0.200 F 
ENDBRANCH  27  51
BRANCH  39  62
ATOM     62  C   UNL A   1      43.693  28.123  34.720  1.00  0.00     0.064 A 
ATOM     63  C   UNL A   1      43.419  26.912  35.373  1.00  0.00     0.173 A 
ATOM     64  C   UNL A   1      44.997  28.630  34.788  1.00  0.00     0.173 A 
ATOM     65  F   UNL A   1      42.179  26.400  35.352  1.00  0.00    -0.203 F 
ATOM     66  C   UNL A   1      44.409  26.248  36.088  1.00  0.00     0.198 A 
ATOM     67  C   UNL A   1      45.993  27.948  35.481  1.00  0.00     0.198 A 
ATOM     68  F   UNL A   1      45.307  29.784  34.178  1.00  0.00    -0.203 F 
ATOM     69  F   UNL A   1      44.115  25.118  36.746  1.00  0.00    -0.200 F 
ATOM     70  C   UNL A   1      45.696  26.762  36.136  1.00  0.00     0.200 A 
ATOM     71  F   UNL A   1      47.238  28.442  35.520  1.00  0.00    -0.200 F 
ATOM     72  F   UNL A   1      46.650  26.119  36.823  1.00  0.00    -0.200 F 
ENDBRANCH  39  62
ENDBRANCH  13  14
ENDBRANCH   6   8
ENDBRANCH   3   4
ENDBRANCH   2   3
ENDBRANCH   1   2
BRANCH   1  73
ATOM     73  C   UNL A   1      32.522  29.595  27.226  1.00  0.00     0.116 C 
BRANCH  73  74
ATOM     74  N   UNL A   1      31.783  28.351  27.273  1.00  0.00    -0.351 N 
ATOM     75  C   UNL A   1      31.668  27.298  26.415  1.00  0.00     0.278 C 
ATOM     76  H   UNL A   1      31.255  28.242  28.097  1.00  0.00     0.163 HD
ATOM     77  O   UNL A   1      31.055  26.322  26.871  1.00  0.00    -0.268 OA
BRANCH  75  78
ATOM     78  C   UNL A   1      32.220  27.245  24.957  1.00  0.00     0.274 C 
ATOM     79  C   UNL A   1      33.651  26.757  24.754  1.00  0.00     0.085 C 
ATOM     80  N   UNL A   1      31.381  26.365  24.083  1.00  0.00    -0.322 N 
ATOM     81  C   UNL A   1      33.499  25.428  24.036  1.00  0.00     0.054 C 
ATOM     82  C   UNL A   1      32.033  25.057  24.125  1.00  0.00     0.188 C 
ATOM     83  H   UNL A   1      30.425  26.266  24.425  1.00  0.00     0.349 HD
ATOM     84  C   UNL A   1      34.441  24.275  24.322  1.00  0.00     0.010 C 
ATOM     85  C   UNL A   1      31.705  23.965  23.110  1.00  0.00     0.065 C 
ATOM     86  C   UNL A   1      34.110  23.107  23.381  1.00  0.00     0.001 C 
ATOM     87  C   UNL A   1      32.616  22.750  23.355  1.00  0.00     0.006 C 
BRANCH  80  88
ATOM     88  C   UNL A   1      31.080  26.941  22.756  1.00  0.00     0.265 C 
BRANCH  88  89
ATOM     89  C   UNL A   1      31.265  28.445  22.382  1.00  0.00     0.093 C 
BRANCH  89  90
ATOM     90  C   UNL A   1      30.089  29.420  22.618  1.00  0.00     0.123 C 
ATOM     91  C   UNL A   1      28.815  28.847  23.243  1.00  0.00     0.034 C 
ATOM     92  O   UNL A   1      29.635  29.912  21.335  1.00  0.00    -0.378 OA
ATOM     93  C   UNL A   1      27.650  29.386  22.454  1.00  0.00     0.031 C 
ATOM     94  C   UNL A   1      28.288  30.363  21.506  1.00  0.00     0.160 C 
ENDBRANCH  89  90
ENDBRANCH  88  89
ENDBRANCH  80  88
ENDBRANCH  75  78
ENDBRANCH  73  74
ENDBRANCH   1  73
TORSDOF 14
ENDMDL
