MODEL 1
REMARK VINA RESULT:     -13.4      0.000      0.000
REMARK SMILES C[C@H](NC(=O)N1CCN(/C=C/c2ccccc2)CC1)C(=O)NCCCCNC(=O)c1ccc(-c2c3nc(c(-c4c(F)c(F)c(F)c(F)c4F)c4ccc([nH]4)c(-c4c(F)c(F)c(F)c(F)c4F)c4nc(c(-c5c(F)c(F)c(F)c(F)c5F)c5ccc2[nH]5)C=C4)C=C3)cc1
REMARK SMILES IDX 24 1 23 2 22 3 20 4 21 5 2 7 1 8 3 9 4 10 5 12 6 13 7 14
REMARK SMILES IDX 19 15 8 16 18 17 9 18 10 19 11 20 12 21 13 22 17 23 14 24
REMARK SMILES IDX 16 25 15 26 25 27 26 28 27 29 28 30 29 32 30 33 31 34 92 35
REMARK SMILES IDX 32 36 91 37 33 38 34 39 35 40 85 41 36 42 90 43 84 44 86 45
REMARK SMILES IDX 37 46 89 47 83 48 82 49 38 51 70 52 50 53 69 54 51 55 54 56
REMARK SMILES IDX 68 57 87 58 52 59 53 60 67 62 88 63 55 64 39 65 40 66 48 67
REMARK SMILES IDX 41 68 42 69 46 70 49 71 43 72 44 73 47 74 45 75 71 76 72 77
REMARK SMILES IDX 80 78 73 79 74 80 78 81 81 82 75 83 76 84 79 85 77 86 56 87
REMARK SMILES IDX 57 88 65 89 58 90 59 91 63 92 66 93 60 94 61 95 64 96 62 97
REMARK H PARENT 22 6 3 11 27 31 86 50 54 61
REMARK Flexibility Score: inf
ROOT
ATOM      1  C   UNL A   1      31.719  30.431  26.519  1.00  0.00     0.023 C 
ENDROOT
BRANCH   1   2
ATOM      2  C   UNL A   1      33.169  29.960  26.498  1.00  0.00     0.116 C 
BRANCH   2   3
ATOM      3  N   UNL A   1      33.612  29.703  25.138  1.00  0.00    -0.354 N 
ATOM      4  C   UNL A   1      33.659  28.532  24.440  1.00  0.00     0.242 C 
ATOM      5  O   UNL A   1      34.075  28.568  23.279  1.00  0.00    -0.273 OA
ATOM      6  H   UNL A   1      33.925  30.496  24.645  1.00  0.00     0.163 HD
BRANCH   4   7
ATOM      7  C   UNL A   1      33.081  27.236  25.038  1.00  0.00     0.170 C 
ATOM      8  C   UNL A   1      34.054  26.125  24.664  1.00  0.00     0.041 C 
BRANCH   7   9
ATOM      9  N   UNL A   1      31.657  27.118  24.692  1.00  0.00    -0.326 N 
ATOM     10  C   UNL A   1      30.876  26.138  24.197  1.00  0.00     0.318 C 
ATOM     11  H   UNL A   1      31.157  27.949  24.861  1.00  0.00     0.166 HD
ATOM     12  O   UNL A   1      29.934  26.489  23.484  1.00  0.00    -0.249 OA
ATOM     13  N   UNL A   1      31.171  24.833  24.419  1.00  0.00    -0.321 N 
ATOM     14  C   UNL A   1      30.653  23.821  23.500  1.00  0.00     0.143 C 
ATOM     15  C   UNL A   1      31.590  24.275  25.702  1.00  0.00     0.143 C 
ATOM     16  C   UNL A   1      31.726  22.761  23.224  1.00  0.00     0.137 C 
ATOM     17  C   UNL A   1      32.593  23.116  25.545  1.00  0.00     0.137 C 
ATOM     18  N   UNL A   1      32.224  22.154  24.478  1.00  0.00    -0.374 N 
BRANCH  18  19
ATOM     19  C   UNL A   1      32.633  20.836  24.576  1.00  0.00     0.081 C 
ATOM     20  C   UNL A   1      32.327  19.775  23.818  1.00  0.00     0.025 C 
BRANCH  20  21
ATOM     21  C   UNL A   1      32.781  18.415  24.139  1.00  0.00    -0.024 A 
ATOM     22  C   UNL A   1      32.528  17.881  25.407  1.00  0.00     0.008 A 
ATOM     23  C   UNL A   1      33.544  17.669  23.228  1.00  0.00     0.008 A 
ATOM     24  C   UNL A   1      33.016  16.618  25.751  1.00  0.00     0.001 A 
ATOM     25  C   UNL A   1      34.028  16.406  23.571  1.00  0.00     0.001 A 
ATOM     26  C   UNL A   1      33.765  15.882  24.834  1.00  0.00     0.000 A 
ENDBRANCH  20  21
ENDBRANCH  18  19
ENDBRANCH   7   9
ENDBRANCH   4   7
ENDBRANCH   2   3
ENDBRANCH   1   2
BRANCH   1  27
ATOM     27  C   UNL A   1      31.567  31.950  26.623  1.00  0.00     0.023 C 
BRANCH  27  28
ATOM     28  C   UNL A   1      32.728  32.656  27.314  1.00  0.00     0.116 C 
BRANCH  28  29
ATOM     29  N   UNL A   1      32.441  34.054  27.596  1.00  0.00    -0.352 N 
ATOM     30  C   UNL A   1      32.999  34.869  28.548  1.00  0.00     0.251 C 
ATOM     31  H   UNL A   1      31.756  34.471  27.026  1.00  0.00     0.163 HD
ATOM     32  O   UNL A   1      32.528  35.980  28.773  1.00  0.00    -0.269 OA
BRANCH  30  33
ATOM     33  C   UNL A   1      34.159  34.386  29.325  1.00  0.00     0.039 A 
ATOM     34  C   UNL A   1      33.938  33.771  30.559  1.00  0.00     0.014 A 
ATOM     35  C   UNL A   1      35.455  34.512  28.818  1.00  0.00     0.014 A 
ATOM     36  C   UNL A   1      35.015  33.220  31.255  1.00  0.00     0.010 A 
ATOM     37  C   UNL A   1      36.514  33.891  29.473  1.00  0.00     0.010 A 
ATOM     38  C   UNL A   1      36.306  33.241  30.699  1.00  0.00    -0.014 A 
BRANCH  38  39
ATOM     39  C   UNL A   1      37.449  32.586  31.385  1.00  0.00     0.031 A 
ATOM     40  C   UNL A   1      38.160  31.434  30.732  1.00  0.00     0.074 A 
ATOM     41  C   UNL A   1      37.805  32.988  32.621  1.00  0.00     0.049 A 
ATOM     42  N   UNL A   1      39.137  30.695  31.194  1.00  0.00    -0.248 NA
ATOM     43  C   UNL A   1      37.695  31.043  29.392  1.00  0.00     0.031 C 
ATOM     44  C   UNL A   1      37.163  34.063  33.379  1.00  0.00     0.029 A 
ATOM     45  N   UNL A   1      38.790  32.533  33.461  1.00  0.00    -0.354 N 
ATOM     46  C   UNL A   1      39.390  29.747  30.211  1.00  0.00     0.074 A 
ATOM     47  C   UNL A   1      38.430  29.967  29.152  1.00  0.00     0.031 C 
ATOM     48  C   UNL A   1      37.787  34.203  34.559  1.00  0.00     0.029 A 
ATOM     49  C   UNL A   1      38.844  33.202  34.660  1.00  0.00     0.049 A 
ATOM     50  H   UNL A   1      39.401  31.797  33.227  1.00  0.00     0.167 HD
ATOM     51  C   UNL A   1      40.353  28.795  30.185  1.00  0.00     0.037 A 
ATOM     52  C   UNL A   1      39.649  33.019  35.725  1.00  0.00     0.037 A 
ATOM     53  C   UNL A   1      41.321  28.594  31.230  1.00  0.00     0.049 A 
ATOM     54  C   UNL A   1      40.697  31.940  35.675  1.00  0.00     0.074 A 
ATOM     55  C   UNL A   1      42.376  27.699  31.268  1.00  0.00     0.029 A 
ATOM     56  N   UNL A   1      41.349  29.295  32.428  1.00  0.00    -0.354 N 
ATOM     57  N   UNL A   1      40.979  31.101  34.708  1.00  0.00    -0.248 NA
ATOM     58  C   UNL A   1      41.546  31.787  36.866  1.00  0.00     0.031 C 
ATOM     59  C   UNL A   1      43.006  27.817  32.512  1.00  0.00     0.029 A 
ATOM     60  C   UNL A   1      42.384  28.831  33.223  1.00  0.00     0.049 A 
ATOM     61  H   UNL A   1      40.725  30.016  32.675  1.00  0.00     0.167 HD
ATOM     62  C   UNL A   1      42.054  30.347  35.158  1.00  0.00     0.074 A 
ATOM     63  C   UNL A   1      42.385  30.838  36.479  1.00  0.00     0.031 C 
ATOM     64  C   UNL A   1      42.709  29.337  34.533  1.00  0.00     0.037 A 
BRANCH  51  65
ATOM     65  C   UNL A   1      40.409  27.891  28.985  1.00  0.00     0.064 A 
ATOM     66  C   UNL A   1      39.657  26.707  28.917  1.00  0.00     0.173 A 
ATOM     67  C   UNL A   1      41.187  28.236  27.871  1.00  0.00     0.173 A 
ATOM     68  F   UNL A   1      38.904  26.324  29.959  1.00  0.00    -0.203 F 
ATOM     69  C   UNL A   1      39.708  25.888  27.792  1.00  0.00     0.198 A 
ATOM     70  C   UNL A   1      41.210  27.433  26.733  1.00  0.00     0.198 A 
ATOM     71  F   UNL A   1      41.921  29.359  27.879  1.00  0.00    -0.203 F 
ATOM     72  F   UNL A   1      39.023  24.737  27.772  1.00  0.00    -0.200 F 
ATOM     73  C   UNL A   1      40.477  26.256  26.698  1.00  0.00     0.200 A 
ATOM     74  F   UNL A   1      41.941  27.797  25.671  1.00  0.00    -0.200 F 
ATOM     75  F   UNL A   1      40.516  25.473  25.611  1.00  0.00    -0.200 F 
ENDBRANCH  51  65
BRANCH  52  76
ATOM     76  C   UNL A   1      39.511  33.891  36.923  1.00  0.00     0.064 A 
ATOM     77  C   UNL A   1      38.749  33.482  38.027  1.00  0.00     0.173 A 
ATOM     78  C   UNL A   1      40.118  35.153  36.983  1.00  0.00     0.173 A 
ATOM     79  F   UNL A   1      38.131  32.293  38.010  1.00  0.00    -0.203 F 
ATOM     80  C   UNL A   1      38.576  34.315  39.131  1.00  0.00     0.198 A 
ATOM     81  C   UNL A   1      39.973  35.971  38.102  1.00  0.00     0.198 A 
ATOM     82  F   UNL A   1      40.862  35.591  35.956  1.00  0.00    -0.203 F 
ATOM     83  F   UNL A   1      37.797  33.921  40.148  1.00  0.00    -0.200 F 
ATOM     84  C   UNL A   1      39.193  35.557  39.170  1.00  0.00     0.200 A 
ATOM     85  F   UNL A   1      40.582  37.164  38.141  1.00  0.00    -0.200 F 
ATOM     86  F   UNL A   1      39.027  36.356  40.232  1.00  0.00    -0.200 F 
ENDBRANCH  52  76
BRANCH  64  87
ATOM     87  C   UNL A   1      43.880  28.725  35.249  1.00  0.00     0.064 A 
ATOM     88  C   UNL A   1      43.736  27.609  36.084  1.00  0.00     0.173 A 
ATOM     89  C   UNL A   1      45.171  29.242  35.062  1.00  0.00     0.173 A 
ATOM     90  F   UNL A   1      42.521  27.084  36.307  1.00  0.00    -0.203 F 
ATOM     91  C   UNL A   1      44.836  27.050  36.729  1.00  0.00     0.198 A 
ATOM     92  C   UNL A   1      46.274  28.660  35.680  1.00  0.00     0.198 A 
ATOM     93  F   UNL A   1      45.367  30.305  34.267  1.00  0.00    -0.203 F 
ATOM     94  F   UNL A   1      44.667  26.017  37.565  1.00  0.00    -0.200 F 
ATOM     95  C   UNL A   1      46.105  27.570  36.520  1.00  0.00     0.200 A 
ATOM     96  F   UNL A   1      47.501  29.154  35.462  1.00  0.00    -0.200 F 
ATOM     97  F   UNL A   1      47.164  27.025  37.135  1.00  0.00    -0.200 F 
ENDBRANCH  64  87
ENDBRANCH  38  39
ENDBRANCH  30  33
ENDBRANCH  28  29
ENDBRANCH  27  28
ENDBRANCH   1  27
TORSDOF 14
ENDMDL
MODEL 2
REMARK VINA RESULT:     -13.3      5.792     11.580
REMARK SMILES C[C@H](NC(=O)N1CCN(/C=C/c2ccccc2)CC1)C(=O)NCCCCNC(=O)c1ccc(-c2c3nc(c(-c4c(F)c(F)c(F)c(F)c4F)c4ccc([nH]4)c(-c4c(F)c(F)c(F)c(F)c4F)c4nc(c(-c5c(F)c(F)c(F)c(F)c5F)c5ccc2[nH]5)C=C4)C=C3)cc1
REMARK SMILES IDX 24 1 23 2 22 3 20 4 21 5 2 7 1 8 3 9 4 10 5 12 6 13 7 14
REMARK SMILES IDX 19 15 8 16 18 17 9 18 10 19 11 20 12 21 13 22 17 23 14 24
REMARK SMILES IDX 16 25 15 26 25 27 26 28 27 29 28 30 29 32 30 33 31 34 92 35
REMARK SMILES IDX 32 36 91 37 33 38 34 39 35 40 85 41 36 42 90 43 84 44 86 45
REMARK SMILES IDX 37 46 89 47 83 48 82 49 38 51 70 52 50 53 69 54 51 55 54 56
REMARK SMILES IDX 68 57 87 58 52 59 53 60 67 62 88 63 55 64 39 65 40 66 48 67
REMARK SMILES IDX 41 68 42 69 46 70 49 71 43 72 44 73 47 74 45 75 71 76 72 77
REMARK SMILES IDX 80 78 73 79 74 80 78 81 81 82 75 83 76 84 79 85 77 86 56 87
REMARK SMILES IDX 57 88 65 89 58 90 59 91 63 92 66 93 60 94 61 95 64 96 62 97
REMARK H PARENT 22 6 3 11 27 31 86 50 54 61
REMARK Flexibility Score: inf
ROOT
ATOM      1  C   UNL A   1      37.196  21.076  24.525  1.00  0.00     0.023 C 
ENDROOT
BRANCH   1   2
ATOM      2  C   UNL A   1      37.327  22.317  25.402  1.00  0.00     0.116 C 
BRANCH   2   3
ATOM      3  N   UNL A   1      36.321  22.321  26.449  1.00  0.00    -0.354 N 
ATOM      4  C   UNL A   1      35.102  22.933  26.489  1.00  0.00     0.242 C 
ATOM      5  O   UNL A   1      34.413  22.783  27.500  1.00  0.00    -0.273 OA
ATOM      6  H   UNL A   1      36.553  21.802  27.253  1.00  0.00     0.163 HD
BRANCH   4   7
ATOM      7  C   UNL A   1      34.553  23.671  25.254  1.00  0.00     0.170 C 
ATOM      8  C   UNL A   1      33.918  24.955  25.774  1.00  0.00     0.041 C 
BRANCH   7   9
ATOM      9  N   UNL A   1      33.769  22.744  24.426  1.00  0.00    -0.326 N 
ATOM     10  C   UNL A   1      32.583  22.805  23.789  1.00  0.00     0.318 C 
ATOM     11  H   UNL A   1      34.214  21.873  24.309  1.00  0.00     0.166 HD
ATOM     12  O   UNL A   1      31.947  21.754  23.702  1.00  0.00    -0.249 OA
ATOM     13  N   UNL A   1      32.095  23.989  23.340  1.00  0.00    -0.321 N 
ATOM     14  C   UNL A   1      30.656  24.128  23.127  1.00  0.00     0.143 C 
ATOM     15  C   UNL A   1      32.874  25.006  22.639  1.00  0.00     0.143 C 
ATOM     16  C   UNL A   1      30.181  25.503  23.614  1.00  0.00     0.137 C 
ATOM     17  C   UNL A   1      32.411  26.438  22.967  1.00  0.00     0.137 C 
ATOM     18  N   UNL A   1      30.937  26.597  22.966  1.00  0.00    -0.374 N 
BRANCH  18  19
ATOM     19  C   UNL A   1      30.383  27.830  22.665  1.00  0.00     0.081 C 
ATOM     20  C   UNL A   1      29.998  28.827  23.473  1.00  0.00     0.025 C 
BRANCH  20  21
ATOM     21  C   UNL A   1      29.329  30.036  22.974  1.00  0.00    -0.024 A 
ATOM     22  C   UNL A   1      28.965  30.121  21.626  1.00  0.00     0.008 A 
ATOM     23  C   UNL A   1      29.126  31.150  23.803  1.00  0.00     0.008 A 
ATOM     24  C   UNL A   1      28.393  31.291  21.121  1.00  0.00     0.001 A 
ATOM     25  C   UNL A   1      28.552  32.317  23.299  1.00  0.00     0.001 A 
ATOM     26  C   UNL A   1      28.187  32.388  21.957  1.00  0.00     0.000 A 
ENDBRANCH  20  21
ENDBRANCH  18  19
ENDBRANCH   7   9
ENDBRANCH   4   7
ENDBRANCH   2   3
ENDBRANCH   1   2
BRANCH   1  27
ATOM     27  C   UNL A   1      38.048  19.896  24.998  1.00  0.00     0.023 C 
BRANCH  27  28
ATOM     28  C   UNL A   1      39.270  20.288  25.822  1.00  0.00     0.116 C 
BRANCH  28  29
ATOM     29  N   UNL A   1      40.230  19.202  25.945  1.00  0.00    -0.352 N 
ATOM     30  C   UNL A   1      41.588  19.274  26.129  1.00  0.00     0.251 C 
ATOM     31  H   UNL A   1      39.855  18.294  25.889  1.00  0.00     0.163 HD
ATOM     32  O   UNL A   1      42.285  18.267  26.042  1.00  0.00    -0.269 OA
BRANCH  30  33
ATOM     33  C   UNL A   1      42.213  20.584  26.405  1.00  0.00     0.039 A 
ATOM     34  C   UNL A   1      42.669  21.355  25.334  1.00  0.00     0.014 A 
ATOM     35  C   UNL A   1      42.314  21.060  27.715  1.00  0.00     0.014 A 
ATOM     36  C   UNL A   1      43.168  22.636  25.573  1.00  0.00     0.010 A 
ATOM     37  C   UNL A   1      42.734  22.367  27.942  1.00  0.00     0.010 A 
ATOM     38  C   UNL A   1      43.168  23.168  26.875  1.00  0.00    -0.014 A 
BRANCH  38  39
ATOM     39  C   UNL A   1      43.615  24.559  27.137  1.00  0.00     0.031 A 
ATOM     40  C   UNL A   1      42.639  25.580  27.651  1.00  0.00     0.074 A 
ATOM     41  C   UNL A   1      44.882  24.918  26.853  1.00  0.00     0.049 A 
ATOM     42  N   UNL A   1      42.821  26.856  27.884  1.00  0.00    -0.248 NA
ATOM     43  C   UNL A   1      41.269  25.113  27.914  1.00  0.00     0.031 C 
ATOM     44  C   UNL A   1      45.911  24.031  26.307  1.00  0.00     0.029 A 
ATOM     45  N   UNL A   1      45.520  26.127  26.977  1.00  0.00    -0.354 N 
ATOM     46  C   UNL A   1      41.590  27.343  28.304  1.00  0.00     0.074 A 
ATOM     47  C   UNL A   1      40.655  26.241  28.241  1.00  0.00     0.031 C 
ATOM     48  C   UNL A   1      47.056  24.717  26.169  1.00  0.00     0.029 A 
ATOM     49  C   UNL A   1      46.834  26.101  26.574  1.00  0.00     0.049 A 
ATOM     50  H   UNL A   1      45.078  26.936  27.321  1.00  0.00     0.167 HD
ATOM     51  C   UNL A   1      41.275  28.590  28.727  1.00  0.00     0.037 A 
ATOM     52  C   UNL A   1      47.752  27.086  26.528  1.00  0.00     0.037 A 
ATOM     53  C   UNL A   1      42.214  29.677  28.809  1.00  0.00     0.049 A 
ATOM     54  C   UNL A   1      47.368  28.467  26.986  1.00  0.00     0.074 A 
ATOM     55  C   UNL A   1      42.008  30.961  29.285  1.00  0.00     0.029 A 
ATOM     56  N   UNL A   1      43.538  29.612  28.399  1.00  0.00    -0.354 N 
ATOM     57  N   UNL A   1      46.221  28.897  27.455  1.00  0.00    -0.248 NA
ATOM     58  C   UNL A   1      48.409  29.502  26.914  1.00  0.00     0.031 C 
ATOM     59  C   UNL A   1      43.189  31.688  29.108  1.00  0.00     0.029 A 
ATOM     60  C   UNL A   1      44.151  30.841  28.582  1.00  0.00     0.049 A 
ATOM     61  H   UNL A   1      43.977  28.811  28.031  1.00  0.00     0.167 HD
ATOM     62  C   UNL A   1      46.413  30.237  27.765  1.00  0.00     0.074 A 
ATOM     63  C   UNL A   1      47.790  30.546  27.445  1.00  0.00     0.031 C 
ATOM     64  C   UNL A   1      45.527  31.132  28.269  1.00  0.00     0.037 A 
BRANCH  51  65
ATOM     65  C   UNL A   1      39.852  28.851  29.133  1.00  0.00     0.064 A 
ATOM     66  C   UNL A   1      38.889  29.290  28.210  1.00  0.00     0.173 A 
ATOM     67  C   UNL A   1      39.434  28.615  30.451  1.00  0.00     0.173 A 
ATOM     68  F   UNL A   1      39.236  29.542  26.938  1.00  0.00    -0.203 F 
ATOM     69  C   UNL A   1      37.571  29.513  28.599  1.00  0.00     0.198 A 
ATOM     70  C   UNL A   1      38.107  28.805  30.829  1.00  0.00     0.198 A 
ATOM     71  F   UNL A   1      40.311  28.189  31.372  1.00  0.00    -0.203 F 
ATOM     72  F   UNL A   1      36.682  29.982  27.712  1.00  0.00    -0.200 F 
ATOM     73  C   UNL A   1      37.179  29.262  29.905  1.00  0.00     0.200 A 
ATOM     74  F   UNL A   1      37.727  28.548  32.087  1.00  0.00    -0.200 F 
ATOM     75  F   UNL A   1      35.908  29.466  30.276  1.00  0.00    -0.200 F 
ENDBRANCH  51  65
BRANCH  52  76
ATOM     76  C   UNL A   1      49.131  26.800  26.051  1.00  0.00     0.064 A 
ATOM     77  C   UNL A   1      49.486  27.008  24.710  1.00  0.00     0.173 A 
ATOM     78  C   UNL A   1      50.115  26.296  26.913  1.00  0.00     0.173 A 
ATOM     79  F   UNL A   1      48.576  27.468  23.840  1.00  0.00    -0.203 F 
ATOM     80  C   UNL A   1      50.762  26.695  24.245  1.00  0.00     0.198 A 
ATOM     81  C   UNL A   1      51.401  26.015  26.455  1.00  0.00     0.198 A 
ATOM     82  F   UNL A   1      49.829  26.083  28.207  1.00  0.00    -0.203 F 
ATOM     83  F   UNL A   1      51.056  26.850  22.947  1.00  0.00    -0.200 F 
ATOM     84  C   UNL A   1      51.721  26.204  25.120  1.00  0.00     0.200 A 
ATOM     85  F   UNL A   1      52.327  25.556  27.307  1.00  0.00    -0.200 F 
ATOM     86  F   UNL A   1      52.947  25.904  24.673  1.00  0.00    -0.200 F 
ENDBRANCH  52  76
BRANCH  64  87
ATOM     87  C   UNL A   1      46.031  32.519  28.550  1.00  0.00     0.064 A 
ATOM     88  C   UNL A   1      46.613  32.860  29.779  1.00  0.00     0.173 A 
ATOM     89  C   UNL A   1      45.965  33.509  27.558  1.00  0.00     0.173 A 
ATOM     90  F   UNL A   1      46.688  31.955  30.766  1.00  0.00    -0.203 F 
ATOM     91  C   UNL A   1      47.084  34.150  30.014  1.00  0.00     0.198 A 
ATOM     92  C   UNL A   1      46.469  34.787  27.784  1.00  0.00     0.198 A 
ATOM     93  F   UNL A   1      45.426  33.234  26.361  1.00  0.00    -0.203 F 
ATOM     94  F   UNL A   1      47.588  34.468  31.215  1.00  0.00    -0.200 F 
ATOM     95  C   UNL A   1      47.020  35.109  29.014  1.00  0.00     0.200 A 
ATOM     96  F   UNL A   1      46.422  35.707  26.809  1.00  0.00    -0.200 F 
ATOM     97  F   UNL A   1      47.483  36.346  29.240  1.00  0.00    -0.200 F 
ENDBRANCH  64  87
ENDBRANCH  38  39
ENDBRANCH  30  33
ENDBRANCH  28  29
ENDBRANCH  27  28
ENDBRANCH   1  27
TORSDOF 14
ENDMDL
MODEL 3
REMARK VINA RESULT:     -13.3      1.731      2.417
REMARK SMILES C[C@H](NC(=O)N1CCN(/C=C/c2ccccc2)CC1)C(=O)NCCCCNC(=O)c1ccc(-c2c3nc(c(-c4c(F)c(F)c(F)c(F)c4F)c4ccc([nH]4)c(-c4c(F)c(F)c(F)c(F)c4F)c4nc(c(-c5c(F)c(F)c(F)c(F)c5F)c5ccc2[nH]5)C=C4)C=C3)cc1
REMARK SMILES IDX 24 1 23 2 22 3 20 4 21 5 2 7 1 8 3 9 4 10 5 12 6 13 7 14
REMARK SMILES IDX 19 15 8 16 18 17 9 18 10 19 11 20 12 21 13 22 17 23 14 24
REMARK SMILES IDX 16 25 15 26 25 27 26 28 27 29 28 30 29 32 30 33 31 34 92 35
REMARK SMILES IDX 32 36 91 37 33 38 34 39 35 40 85 41 36 42 90 43 84 44 86 45
REMARK SMILES IDX 37 46 89 47 83 48 82 49 38 51 70 52 50 53 69 54 51 55 54 56
REMARK SMILES IDX 68 57 87 58 52 59 53 60 67 62 88 63 55 64 39 65 40 66 48 67
REMARK SMILES IDX 41 68 42 69 46 70 49 71 43 72 44 73 47 74 45 75 71 76 72 77
REMARK SMILES IDX 80 78 73 79 74 80 78 81 81 82 75 83 76 84 79 85 77 86 56 87
REMARK SMILES IDX 57 88 65 89 58 90 59 91 63 92 66 93 60 94 61 95 64 96 62 97
REMARK H PARENT 22 6 3 11 27 31 86 50 54 61
REMARK Flexibility Score: inf
ROOT
ATOM      1  C   UNL A   1      31.771  30.500  26.713  1.00  0.00     0.023 C 
ENDROOT
BRANCH   1   2
ATOM      2  C   UNL A   1      32.314  29.948  25.398  1.00  0.00     0.116 C 
BRANCH   2   3
ATOM      3  N   UNL A   1      31.281  29.928  24.378  1.00  0.00    -0.354 N 
ATOM      4  C   UNL A   1      30.769  28.880  23.671  1.00  0.00     0.242 C 
ATOM      5  O   UNL A   1      29.879  29.115  22.850  1.00  0.00    -0.273 OA
ATOM      6  H   UNL A   1      30.889  30.806  24.164  1.00  0.00     0.163 HD
BRANCH   4   7
ATOM      7  C   UNL A   1      31.194  27.434  23.991  1.00  0.00     0.170 C 
ATOM      8  C   UNL A   1      31.133  26.672  22.673  1.00  0.00     0.041 C 
BRANCH   7   9
ATOM      9  N   UNL A   1      30.453  26.943  25.162  1.00  0.00    -0.326 N 
ATOM     10  C   UNL A   1      30.526  25.850  25.946  1.00  0.00     0.318 C 
ATOM     11  H   UNL A   1      29.735  27.557  25.438  1.00  0.00     0.166 HD
ATOM     12  O   UNL A   1      29.467  25.440  26.424  1.00  0.00    -0.249 OA
ATOM     13  N   UNL A   1      31.703  25.200  26.125  1.00  0.00    -0.321 N 
ATOM     14  C   UNL A   1      31.684  23.795  26.528  1.00  0.00     0.143 C 
ATOM     15  C   UNL A   1      32.988  25.846  26.378  1.00  0.00     0.143 C 
ATOM     16  C   UNL A   1      32.762  23.013  25.767  1.00  0.00     0.137 C 
ATOM     17  C   UNL A   1      34.169  25.083  25.749  1.00  0.00     0.137 C 
ATOM     18  N   UNL A   1      34.100  23.615  25.953  1.00  0.00    -0.374 N 
BRANCH  18  19
ATOM     19  C   UNL A   1      35.270  22.876  25.989  1.00  0.00     0.081 C 
ATOM     20  C   UNL A   1      36.333  22.895  25.176  1.00  0.00     0.025 C 
BRANCH  20  21
ATOM     21  C   UNL A   1      37.453  21.954  25.313  1.00  0.00    -0.024 A 
ATOM     22  C   UNL A   1      37.305  20.633  24.876  1.00  0.00     0.008 A 
ATOM     23  C   UNL A   1      38.642  22.326  25.957  1.00  0.00     0.008 A 
ATOM     24  C   UNL A   1      38.334  19.707  25.065  1.00  0.00     0.001 A 
ATOM     25  C   UNL A   1      39.671  21.402  26.142  1.00  0.00     0.001 A 
ATOM     26  C   UNL A   1      39.516  20.092  25.698  1.00  0.00     0.000 A 
ENDBRANCH  20  21
ENDBRANCH  18  19
ENDBRANCH   7   9
ENDBRANCH   4   7
ENDBRANCH   2   3
ENDBRANCH   1   2
BRANCH   1  27
ATOM     27  C   UNL A   1      31.613  32.021  26.722  1.00  0.00     0.023 C 
BRANCH  27  28
ATOM     28  C   UNL A   1      32.804  32.777  27.301  1.00  0.00     0.116 C 
BRANCH  28  29
ATOM     29  N   UNL A   1      32.479  34.156  27.634  1.00  0.00    -0.352 N 
ATOM     30  C   UNL A   1      33.003  34.946  28.627  1.00  0.00     0.251 C 
ATOM     31  H   UNL A   1      31.793  34.580  27.070  1.00  0.00     0.163 HD
ATOM     32  O   UNL A   1      32.503  36.035  28.887  1.00  0.00    -0.269 OA
BRANCH  30  33
ATOM     33  C   UNL A   1      34.163  34.460  29.402  1.00  0.00     0.039 A 
ATOM     34  C   UNL A   1      33.942  33.854  30.641  1.00  0.00     0.014 A 
ATOM     35  C   UNL A   1      35.457  34.572  28.889  1.00  0.00     0.014 A 
ATOM     36  C   UNL A   1      35.017  33.299  31.336  1.00  0.00     0.010 A 
ATOM     37  C   UNL A   1      36.514  33.948  29.544  1.00  0.00     0.010 A 
ATOM     38  C   UNL A   1      36.306  33.307  30.775  1.00  0.00    -0.014 A 
BRANCH  38  39
ATOM     39  C   UNL A   1      37.447  32.648  31.461  1.00  0.00     0.031 A 
ATOM     40  C   UNL A   1      38.139  31.479  30.818  1.00  0.00     0.074 A 
ATOM     41  C   UNL A   1      37.818  33.062  32.688  1.00  0.00     0.049 A 
ATOM     42  N   UNL A   1      39.111  30.734  31.283  1.00  0.00    -0.248 NA
ATOM     43  C   UNL A   1      37.659  31.075  29.487  1.00  0.00     0.031 C 
ATOM     44  C   UNL A   1      37.195  34.155  33.437  1.00  0.00     0.029 A 
ATOM     45  N   UNL A   1      38.804  32.607  33.527  1.00  0.00    -0.354 N 
ATOM     46  C   UNL A   1      39.346  29.770  30.311  1.00  0.00     0.074 A 
ATOM     47  C   UNL A   1      38.379  29.987  29.257  1.00  0.00     0.031 C 
ATOM     48  C   UNL A   1      37.830  34.304  34.609  1.00  0.00     0.029 A 
ATOM     49  C   UNL A   1      38.875  33.292  34.717  1.00  0.00     0.049 A 
ATOM     50  H   UNL A   1      39.404  31.861  33.298  1.00  0.00     0.167 HD
ATOM     51  C   UNL A   1      40.297  28.807  30.290  1.00  0.00     0.037 A 
ATOM     52  C   UNL A   1      39.686  33.114  35.778  1.00  0.00     0.037 A 
ATOM     53  C   UNL A   1      41.271  28.609  31.330  1.00  0.00     0.049 A 
ATOM     54  C   UNL A   1      40.722  32.023  35.734  1.00  0.00     0.074 A 
ATOM     55  C   UNL A   1      42.316  27.702  31.373  1.00  0.00     0.029 A 
ATOM     56  N   UNL A   1      41.316  29.326  32.518  1.00  0.00    -0.354 N 
ATOM     57  N   UNL A   1      40.986  31.166  34.777  1.00  0.00    -0.248 NA
ATOM     58  C   UNL A   1      41.579  31.876  36.920  1.00  0.00     0.031 C 
ATOM     59  C   UNL A   1      42.957  27.830  32.610  1.00  0.00     0.029 A 
ATOM     60  C   UNL A   1      42.352  28.861  33.312  1.00  0.00     0.049 A 
ATOM     61  H   UNL A   1      40.703  30.057  32.760  1.00  0.00     0.167 HD
ATOM     62  C   UNL A   1      42.056  30.406  35.228  1.00  0.00     0.074 A 
ATOM     63  C   UNL A   1      42.403  30.911  36.539  1.00  0.00     0.031 C 
ATOM     64  C   UNL A   1      42.694  29.380  34.611  1.00  0.00     0.037 A 
BRANCH  51  65
ATOM     65  C   UNL A   1      40.332  27.886  29.102  1.00  0.00     0.064 A 
ATOM     66  C   UNL A   1      39.583  26.699  29.066  1.00  0.00     0.173 A 
ATOM     67  C   UNL A   1      41.089  28.217  27.969  1.00  0.00     0.173 A 
ATOM     68  F   UNL A   1      38.851  26.329  30.127  1.00  0.00    -0.203 F 
ATOM     69  C   UNL A   1      39.616  25.865  27.952  1.00  0.00     0.198 A 
ATOM     70  C   UNL A   1      41.092  27.398  26.842  1.00  0.00     0.198 A 
ATOM     71  F   UNL A   1      41.819  29.343  27.947  1.00  0.00    -0.203 F 
ATOM     72  F   UNL A   1      38.933  24.711  27.961  1.00  0.00    -0.200 F 
ATOM     73  C   UNL A   1      40.362  26.219  26.838  1.00  0.00     0.200 A 
ATOM     74  F   UNL A   1      41.802  27.749  25.762  1.00  0.00    -0.200 F 
ATOM     75  F   UNL A   1      40.383  25.421  25.762  1.00  0.00    -0.200 F 
ENDBRANCH  51  65
BRANCH  52  76
ATOM     76  C   UNL A   1      39.569  34.003  36.964  1.00  0.00     0.064 A 
ATOM     77  C   UNL A   1      38.802  33.624  38.075  1.00  0.00     0.173 A 
ATOM     78  C   UNL A   1      40.200  35.255  37.007  1.00  0.00     0.173 A 
ATOM     79  F   UNL A   1      38.161  32.446  38.075  1.00  0.00    -0.203 F 
ATOM     80  C   UNL A   1      38.648  34.474  39.169  1.00  0.00     0.198 A 
ATOM     81  C   UNL A   1      40.073  36.090  38.115  1.00  0.00     0.198 A 
ATOM     82  F   UNL A   1      40.950  35.665  35.972  1.00  0.00    -0.203 F 
ATOM     83  F   UNL A   1      37.863  34.109  40.192  1.00  0.00    -0.200 F 
ATOM     84  C   UNL A   1      39.288  35.704  39.191  1.00  0.00     0.200 A 
ATOM     85  F   UNL A   1      40.705  37.270  38.138  1.00  0.00    -0.200 F 
ATOM     86  F   UNL A   1      39.140  36.520  40.242  1.00  0.00    -0.200 F 
ENDBRANCH  52  76
BRANCH  64  87
ATOM     87  C   UNL A   1      43.863  28.765  35.327  1.00  0.00     0.064 A 
ATOM     88  C   UNL A   1      45.177  29.204  35.112  1.00  0.00     0.173 A 
ATOM     89  C   UNL A   1      43.658  27.747  36.271  1.00  0.00     0.173 A 
ATOM     90  F   UNL A   1      45.430  30.164  34.210  1.00  0.00    -0.203 F 
ATOM     91  C   UNL A   1      46.246  28.627  35.794  1.00  0.00     0.198 A 
ATOM     92  C   UNL A   1      44.724  27.197  36.977  1.00  0.00     0.198 A 
ATOM     93  F   UNL A   1      42.420  27.295  36.522  1.00  0.00    -0.203 F 
ATOM     94  F   UNL A   1      47.498  29.025  35.533  1.00  0.00    -0.200 F 
ATOM     95  C   UNL A   1      46.017  27.631  36.732  1.00  0.00     0.200 A 
ATOM     96  F   UNL A   1      44.499  26.247  37.896  1.00  0.00    -0.200 F 
ATOM     97  F   UNL A   1      47.046  27.084  37.394  1.00  0.00    -0.200 F 
ENDBRANCH  64  87
ENDBRANCH  38  39
ENDBRANCH  30  33
ENDBRANCH  28  29
ENDBRANCH  27  28
ENDBRANCH   1  27
TORSDOF 14
ENDMDL
