MODEL 1
REMARK VINA RESULT:     -13.2      0.000      0.000
REMARK SMILES C[C@H]1CC[C@@]2(CO)C(C(=O)NCCCCNC(=O)c3ccc(-c4c5nc(c(-c6c(F)c(F)c(F)c(F)c6F)c6ccc([nH]6)c(-c6c(F)c(F)c(F)c(F)c6F)c6nc(c(-c7c(F)c(F)c(F)c(F)c7F)c7ccc4[nH]7)C=C6)C=C5)cc3)=C[C@@H](O)C[C@@H]2[C@@]1(C)CCc1ccoc1
REMARK SMILES IDX 13 1 12 2 11 3 9 4 10 5 8 7 1 8 2 9 3 10 87 11 4 12 86 13
REMARK SMILES IDX 88 14 5 15 85 16 83 17 82 18 89 19 90 20 91 21 92 22 95 23
REMARK SMILES IDX 93 24 94 25 6 26 7 27 84 29 14 31 15 32 16 33 17 34 18 36
REMARK SMILES IDX 19 37 20 38 81 39 21 40 80 41 22 42 23 43 24 44 74 45 25 46
REMARK SMILES IDX 79 47 73 48 75 49 26 50 78 51 72 52 71 53 27 55 59 56 39 57
REMARK SMILES IDX 58 58 40 59 43 60 57 61 76 62 41 63 42 64 56 66 77 67 44 68
REMARK SMILES IDX 28 69 29 70 37 71 30 72 31 73 35 74 38 75 32 76 33 77 36 78
REMARK SMILES IDX 34 79 60 80 61 81 69 82 62 83 63 84 67 85 70 86 64 87 65 88
REMARK SMILES IDX 68 89 66 90 45 91 46 92 54 93 47 94 48 95 52 96 55 97 49 98
REMARK SMILES IDX 50 99 53 100 51 101
REMARK H PARENT 11 6 7 28 84 30 16 35 75 54 43 65
REMARK Flexibility Score: inf
ROOT
ATOM      1  C   UNL A   1      32.040  30.492  26.762  1.00  0.00     0.023 C 
ENDROOT
BRANCH   1   2
ATOM      2  C   UNL A   1      31.776  29.954  25.354  1.00  0.00     0.116 C 
BRANCH   2   3
ATOM      3  N   UNL A   1      33.032  29.575  24.719  1.00  0.00    -0.352 N 
ATOM      4  C   UNL A   1      33.370  28.405  24.086  1.00  0.00     0.247 C 
ATOM      5  O   UNL A   1      34.518  28.195  23.712  1.00  0.00    -0.270 OA
ATOM      6  H   UNL A   1      33.741  30.257  24.747  1.00  0.00     0.163 HD
BRANCH   4   7
ATOM      7  C   UNL A   1      32.268  27.454  23.790  1.00  0.00     0.024 C 
ATOM      8  C   UNL A   1      34.921  24.500  25.378  1.00  0.00     0.008 C 
ATOM      9  C   UNL A   1      33.525  24.030  25.844  1.00  0.00    -0.008 C 
ATOM     10  C   UNL A   1      32.923  25.076  26.784  1.00  0.00     0.005 C 
ATOM     11  C   UNL A   1      32.558  23.657  24.672  1.00  0.00    -0.026 C 
ATOM     12  C   UNL A   1      32.732  26.408  26.085  1.00  0.00     0.015 C 
ATOM     13  C   UNL A   1      32.274  25.018  23.888  1.00  0.00     0.011 C 
ATOM     14  C   UNL A   1      31.226  23.070  25.210  1.00  0.00     0.012 C 
ATOM     15  C   UNL A   1      31.934  26.311  24.757  1.00  0.00     0.027 C 
ATOM     16  C   UNL A   1      31.343  24.941  22.638  1.00  0.00     0.041 C 
ATOM     17  C   UNL A   1      31.048  26.316  21.954  1.00  0.00     0.138 C 
ATOM     18  C   UNL A   1      31.733  27.502  22.557  1.00  0.00     0.014 C 
BRANCH  11  19
ATOM     19  C   UNL A   1      33.146  22.531  23.706  1.00  0.00     0.012 C 
BRANCH  19  20
ATOM     20  C   UNL A   1      32.409  21.258  23.198  1.00  0.00     0.039 C 
BRANCH  20  21
ATOM     21  C   UNL A   1      32.533  19.938  23.880  1.00  0.00    -0.010 A 
ATOM     22  C   UNL A   1      32.853  19.738  25.262  1.00  0.00     0.045 A 
ATOM     23  C   UNL A   1      32.388  18.666  23.365  1.00  0.00     0.198 A 
ATOM     24  C   UNL A   1      32.757  18.389  25.502  1.00  0.00     0.195 A 
ATOM     25  O   UNL A   1      32.492  17.730  24.347  1.00  0.00    -0.472 OA
ENDBRANCH  20  21
ENDBRANCH  19  20
ENDBRANCH  11  19
BRANCH  15  26
ATOM     26  C   UNL A   1      30.410  26.500  25.112  1.00  0.00     0.168 C 
BRANCH  26  27
ATOM     27  O   UNL A   1      30.048  26.037  26.406  1.00  0.00    -0.395 OA
ATOM     28  H   UNL A   1      30.418  26.632  27.077  1.00  0.00     0.210 HD
ENDBRANCH  26  27
ENDBRANCH  15  26
BRANCH  17  29
ATOM     29  O   UNL A   1      31.518  26.240  20.607  1.00  0.00    -0.389 OA
ATOM     30  H   UNL A   1      31.298  25.371  20.235  1.00  0.00     0.211 HD
ENDBRANCH  17  29
ENDBRANCH   4   7
ENDBRANCH   2   3
ENDBRANCH   1   2
BRANCH   1  31
ATOM     31  C   UNL A   1      31.695  31.970  26.893  1.00  0.00     0.023 C 
BRANCH  31  32
ATOM     32  C   UNL A   1      32.856  32.815  27.398  1.00  0.00     0.116 C 
BRANCH  32  33
ATOM     33  N   UNL A   1      32.474  34.191  27.702  1.00  0.00    -0.352 N 
ATOM     34  C   UNL A   1      33.013  35.038  28.644  1.00  0.00     0.251 C 
ATOM     35  H   UNL A   1      31.736  34.561  27.164  1.00  0.00     0.163 HD
ATOM     36  O   UNL A   1      32.537  36.128  28.872  1.00  0.00    -0.269 OA
BRANCH  34  37
ATOM     37  C   UNL A   1      34.182  34.550  29.408  1.00  0.00     0.039 A 
ATOM     38  C   UNL A   1      33.969  33.902  30.626  1.00  0.00     0.014 A 
ATOM     39  C   UNL A   1      35.457  34.628  28.844  1.00  0.00     0.014 A 
ATOM     40  C   UNL A   1      35.037  33.249  31.242  1.00  0.00     0.010 A 
ATOM     41  C   UNL A   1      36.495  33.906  29.415  1.00  0.00     0.010 A 
ATOM     42  C   UNL A   1      36.293  33.205  30.616  1.00  0.00    -0.014 A 
BRANCH  42  43
ATOM     43  C   UNL A   1      37.419  32.436  31.198  1.00  0.00     0.031 A 
ATOM     44  C   UNL A   1      37.919  32.773  32.572  1.00  0.00     0.074 A 
ATOM     45  C   UNL A   1      38.038  31.494  30.460  1.00  0.00     0.049 A 
ATOM     46  N   UNL A   1      38.937  32.279  33.228  1.00  0.00    -0.248 NA
ATOM     47  C   UNL A   1      37.199  33.837  33.288  1.00  0.00     0.031 C 
ATOM     48  C   UNL A   1      37.683  31.118  29.091  1.00  0.00     0.029 A 
ATOM     49  N   UNL A   1      39.106  30.684  30.759  1.00  0.00    -0.354 N 
ATOM     50  C   UNL A   1      38.990  32.987  34.422  1.00  0.00     0.074 A 
ATOM     51  C   UNL A   1      37.946  33.988  34.369  1.00  0.00     0.031 C 
ATOM     52  C   UNL A   1      38.492  30.127  28.682  1.00  0.00     0.029 A 
ATOM     53  C   UNL A   1      39.443  29.821  29.746  1.00  0.00     0.049 A 
ATOM     54  H   UNL A   1      39.583  30.719  31.619  1.00  0.00     0.167 HD
ATOM     55  C   UNL A   1      39.813  32.799  35.480  1.00  0.00     0.037 A 
ATOM     56  C   UNL A   1      40.408  28.884  29.690  1.00  0.00     0.037 A 
ATOM     57  C   UNL A   1      40.826  31.780  35.539  1.00  0.00     0.049 A 
ATOM     58  C   UNL A   1      41.307  28.687  30.880  1.00  0.00     0.074 A 
ATOM     59  C   UNL A   1      41.671  31.461  36.586  1.00  0.00     0.029 A 
ATOM     60  N   UNL A   1      41.125  30.909  34.502  1.00  0.00    -0.354 N 
ATOM     61  N   UNL A   1      41.305  29.314  32.031  1.00  0.00    -0.248 NA
ATOM     62  C   UNL A   1      42.339  27.646  30.765  1.00  0.00     0.031 C 
ATOM     63  C   UNL A   1      42.507  30.419  36.168  1.00  0.00     0.029 A 
ATOM     64  C   UNL A   1      42.154  30.062  34.877  1.00  0.00     0.049 A 
ATOM     65  H   UNL A   1      40.673  30.895  33.627  1.00  0.00     0.167 HD
ATOM     66  C   UNL A   1      42.312  28.729  32.787  1.00  0.00     0.074 A 
ATOM     67  C   UNL A   1      42.897  27.688  31.966  1.00  0.00     0.031 C 
ATOM     68  C   UNL A   1      42.715  29.026  34.046  1.00  0.00     0.037 A 
BRANCH  55  69
ATOM     69  C   UNL A   1      39.635  33.716  36.654  1.00  0.00     0.064 A 
ATOM     70  C   UNL A   1      38.828  33.362  37.747  1.00  0.00     0.173 A 
ATOM     71  C   UNL A   1      40.264  34.969  36.684  1.00  0.00     0.173 A 
ATOM     72  F   UNL A   1      38.191  32.181  37.760  1.00  0.00    -0.203 F 
ATOM     73  C   UNL A   1      38.620  34.245  38.802  1.00  0.00     0.198 A 
ATOM     74  C   UNL A   1      40.081  35.837  37.757  1.00  0.00     0.198 A 
ATOM     75  F   UNL A   1      41.050  35.357  35.668  1.00  0.00    -0.203 F 
ATOM     76  F   UNL A   1      37.788  33.912  39.799  1.00  0.00    -0.200 F 
ATOM     77  C   UNL A   1      39.249  35.481  38.808  1.00  0.00     0.200 A 
ATOM     78  F   UNL A   1      40.697  37.027  37.767  1.00  0.00    -0.200 F 
ATOM     79  F   UNL A   1      39.043  36.332  39.822  1.00  0.00    -0.200 F 
ENDBRANCH  55  69
BRANCH  56  80
ATOM     80  C   UNL A   1      40.538  28.024  28.485  1.00  0.00     0.064 A 
ATOM     81  C   UNL A   1      39.884  26.786  28.421  1.00  0.00     0.173 A 
ATOM     82  C   UNL A   1      41.300  28.418  27.376  1.00  0.00     0.173 A 
ATOM     83  F   UNL A   1      39.159  26.359  29.465  1.00  0.00    -0.203 F 
ATOM     84  C   UNL A   1      39.997  25.968  27.298  1.00  0.00     0.198 A 
ATOM     85  C   UNL A   1      41.396  27.610  26.245  1.00  0.00     0.198 A 
ATOM     86  F   UNL A   1      41.941  29.597  27.387  1.00  0.00    -0.203 F 
ATOM     87  F   UNL A   1      39.390  24.774  27.278  1.00  0.00    -0.200 F 
ATOM     88  C   UNL A   1      40.748  26.383  26.210  1.00  0.00     0.200 A 
ATOM     89  F   UNL A   1      42.112  28.019  25.190  1.00  0.00    -0.200 F 
ATOM     90  F   UNL A   1      40.853  25.599  25.128  1.00  0.00    -0.200 F 
ENDBRANCH  56  80
BRANCH  68  91
ATOM     91  C   UNL A   1      43.820  28.194  34.627  1.00  0.00     0.064 A 
ATOM     92  C   UNL A   1      45.160  28.594  34.546  1.00  0.00     0.173 A 
ATOM     93  C   UNL A   1      43.525  27.006  35.313  1.00  0.00     0.173 A 
ATOM     94  F   UNL A   1      45.492  29.714  33.886  1.00  0.00    -0.203 F 
ATOM     95  C   UNL A   1      46.171  27.824  35.116  1.00  0.00     0.198 A 
ATOM     96  C   UNL A   1      44.535  26.253  35.905  1.00  0.00     0.198 A 
ATOM     97  F   UNL A   1      42.257  26.584  35.422  1.00  0.00    -0.203 F 
ATOM     98  F   UNL A   1      47.450  28.204  34.992  1.00  0.00    -0.200 F 
ATOM     99  C   UNL A   1      45.856  26.660  35.802  1.00  0.00     0.200 A 
ATOM    100  F   UNL A   1      44.229  25.134  36.577  1.00  0.00    -0.200 F 
ATOM    101  F   UNL A   1      46.830  25.925  36.357  1.00  0.00    -0.200 F 
ENDBRANCH  68  91
ENDBRANCH  42  43
ENDBRANCH  34  37
ENDBRANCH  32  33
ENDBRANCH  31  32
ENDBRANCH   1  31
TORSDOF 17
ENDMDL
MODEL 2
REMARK VINA RESULT:     -13.1      0.124      1.892
REMARK SMILES C[C@H]1CC[C@@]2(CO)C(C(=O)NCCCCNC(=O)c3ccc(-c4c5nc(c(-c6c(F)c(F)c(F)c(F)c6F)c6ccc([nH]6)c(-c6c(F)c(F)c(F)c(F)c6F)c6nc(c(-c7c(F)c(F)c(F)c(F)c7F)c7ccc4[nH]7)C=C6)C=C5)cc3)=C[C@@H](O)C[C@@H]2[C@@]1(C)CCc1ccoc1
REMARK SMILES IDX 13 1 12 2 11 3 9 4 10 5 8 7 1 8 2 9 3 10 87 11 4 12 86 13
REMARK SMILES IDX 88 14 5 15 85 16 83 17 82 18 89 19 90 20 91 21 92 22 95 23
REMARK SMILES IDX 93 24 94 25 6 26 7 27 84 29 14 31 15 32 16 33 17 34 18 36
REMARK SMILES IDX 19 37 20 38 81 39 21 40 80 41 22 42 23 43 24 44 74 45 25 46
REMARK SMILES IDX 79 47 73 48 75 49 26 50 78 51 72 52 71 53 27 55 59 56 39 57
REMARK SMILES IDX 58 58 40 59 43 60 57 61 76 62 41 63 42 64 56 66 77 67 44 68
REMARK SMILES IDX 28 69 29 70 37 71 30 72 31 73 35 74 38 75 32 76 33 77 36 78
REMARK SMILES IDX 34 79 60 80 61 81 69 82 62 83 63 84 67 85 70 86 64 87 65 88
REMARK SMILES IDX 68 89 66 90 45 91 46 92 54 93 47 94 48 95 52 96 55 97 49 98
REMARK SMILES IDX 50 99 53 100 51 101
REMARK H PARENT 11 6 7 28 84 30 16 35 75 54 43 65
REMARK Flexibility Score: inf
ROOT
ATOM      1  C   UNL A   1      32.046  30.475  26.768  1.00  0.00     0.023 C 
ENDROOT
BRANCH   1   2
ATOM      2  C   UNL A   1      31.764  29.900  25.378  1.00  0.00     0.116 C 
BRANCH   2   3
ATOM      3  N   UNL A   1      33.017  29.547  24.719  1.00  0.00    -0.352 N 
ATOM      4  C   UNL A   1      33.365  28.388  24.074  1.00  0.00     0.247 C 
ATOM      5  O   UNL A   1      34.509  28.201  23.680  1.00  0.00    -0.270 OA
ATOM      6  H   UNL A   1      33.713  30.243  24.739  1.00  0.00     0.163 HD
BRANCH   4   7
ATOM      7  C   UNL A   1      32.275  27.419  23.792  1.00  0.00     0.024 C 
ATOM      8  C   UNL A   1      35.036  24.494  25.246  1.00  0.00     0.008 C 
ATOM      9  C   UNL A   1      33.665  23.986  25.743  1.00  0.00    -0.008 C 
ATOM     10  C   UNL A   1      33.068  25.000  26.720  1.00  0.00     0.005 C 
ATOM     11  C   UNL A   1      32.673  23.613  24.592  1.00  0.00    -0.026 C 
ATOM     12  C   UNL A   1      32.828  26.340  26.052  1.00  0.00     0.015 C 
ATOM     13  C   UNL A   1      32.337  24.981  23.843  1.00  0.00     0.011 C 
ATOM     14  C   UNL A   1      31.370  22.987  25.157  1.00  0.00     0.012 C 
ATOM     15  C   UNL A   1      31.994  26.250  24.746  1.00  0.00     0.027 C 
ATOM     16  C   UNL A   1      31.371  24.907  22.619  1.00  0.00     0.041 C 
ATOM     17  C   UNL A   1      31.027  26.287  21.970  1.00  0.00     0.138 C 
ATOM     18  C   UNL A   1      31.703  27.477  22.576  1.00  0.00     0.014 C 
BRANCH  11  19
ATOM     19  C   UNL A   1      33.257  22.518  23.589  1.00  0.00     0.012 C 
BRANCH  19  20
ATOM     20  C   UNL A   1      32.522  21.255  23.054  1.00  0.00     0.039 C 
BRANCH  20  21
ATOM     21  C   UNL A   1      32.585  19.939  23.752  1.00  0.00    -0.010 A 
ATOM     22  C   UNL A   1      33.145  19.708  25.051  1.00  0.00     0.045 A 
ATOM     23  C   UNL A   1      32.154  18.698  23.329  1.00  0.00     0.198 A 
ATOM     24  C   UNL A   1      32.901  18.392  25.360  1.00  0.00     0.195 A 
ATOM     25  O   UNL A   1      32.316  17.769  24.309  1.00  0.00    -0.472 OA
ENDBRANCH  20  21
ENDBRANCH  19  20
ENDBRANCH  11  19
BRANCH  15  26
ATOM     26  C   UNL A   1      30.478  26.399  25.148  1.00  0.00     0.168 C 
BRANCH  26  27
ATOM     27  O   UNL A   1      30.233  26.332  26.546  1.00  0.00    -0.395 OA
ATOM     28  H   UNL A   1      30.726  27.036  26.995  1.00  0.00     0.210 HD
ENDBRANCH  26  27
ENDBRANCH  15  26
BRANCH  17  29
ATOM     29  O   UNL A   1      31.459  26.248  20.609  1.00  0.00    -0.389 OA
ATOM     30  H   UNL A   1      31.096  27.010  20.131  1.00  0.00     0.211 HD
ENDBRANCH  17  29
ENDBRANCH   4   7
ENDBRANCH   2   3
ENDBRANCH   1   2
BRANCH   1  31
ATOM     31  C   UNL A   1      31.697  31.955  26.866  1.00  0.00     0.023 C 
BRANCH  31  32
ATOM     32  C   UNL A   1      32.866  32.818  27.321  1.00  0.00     0.116 C 
BRANCH  32  33
ATOM     33  N   UNL A   1      32.479  34.192  27.626  1.00  0.00    -0.352 N 
ATOM     34  C   UNL A   1      33.007  35.036  28.577  1.00  0.00     0.251 C 
ATOM     35  H   UNL A   1      31.746  34.563  27.082  1.00  0.00     0.163 HD
ATOM     36  O   UNL A   1      32.528  36.125  28.805  1.00  0.00    -0.269 OA
BRANCH  34  37
ATOM     37  C   UNL A   1      34.169  34.547  29.352  1.00  0.00     0.039 A 
ATOM     38  C   UNL A   1      33.947  33.934  30.586  1.00  0.00     0.014 A 
ATOM     39  C   UNL A   1      35.443  34.587  28.783  1.00  0.00     0.014 A 
ATOM     40  C   UNL A   1      35.004  33.278  31.216  1.00  0.00     0.010 A 
ATOM     41  C   UNL A   1      36.470  33.860  29.371  1.00  0.00     0.010 A 
ATOM     42  C   UNL A   1      36.258  33.195  30.590  1.00  0.00    -0.014 A 
BRANCH  42  43
ATOM     43  C   UNL A   1      37.372  32.420  31.188  1.00  0.00     0.031 A 
ATOM     44  C   UNL A   1      37.858  32.761  32.567  1.00  0.00     0.074 A 
ATOM     45  C   UNL A   1      37.992  31.469  30.463  1.00  0.00     0.049 A 
ATOM     46  N   UNL A   1      38.865  32.264  33.237  1.00  0.00    -0.248 NA
ATOM     47  C   UNL A   1      37.139  33.835  33.268  1.00  0.00     0.031 C 
ATOM     48  C   UNL A   1      37.649  31.088  29.093  1.00  0.00     0.029 A 
ATOM     49  N   UNL A   1      39.049  30.653  30.779  1.00  0.00    -0.354 N 
ATOM     50  C   UNL A   1      38.910  32.979  34.427  1.00  0.00     0.074 A 
ATOM     51  C   UNL A   1      37.875  33.987  34.357  1.00  0.00     0.031 C 
ATOM     52  C   UNL A   1      38.454  30.088  28.699  1.00  0.00     0.029 A 
ATOM     53  C   UNL A   1      39.391  29.781  29.776  1.00  0.00     0.049 A 
ATOM     54  H   UNL A   1      39.517  30.689  31.645  1.00  0.00     0.167 HD
ATOM     55  C   UNL A   1      39.719  32.790  35.495  1.00  0.00     0.037 A 
ATOM     56  C   UNL A   1      40.349  28.836  29.736  1.00  0.00     0.037 A 
ATOM     57  C   UNL A   1      40.723  31.763  35.573  1.00  0.00     0.049 A 
ATOM     58  C   UNL A   1      41.233  28.638  30.937  1.00  0.00     0.074 A 
ATOM     59  C   UNL A   1      41.554  31.444  36.631  1.00  0.00     0.029 A 
ATOM     60  N   UNL A   1      41.027  30.884  34.543  1.00  0.00    -0.354 N 
ATOM     61  N   UNL A   1      41.223  29.272  32.085  1.00  0.00    -0.248 NA
ATOM     62  C   UNL A   1      42.257  27.589  30.840  1.00  0.00     0.031 C 
ATOM     63  C   UNL A   1      42.386  30.393  36.229  1.00  0.00     0.029 A 
ATOM     64  C   UNL A   1      42.045  30.031  34.935  1.00  0.00     0.049 A 
ATOM     65  H   UNL A   1      40.585  30.869  33.664  1.00  0.00     0.167 HD
ATOM     66  C   UNL A   1      42.217  28.685  32.855  1.00  0.00     0.074 A 
ATOM     67  C   UNL A   1      42.803  27.634  32.047  1.00  0.00     0.031 C 
ATOM     68  C   UNL A   1      42.607  28.986  34.118  1.00  0.00     0.037 A 
BRANCH  55  69
ATOM     69  C   UNL A   1      39.535  33.716  36.662  1.00  0.00     0.064 A 
ATOM     70  C   UNL A   1      40.178  34.962  36.720  1.00  0.00     0.173 A 
ATOM     71  C   UNL A   1      38.720  33.348  37.743  1.00  0.00     0.173 A 
ATOM     72  F   UNL A   1      40.981  35.353  35.718  1.00  0.00    -0.203 F 
ATOM     73  C   UNL A   1      40.051  35.786  37.834  1.00  0.00     0.198 A 
ATOM     74  C   UNL A   1      38.568  34.190  38.843  1.00  0.00     0.198 A 
ATOM     75  F   UNL A   1      38.079  32.170  37.739  1.00  0.00    -0.203 F 
ATOM     76  F   UNL A   1      40.731  36.938  37.895  1.00  0.00    -0.200 F 
ATOM     77  C   UNL A   1      39.242  35.401  38.894  1.00  0.00     0.200 A 
ATOM     78  F   UNL A   1      37.779  33.821  39.862  1.00  0.00    -0.200 F 
ATOM     79  F   UNL A   1      39.126  36.191  39.968  1.00  0.00    -0.200 F 
ENDBRANCH  55  69
BRANCH  56  80
ATOM     80  C   UNL A   1      40.486  27.968  28.537  1.00  0.00     0.064 A 
ATOM     81  C   UNL A   1      41.272  28.374  27.450  1.00  0.00     0.173 A 
ATOM     82  C   UNL A   1      39.851  26.721  28.454  1.00  0.00     0.173 A 
ATOM     83  F   UNL A   1      41.884  29.568  27.477  1.00  0.00    -0.203 F 
ATOM     84  C   UNL A   1      41.408  27.572  26.320  1.00  0.00     0.198 A 
ATOM     85  C   UNL A   1      40.005  25.909  27.332  1.00  0.00     0.198 A 
ATOM     86  F   UNL A   1      39.091  26.285  29.470  1.00  0.00    -0.203 F 
ATOM     87  F   UNL A   1      42.138  28.000  25.281  1.00  0.00    -0.200 F 
ATOM     88  C   UNL A   1      40.779  26.338  26.263  1.00  0.00     0.200 A 
ATOM     89  F   UNL A   1      39.406  24.712  27.287  1.00  0.00    -0.200 F 
ATOM     90  F   UNL A   1      40.914  25.563  25.178  1.00  0.00    -0.200 F 
ENDBRANCH  56  80
BRANCH  68  91
ATOM     91  C   UNL A   1      43.699  28.149  34.716  1.00  0.00     0.064 A 
ATOM     92  C   UNL A   1      43.421  26.951  35.388  1.00  0.00     0.173 A 
ATOM     93  C   UNL A   1      45.042  28.529  34.570  1.00  0.00     0.173 A 
ATOM     94  F   UNL A   1      42.152  26.556  35.566  1.00  0.00    -0.203 F 
ATOM     95  C   UNL A   1      44.449  26.172  35.911  1.00  0.00     0.198 A 
ATOM     96  C   UNL A   1      46.068  27.733  35.071  1.00  0.00     0.198 A 
ATOM     97  F   UNL A   1      45.359  29.664  33.930  1.00  0.00    -0.203 F 
ATOM     98  F   UNL A   1      44.160  25.050  36.586  1.00  0.00    -0.200 F 
ATOM     99  C   UNL A   1      45.771  26.559  35.745  1.00  0.00     0.200 A 
ATOM    100  F   UNL A   1      47.345  28.103  34.900  1.00  0.00    -0.200 F 
ATOM    101  F   UNL A   1      46.759  25.803  36.242  1.00  0.00    -0.200 F 
ENDBRANCH  68  91
ENDBRANCH  42  43
ENDBRANCH  34  37
ENDBRANCH  32  33
ENDBRANCH  31  32
ENDBRANCH   1  31
TORSDOF 17
ENDMDL
MODEL 3
REMARK VINA RESULT:     -13.0      1.758      3.110
REMARK SMILES C[C@H]1CC[C@@]2(CO)C(C(=O)NCCCCNC(=O)c3ccc(-c4c5nc(c(-c6c(F)c(F)c(F)c(F)c6F)c6ccc([nH]6)c(-c6c(F)c(F)c(F)c(F)c6F)c6nc(c(-c7c(F)c(F)c(F)c(F)c7F)c7ccc4[nH]7)C=C6)C=C5)cc3)=C[C@@H](O)C[C@@H]2[C@@]1(C)CCc1ccoc1
REMARK SMILES IDX 13 1 12 2 11 3 9 4 10 5 8 7 1 8 2 9 3 10 87 11 4 12 86 13
REMARK SMILES IDX 88 14 5 15 85 16 83 17 82 18 89 19 90 20 91 21 92 22 95 23
REMARK SMILES IDX 93 24 94 25 6 26 7 27 84 29 14 31 15 32 16 33 17 34 18 36
REMARK SMILES IDX 19 37 20 38 81 39 21 40 80 41 22 42 23 43 24 44 74 45 25 46
REMARK SMILES IDX 79 47 73 48 75 49 26 50 78 51 72 52 71 53 27 55 59 56 39 57
REMARK SMILES IDX 58 58 40 59 43 60 57 61 76 62 41 63 42 64 56 66 77 67 44 68
REMARK SMILES IDX 28 69 29 70 37 71 30 72 31 73 35 74 38 75 32 76 33 77 36 78
REMARK SMILES IDX 34 79 60 80 61 81 69 82 62 83 63 84 67 85 70 86 64 87 65 88
REMARK SMILES IDX 68 89 66 90 45 91 46 92 54 93 47 94 48 95 52 96 55 97 49 98
REMARK SMILES IDX 50 99 53 100 51 101
REMARK H PARENT 11 6 7 28 84 30 16 35 75 54 43 65
REMARK Flexibility Score: inf
ROOT
ATOM      1  C   UNL A   1      32.021  29.006  24.174  1.00  0.00     0.023 C 
ENDROOT
BRANCH   1   2
ATOM      2  C   UNL A   1      33.429  28.412  24.254  1.00  0.00     0.116 C 
BRANCH   2   3
ATOM      3  N   UNL A   1      33.724  27.658  23.041  1.00  0.00    -0.352 N 
ATOM      4  C   UNL A   1      33.543  26.323  22.780  1.00  0.00     0.247 C 
ATOM      5  O   UNL A   1      33.962  25.818  21.746  1.00  0.00    -0.270 OA
ATOM      6  H   UNL A   1      34.108  28.183  22.303  1.00  0.00     0.163 HD
BRANCH   4   7
ATOM      7  C   UNL A   1      32.736  25.547  23.756  1.00  0.00     0.024 C 
ATOM      8  C   UNL A   1      35.860  22.645  23.432  1.00  0.00     0.008 C 
ATOM      9  C   UNL A   1      35.439  22.569  24.916  1.00  0.00    -0.008 C 
ATOM     10  C   UNL A   1      35.731  23.907  25.598  1.00  0.00     0.005 C 
ATOM     11  C   UNL A   1      33.963  22.100  25.133  1.00  0.00    -0.026 C 
ATOM     12  C   UNL A   1      34.936  25.035  24.969  1.00  0.00     0.015 C 
ATOM     13  C   UNL A   1      33.043  23.252  24.522  1.00  0.00     0.011 C 
ATOM     14  C   UNL A   1      33.648  21.919  26.642  1.00  0.00     0.012 C 
ATOM     15  C   UNL A   1      33.411  24.760  24.887  1.00  0.00     0.027 C 
ATOM     16  C   UNL A   1      31.498  23.040  24.580  1.00  0.00     0.041 C 
ATOM     17  C   UNL A   1      30.650  24.232  24.028  1.00  0.00     0.138 C 
ATOM     18  C   UNL A   1      31.430  25.385  23.478  1.00  0.00     0.014 C 
BRANCH  11  19
ATOM     19  C   UNL A   1      33.650  20.682  24.472  1.00  0.00     0.012 C 
BRANCH  19  20
ATOM     20  C   UNL A   1      32.742  19.560  25.054  1.00  0.00     0.039 C 
BRANCH  20  21
ATOM     21  C   UNL A   1      33.006  18.113  24.808  1.00  0.00    -0.010 A 
ATOM     22  C   UNL A   1      33.732  17.572  23.697  1.00  0.00     0.045 A 
ATOM     23  C   UNL A   1      32.621  17.011  25.546  1.00  0.00     0.198 A 
ATOM     24  C   UNL A   1      33.836  16.220  23.910  1.00  0.00     0.195 A 
ATOM     25  O   UNL A   1      33.147  15.871  25.024  1.00  0.00    -0.472 OA
ENDBRANCH  20  21
ENDBRANCH  19  20
ENDBRANCH  11  19
BRANCH  15  26
ATOM     26  C   UNL A   1      32.765  25.307  26.216  1.00  0.00     0.168 C 
BRANCH  26  27
ATOM     27  O   UNL A   1      33.234  26.589  26.612  1.00  0.00    -0.395 OA
ATOM     28  H   UNL A   1      34.168  26.682  26.366  1.00  0.00     0.210 HD
ENDBRANCH  26  27
ENDBRANCH  15  26
BRANCH  17  29
ATOM     29  O   UNL A   1      29.866  23.740  22.940  1.00  0.00    -0.389 OA
ATOM     30  H   UNL A   1      29.992  24.312  22.166  1.00  0.00     0.211 HD
ENDBRANCH  17  29
ENDBRANCH   4   7
ENDBRANCH   2   3
ENDBRANCH   1   2
BRANCH   1  31
ATOM     31  C   UNL A   1      31.553  29.574  25.508  1.00  0.00     0.023 C 
BRANCH  31  32
ATOM     32  C   UNL A   1      32.691  30.117  26.362  1.00  0.00     0.116 C 
BRANCH  32  33
ATOM     33  N   UNL A   1      32.521  31.522  26.717  1.00  0.00    -0.352 N 
ATOM     34  C   UNL A   1      33.366  32.326  27.450  1.00  0.00     0.251 C 
ATOM     35  H   UNL A   1      31.695  31.950  26.392  1.00  0.00     0.163 HD
ATOM     36  O   UNL A   1      33.061  33.454  27.767  1.00  0.00    -0.269 OA
BRANCH  34  37
ATOM     37  C   UNL A   1      34.656  31.744  27.879  1.00  0.00     0.039 A 
ATOM     38  C   UNL A   1      35.757  32.586  28.037  1.00  0.00     0.014 A 
ATOM     39  C   UNL A   1      34.719  30.397  28.241  1.00  0.00     0.014 A 
ATOM     40  C   UNL A   1      36.909  32.090  28.647  1.00  0.00     0.010 A 
ATOM     41  C   UNL A   1      35.834  29.931  28.925  1.00  0.00     0.010 A 
ATOM     42  C   UNL A   1      36.937  30.775  29.139  1.00  0.00    -0.014 A 
BRANCH  42  43
ATOM     43  C   UNL A   1      38.109  30.251  29.880  1.00  0.00     0.031 A 
ATOM     44  C   UNL A   1      38.346  30.684  31.298  1.00  0.00     0.074 A 
ATOM     45  C   UNL A   1      38.997  29.456  29.253  1.00  0.00     0.049 A 
ATOM     46  N   UNL A   1      39.348  30.409  32.091  1.00  0.00    -0.248 NA
ATOM     47  C   UNL A   1      37.338  31.579  31.887  1.00  0.00     0.031 C 
ATOM     48  C   UNL A   1      38.907  29.015  27.861  1.00  0.00     0.029 A 
ATOM     49  N   UNL A   1      40.158  28.882  29.708  1.00  0.00    -0.354 N 
ATOM     50  C   UNL A   1      39.101  31.113  33.262  1.00  0.00     0.074 A 
ATOM     51  C   UNL A   1      37.892  31.880  33.050  1.00  0.00     0.031 C 
ATOM     52  C   UNL A   1      39.947  28.210  27.586  1.00  0.00     0.029 A 
ATOM     53  C   UNL A   1      40.792  28.105  28.770  1.00  0.00     0.049 A 
ATOM     54  H   UNL A   1      40.502  29.013  30.621  1.00  0.00     0.167 HD
ATOM     55  C   UNL A   1      39.799  31.097  34.421  1.00  0.00     0.037 A 
ATOM     56  C   UNL A   1      41.927  27.385  28.863  1.00  0.00     0.037 A 
ATOM     57  C   UNL A   1      40.981  30.307  34.638  1.00  0.00     0.049 A 
ATOM     58  C   UNL A   1      42.683  27.376  30.163  1.00  0.00     0.074 A 
ATOM     59  C   UNL A   1      41.729  30.167  35.792  1.00  0.00     0.029 A 
ATOM     60  N   UNL A   1      41.583  29.515  33.670  1.00  0.00    -0.354 N 
ATOM     61  N   UNL A   1      42.404  27.989  31.287  1.00  0.00    -0.248 NA
ATOM     62  C   UNL A   1      43.910  26.568  30.209  1.00  0.00     0.031 C 
ATOM     63  C   UNL A   1      42.806  29.318  35.513  1.00  0.00     0.029 A 
ATOM     64  C   UNL A   1      42.704  28.896  34.197  1.00  0.00     0.049 A 
ATOM     65  H   UNL A   1      41.262  29.409  32.746  1.00  0.00     0.167 HD
ATOM     66  C   UNL A   1      43.401  27.623  32.181  1.00  0.00     0.074 A 
ATOM     67  C   UNL A   1      44.287  26.724  31.470  1.00  0.00     0.031 C 
ATOM     68  C   UNL A   1      43.567  27.997  33.473  1.00  0.00     0.037 A 
BRANCH  55  69
ATOM     69  C   UNL A   1      39.287  31.959  35.539  1.00  0.00     0.064 A 
ATOM     70  C   UNL A   1      39.674  33.302  35.667  1.00  0.00     0.173 A 
ATOM     71  C   UNL A   1      38.413  31.434  36.502  1.00  0.00     0.173 A 
ATOM     72  F   UNL A   1      40.522  33.847  34.781  1.00  0.00    -0.203 F 
ATOM     73  C   UNL A   1      39.244  34.075  36.741  1.00  0.00     0.198 A 
ATOM     74  C   UNL A   1      37.957  32.220  37.558  1.00  0.00     0.198 A 
ATOM     75  F   UNL A   1      38.008  30.158  36.426  1.00  0.00    -0.203 F 
ATOM     76  F   UNL A   1      39.684  35.332  36.879  1.00  0.00    -0.200 F 
ATOM     77  C   UNL A   1      38.382  33.534  37.684  1.00  0.00     0.200 A 
ATOM     78  F   UNL A   1      37.116  31.700  38.463  1.00  0.00    -0.200 F 
ATOM     79  F   UNL A   1      37.973  34.277  38.721  1.00  0.00    -0.200 F 
ENDBRANCH  55  69
BRANCH  56  80
ATOM     80  C   UNL A   1      42.384  26.570  27.708  1.00  0.00     0.064 A 
ATOM     81  C   UNL A   1      43.339  27.074  26.814  1.00  0.00     0.173 A 
ATOM     82  C   UNL A   1      41.892  25.277  27.477  1.00  0.00     0.173 A 
ATOM     83  F   UNL A   1      43.824  28.313  26.984  1.00  0.00    -0.203 F 
ATOM     84  C   UNL A   1      43.776  26.322  25.726  1.00  0.00     0.198 A 
ATOM     85  C   UNL A   1      42.346  24.517  26.401  1.00  0.00     0.198 A 
ATOM     86  F   UNL A   1      40.980  24.748  28.307  1.00  0.00    -0.203 F 
ATOM     87  F   UNL A   1      44.664  26.842  24.869  1.00  0.00    -0.200 F 
ATOM     88  C   UNL A   1      43.284  25.042  25.523  1.00  0.00     0.200 A 
ATOM     89  F   UNL A   1      41.877  23.276  26.216  1.00  0.00    -0.200 F 
ATOM     90  F   UNL A   1      43.707  24.316  24.480  1.00  0.00    -0.200 F 
ENDBRANCH  56  80
BRANCH  68  91
ATOM     91  C   UNL A   1      44.732  27.408  34.212  1.00  0.00     0.064 A 
ATOM     92  C   UNL A   1      44.635  26.178  34.876  1.00  0.00     0.173 A 
ATOM     93  C   UNL A   1      45.973  28.063  34.214  1.00  0.00     0.173 A 
ATOM     94  F   UNL A   1      43.466  25.522  34.915  1.00  0.00    -0.203 F 
ATOM     95  C   UNL A   1      45.735  25.632  35.532  1.00  0.00     0.198 A 
ATOM     96  C   UNL A   1      47.077  27.502  34.848  1.00  0.00     0.198 A 
ATOM     97  F   UNL A   1      46.117  29.241  33.589  1.00  0.00    -0.203 F 
ATOM     98  F   UNL A   1      45.610  24.474  36.194  1.00  0.00    -0.200 F 
ATOM     99  C   UNL A   1      46.956  26.290  35.511  1.00  0.00     0.200 A 
ATOM    100  F   UNL A   1      48.259  28.133  34.818  1.00  0.00    -0.200 F 
ATOM    101  F   UNL A   1      48.016  25.759  36.136  1.00  0.00    -0.200 F 
ENDBRANCH  68  91
ENDBRANCH  42  43
ENDBRANCH  34  37
ENDBRANCH  32  33
ENDBRANCH  31  32
ENDBRANCH   1  31
TORSDOF 17
ENDMDL
