MODEL 1
REMARK VINA RESULT:     -12.5      0.000      0.000
REMARK SMILES O=C(NCCCCNC(=O)c1ccncc1-c1ccc(F)cc1F)c1ccc(-c2c3nc(c(-c4c(F)c(F)c(F)c(F)c4F)c4ccc([nH]4)c(-c4c(F)c(F)c(F)c(F)c4F)c4nc(c(-c5c(F)c(F)c(F)c(F)c5F)c5ccc2[nH]5)C=C4)C=C3)cc1
REMARK SMILES IDX 5 1 4 2 3 3 1 4 2 5 25 7 26 8 87 9 27 10 86 11 28 12 29 13
REMARK SMILES IDX 30 14 80 15 31 16 85 17 79 18 81 19 32 20 84 21 78 22 77 23
REMARK SMILES IDX 33 25 65 26 45 27 64 28 46 29 49 30 63 31 82 32 47 33 48 34
REMARK SMILES IDX 62 36 83 37 50 38 34 39 35 40 43 41 36 42 37 43 41 44 44 45
REMARK SMILES IDX 38 46 39 47 42 48 40 49 66 50 67 51 75 52 68 53 69 54 73 55
REMARK SMILES IDX 76 56 70 57 71 58 74 59 72 60 51 61 52 62 60 63 53 64 54 65
REMARK SMILES IDX 58 66 61 67 55 68 56 69 59 70 57 71 6 72 7 73 8 74 9 75
REMARK SMILES IDX 10 77 11 78 12 79 16 80 13 81 15 82 14 83 17 84 18 85 23 86
REMARK SMILES IDX 19 87 22 88 24 89 20 90 21 91
REMARK H PARENT 3 6 81 24 49 35 8 76
REMARK Flexibility Score: inf
ROOT
ATOM      1  C   UNL A   1      31.480  31.952  26.874  1.00  0.00     0.023 C 
ENDROOT
BRANCH   1   2
ATOM      2  C   UNL A   1      32.739  32.774  27.115  1.00  0.00     0.116 C 
BRANCH   2   3
ATOM      3  N   UNL A   1      32.467  34.111  27.617  1.00  0.00    -0.352 N 
ATOM      4  O   UNL A   1      32.631  35.891  28.995  1.00  0.00    -0.269 OA
ATOM      5  C   UNL A   1      33.078  34.806  28.635  1.00  0.00     0.251 C 
ATOM      6  H   UNL A   1      31.737  34.591  27.162  1.00  0.00     0.163 HD
BRANCH   5   7
ATOM      7  C   UNL A   1      34.255  34.231  29.323  1.00  0.00     0.039 A 
ATOM      8  C   UNL A   1      35.551  34.581  28.936  1.00  0.00     0.014 A 
ATOM      9  C   UNL A   1      34.057  33.327  30.370  1.00  0.00     0.014 A 
ATOM     10  C   UNL A   1      36.638  33.909  29.484  1.00  0.00     0.010 A 
ATOM     11  C   UNL A   1      35.156  32.718  30.983  1.00  0.00     0.010 A 
ATOM     12  C   UNL A   1      36.455  32.978  30.519  1.00  0.00    -0.014 A 
BRANCH  12  13
ATOM     13  C   UNL A   1      37.645  32.341  31.138  1.00  0.00     0.031 A 
ATOM     14  C   UNL A   1      38.096  32.703  32.524  1.00  0.00     0.074 A 
ATOM     15  C   UNL A   1      38.299  31.392  30.441  1.00  0.00     0.049 A 
ATOM     16  N   UNL A   1      39.086  32.205  33.223  1.00  0.00    -0.248 NA
ATOM     17  C   UNL A   1      37.351  33.766  33.216  1.00  0.00     0.031 C 
ATOM     18  C   UNL A   1      37.963  30.973  29.080  1.00  0.00     0.029 A 
ATOM     19  N   UNL A   1      39.362  30.596  30.783  1.00  0.00    -0.354 N 
ATOM     20  C   UNL A   1      39.097  32.904  34.422  1.00  0.00     0.074 A 
ATOM     21  C   UNL A   1      38.028  33.878  34.352  1.00  0.00     0.031 C 
ATOM     22  C   UNL A   1      38.765  29.962  28.721  1.00  0.00     0.029 A 
ATOM     23  C   UNL A   1      39.710  29.700  29.802  1.00  0.00     0.049 A 
ATOM     24  H   UNL A   1      39.830  30.660  31.646  1.00  0.00     0.167 HD
ATOM     25  C   UNL A   1      39.920  32.738  35.485  1.00  0.00     0.037 A 
ATOM     26  C   UNL A   1      40.685  28.774  29.768  1.00  0.00     0.037 A 
ATOM     27  C   UNL A   1      40.962  31.748  35.560  1.00  0.00     0.049 A 
ATOM     28  C   UNL A   1      41.583  28.612  30.958  1.00  0.00     0.074 A 
ATOM     29  C   UNL A   1      41.804  31.461  36.620  1.00  0.00     0.029 A 
ATOM     30  N   UNL A   1      41.309  30.883  34.531  1.00  0.00    -0.354 N 
ATOM     31  N   UNL A   1      41.555  29.252  32.101  1.00  0.00    -0.248 NA
ATOM     32  C   UNL A   1      42.651  27.610  30.854  1.00  0.00     0.031 C 
ATOM     33  C   UNL A   1      42.692  30.458  36.218  1.00  0.00     0.029 A 
ATOM     34  C   UNL A   1      42.373  30.085  34.923  1.00  0.00     0.049 A 
ATOM     35  H   UNL A   1      40.865  30.841  33.653  1.00  0.00     0.167 HD
ATOM     36  C   UNL A   1      42.596  28.730  32.855  1.00  0.00     0.074 A 
ATOM     37  C   UNL A   1      43.224  27.705  32.046  1.00  0.00     0.031 C 
ATOM     38  C   UNL A   1      42.997  29.077  34.102  1.00  0.00     0.037 A 
BRANCH  25  39
ATOM     39  C   UNL A   1      39.744  33.654  36.662  1.00  0.00     0.064 A 
ATOM     40  C   UNL A   1      38.886  33.298  37.714  1.00  0.00     0.173 A 
ATOM     41  C   UNL A   1      40.361  34.912  36.717  1.00  0.00     0.173 A 
ATOM     42  F   UNL A   1      38.264  32.109  37.706  1.00  0.00    -0.203 F 
ATOM     43  C   UNL A   1      38.645  34.172  38.772  1.00  0.00     0.198 A 
ATOM     44  C   UNL A   1      40.139  35.773  37.789  1.00  0.00     0.198 A 
ATOM     45  F   UNL A   1      41.197  35.296  35.740  1.00  0.00    -0.203 F 
ATOM     46  F   UNL A   1      37.801  33.820  39.750  1.00  0.00    -0.200 F 
ATOM     47  C   UNL A   1      39.274  35.406  38.810  1.00  0.00     0.200 A 
ATOM     48  F   UNL A   1      40.762  36.958  37.835  1.00  0.00    -0.200 F 
ATOM     49  F   UNL A   1      39.049  36.242  39.832  1.00  0.00    -0.200 F 
ENDBRANCH  25  39
BRANCH  26  50
ATOM     50  C   UNL A   1      40.835  27.931  28.557  1.00  0.00     0.064 A 
ATOM     51  C   UNL A   1      41.606  28.361  27.466  1.00  0.00     0.173 A 
ATOM     52  C   UNL A   1      40.147  26.718  28.434  1.00  0.00     0.173 A 
ATOM     53  F   UNL A   1      42.276  29.521  27.534  1.00  0.00    -0.203 F 
ATOM     54  C   UNL A   1      41.655  27.624  26.286  1.00  0.00     0.198 A 
ATOM     55  C   UNL A   1      40.218  25.968  27.262  1.00  0.00     0.198 A 
ATOM     56  F   UNL A   1      39.410  26.260  29.456  1.00  0.00    -0.203 F 
ATOM     57  F   UNL A   1      42.358  28.083  25.241  1.00  0.00    -0.200 F 
ATOM     58  C   UNL A   1      40.962  26.428  26.185  1.00  0.00     0.200 A 
ATOM     59  F   UNL A   1      39.559  24.805  27.173  1.00  0.00    -0.200 F 
ATOM     60  F   UNL A   1      41.006  25.720  25.048  1.00  0.00    -0.200 F 
ENDBRANCH  26  50
BRANCH  38  61
ATOM     61  C   UNL A   1      44.173  28.347  34.676  1.00  0.00     0.064 A 
ATOM     62  C   UNL A   1      43.993  27.160  35.402  1.00  0.00     0.173 A 
ATOM     63  C   UNL A   1      45.473  28.861  34.565  1.00  0.00     0.173 A 
ATOM     64  F   UNL A   1      42.767  26.632  35.540  1.00  0.00    -0.203 F 
ATOM     65  C   UNL A   1      45.071  26.522  36.008  1.00  0.00     0.198 A 
ATOM     66  C   UNL A   1      46.552  28.207  35.153  1.00  0.00     0.198 A 
ATOM     67  F   UNL A   1      45.696  29.985  33.869  1.00  0.00    -0.203 F 
ATOM     68  F   UNL A   1      44.871  25.405  36.723  1.00  0.00    -0.200 F 
ATOM     69  C   UNL A   1      46.349  27.044  35.882  1.00  0.00     0.200 A 
ATOM     70  F   UNL A   1      47.790  28.700  35.010  1.00  0.00    -0.200 F 
ATOM     71  F   UNL A   1      47.387  26.425  36.460  1.00  0.00    -0.200 F 
ENDBRANCH  38  61
ENDBRANCH  12  13
ENDBRANCH   5   7
ENDBRANCH   2   3
ENDBRANCH   1   2
BRANCH   1  72
ATOM     72  C   UNL A   1      31.630  30.783  25.904  1.00  0.00     0.023 C 
BRANCH  72  73
ATOM     73  C   UNL A   1      32.400  29.579  26.437  1.00  0.00     0.116 C 
BRANCH  73  74
ATOM     74  N   UNL A   1      31.532  28.508  26.900  1.00  0.00    -0.352 N 
ATOM     75  C   UNL A   1      31.367  27.238  26.401  1.00  0.00     0.252 C 
ATOM     76  H   UNL A   1      30.981  28.725  27.687  1.00  0.00     0.163 HD
ATOM     77  O   UNL A   1      30.564  26.473  26.922  1.00  0.00    -0.269 OA
BRANCH  75  78
ATOM     78  C   UNL A   1      32.166  26.807  25.236  1.00  0.00     0.050 A 
ATOM     79  C   UNL A   1      33.307  26.033  25.479  1.00  0.00     0.034 A 
ATOM     80  C   UNL A   1      31.773  27.122  23.926  1.00  0.00     0.016 A 
ATOM     81  C   UNL A   1      34.087  25.668  24.402  1.00  0.00     0.112 A 
ATOM     82  C   UNL A   1      32.643  26.691  22.925  1.00  0.00     0.120 A 
ATOM     83  N   UNL A   1      33.793  25.999  23.132  1.00  0.00    -0.264 NA
BRANCH  80  84
ATOM     84  C   UNL A   1      30.530  27.825  23.571  1.00  0.00     0.020 A 
ATOM     85  C   UNL A   1      30.521  29.178  23.188  1.00  0.00     0.015 A 
ATOM     86  C   UNL A   1      29.296  27.149  23.605  1.00  0.00     0.134 A 
ATOM     87  C   UNL A   1      29.321  29.818  22.865  1.00  0.00     0.040 A 
ATOM     88  C   UNL A   1      28.099  27.777  23.283  1.00  0.00     0.079 A 
ATOM     89  F   UNL A   1      29.255  25.852  23.953  1.00  0.00    -0.206 F 
ATOM     90  C   UNL A   1      28.123  29.112  22.917  1.00  0.00     0.126 A 
ATOM     91  F   UNL A   1      26.978  29.731  22.601  1.00  0.00    -0.207 F 
ENDBRANCH  80  84
ENDBRANCH  75  78
ENDBRANCH  73  74
ENDBRANCH  72  73
ENDBRANCH   1  72
TORSDOF 12
ENDMDL
MODEL 2
REMARK VINA RESULT:     -12.4      1.328      2.441
REMARK SMILES O=C(NCCCCNC(=O)c1ccncc1-c1ccc(F)cc1F)c1ccc(-c2c3nc(c(-c4c(F)c(F)c(F)c(F)c4F)c4ccc([nH]4)c(-c4c(F)c(F)c(F)c(F)c4F)c4nc(c(-c5c(F)c(F)c(F)c(F)c5F)c5ccc2[nH]5)C=C4)C=C3)cc1
REMARK SMILES IDX 5 1 4 2 3 3 1 4 2 5 25 7 26 8 87 9 27 10 86 11 28 12 29 13
REMARK SMILES IDX 30 14 80 15 31 16 85 17 79 18 81 19 32 20 84 21 78 22 77 23
REMARK SMILES IDX 33 25 65 26 45 27 64 28 46 29 49 30 63 31 82 32 47 33 48 34
REMARK SMILES IDX 62 36 83 37 50 38 34 39 35 40 43 41 36 42 37 43 41 44 44 45
REMARK SMILES IDX 38 46 39 47 42 48 40 49 66 50 67 51 75 52 68 53 69 54 73 55
REMARK SMILES IDX 76 56 70 57 71 58 74 59 72 60 51 61 52 62 60 63 53 64 54 65
REMARK SMILES IDX 58 66 61 67 55 68 56 69 59 70 57 71 6 72 7 73 8 74 9 75
REMARK SMILES IDX 10 77 11 78 12 79 16 80 13 81 15 82 14 83 17 84 18 85 23 86
REMARK SMILES IDX 19 87 22 88 24 89 20 90 21 91
REMARK H PARENT 3 6 81 24 49 35 8 76
REMARK Flexibility Score: inf
ROOT
ATOM      1  C   UNL A   1      31.390  31.954  26.937  1.00  0.00     0.023 C 
ENDROOT
BRANCH   1   2
ATOM      2  C   UNL A   1      32.664  32.765  27.131  1.00  0.00     0.116 C 
BRANCH   2   3
ATOM      3  N   UNL A   1      32.418  34.120  27.600  1.00  0.00    -0.352 N 
ATOM      4  O   UNL A   1      32.626  35.934  28.927  1.00  0.00    -0.269 OA
ATOM      5  C   UNL A   1      33.052  34.832  28.592  1.00  0.00     0.251 C 
ATOM      6  H   UNL A   1      31.691  34.598  27.140  1.00  0.00     0.163 HD
BRANCH   5   7
ATOM      7  C   UNL A   1      34.227  34.258  29.282  1.00  0.00     0.039 A 
ATOM      8  C   UNL A   1      35.524  34.576  28.872  1.00  0.00     0.014 A 
ATOM      9  C   UNL A   1      34.026  33.385  30.355  1.00  0.00     0.014 A 
ATOM     10  C   UNL A   1      36.606  33.902  29.427  1.00  0.00     0.010 A 
ATOM     11  C   UNL A   1      35.123  32.775  30.973  1.00  0.00     0.010 A 
ATOM     12  C   UNL A   1      36.421  33.002  30.488  1.00  0.00    -0.014 A 
BRANCH  12  13
ATOM     13  C   UNL A   1      37.607  32.363  31.111  1.00  0.00     0.031 A 
ATOM     14  C   UNL A   1      38.057  32.727  32.497  1.00  0.00     0.074 A 
ATOM     15  C   UNL A   1      38.260  31.410  30.418  1.00  0.00     0.049 A 
ATOM     16  N   UNL A   1      39.044  32.228  33.199  1.00  0.00    -0.248 NA
ATOM     17  C   UNL A   1      37.314  33.795  33.184  1.00  0.00     0.031 C 
ATOM     18  C   UNL A   1      37.925  30.988  29.057  1.00  0.00     0.029 A 
ATOM     19  N   UNL A   1      39.320  30.612  30.764  1.00  0.00    -0.354 N 
ATOM     20  C   UNL A   1      39.054  32.931  34.397  1.00  0.00     0.074 A 
ATOM     21  C   UNL A   1      37.988  33.907  34.321  1.00  0.00     0.031 C 
ATOM     22  C   UNL A   1      38.724  29.974  28.703  1.00  0.00     0.029 A 
ATOM     23  C   UNL A   1      39.666  29.712  29.787  1.00  0.00     0.049 A 
ATOM     24  H   UNL A   1      39.786  30.676  31.628  1.00  0.00     0.167 HD
ATOM     25  C   UNL A   1      39.874  32.766  35.462  1.00  0.00     0.037 A 
ATOM     26  C   UNL A   1      40.639  28.783  29.758  1.00  0.00     0.037 A 
ATOM     27  C   UNL A   1      40.914  31.772  35.541  1.00  0.00     0.049 A 
ATOM     28  C   UNL A   1      41.534  28.621  30.950  1.00  0.00     0.074 A 
ATOM     29  C   UNL A   1      41.753  31.485  36.604  1.00  0.00     0.029 A 
ATOM     30  N   UNL A   1      41.260  30.903  34.516  1.00  0.00    -0.354 N 
ATOM     31  N   UNL A   1      41.506  29.265  32.091  1.00  0.00    -0.248 NA
ATOM     32  C   UNL A   1      42.599  27.616  30.850  1.00  0.00     0.031 C 
ATOM     33  C   UNL A   1      42.638  30.479  36.207  1.00  0.00     0.029 A 
ATOM     34  C   UNL A   1      42.320  30.103  34.912  1.00  0.00     0.049 A 
ATOM     35  H   UNL A   1      40.818  30.861  33.637  1.00  0.00     0.167 HD
ATOM     36  C   UNL A   1      42.544  28.742  32.848  1.00  0.00     0.074 A 
ATOM     37  C   UNL A   1      43.170  27.712  32.043  1.00  0.00     0.031 C 
ATOM     38  C   UNL A   1      42.943  29.090  34.095  1.00  0.00     0.037 A 
BRANCH  25  39
ATOM     39  C   UNL A   1      39.699  33.685  36.635  1.00  0.00     0.064 A 
ATOM     40  C   UNL A   1      38.866  33.319  37.703  1.00  0.00     0.173 A 
ATOM     41  C   UNL A   1      40.292  34.955  36.673  1.00  0.00     0.173 A 
ATOM     42  F   UNL A   1      38.268  32.118  37.713  1.00  0.00    -0.203 F 
ATOM     43  C   UNL A   1      38.625  34.194  38.760  1.00  0.00     0.198 A 
ATOM     44  C   UNL A   1      40.069  35.818  37.742  1.00  0.00     0.198 A 
ATOM     45  F   UNL A   1      41.104  35.350  35.680  1.00  0.00    -0.203 F 
ATOM     46  F   UNL A   1      37.803  33.831  39.754  1.00  0.00    -0.200 F 
ATOM     47  C   UNL A   1      39.229  35.441  38.780  1.00  0.00     0.200 A 
ATOM     48  F   UNL A   1      40.669  37.017  37.771  1.00  0.00    -0.200 F 
ATOM     49  F   UNL A   1      39.004  36.279  39.801  1.00  0.00    -0.200 F 
ENDBRANCH  25  39
BRANCH  26  50
ATOM     50  C   UNL A   1      40.789  27.936  28.548  1.00  0.00     0.064 A 
ATOM     51  C   UNL A   1      41.553  28.366  27.453  1.00  0.00     0.173 A 
ATOM     52  C   UNL A   1      40.107  26.718  28.433  1.00  0.00     0.173 A 
ATOM     53  F   UNL A   1      42.216  29.530  27.513  1.00  0.00    -0.203 F 
ATOM     54  C   UNL A   1      41.601  27.625  26.275  1.00  0.00     0.198 A 
ATOM     55  C   UNL A   1      40.177  25.965  27.264  1.00  0.00     0.198 A 
ATOM     56  F   UNL A   1      39.376  26.260  29.460  1.00  0.00    -0.203 F 
ATOM     57  F   UNL A   1      42.297  28.083  25.226  1.00  0.00    -0.200 F 
ATOM     58  C   UNL A   1      40.914  26.424  26.182  1.00  0.00     0.200 A 
ATOM     59  F   UNL A   1      39.525  24.797  27.182  1.00  0.00    -0.200 F 
ATOM     60  F   UNL A   1      40.958  25.712  25.048  1.00  0.00    -0.200 F 
ENDBRANCH  26  50
BRANCH  38  61
ATOM     61  C   UNL A   1      44.116  28.359  34.673  1.00  0.00     0.064 A 
ATOM     62  C   UNL A   1      43.929  27.181  35.412  1.00  0.00     0.173 A 
ATOM     63  C   UNL A   1      45.419  28.862  34.552  1.00  0.00     0.173 A 
ATOM     64  F   UNL A   1      42.700  26.664  35.561  1.00  0.00    -0.203 F 
ATOM     65  C   UNL A   1      45.005  26.543  36.023  1.00  0.00     0.198 A 
ATOM     66  C   UNL A   1      46.495  28.207  35.145  1.00  0.00     0.198 A 
ATOM     67  F   UNL A   1      45.648  29.977  33.843  1.00  0.00    -0.203 F 
ATOM     68  F   UNL A   1      44.799  25.435  36.750  1.00  0.00    -0.200 F 
ATOM     69  C   UNL A   1      46.286  27.054  35.887  1.00  0.00     0.200 A 
ATOM     70  F   UNL A   1      47.737  28.690  34.992  1.00  0.00    -0.200 F 
ATOM     71  F   UNL A   1      47.322  26.433  36.468  1.00  0.00    -0.200 F 
ENDBRANCH  38  61
ENDBRANCH  12  13
ENDBRANCH   5   7
ENDBRANCH   2   3
ENDBRANCH   1   2
BRANCH   1  72
ATOM     72  C   UNL A   1      31.405  30.970  25.770  1.00  0.00     0.023 C 
BRANCH  72  73
ATOM     73  C   UNL A   1      32.480  29.890  25.832  1.00  0.00     0.116 C 
BRANCH  73  74
ATOM     74  N   UNL A   1      33.174  29.705  24.568  1.00  0.00    -0.352 N 
ATOM     75  C   UNL A   1      32.817  28.951  23.476  1.00  0.00     0.252 C 
ATOM     76  H   UNL A   1      34.027  30.190  24.482  1.00  0.00     0.163 HD
ATOM     77  O   UNL A   1      33.551  28.904  22.495  1.00  0.00    -0.269 OA
BRANCH  75  78
ATOM     78  C   UNL A   1      31.543  28.203  23.496  1.00  0.00     0.050 A 
ATOM     79  C   UNL A   1      30.390  28.869  23.062  1.00  0.00     0.034 A 
ATOM     80  C   UNL A   1      31.494  26.858  23.892  1.00  0.00     0.016 A 
ATOM     81  C   UNL A   1      29.188  28.197  23.125  1.00  0.00     0.112 A 
ATOM     82  C   UNL A   1      30.220  26.290  23.906  1.00  0.00     0.120 A 
ATOM     83  N   UNL A   1      29.074  26.928  23.559  1.00  0.00    -0.264 NA
BRANCH  80  84
ATOM     84  C   UNL A   1      32.668  26.046  24.246  1.00  0.00     0.020 A 
ATOM     85  C   UNL A   1      33.142  25.956  25.567  1.00  0.00     0.015 A 
ATOM     86  C   UNL A   1      33.360  25.326  23.254  1.00  0.00     0.134 A 
ATOM     87  C   UNL A   1      34.267  25.182  25.868  1.00  0.00     0.040 A 
ATOM     88  C   UNL A   1      34.477  24.551  23.546  1.00  0.00     0.079 A 
ATOM     89  F   UNL A   1      32.939  25.371  21.980  1.00  0.00    -0.206 F 
ATOM     90  C   UNL A   1      34.923  24.489  24.855  1.00  0.00     0.126 A 
ATOM     91  F   UNL A   1      35.997  23.746  25.153  1.00  0.00    -0.207 F 
ENDBRANCH  80  84
ENDBRANCH  75  78
ENDBRANCH  73  74
ENDBRANCH  72  73
ENDBRANCH   1  72
TORSDOF 12
ENDMDL
MODEL 3
REMARK VINA RESULT:     -12.4      5.789     10.688
REMARK SMILES O=C(NCCCCNC(=O)c1ccncc1-c1ccc(F)cc1F)c1ccc(-c2c3nc(c(-c4c(F)c(F)c(F)c(F)c4F)c4ccc([nH]4)c(-c4c(F)c(F)c(F)c(F)c4F)c4nc(c(-c5c(F)c(F)c(F)c(F)c5F)c5ccc2[nH]5)C=C4)C=C3)cc1
REMARK SMILES IDX 5 1 4 2 3 3 1 4 2 5 25 7 26 8 87 9 27 10 86 11 28 12 29 13
REMARK SMILES IDX 30 14 80 15 31 16 85 17 79 18 81 19 32 20 84 21 78 22 77 23
REMARK SMILES IDX 33 25 65 26 45 27 64 28 46 29 49 30 63 31 82 32 47 33 48 34
REMARK SMILES IDX 62 36 83 37 50 38 34 39 35 40 43 41 36 42 37 43 41 44 44 45
REMARK SMILES IDX 38 46 39 47 42 48 40 49 66 50 67 51 75 52 68 53 69 54 73 55
REMARK SMILES IDX 76 56 70 57 71 58 74 59 72 60 51 61 52 62 60 63 53 64 54 65
REMARK SMILES IDX 58 66 61 67 55 68 56 69 59 70 57 71 6 72 7 73 8 74 9 75
REMARK SMILES IDX 10 77 11 78 12 79 16 80 13 81 15 82 14 83 17 84 18 85 23 86
REMARK SMILES IDX 19 87 22 88 24 89 20 90 21 91
REMARK H PARENT 3 6 81 24 49 35 8 76
REMARK Flexibility Score: inf
ROOT
ATOM      1  C   UNL A   1      38.240  19.964  24.740  1.00  0.00     0.023 C 
ENDROOT
BRANCH   1   2
ATOM      2  C   UNL A   1      39.179  20.086  25.933  1.00  0.00     0.116 C 
BRANCH   2   3
ATOM      3  N   UNL A   1      40.258  19.110  25.918  1.00  0.00    -0.352 N 
ATOM      4  O   UNL A   1      42.386  18.359  25.953  1.00  0.00    -0.269 OA
ATOM      5  C   UNL A   1      41.606  19.293  26.118  1.00  0.00     0.251 C 
ATOM      6  H   UNL A   1      39.983  18.182  25.738  1.00  0.00     0.163 HD
BRANCH   5   7
ATOM      7  C   UNL A   1      42.126  20.625  26.500  1.00  0.00     0.039 A 
ATOM      8  C   UNL A   1      42.248  20.987  27.843  1.00  0.00     0.014 A 
ATOM      9  C   UNL A   1      42.494  21.525  25.496  1.00  0.00     0.014 A 
ATOM     10  C   UNL A   1      42.583  22.295  28.176  1.00  0.00     0.010 A 
ATOM     11  C   UNL A   1      42.918  22.813  25.835  1.00  0.00     0.010 A 
ATOM     12  C   UNL A   1      42.931  23.220  27.179  1.00  0.00    -0.014 A 
BRANCH  12  13
ATOM     13  C   UNL A   1      43.363  24.583  27.575  1.00  0.00     0.031 A 
ATOM     14  C   UNL A   1      44.810  24.985  27.550  1.00  0.00     0.074 A 
ATOM     15  C   UNL A   1      42.420  25.478  27.926  1.00  0.00     0.049 A 
ATOM     16  N   UNL A   1      45.345  26.149  27.822  1.00  0.00    -0.248 NA
ATOM     17  C   UNL A   1      45.788  23.949  27.183  1.00  0.00     0.031 C 
ATOM     18  C   UNL A   1      40.986  25.194  28.006  1.00  0.00     0.029 A 
ATOM     19  N   UNL A   1      42.517  26.805  28.259  1.00  0.00    -0.354 N 
ATOM     20  C   UNL A   1      46.716  25.983  27.680  1.00  0.00     0.074 A 
ATOM     21  C   UNL A   1      46.936  24.599  27.318  1.00  0.00     0.031 C 
ATOM     22  C   UNL A   1      40.332  26.323  28.310  1.00  0.00     0.029 A 
ATOM     23  C   UNL A   1      41.302  27.395  28.505  1.00  0.00     0.049 A 
ATOM     24  H   UNL A   1      43.372  27.287  28.316  1.00  0.00     0.167 HD
ATOM     25  C   UNL A   1      47.695  26.906  27.831  1.00  0.00     0.037 A 
ATOM     26  C   UNL A   1      40.998  28.658  28.857  1.00  0.00     0.037 A 
ATOM     27  C   UNL A   1      47.466  28.289  28.163  1.00  0.00     0.049 A 
ATOM     28  C   UNL A   1      42.101  29.660  29.019  1.00  0.00     0.074 A 
ATOM     29  C   UNL A   1      48.390  29.313  28.272  1.00  0.00     0.029 A 
ATOM     30  N   UNL A   1      46.224  28.841  28.441  1.00  0.00    -0.354 N 
ATOM     31  N   UNL A   1      43.390  29.498  28.841  1.00  0.00    -0.248 NA
ATOM     32  C   UNL A   1      41.715  31.013  29.436  1.00  0.00     0.031 C 
ATOM     33  C   UNL A   1      47.716  30.473  28.665  1.00  0.00     0.029 A 
ATOM     34  C   UNL A   1      46.363  30.185  28.754  1.00  0.00     0.049 A 
ATOM     35  H   UNL A   1      45.370  28.352  28.421  1.00  0.00     0.167 HD
ATOM     36  C   UNL A   1      43.970  30.727  29.120  1.00  0.00     0.074 A 
ATOM     37  C   UNL A   1      42.889  31.631  29.460  1.00  0.00     0.031 C 
ATOM     38  C   UNL A   1      45.279  31.070  29.103  1.00  0.00     0.037 A 
BRANCH  25  39
ATOM     39  C   UNL A   1      49.118  26.460  27.651  1.00  0.00     0.064 A 
ATOM     40  C   UNL A   1      49.941  26.253  28.769  1.00  0.00     0.173 A 
ATOM     41  C   UNL A   1      49.689  26.309  26.380  1.00  0.00     0.173 A 
ATOM     42  F   UNL A   1      49.446  26.392  30.008  1.00  0.00    -0.203 F 
ATOM     43  C   UNL A   1      51.285  25.921  28.619  1.00  0.00     0.198 A 
ATOM     44  C   UNL A   1      51.027  25.952  26.234  1.00  0.00     0.198 A 
ATOM     45  F   UNL A   1      48.943  26.487  25.279  1.00  0.00    -0.203 F 
ATOM     46  F   UNL A   1      52.057  25.755  29.702  1.00  0.00    -0.200 F 
ATOM     47  C   UNL A   1      51.826  25.767  27.353  1.00  0.00     0.200 A 
ATOM     48  F   UNL A   1      51.545  25.785  25.008  1.00  0.00    -0.200 F 
ATOM     49  F   UNL A   1      53.117  25.439  27.210  1.00  0.00    -0.200 F 
ENDBRANCH  25  39
BRANCH  26  50
ATOM     50  C   UNL A   1      39.575  29.024  29.064  1.00  0.00     0.064 A 
ATOM     51  C   UNL A   1      38.978  28.927  30.331  1.00  0.00     0.173 A 
ATOM     52  C   UNL A   1      38.764  29.401  27.986  1.00  0.00     0.173 A 
ATOM     53  F   UNL A   1      39.713  28.560  31.391  1.00  0.00    -0.203 F 
ATOM     54  C   UNL A   1      37.617  29.161  30.503  1.00  0.00     0.198 A 
ATOM     55  C   UNL A   1      37.407  29.660  28.165  1.00  0.00     0.198 A 
ATOM     56  F   UNL A   1      39.294  29.521  26.760  1.00  0.00    -0.203 F 
ATOM     57  F   UNL A   1      37.062  29.011  31.714  1.00  0.00    -0.200 F 
ATOM     58  C   UNL A   1      36.832  29.528  29.421  1.00  0.00     0.200 A 
ATOM     59  F   UNL A   1      36.655  30.030  27.120  1.00  0.00    -0.200 F 
ATOM     60  F   UNL A   1      35.522  29.750  29.586  1.00  0.00    -0.200 F 
ENDBRANCH  26  50
BRANCH  38  61
ATOM     61  C   UNL A   1      45.628  32.482  29.464  1.00  0.00     0.064 A 
ATOM     62  C   UNL A   1      45.887  32.836  30.797  1.00  0.00     0.173 A 
ATOM     63  C   UNL A   1      45.638  33.499  28.498  1.00  0.00     0.173 A 
ATOM     64  F   UNL A   1      45.883  31.899  31.757  1.00  0.00    -0.203 F 
ATOM     65  C   UNL A   1      46.128  34.159  31.151  1.00  0.00     0.198 A 
ATOM     66  C   UNL A   1      45.904  34.818  28.853  1.00  0.00     0.198 A 
ATOM     67  F   UNL A   1      45.410  33.206  27.209  1.00  0.00    -0.203 F 
ATOM     68  F   UNL A   1      46.343  34.479  32.435  1.00  0.00    -0.200 F 
ATOM     69  C   UNL A   1      46.139  35.149  30.179  1.00  0.00     0.200 A 
ATOM     70  F   UNL A   1      45.937  35.770  27.909  1.00  0.00    -0.200 F 
ATOM     71  F   UNL A   1      46.380  36.422  30.521  1.00  0.00    -0.200 F 
ENDBRANCH  38  61
ENDBRANCH  12  13
ENDBRANCH   5   7
ENDBRANCH   2   3
ENDBRANCH   1   2
BRANCH   1  72
ATOM     72  C   UNL A   1      36.758  20.165  25.043  1.00  0.00     0.023 C 
BRANCH  72  73
ATOM     73  C   UNL A   1      36.364  21.563  25.510  1.00  0.00     0.116 C 
BRANCH  73  74
ATOM     74  N   UNL A   1      35.434  21.549  26.628  1.00  0.00    -0.352 N 
ATOM     75  C   UNL A   1      34.063  21.455  26.624  1.00  0.00     0.252 C 
ATOM     76  H   UNL A   1      35.847  21.617  27.519  1.00  0.00     0.163 HD
ATOM     77  O   UNL A   1      33.442  21.478  27.680  1.00  0.00    -0.269 OA
BRANCH  75  78
ATOM     78  C   UNL A   1      33.348  21.325  25.337  1.00  0.00     0.050 A 
ATOM     79  C   UNL A   1      33.085  20.032  24.867  1.00  0.00     0.034 A 
ATOM     80  C   UNL A   1      32.907  22.454  24.631  1.00  0.00     0.016 A 
ATOM     81  C   UNL A   1      32.464  19.899  23.643  1.00  0.00     0.112 A 
ATOM     82  C   UNL A   1      32.287  22.186  23.411  1.00  0.00     0.120 A 
ATOM     83  N   UNL A   1      32.079  20.948  22.893  1.00  0.00    -0.264 NA
BRANCH  80  84
ATOM     84  C   UNL A   1      33.031  23.840  25.107  1.00  0.00     0.020 A 
ATOM     85  C   UNL A   1      34.124  24.653  24.757  1.00  0.00     0.015 A 
ATOM     86  C   UNL A   1      32.043  24.398  25.939  1.00  0.00     0.134 A 
ATOM     87  C   UNL A   1      34.216  25.965  25.233  1.00  0.00     0.040 A 
ATOM     88  C   UNL A   1      32.126  25.702  26.415  1.00  0.00     0.079 A 
ATOM     89  F   UNL A   1      30.975  23.665  26.291  1.00  0.00    -0.206 F 
ATOM     90  C   UNL A   1      33.217  26.475  26.057  1.00  0.00     0.126 A 
ATOM     91  F   UNL A   1      33.311  27.733  26.505  1.00  0.00    -0.207 F 
ENDBRANCH  80  84
ENDBRANCH  75  78
ENDBRANCH  73  74
ENDBRANCH  72  73
ENDBRANCH   1  72
TORSDOF 12
ENDMDL
