MODEL 1
REMARK VINA RESULT:      -9.4      0.000      0.000
REMARK SMILES COc1cccc(-c2cc(C(=O)NCCCCNC(=O)c3ccc(-c4c5nc(c(-c6c(F)c(F)c(F)c(F)c6F)c6ccc([nH]6)c(-c6c(F)c(F)c(F)c(F)c6F)c6nc(c(-c7c(F)c(F)c(F)c(F)c7F)c7ccc4[nH]7)C=C6)C=C5)cc3)cs2)c1
REMARK SMILES IDX 15 1 14 2 13 3 11 4 12 5 10 7 8 8 9 9 85 10 84 11 7 12 3 13
REMARK SMILES IDX 4 14 86 15 5 16 6 17 2 18 1 19 16 20 17 21 18 22 19 23 20 25
REMARK SMILES IDX 21 26 22 27 83 28 23 29 82 30 24 31 25 32 26 33 76 34 27 35
REMARK SMILES IDX 81 36 75 37 77 38 28 39 80 40 74 41 73 42 29 44 61 45 41 46
REMARK SMILES IDX 60 47 42 48 45 49 59 50 78 51 43 52 44 53 58 55 79 56 46 57
REMARK SMILES IDX 30 58 31 59 39 60 32 61 33 62 37 63 40 64 34 65 35 66 38 67
REMARK SMILES IDX 36 68 62 69 63 70 71 71 64 72 65 73 69 74 72 75 66 76 67 77
REMARK SMILES IDX 70 78 68 79 47 80 48 81 56 82 49 83 50 84 54 85 57 86 51 87
REMARK SMILES IDX 52 88 55 89 53 90
REMARK H PARENT 13 6 18 24 77 43 45 54
REMARK Flexibility Score: inf
ROOT
ATOM      1  C   UNL A   1      36.822  33.300  29.822  1.00  0.00     0.023 C 
ENDROOT
BRANCH   1   2
ATOM      2  C   UNL A   1      37.187  34.318  30.904  1.00  0.00     0.116 C 
BRANCH   2   3
ATOM      3  N   UNL A   1      36.064  34.566  31.787  1.00  0.00    -0.352 N 
ATOM      4  C   UNL A   1      35.737  34.047  33.016  1.00  0.00     0.252 C 
ATOM      5  O   UNL A   1      34.745  34.516  33.574  1.00  0.00    -0.269 OA
ATOM      6  H   UNL A   1      35.419  35.225  31.443  1.00  0.00     0.163 HD
BRANCH   4   7
ATOM      7  C   UNL A   1      36.565  33.025  33.660  1.00  0.00     0.051 A 
ATOM      8  C   UNL A   1      37.892  31.113  33.997  1.00  0.00     0.035 A 
ATOM      9  C   UNL A   1      36.954  31.728  33.195  1.00  0.00     0.034 A 
ATOM     10  S   UNL A   1      38.129  31.968  35.447  1.00  0.00    -0.143 S 
ATOM     11  C   UNL A   1      37.084  33.223  34.933  1.00  0.00     0.079 A 
BRANCH   8  12
ATOM     12  C   UNL A   1      38.661  29.917  33.675  1.00  0.00    -0.005 A 
ATOM     13  C   UNL A   1      40.828  28.818  33.609  1.00  0.00     0.119 A 
ATOM     14  C   UNL A   1      40.273  27.803  32.829  1.00  0.00     0.046 A 
ATOM     15  C   UNL A   1      40.023  29.878  34.023  1.00  0.00     0.056 A 
ATOM     16  C   UNL A   1      38.916  27.820  32.501  1.00  0.00     0.004 A 
ATOM     17  C   UNL A   1      38.108  28.877  32.926  1.00  0.00     0.010 A 
BRANCH  13  18
ATOM     18  O   UNL A   1      42.171  28.714  33.850  1.00  0.00    -0.497 OA
ATOM     19  C   UNL A   1      42.759  27.462  33.513  1.00  0.00     0.278 C 
ENDBRANCH  13  18
ENDBRANCH   8  12
ENDBRANCH   4   7
ENDBRANCH   2   3
ENDBRANCH   1   2
BRANCH   1  20
ATOM     20  C   UNL A   1      35.337  33.298  29.442  1.00  0.00     0.023 C 
BRANCH  20  21
ATOM     21  C   UNL A   1      35.051  33.056  27.963  1.00  0.00     0.116 C 
BRANCH  21  22
ATOM     22  N   UNL A   1      34.093  31.989  27.723  1.00  0.00    -0.352 N 
ATOM     23  C   UNL A   1      34.305  30.629  27.722  1.00  0.00     0.251 C 
ATOM     24  H   UNL A   1      33.171  32.279  27.537  1.00  0.00     0.163 HD
ATOM     25  O   UNL A   1      33.412  29.860  27.404  1.00  0.00    -0.269 OA
BRANCH  23  26
ATOM     26  C   UNL A   1      35.645  30.110  28.066  1.00  0.00     0.039 A 
ATOM     27  C   UNL A   1      36.645  30.136  27.091  1.00  0.00     0.014 A 
ATOM     28  C   UNL A   1      35.922  29.635  29.350  1.00  0.00     0.014 A 
ATOM     29  C   UNL A   1      37.944  29.754  27.426  1.00  0.00     0.010 A 
ATOM     30  C   UNL A   1      37.231  29.318  29.701  1.00  0.00     0.010 A 
ATOM     31  C   UNL A   1      38.255  29.381  28.743  1.00  0.00    -0.014 A 
BRANCH  31  32
ATOM     32  C   UNL A   1      39.650  29.069  29.144  1.00  0.00     0.031 A 
ATOM     33  C   UNL A   1      40.442  30.053  29.958  1.00  0.00     0.074 A 
ATOM     34  C   UNL A   1      40.226  27.931  28.711  1.00  0.00     0.049 A 
ATOM     35  N   UNL A   1      41.691  29.995  30.342  1.00  0.00    -0.248 NA
ATOM     36  C   UNL A   1      39.742  31.279  30.372  1.00  0.00     0.031 C 
ATOM     37  C   UNL A   1      39.578  26.923  27.870  1.00  0.00     0.029 A 
ATOM     38  N   UNL A   1      41.492  27.436  28.907  1.00  0.00    -0.354 N 
ATOM     39  C   UNL A   1      41.930  31.176  31.030  1.00  0.00     0.074 A 
ATOM     40  C   UNL A   1      40.714  31.957  30.963  1.00  0.00     0.031 C 
ATOM     41  C   UNL A   1      40.443  25.922  27.638  1.00  0.00     0.029 A 
ATOM     42  C   UNL A   1      41.716  26.234  28.283  1.00  0.00     0.049 A 
ATOM     43  H   UNL A   1      42.174  27.900  29.445  1.00  0.00     0.167 HD
ATOM     44  C   UNL A   1      43.053  31.563  31.681  1.00  0.00     0.037 A 
ATOM     45  C   UNL A   1      42.825  25.473  28.229  1.00  0.00     0.037 A 
ATOM     46  C   UNL A   1      44.254  30.772  31.762  1.00  0.00     0.049 A 
ATOM     47  C   UNL A   1      44.061  25.926  28.959  1.00  0.00     0.074 A 
ATOM     48  C   UNL A   1      45.426  31.050  32.444  1.00  0.00     0.029 A 
ATOM     49  N   UNL A   1      44.436  29.547  31.136  1.00  0.00    -0.354 N 
ATOM     50  N   UNL A   1      44.253  27.013  29.665  1.00  0.00    -0.248 NA
ATOM     51  C   UNL A   1      45.233  25.042  28.888  1.00  0.00     0.031 C 
ATOM     52  C   UNL A   1      46.332  30.014  32.196  1.00  0.00     0.029 A 
ATOM     53  C   UNL A   1      45.709  29.066  31.400  1.00  0.00     0.049 A 
ATOM     54  H   UNL A   1      43.761  29.088  30.586  1.00  0.00     0.167 HD
ATOM     55  C   UNL A   1      45.553  26.932  30.145  1.00  0.00     0.074 A 
ATOM     56  C   UNL A   1      46.099  25.680  29.661  1.00  0.00     0.031 C 
ATOM     57  C   UNL A   1      46.235  27.815  30.915  1.00  0.00     0.037 A 
BRANCH  44  58
ATOM     58  C   UNL A   1      43.034  32.901  32.361  1.00  0.00     0.064 A 
ATOM     59  C   UNL A   1      43.248  34.090  31.646  1.00  0.00     0.173 A 
ATOM     60  C   UNL A   1      42.770  33.000  33.734  1.00  0.00     0.173 A 
ATOM     61  F   UNL A   1      43.517  34.049  30.332  1.00  0.00    -0.203 F 
ATOM     62  C   UNL A   1      43.230  35.325  32.287  1.00  0.00     0.198 A 
ATOM     63  C   UNL A   1      42.721  34.240  34.366  1.00  0.00     0.198 A 
ATOM     64  F   UNL A   1      42.552  31.896  34.463  1.00  0.00    -0.203 F 
ATOM     65  F   UNL A   1      43.489  36.443  31.593  1.00  0.00    -0.200 F 
ATOM     66  C   UNL A   1      42.959  35.401  33.645  1.00  0.00     0.200 A 
ATOM     67  F   UNL A   1      42.447  34.313  35.677  1.00  0.00    -0.200 F 
ATOM     68  F   UNL A   1      42.937  36.590  34.260  1.00  0.00    -0.200 F 
ENDBRANCH  44  58
BRANCH  45  69
ATOM     69  C   UNL A   1      42.809  24.191  27.478  1.00  0.00     0.064 A 
ATOM     70  C   UNL A   1      42.452  22.992  28.109  1.00  0.00     0.173 A 
ATOM     71  C   UNL A   1      43.152  24.137  26.119  1.00  0.00     0.173 A 
ATOM     72  F   UNL A   1      42.135  22.990  29.413  1.00  0.00    -0.203 F 
ATOM     73  C   UNL A   1      42.455  21.784  27.415  1.00  0.00     0.198 A 
ATOM     74  C   UNL A   1      43.129  22.933  25.420  1.00  0.00     0.198 A 
ATOM     75  F   UNL A   1      43.496  25.258  25.468  1.00  0.00    -0.203 F 
ATOM     76  F   UNL A   1      42.152  20.646  28.054  1.00  0.00    -0.200 F 
ATOM     77  C   UNL A   1      42.788  21.756  26.069  1.00  0.00     0.200 A 
ATOM     78  F   UNL A   1      43.437  22.912  24.115  1.00  0.00    -0.200 F 
ATOM     79  F   UNL A   1      42.787  20.595  25.401  1.00  0.00    -0.200 F 
ENDBRANCH  45  69
BRANCH  57  80
ATOM     80  C   UNL A   1      47.635  27.446  31.309  1.00  0.00     0.064 A 
ATOM     81  C   UNL A   1      47.896  26.625  32.415  1.00  0.00     0.173 A 
ATOM     82  C   UNL A   1      48.726  27.885  30.543  1.00  0.00     0.173 A 
ATOM     83  F   UNL A   1      46.888  26.192  33.187  1.00  0.00    -0.203 F 
ATOM     84  C   UNL A   1      49.201  26.278  32.756  1.00  0.00     0.198 A 
ATOM     85  C   UNL A   1      50.026  27.513  30.869  1.00  0.00     0.198 A 
ATOM     86  F   UNL A   1      48.529  28.667  29.471  1.00  0.00    -0.203 F 
ATOM     87  F   UNL A   1      49.431  25.532  33.844  1.00  0.00    -0.200 F 
ATOM     88  C   UNL A   1      50.264  26.716  31.979  1.00  0.00     0.200 A 
ATOM     89  F   UNL A   1      51.051  27.926  30.109  1.00  0.00    -0.200 F 
ATOM     90  F   UNL A   1      51.518  26.375  32.304  1.00  0.00    -0.200 F 
ENDBRANCH  57  80
ENDBRANCH  31  32
ENDBRANCH  23  26
ENDBRANCH  21  22
ENDBRANCH  20  21
ENDBRANCH   1  20
TORSDOF 13
ENDMDL
MODEL 2
REMARK VINA RESULT:      -9.4      4.184     10.013
REMARK SMILES COc1cccc(-c2cc(C(=O)NCCCCNC(=O)c3ccc(-c4c5nc(c(-c6c(F)c(F)c(F)c(F)c6F)c6ccc([nH]6)c(-c6c(F)c(F)c(F)c(F)c6F)c6nc(c(-c7c(F)c(F)c(F)c(F)c7F)c7ccc4[nH]7)C=C6)C=C5)cc3)cs2)c1
REMARK SMILES IDX 15 1 14 2 13 3 11 4 12 5 10 7 8 8 9 9 85 10 84 11 7 12 3 13
REMARK SMILES IDX 4 14 86 15 5 16 6 17 2 18 1 19 16 20 17 21 18 22 19 23 20 25
REMARK SMILES IDX 21 26 22 27 83 28 23 29 82 30 24 31 25 32 26 33 76 34 27 35
REMARK SMILES IDX 81 36 75 37 77 38 28 39 80 40 74 41 73 42 29 44 61 45 41 46
REMARK SMILES IDX 60 47 42 48 45 49 59 50 78 51 43 52 44 53 58 55 79 56 46 57
REMARK SMILES IDX 30 58 31 59 39 60 32 61 33 62 37 63 40 64 34 65 35 66 38 67
REMARK SMILES IDX 36 68 62 69 63 70 71 71 64 72 65 73 69 74 72 75 66 76 67 77
REMARK SMILES IDX 70 78 68 79 47 80 48 81 56 82 49 83 50 84 54 85 57 86 51 87
REMARK SMILES IDX 52 88 55 89 53 90
REMARK H PARENT 13 6 18 24 77 43 45 54
REMARK Flexibility Score: inf
ROOT
ATOM      1  C   UNL A   1      31.841  30.403  26.855  1.00  0.00     0.023 C 
ENDROOT
BRANCH   1   2
ATOM      2  C   UNL A   1      33.194  29.855  26.397  1.00  0.00     0.116 C 
BRANCH   2   3
ATOM      3  N   UNL A   1      33.267  29.789  24.949  1.00  0.00    -0.352 N 
ATOM      4  C   UNL A   1      33.033  28.761  24.069  1.00  0.00     0.252 C 
ATOM      5  O   UNL A   1      33.097  29.028  22.869  1.00  0.00    -0.269 OA
ATOM      6  H   UNL A   1      33.533  30.635  24.521  1.00  0.00     0.163 HD
BRANCH   4   7
ATOM      7  C   UNL A   1      32.666  27.422  24.537  1.00  0.00     0.051 A 
ATOM      8  C   UNL A   1      32.804  25.263  25.459  1.00  0.00     0.035 A 
ATOM      9  C   UNL A   1      33.496  26.308  24.884  1.00  0.00     0.034 A 
ATOM     10  S   UNL A   1      31.123  25.498  25.358  1.00  0.00    -0.143 S 
ATOM     11  C   UNL A   1      31.334  27.054  24.674  1.00  0.00     0.079 A 
BRANCH   8  12
ATOM     12  C   UNL A   1      33.380  24.108  26.137  1.00  0.00    -0.005 A 
ATOM     13  C   UNL A   1      35.144  22.439  26.223  1.00  0.00     0.119 A 
ATOM     14  C   UNL A   1      34.408  21.730  27.171  1.00  0.00     0.046 A 
ATOM     15  C   UNL A   1      34.625  23.623  25.701  1.00  0.00     0.056 A 
ATOM     16  C   UNL A   1      33.182  22.218  27.629  1.00  0.00     0.004 A 
ATOM     17  C   UNL A   1      32.668  23.409  27.114  1.00  0.00     0.010 A 
BRANCH  13  18
ATOM     18  O   UNL A   1      36.319  21.858  25.828  1.00  0.00    -0.497 OA
ATOM     19  C   UNL A   1      36.544  21.825  24.423  1.00  0.00     0.278 C 
ENDBRANCH  13  18
ENDBRANCH   8  12
ENDBRANCH   4   7
ENDBRANCH   2   3
ENDBRANCH   1   2
BRANCH   1  20
ATOM     20  C   UNL A   1      31.694  31.920  26.694  1.00  0.00     0.023 C 
BRANCH  20  21
ATOM     21  C   UNL A   1      32.846  32.743  27.264  1.00  0.00     0.116 C 
BRANCH  21  22
ATOM     22  N   UNL A   1      32.474  34.108  27.600  1.00  0.00    -0.352 N 
ATOM     23  C   UNL A   1      33.016  34.934  28.558  1.00  0.00     0.251 C 
ATOM     24  H   UNL A   1      31.738  34.492  27.070  1.00  0.00     0.163 HD
ATOM     25  O   UNL A   1      32.525  36.028  28.786  1.00  0.00    -0.269 OA
BRANCH  23  26
ATOM     26  C   UNL A   1      34.174  34.461  29.344  1.00  0.00     0.039 A 
ATOM     27  C   UNL A   1      33.941  33.843  30.575  1.00  0.00     0.014 A 
ATOM     28  C   UNL A   1      35.476  34.594  28.855  1.00  0.00     0.014 A 
ATOM     29  C   UNL A   1      35.010  33.291  31.282  1.00  0.00     0.010 A 
ATOM     30  C   UNL A   1      36.531  33.985  29.528  1.00  0.00     0.010 A 
ATOM     31  C   UNL A   1      36.306  33.322  30.744  1.00  0.00    -0.014 A 
BRANCH  31  32
ATOM     32  C   UNL A   1      37.439  32.653  31.431  1.00  0.00     0.031 A 
ATOM     33  C   UNL A   1      38.134  31.488  30.785  1.00  0.00     0.074 A 
ATOM     34  C   UNL A   1      37.792  33.049  32.669  1.00  0.00     0.049 A 
ATOM     35  N   UNL A   1      39.090  30.729  31.256  1.00  0.00    -0.248 NA
ATOM     36  C   UNL A   1      37.671  31.108  29.441  1.00  0.00     0.031 C 
ATOM     37  C   UNL A   1      37.157  34.132  33.422  1.00  0.00     0.029 A 
ATOM     38  N   UNL A   1      38.763  32.578  33.518  1.00  0.00    -0.354 N 
ATOM     39  C   UNL A   1      39.336  29.779  30.274  1.00  0.00     0.074 A 
ATOM     40  C   UNL A   1      38.391  30.021  29.206  1.00  0.00     0.031 C 
ATOM     41  C   UNL A   1      37.767  34.255  34.613  1.00  0.00     0.029 A 
ATOM     42  C   UNL A   1      38.809  33.238  34.721  1.00  0.00     0.049 A 
ATOM     43  H   UNL A   1      39.368  31.838  33.285  1.00  0.00     0.167 HD
ATOM     44  C   UNL A   1      40.281  28.809  30.255  1.00  0.00     0.037 A 
ATOM     45  C   UNL A   1      39.599  33.041  35.794  1.00  0.00     0.037 A 
ATOM     46  C   UNL A   1      41.233  28.586  31.312  1.00  0.00     0.049 A 
ATOM     47  C   UNL A   1      40.640  31.955  35.748  1.00  0.00     0.074 A 
ATOM     48  C   UNL A   1      42.266  27.666  31.363  1.00  0.00     0.029 A 
ATOM     49  N   UNL A   1      41.265  29.290  32.507  1.00  0.00    -0.354 N 
ATOM     50  N   UNL A   1      40.909  31.107  34.785  1.00  0.00    -0.248 NA
ATOM     51  C   UNL A   1      41.490  31.803  36.937  1.00  0.00     0.031 C 
ATOM     52  C   UNL A   1      42.896  27.785  32.606  1.00  0.00     0.029 A 
ATOM     53  C   UNL A   1      42.288  28.812  33.310  1.00  0.00     0.049 A 
ATOM     54  H   UNL A   1      40.652  30.022  32.748  1.00  0.00     0.167 HD
ATOM     55  C   UNL A   1      41.974  30.341  35.238  1.00  0.00     0.074 A 
ATOM     56  C   UNL A   1      42.312  30.835  36.557  1.00  0.00     0.031 C 
ATOM     57  C   UNL A   1      42.615  29.319  34.619  1.00  0.00     0.037 A 
BRANCH  44  58
ATOM     58  C   UNL A   1      40.334  27.917  29.048  1.00  0.00     0.064 A 
ATOM     59  C   UNL A   1      41.094  28.258  27.919  1.00  0.00     0.173 A 
ATOM     60  C   UNL A   1      39.642  26.698  29.030  1.00  0.00     0.173 A 
ATOM     61  F   UNL A   1      41.765  29.419  27.880  1.00  0.00    -0.203 F 
ATOM     62  C   UNL A   1      41.135  27.425  26.804  1.00  0.00     0.198 A 
ATOM     63  C   UNL A   1      39.710  25.852  27.926  1.00  0.00     0.198 A 
ATOM     64  F   UNL A   1      38.905  26.322  30.085  1.00  0.00    -0.203 F 
ATOM     65  F   UNL A   1      41.825  27.796  25.717  1.00  0.00    -0.200 F 
ATOM     66  C   UNL A   1      40.448  26.219  26.811  1.00  0.00     0.200 A 
ATOM     67  F   UNL A   1      39.057  24.682  27.938  1.00  0.00    -0.200 F 
ATOM     68  F   UNL A   1      40.492  25.416  25.740  1.00  0.00    -0.200 F 
ENDBRANCH  44  58
BRANCH  45  69
ATOM     69  C   UNL A   1      39.452  33.906  36.992  1.00  0.00     0.064 A 
ATOM     70  C   UNL A   1      40.083  35.157  37.057  1.00  0.00     0.173 A 
ATOM     71  C   UNL A   1      38.684  33.505  38.094  1.00  0.00     0.173 A 
ATOM     72  F   UNL A   1      40.845  35.577  36.036  1.00  0.00    -0.203 F 
ATOM     73  C   UNL A   1      39.965  35.964  38.187  1.00  0.00     0.198 A 
ATOM     74  C   UNL A   1      38.545  34.325  39.211  1.00  0.00     0.198 A 
ATOM     75  F   UNL A   1      38.055  32.320  38.079  1.00  0.00    -0.203 F 
ATOM     76  F   UNL A   1      40.615  37.135  38.240  1.00  0.00    -0.200 F 
ATOM     77  C   UNL A   1      39.192  35.550  39.261  1.00  0.00     0.200 A 
ATOM     78  F   UNL A   1      37.785  33.927  40.241  1.00  0.00    -0.200 F 
ATOM     79  F   UNL A   1      39.077  36.329  40.345  1.00  0.00    -0.200 F 
ENDBRANCH  45  69
BRANCH  57  80
ATOM     80  C   UNL A   1      43.764  28.687  35.346  1.00  0.00     0.064 A 
ATOM     81  C   UNL A   1      45.081  29.139  35.177  1.00  0.00     0.173 A 
ATOM     82  C   UNL A   1      43.540  27.642  36.256  1.00  0.00     0.173 A 
ATOM     83  F   UNL A   1      45.349  30.126  34.308  1.00  0.00    -0.203 F 
ATOM     84  C   UNL A   1      46.134  28.553  35.874  1.00  0.00     0.198 A 
ATOM     85  C   UNL A   1      44.590  27.077  36.973  1.00  0.00     0.198 A 
ATOM     86  F   UNL A   1      42.298  27.177  36.459  1.00  0.00    -0.203 F 
ATOM     87  F   UNL A   1      47.390  28.970  35.662  1.00  0.00    -0.200 F 
ATOM     88  C   UNL A   1      45.888  27.528  36.776  1.00  0.00     0.200 A 
ATOM     89  F   UNL A   1      44.349  26.096  37.854  1.00  0.00    -0.200 F 
ATOM     90  F   UNL A   1      46.901  26.969  37.451  1.00  0.00    -0.200 F 
ENDBRANCH  57  80
ENDBRANCH  31  32
ENDBRANCH  23  26
ENDBRANCH  21  22
ENDBRANCH  20  21
ENDBRANCH   1  20
TORSDOF 13
ENDMDL
MODEL 3
REMARK VINA RESULT:      -9.3      3.700      9.866
REMARK SMILES COc1cccc(-c2cc(C(=O)NCCCCNC(=O)c3ccc(-c4c5nc(c(-c6c(F)c(F)c(F)c(F)c6F)c6ccc([nH]6)c(-c6c(F)c(F)c(F)c(F)c6F)c6nc(c(-c7c(F)c(F)c(F)c(F)c7F)c7ccc4[nH]7)C=C6)C=C5)cc3)cs2)c1
REMARK SMILES IDX 15 1 14 2 13 3 11 4 12 5 10 7 8 8 9 9 85 10 84 11 7 12 3 13
REMARK SMILES IDX 4 14 86 15 5 16 6 17 2 18 1 19 16 20 17 21 18 22 19 23 20 25
REMARK SMILES IDX 21 26 22 27 83 28 23 29 82 30 24 31 25 32 26 33 76 34 27 35
REMARK SMILES IDX 81 36 75 37 77 38 28 39 80 40 74 41 73 42 29 44 61 45 41 46
REMARK SMILES IDX 60 47 42 48 45 49 59 50 78 51 43 52 44 53 58 55 79 56 46 57
REMARK SMILES IDX 30 58 31 59 39 60 32 61 33 62 37 63 40 64 34 65 35 66 38 67
REMARK SMILES IDX 36 68 62 69 63 70 71 71 64 72 65 73 69 74 72 75 66 76 67 77
REMARK SMILES IDX 70 78 68 79 47 80 48 81 56 82 49 83 50 84 54 85 57 86 51 87
REMARK SMILES IDX 52 88 55 89 53 90
REMARK H PARENT 13 6 18 24 77 43 45 54
REMARK Flexibility Score: inf
ROOT
ATOM      1  C   UNL A   1      42.448  23.116  28.490  1.00  0.00     0.023 C 
ENDROOT
BRANCH   1   2
ATOM      2  C   UNL A   1      43.952  23.058  28.761  1.00  0.00     0.116 C 
BRANCH   2   3
ATOM      3  N   UNL A   1      44.666  22.507  27.625  1.00  0.00    -0.352 N 
ATOM      4  C   UNL A   1      45.489  23.091  26.693  1.00  0.00     0.252 C 
ATOM      5  O   UNL A   1      46.027  22.342  25.877  1.00  0.00    -0.269 OA
ATOM      6  H   UNL A   1      44.536  21.540  27.499  1.00  0.00     0.163 HD
BRANCH   4   7
ATOM      7  C   UNL A   1      45.761  24.530  26.707  1.00  0.00     0.051 A 
ATOM      8  C   UNL A   1      45.455  26.861  26.647  1.00  0.00     0.035 A 
ATOM      9  C   UNL A   1      44.925  25.629  26.327  1.00  0.00     0.034 A 
ATOM     10  S   UNL A   1      47.066  26.729  27.174  1.00  0.00    -0.143 S 
ATOM     11  C   UNL A   1      46.999  25.019  27.104  1.00  0.00     0.079 A 
BRANCH   8  12
ATOM     12  C   UNL A   1      44.758  28.141  26.618  1.00  0.00    -0.005 A 
ATOM     13  C   UNL A   1      44.767  30.504  27.186  1.00  0.00     0.119 A 
ATOM     14  C   UNL A   1      43.407  30.567  26.882  1.00  0.00     0.046 A 
ATOM     15  C   UNL A   1      45.438  29.288  27.062  1.00  0.00     0.056 A 
ATOM     16  C   UNL A   1      42.730  29.439  26.415  1.00  0.00     0.004 A 
ATOM     17  C   UNL A   1      43.405  28.224  26.280  1.00  0.00     0.010 A 
BRANCH  13  18
ATOM     18  O   UNL A   1      45.324  31.661  27.657  1.00  0.00    -0.497 OA
ATOM     19  C   UNL A   1      44.611  32.300  28.712  1.00  0.00     0.278 C 
ENDBRANCH  13  18
ENDBRANCH   8  12
ENDBRANCH   4   7
ENDBRANCH   2   3
ENDBRANCH   1   2
BRANCH   1  20
ATOM     20  C   UNL A   1      41.920  21.952  27.644  1.00  0.00     0.023 C 
BRANCH  20  21
ATOM     21  C   UNL A   1      41.594  22.305  26.196  1.00  0.00     0.116 C 
BRANCH  21  22
ATOM     22  N   UNL A   1      40.192  22.122  25.855  1.00  0.00    -0.352 N 
ATOM     23  C   UNL A   1      39.126  22.948  26.131  1.00  0.00     0.251 C 
ATOM     24  H   UNL A   1      39.978  21.297  25.361  1.00  0.00     0.163 HD
ATOM     25  O   UNL A   1      37.987  22.605  25.861  1.00  0.00    -0.269 OA
BRANCH  23  26
ATOM     26  C   UNL A   1      39.375  24.241  26.802  1.00  0.00     0.039 A 
ATOM     27  C   UNL A   1      38.899  24.423  28.102  1.00  0.00     0.014 A 
ATOM     28  C   UNL A   1      40.099  25.252  26.166  1.00  0.00     0.014 A 
ATOM     29  C   UNL A   1      39.216  25.592  28.795  1.00  0.00     0.010 A 
ATOM     30  C   UNL A   1      40.471  26.388  26.880  1.00  0.00     0.010 A 
ATOM     31  C   UNL A   1      40.038  26.565  28.203  1.00  0.00    -0.014 A 
BRANCH  31  32
ATOM     32  C   UNL A   1      40.469  27.768  28.958  1.00  0.00     0.031 A 
ATOM     33  C   UNL A   1      41.846  27.831  29.557  1.00  0.00     0.074 A 
ATOM     34  C   UNL A   1      39.594  28.771  29.165  1.00  0.00     0.049 A 
ATOM     35  N   UNL A   1      42.379  28.760  30.309  1.00  0.00    -0.248 NA
ATOM     36  C   UNL A   1      42.730  26.685  29.299  1.00  0.00     0.031 C 
ATOM     37  C   UNL A   1      38.213  28.800  28.681  1.00  0.00     0.029 A 
ATOM     38  N   UNL A   1      39.732  29.953  29.849  1.00  0.00    -0.354 N 
ATOM     39  C   UNL A   1      43.653  28.306  30.622  1.00  0.00     0.074 A 
ATOM     40  C   UNL A   1      43.793  26.995  30.026  1.00  0.00     0.031 C 
ATOM     41  C   UNL A   1      37.637  29.950  29.066  1.00  0.00     0.029 A 
ATOM     42  C   UNL A   1      38.594  30.722  29.854  1.00  0.00     0.049 A 
ATOM     43  H   UNL A   1      40.567  30.224  30.294  1.00  0.00     0.167 HD
ATOM     44  C   UNL A   1      44.627  28.937  31.321  1.00  0.00     0.037 A 
ATOM     45  C   UNL A   1      38.348  31.911  30.435  1.00  0.00     0.037 A 
ATOM     46  C   UNL A   1      44.489  30.251  31.894  1.00  0.00     0.049 A 
ATOM     47  C   UNL A   1      39.446  32.590  31.208  1.00  0.00     0.074 A 
ATOM     48  C   UNL A   1      45.436  31.000  32.572  1.00  0.00     0.029 A 
ATOM     49  N   UNL A   1      43.329  31.010  31.858  1.00  0.00    -0.354 N 
ATOM     50  N   UNL A   1      40.670  32.182  31.438  1.00  0.00    -0.248 NA
ATOM     51  C   UNL A   1      39.129  33.899  31.797  1.00  0.00     0.031 C 
ATOM     52  C   UNL A   1      44.835  32.194  32.983  1.00  0.00     0.029 A 
ATOM     53  C   UNL A   1      43.530  32.212  32.519  1.00  0.00     0.049 A 
ATOM     54  H   UNL A   1      42.488  30.736  31.427  1.00  0.00     0.167 HD
ATOM     55  C   UNL A   1      41.277  33.192  32.173  1.00  0.00     0.074 A 
ATOM     56  C   UNL A   1      40.290  34.240  32.337  1.00  0.00     0.031 C 
ATOM     57  C   UNL A   1      42.538  33.246  32.669  1.00  0.00     0.037 A 
BRANCH  44  58
ATOM     58  C   UNL A   1      45.930  28.213  31.501  1.00  0.00     0.064 A 
ATOM     59  C   UNL A   1      47.040  28.492  30.689  1.00  0.00     0.173 A 
ATOM     60  C   UNL A   1      46.080  27.254  32.512  1.00  0.00     0.173 A 
ATOM     61  F   UNL A   1      46.945  29.392  29.699  1.00  0.00    -0.203 F 
ATOM     62  C   UNL A   1      48.243  27.813  30.863  1.00  0.00     0.198 A 
ATOM     63  C   UNL A   1      47.295  26.600  32.703  1.00  0.00     0.198 A 
ATOM     64  F   UNL A   1      45.052  26.954  33.319  1.00  0.00    -0.203 F 
ATOM     65  F   UNL A   1      49.274  28.058  30.042  1.00  0.00    -0.200 F 
ATOM     66  C   UNL A   1      48.372  26.873  31.875  1.00  0.00     0.200 A 
ATOM     67  F   UNL A   1      47.422  25.700  33.689  1.00  0.00    -0.200 F 
ATOM     68  F   UNL A   1      49.532  26.224  32.044  1.00  0.00    -0.200 F 
ENDBRANCH  44  58
BRANCH  45  69
ATOM     69  C   UNL A   1      37.014  32.548  30.286  1.00  0.00     0.064 A 
ATOM     70  C   UNL A   1      36.039  32.414  31.284  1.00  0.00     0.173 A 
ATOM     71  C   UNL A   1      36.686  33.299  29.149  1.00  0.00     0.173 A 
ATOM     72  F   UNL A   1      36.299  31.688  32.382  1.00  0.00    -0.203 F 
ATOM     73  C   UNL A   1      34.778  32.992  31.141  1.00  0.00     0.198 A 
ATOM     74  C   UNL A   1      35.435  33.899  29.019  1.00  0.00     0.198 A 
ATOM     75  F   UNL A   1      37.586  33.462  28.168  1.00  0.00    -0.203 F 
ATOM     76  F   UNL A   1      33.850  32.811  32.089  1.00  0.00    -0.200 F 
ATOM     77  C   UNL A   1      34.479  33.738  30.011  1.00  0.00     0.200 A 
ATOM     78  F   UNL A   1      35.155  34.632  27.932  1.00  0.00    -0.200 F 
ATOM     79  F   UNL A   1      33.269  34.297  29.876  1.00  0.00    -0.200 F 
ENDBRANCH  45  69
BRANCH  57  80
ATOM     80  C   UNL A   1      42.932  34.491  33.409  1.00  0.00     0.064 A 
ATOM     81  C   UNL A   1      43.457  35.608  32.743  1.00  0.00     0.173 A 
ATOM     82  C   UNL A   1      42.743  34.581  34.796  1.00  0.00     0.173 A 
ATOM     83  F   UNL A   1      43.671  35.566  31.419  1.00  0.00    -0.203 F 
ATOM     84  C   UNL A   1      43.801  36.761  33.444  1.00  0.00     0.198 A 
ATOM     85  C   UNL A   1      43.060  35.745  35.489  1.00  0.00     0.198 A 
ATOM     86  F   UNL A   1      42.237  33.542  35.479  1.00  0.00    -0.203 F 
ATOM     87  F   UNL A   1      44.345  37.799  32.794  1.00  0.00    -0.200 F 
ATOM     88  C   UNL A   1      43.596  36.832  34.814  1.00  0.00     0.200 A 
ATOM     89  F   UNL A   1      42.849  35.816  36.811  1.00  0.00    -0.200 F 
ATOM     90  F   UNL A   1      43.921  37.944  35.485  1.00  0.00    -0.200 F 
ENDBRANCH  57  80
ENDBRANCH  31  32
ENDBRANCH  23  26
ENDBRANCH  21  22
ENDBRANCH  20  21
ENDBRANCH   1  20
TORSDOF 13
ENDMDL
