MODEL 1
REMARK VINA RESULT:     -11.4      0.000      0.000
REMARK SMILES O=C(NCCCCNC(=O)[C@@H]1CC[C@@H](CNC(=O)c2ccno2)O1)c1ccc(-c2c3nc(c(-c4c(F)c(F)c(F)c(F)c4F)c4ccc([nH]4)c(-c4c(F)c(F)c(F)c(F)c4F)c4nc(c(-c5c(F)c(F)c(F)c(F)c5F)c5ccc2[nH]5)C=C4)C=C3)cc1
REMARK SMILES IDX 6 1 5 2 4 3 3 4 1 5 2 6 25 8 26 9 87 10 27 11 86 12 28 13
REMARK SMILES IDX 29 14 30 15 80 16 31 17 85 18 79 19 81 20 32 21 84 22 78 23
REMARK SMILES IDX 77 24 33 26 65 27 45 28 64 29 46 30 49 31 63 32 82 33 47 34
REMARK SMILES IDX 48 35 62 37 83 38 50 39 34 40 35 41 43 42 36 43 37 44 41 45
REMARK SMILES IDX 44 46 38 47 39 48 42 49 40 50 66 51 67 52 75 53 68 54 69 55
REMARK SMILES IDX 73 56 76 57 70 58 71 59 74 60 72 61 51 62 52 63 60 64 53 65
REMARK SMILES IDX 54 66 58 67 61 68 55 69 56 70 59 71 57 72 7 73 8 74 9 75
REMARK SMILES IDX 10 77 11 78 12 79 24 80 13 81 14 82 15 83 16 84 17 85 18 87
REMARK SMILES IDX 19 88 20 89 23 90 21 91 22 92
REMARK H PARENT 3 7 81 25 49 36 8 76 16 86
REMARK Flexibility Score: inf
ROOT
ATOM      1  C   UNL A   1      37.134  33.304  28.470  1.00  0.00     0.023 C 
ENDROOT
BRANCH   1   2
ATOM      2  C   UNL A   1      35.604  33.253  28.416  1.00  0.00     0.023 C 
BRANCH   2   3
ATOM      3  C   UNL A   1      34.937  32.257  29.360  1.00  0.00     0.116 C 
BRANCH   3   4
ATOM      4  N   UNL A   1      34.318  31.138  28.671  1.00  0.00    -0.352 N 
ATOM      5  O   UNL A   1      34.213  29.212  27.508  1.00  0.00    -0.269 OA
ATOM      6  C   UNL A   1      34.893  30.001  28.158  1.00  0.00     0.251 C 
ATOM      7  H   UNL A   1      33.341  31.204  28.554  1.00  0.00     0.163 HD
BRANCH   6   8
ATOM      8  C   UNL A   1      36.337  29.736  28.351  1.00  0.00     0.039 A 
ATOM      9  C   UNL A   1      37.266  29.977  27.337  1.00  0.00     0.014 A 
ATOM     10  C   UNL A   1      36.769  29.264  29.596  1.00  0.00     0.014 A 
ATOM     11  C   UNL A   1      38.605  29.640  27.527  1.00  0.00     0.010 A 
ATOM     12  C   UNL A   1      38.120  28.977  29.805  1.00  0.00     0.010 A 
ATOM     13  C   UNL A   1      39.043  29.135  28.762  1.00  0.00    -0.014 A 
BRANCH  13  14
ATOM     14  C   UNL A   1      40.480  28.817  28.951  1.00  0.00     0.031 A 
ATOM     15  C   UNL A   1      41.387  29.751  29.697  1.00  0.00     0.074 A 
ATOM     16  C   UNL A   1      40.957  27.654  28.468  1.00  0.00     0.049 A 
ATOM     17  N   UNL A   1      42.653  29.605  29.999  1.00  0.00    -0.248 NA
ATOM     18  C   UNL A   1      40.801  31.017  30.164  1.00  0.00     0.031 C 
ATOM     19  C   UNL A   1      40.177  26.677  27.708  1.00  0.00     0.029 A 
ATOM     20  N   UNL A   1      42.203  27.090  28.562  1.00  0.00    -0.354 N 
ATOM     21  C   UNL A   1      43.020  30.761  30.674  1.00  0.00     0.074 A 
ATOM     22  C   UNL A   1      41.847  31.609  30.725  1.00  0.00     0.031 C 
ATOM     23  C   UNL A   1      40.951  25.614  27.440  1.00  0.00     0.029 A 
ATOM     24  C   UNL A   1      42.286  25.848  27.983  1.00  0.00     0.049 A 
ATOM     25  H   UNL A   1      42.965  27.532  29.002  1.00  0.00     0.167 HD
ATOM     26  C   UNL A   1      44.222  31.080  31.209  1.00  0.00     0.037 A 
ATOM     27  C   UNL A   1      43.321  24.993  27.902  1.00  0.00     0.037 A 
ATOM     28  C   UNL A   1      45.382  30.228  31.180  1.00  0.00     0.049 A 
ATOM     29  C   UNL A   1      44.636  25.365  28.520  1.00  0.00     0.074 A 
ATOM     30  C   UNL A   1      46.634  30.452  31.731  1.00  0.00     0.029 A 
ATOM     31  N   UNL A   1      45.432  28.985  30.569  1.00  0.00    -0.354 N 
ATOM     32  N   UNL A   1      44.960  26.449  29.180  1.00  0.00    -0.248 NA
ATOM     33  C   UNL A   1      45.731  24.395  28.377  1.00  0.00     0.031 C 
ATOM     34  C   UNL A   1      47.448  29.354  31.431  1.00  0.00     0.029 A 
ATOM     35  C   UNL A   1      46.696  28.435  30.715  1.00  0.00     0.049 A 
ATOM     36  H   UNL A   1      44.681  28.555  30.099  1.00  0.00     0.167 HD
ATOM     37  C   UNL A   1      46.292  26.296  29.531  1.00  0.00     0.074 A 
ATOM     38  C   UNL A   1      46.712  25.002  29.031  1.00  0.00     0.031 C 
ATOM     39  C   UNL A   1      47.097  27.153  30.202  1.00  0.00     0.037 A 
BRANCH  26  40
ATOM     40  C   UNL A   1      44.352  32.416  31.872  1.00  0.00     0.064 A 
ATOM     41  C   UNL A   1      44.787  33.544  31.161  1.00  0.00     0.173 A 
ATOM     42  C   UNL A   1      43.985  32.582  33.216  1.00  0.00     0.173 A 
ATOM     43  F   UNL A   1      45.159  33.430  29.878  1.00  0.00    -0.203 F 
ATOM     44  C   UNL A   1      44.860  34.791  31.777  1.00  0.00     0.198 A 
ATOM     45  C   UNL A   1      44.045  33.834  33.823  1.00  0.00     0.198 A 
ATOM     46  F   UNL A   1      43.560  31.534  33.935  1.00  0.00    -0.203 F 
ATOM     47  F   UNL A   1      45.302  35.852  31.087  1.00  0.00    -0.200 F 
ATOM     48  C   UNL A   1      44.484  34.936  33.104  1.00  0.00     0.200 A 
ATOM     49  F   UNL A   1      43.675  33.974  35.103  1.00  0.00    -0.200 F 
ATOM     50  F   UNL A   1      44.548  36.139  33.693  1.00  0.00    -0.200 F 
ENDBRANCH  26  40
BRANCH  27  51
ATOM     51  C   UNL A   1      43.135  23.688  27.223  1.00  0.00     0.064 A 
ATOM     52  C   UNL A   1      43.590  23.491  25.913  1.00  0.00     0.173 A 
ATOM     53  C   UNL A   1      42.528  22.609  27.880  1.00  0.00     0.173 A 
ATOM     54  F   UNL A   1      44.158  24.503  25.242  1.00  0.00    -0.203 F 
ATOM     55  C   UNL A   1      43.441  22.258  25.282  1.00  0.00     0.198 A 
ATOM     56  C   UNL A   1      42.397  21.372  27.255  1.00  0.00     0.198 A 
ATOM     57  F   UNL A   1      42.079  22.754  29.136  1.00  0.00    -0.203 F 
ATOM     58  F   UNL A   1      43.863  22.099  24.021  1.00  0.00    -0.200 F 
ATOM     59  C   UNL A   1      42.851  21.199  25.955  1.00  0.00     0.200 A 
ATOM     60  F   UNL A   1      41.834  20.348  27.911  1.00  0.00    -0.200 F 
ATOM     61  F   UNL A   1      42.716  20.010  25.350  1.00  0.00    -0.200 F 
ENDBRANCH  27  51
BRANCH  39  62
ATOM     62  C   UNL A   1      48.513  26.720  30.424  1.00  0.00     0.064 A 
ATOM     63  C   UNL A   1      49.533  27.100  29.540  1.00  0.00     0.173 A 
ATOM     64  C   UNL A   1      48.856  25.942  31.538  1.00  0.00     0.173 A 
ATOM     65  F   UNL A   1      49.245  27.831  28.452  1.00  0.00    -0.203 F 
ATOM     66  C   UNL A   1      50.847  26.700  29.755  1.00  0.00     0.198 A 
ATOM     67  C   UNL A   1      50.176  25.558  31.759  1.00  0.00     0.198 A 
ATOM     68  F   UNL A   1      47.914  25.556  32.410  1.00  0.00    -0.203 F 
ATOM     69  F   UNL A   1      51.803  27.046  28.880  1.00  0.00    -0.200 F 
ATOM     70  C   UNL A   1      51.169  25.934  30.865  1.00  0.00     0.200 A 
ATOM     71  F   UNL A   1      50.487  24.819  32.833  1.00  0.00    -0.200 F 
ATOM     72  F   UNL A   1      52.436  25.548  31.070  1.00  0.00    -0.200 F 
ENDBRANCH  39  62
ENDBRANCH  13  14
ENDBRANCH   6   8
ENDBRANCH   3   4
ENDBRANCH   2   3
ENDBRANCH   1   2
BRANCH   1  73
ATOM     73  C   UNL A   1      37.728  33.781  29.793  1.00  0.00     0.116 C 
BRANCH  73  74
ATOM     74  N   UNL A   1      38.117  32.682  30.658  1.00  0.00    -0.354 N 
ATOM     75  C   UNL A   1      37.835  32.476  31.983  1.00  0.00     0.249 C 
ATOM     76  H   UNL A   1      38.662  31.984  30.231  1.00  0.00     0.163 HD
ATOM     77  O   UNL A   1      38.200  31.416  32.493  1.00  0.00    -0.272 OA
BRANCH  75  78
ATOM     78  C   UNL A   1      37.128  33.583  32.780  1.00  0.00     0.207 C 
ATOM     79  C   UNL A   1      37.097  33.217  34.253  1.00  0.00     0.045 C 
ATOM     80  O   UNL A   1      35.761  33.807  32.423  1.00  0.00    -0.363 OA
ATOM     81  C   UNL A   1      36.001  34.106  34.783  1.00  0.00     0.037 C 
ATOM     82  C   UNL A   1      35.044  34.221  33.599  1.00  0.00     0.138 C 
BRANCH  82  83
ATOM     83  C   UNL A   1      34.467  35.635  33.390  1.00  0.00     0.148 C 
BRANCH  83  84
ATOM     84  N   UNL A   1      33.011  35.638  33.281  1.00  0.00    -0.347 N 
ATOM     85  C   UNL A   1      32.215  36.178  32.296  1.00  0.00     0.289 C 
ATOM     86  H   UNL A   1      32.530  35.190  34.015  1.00  0.00     0.164 HD
ATOM     87  O   UNL A   1      31.074  36.499  32.637  1.00  0.00    -0.266 OA
BRANCH  85  88
ATOM     88  C   UNL A   1      32.703  36.296  30.945  1.00  0.00     0.224 A 
ATOM     89  C   UNL A   1      32.941  35.397  29.929  1.00  0.00     0.079 A 
ATOM     90  O   UNL A   1      32.916  37.557  30.461  1.00  0.00    -0.351 OA
ATOM     91  C   UNL A   1      33.335  36.192  28.839  1.00  0.00     0.159 A 
ATOM     92  N   UNL A   1      33.333  37.490  29.141  1.00  0.00    -0.088 NA
ENDBRANCH  85  88
ENDBRANCH  83  84
ENDBRANCH  82  83
ENDBRANCH  75  78
ENDBRANCH  73  74
ENDBRANCH   1  73
TORSDOF 14
ENDMDL
MODEL 2
REMARK VINA RESULT:     -11.3      0.112      1.614
REMARK SMILES O=C(NCCCCNC(=O)[C@@H]1CC[C@@H](CNC(=O)c2ccno2)O1)c1ccc(-c2c3nc(c(-c4c(F)c(F)c(F)c(F)c4F)c4ccc([nH]4)c(-c4c(F)c(F)c(F)c(F)c4F)c4nc(c(-c5c(F)c(F)c(F)c(F)c5F)c5ccc2[nH]5)C=C4)C=C3)cc1
REMARK SMILES IDX 6 1 5 2 4 3 3 4 1 5 2 6 25 8 26 9 87 10 27 11 86 12 28 13
REMARK SMILES IDX 29 14 30 15 80 16 31 17 85 18 79 19 81 20 32 21 84 22 78 23
REMARK SMILES IDX 77 24 33 26 65 27 45 28 64 29 46 30 49 31 63 32 82 33 47 34
REMARK SMILES IDX 48 35 62 37 83 38 50 39 34 40 35 41 43 42 36 43 37 44 41 45
REMARK SMILES IDX 44 46 38 47 39 48 42 49 40 50 66 51 67 52 75 53 68 54 69 55
REMARK SMILES IDX 73 56 76 57 70 58 71 59 74 60 72 61 51 62 52 63 60 64 53 65
REMARK SMILES IDX 54 66 58 67 61 68 55 69 56 70 59 71 57 72 7 73 8 74 9 75
REMARK SMILES IDX 10 77 11 78 12 79 24 80 13 81 14 82 15 83 16 84 17 85 18 87
REMARK SMILES IDX 19 88 20 89 23 90 21 91 22 92
REMARK H PARENT 3 7 81 25 49 36 8 76 16 86
REMARK Flexibility Score: inf
ROOT
ATOM      1  C   UNL A   1      37.123  33.311  28.526  1.00  0.00     0.023 C 
ENDROOT
BRANCH   1   2
ATOM      2  C   UNL A   1      35.592  33.296  28.485  1.00  0.00     0.023 C 
BRANCH   2   3
ATOM      3  C   UNL A   1      34.911  32.266  29.381  1.00  0.00     0.116 C 
BRANCH   3   4
ATOM      4  N   UNL A   1      34.310  31.169  28.641  1.00  0.00    -0.352 N 
ATOM      5  O   UNL A   1      34.237  29.287  27.407  1.00  0.00    -0.269 OA
ATOM      6  C   UNL A   1      34.901  30.056  28.095  1.00  0.00     0.251 C 
ATOM      7  H   UNL A   1      33.335  31.233  28.512  1.00  0.00     0.163 HD
BRANCH   6   8
ATOM      8  C   UNL A   1      36.343  29.793  28.302  1.00  0.00     0.039 A 
ATOM      9  C   UNL A   1      37.282  30.038  27.296  1.00  0.00     0.014 A 
ATOM     10  C   UNL A   1      36.766  29.320  29.550  1.00  0.00     0.014 A 
ATOM     11  C   UNL A   1      38.619  29.702  27.498  1.00  0.00     0.010 A 
ATOM     12  C   UNL A   1      38.115  29.035  29.770  1.00  0.00     0.010 A 
ATOM     13  C   UNL A   1      39.048  29.197  28.736  1.00  0.00    -0.014 A 
BRANCH  13  14
ATOM     14  C   UNL A   1      40.483  28.881  28.937  1.00  0.00     0.031 A 
ATOM     15  C   UNL A   1      41.386  29.825  29.676  1.00  0.00     0.074 A 
ATOM     16  C   UNL A   1      40.962  27.712  28.474  1.00  0.00     0.049 A 
ATOM     17  N   UNL A   1      42.651  29.683  29.987  1.00  0.00    -0.248 NA
ATOM     18  C   UNL A   1      40.798  31.098  30.121  1.00  0.00     0.031 C 
ATOM     19  C   UNL A   1      40.187  26.724  27.723  1.00  0.00     0.029 A 
ATOM     20  N   UNL A   1      42.208  27.149  28.583  1.00  0.00    -0.354 N 
ATOM     21  C   UNL A   1      43.014  30.849  30.648  1.00  0.00     0.074 A 
ATOM     22  C   UNL A   1      41.841  31.698  30.680  1.00  0.00     0.031 C 
ATOM     23  C   UNL A   1      40.961  25.657  27.475  1.00  0.00     0.029 A 
ATOM     24  C   UNL A   1      42.294  25.899  28.022  1.00  0.00     0.049 A 
ATOM     25  H   UNL A   1      42.967  27.597  29.021  1.00  0.00     0.167 HD
ATOM     26  C   UNL A   1      44.213  31.175  31.185  1.00  0.00     0.037 A 
ATOM     27  C   UNL A   1      43.329  25.042  27.959  1.00  0.00     0.037 A 
ATOM     28  C   UNL A   1      45.373  30.323  31.174  1.00  0.00     0.049 A 
ATOM     29  C   UNL A   1      44.641  25.423  28.579  1.00  0.00     0.074 A 
ATOM     30  C   UNL A   1      46.621  30.554  31.728  1.00  0.00     0.029 A 
ATOM     31  N   UNL A   1      45.426  29.072  30.581  1.00  0.00    -0.354 N 
ATOM     32  N   UNL A   1      44.961  26.516  29.225  1.00  0.00    -0.248 NA
ATOM     33  C   UNL A   1      45.736  24.451  28.456  1.00  0.00     0.031 C 
ATOM     34  C   UNL A   1      47.437  29.452  31.449  1.00  0.00     0.029 A 
ATOM     35  C   UNL A   1      46.689  28.524  30.742  1.00  0.00     0.049 A 
ATOM     36  H   UNL A   1      44.677  28.635  30.113  1.00  0.00     0.167 HD
ATOM     37  C   UNL A   1      46.291  26.368  29.586  1.00  0.00     0.074 A 
ATOM     38  C   UNL A   1      46.714  25.067  29.107  1.00  0.00     0.031 C 
ATOM     39  C   UNL A   1      47.093  27.235  30.249  1.00  0.00     0.037 A 
BRANCH  26  40
ATOM     40  C   UNL A   1      44.339  32.521  31.829  1.00  0.00     0.064 A 
ATOM     41  C   UNL A   1      44.075  32.704  33.194  1.00  0.00     0.173 A 
ATOM     42  C   UNL A   1      44.783  33.626  31.088  1.00  0.00     0.173 A 
ATOM     43  F   UNL A   1      43.638  31.678  33.940  1.00  0.00    -0.203 F 
ATOM     44  C   UNL A   1      44.240  33.951  33.792  1.00  0.00     0.198 A 
ATOM     45  C   UNL A   1      44.961  34.867  31.694  1.00  0.00     0.198 A 
ATOM     46  F   UNL A   1      45.051  33.499  29.781  1.00  0.00    -0.203 F 
ATOM     47  F   UNL A   1      43.958  34.111  35.093  1.00  0.00    -0.200 F 
ATOM     48  C   UNL A   1      44.688  35.029  33.043  1.00  0.00     0.200 A 
ATOM     49  F   UNL A   1      45.400  35.907  30.970  1.00  0.00    -0.200 F 
ATOM     50  F   UNL A   1      44.853  36.226  33.623  1.00  0.00    -0.200 F 
ENDBRANCH  26  40
BRANCH  27  51
ATOM     51  C   UNL A   1      43.146  23.728  27.298  1.00  0.00     0.064 A 
ATOM     52  C   UNL A   1      42.509  22.674  27.964  1.00  0.00     0.173 A 
ATOM     53  C   UNL A   1      43.578  23.511  25.982  1.00  0.00     0.173 A 
ATOM     54  F   UNL A   1      42.098  22.833  29.231  1.00  0.00    -0.203 F 
ATOM     55  C   UNL A   1      42.312  21.446  27.337  1.00  0.00     0.198 A 
ATOM     56  C   UNL A   1      43.364  22.290  25.350  1.00  0.00     0.198 A 
ATOM     57  F   UNL A   1      44.192  24.494  25.307  1.00  0.00    -0.203 F 
ATOM     58  F   UNL A   1      41.720  20.444  28.002  1.00  0.00    -0.200 F 
ATOM     59  C   UNL A   1      42.734  21.257  26.029  1.00  0.00     0.200 A 
ATOM     60  F   UNL A   1      43.764  22.114  24.084  1.00  0.00    -0.200 F 
ATOM     61  F   UNL A   1      42.535  20.078  25.424  1.00  0.00    -0.200 F 
ENDBRANCH  27  51
BRANCH  39  62
ATOM     62  C   UNL A   1      48.507  26.805  30.485  1.00  0.00     0.064 A 
ATOM     63  C   UNL A   1      49.533  27.176  29.605  1.00  0.00     0.173 A 
ATOM     64  C   UNL A   1      48.843  26.038  31.609  1.00  0.00     0.173 A 
ATOM     65  F   UNL A   1      49.252  27.896  28.508  1.00  0.00    -0.203 F 
ATOM     66  C   UNL A   1      50.846  26.779  29.833  1.00  0.00     0.198 A 
ATOM     67  C   UNL A   1      50.161  25.656  31.843  1.00  0.00     0.198 A 
ATOM     68  F   UNL A   1      47.895  25.660  32.479  1.00  0.00    -0.203 F 
ATOM     69  F   UNL A   1      51.808  27.117  28.961  1.00  0.00    -0.200 F 
ATOM     70  C   UNL A   1      51.161  26.024  30.953  1.00  0.00     0.200 A 
ATOM     71  F   UNL A   1      50.465  24.929  32.927  1.00  0.00    -0.200 F 
ATOM     72  F   UNL A   1      52.426  25.641  31.170  1.00  0.00    -0.200 F 
ENDBRANCH  39  62
ENDBRANCH  13  14
ENDBRANCH   6   8
ENDBRANCH   3   4
ENDBRANCH   2   3
ENDBRANCH   1   2
BRANCH   1  73
ATOM     73  C   UNL A   1      37.740  33.800  29.833  1.00  0.00     0.116 C 
BRANCH  73  74
ATOM     74  N   UNL A   1      38.156  32.710  30.696  1.00  0.00    -0.354 N 
ATOM     75  C   UNL A   1      37.877  32.493  32.019  1.00  0.00     0.249 C 
ATOM     76  H   UNL A   1      38.721  32.028  30.269  1.00  0.00     0.163 HD
ATOM     77  O   UNL A   1      38.270  31.441  32.527  1.00  0.00    -0.272 OA
BRANCH  75  78
ATOM     78  C   UNL A   1      37.138  33.578  32.818  1.00  0.00     0.207 C 
ATOM     79  C   UNL A   1      37.065  33.179  34.281  1.00  0.00     0.045 C 
ATOM     80  O   UNL A   1      35.781  33.800  32.424  1.00  0.00    -0.363 OA
ATOM     81  C   UNL A   1      35.947  34.050  34.796  1.00  0.00     0.037 C 
ATOM     82  C   UNL A   1      35.025  34.184  33.587  1.00  0.00     0.138 C 
BRANCH  82  83
ATOM     83  C   UNL A   1      34.445  35.598  33.391  1.00  0.00     0.148 C 
BRANCH  83  84
ATOM     84  N   UNL A   1      32.990  35.598  33.271  1.00  0.00    -0.347 N 
ATOM     85  C   UNL A   1      32.199  36.159  32.294  1.00  0.00     0.289 C 
ATOM     86  H   UNL A   1      32.506  35.130  33.989  1.00  0.00     0.164 HD
ATOM     87  O   UNL A   1      31.054  36.466  32.634  1.00  0.00    -0.266 OA
BRANCH  85  88
ATOM     88  C   UNL A   1      32.696  36.313  30.950  1.00  0.00     0.224 A 
ATOM     89  C   UNL A   1      32.934  35.442  29.909  1.00  0.00     0.079 A 
ATOM     90  O   UNL A   1      32.922  37.586  30.505  1.00  0.00    -0.351 OA
ATOM     91  C   UNL A   1      33.341  36.266  28.846  1.00  0.00     0.159 A 
ATOM     92  N   UNL A   1      33.347  37.554  29.186  1.00  0.00    -0.088 NA
ENDBRANCH  85  88
ENDBRANCH  83  84
ENDBRANCH  82  83
ENDBRANCH  75  78
ENDBRANCH  73  74
ENDBRANCH   1  73
TORSDOF 14
ENDMDL
MODEL 3
REMARK VINA RESULT:     -11.1      4.903      8.707
REMARK SMILES O=C(NCCCCNC(=O)[C@@H]1CC[C@@H](CNC(=O)c2ccno2)O1)c1ccc(-c2c3nc(c(-c4c(F)c(F)c(F)c(F)c4F)c4ccc([nH]4)c(-c4c(F)c(F)c(F)c(F)c4F)c4nc(c(-c5c(F)c(F)c(F)c(F)c5F)c5ccc2[nH]5)C=C4)C=C3)cc1
REMARK SMILES IDX 6 1 5 2 4 3 3 4 1 5 2 6 25 8 26 9 87 10 27 11 86 12 28 13
REMARK SMILES IDX 29 14 30 15 80 16 31 17 85 18 79 19 81 20 32 21 84 22 78 23
REMARK SMILES IDX 77 24 33 26 65 27 45 28 64 29 46 30 49 31 63 32 82 33 47 34
REMARK SMILES IDX 48 35 62 37 83 38 50 39 34 40 35 41 43 42 36 43 37 44 41 45
REMARK SMILES IDX 44 46 38 47 39 48 42 49 40 50 66 51 67 52 75 53 68 54 69 55
REMARK SMILES IDX 73 56 76 57 70 58 71 59 74 60 72 61 51 62 52 63 60 64 53 65
REMARK SMILES IDX 54 66 58 67 61 68 55 69 56 70 59 71 57 72 7 73 8 74 9 75
REMARK SMILES IDX 10 77 11 78 12 79 24 80 13 81 14 82 15 83 16 84 17 85 18 87
REMARK SMILES IDX 19 88 20 89 23 90 21 91 22 92
REMARK H PARENT 3 7 81 25 49 36 8 76 16 86
REMARK Flexibility Score: inf
ROOT
ATOM      1  C   UNL A   1      33.065  27.118  26.330  1.00  0.00     0.023 C 
ENDROOT
BRANCH   1   2
ATOM      2  C   UNL A   1      32.280  28.371  25.929  1.00  0.00     0.023 C 
BRANCH   2   3
ATOM      3  C   UNL A   1      33.116  29.564  25.475  1.00  0.00     0.116 C 
BRANCH   3   4
ATOM      4  N   UNL A   1      32.638  30.833  25.996  1.00  0.00    -0.352 N 
ATOM      5  O   UNL A   1      32.529  32.602  27.385  1.00  0.00    -0.269 OA
ATOM      6  C   UNL A   1      33.141  31.604  27.015  1.00  0.00     0.251 C 
ATOM      7  H   UNL A   1      31.835  31.194  25.553  1.00  0.00     0.163 HD
BRANCH   6   8
ATOM      8  C   UNL A   1      34.398  31.223  27.697  1.00  0.00     0.039 A 
ATOM      9  C   UNL A   1      34.600  29.930  28.187  1.00  0.00     0.014 A 
ATOM     10  C   UNL A   1      35.412  32.181  27.817  1.00  0.00     0.014 A 
ATOM     11  C   UNL A   1      35.763  29.629  28.894  1.00  0.00     0.010 A 
ATOM     12  C   UNL A   1      36.600  31.863  28.479  1.00  0.00     0.010 A 
ATOM     13  C   UNL A   1      36.772  30.593  29.047  1.00  0.00    -0.014 A 
BRANCH  13  14
ATOM     14  C   UNL A   1      38.015  30.237  29.774  1.00  0.00     0.031 A 
ATOM     15  C   UNL A   1      38.251  30.708  31.180  1.00  0.00     0.074 A 
ATOM     16  C   UNL A   1      38.924  29.454  29.164  1.00  0.00     0.049 A 
ATOM     17  N   UNL A   1      39.256  30.448  31.979  1.00  0.00    -0.248 NA
ATOM     18  C   UNL A   1      37.230  31.589  31.767  1.00  0.00     0.031 C 
ATOM     19  C   UNL A   1      38.816  28.953  27.793  1.00  0.00     0.029 A 
ATOM     20  N   UNL A   1      40.104  28.927  29.622  1.00  0.00    -0.354 N 
ATOM     21  C   UNL A   1      38.998  31.143  33.153  1.00  0.00     0.074 A 
ATOM     22  C   UNL A   1      37.750  31.851  32.959  1.00  0.00     0.031 C 
ATOM     23  C   UNL A   1      39.864  28.156  27.535  1.00  0.00     0.029 A 
ATOM     24  C   UNL A   1      40.731  28.116  28.709  1.00  0.00     0.049 A 
ATOM     25  H   UNL A   1      40.466  29.112  30.518  1.00  0.00     0.167 HD
ATOM     26  C   UNL A   1      39.732  31.179  34.290  1.00  0.00     0.037 A 
ATOM     27  C   UNL A   1      41.875  27.415  28.809  1.00  0.00     0.037 A 
ATOM     28  C   UNL A   1      40.961  30.457  34.493  1.00  0.00     0.049 A 
ATOM     29  C   UNL A   1      42.659  27.458  30.087  1.00  0.00     0.074 A 
ATOM     30  C   UNL A   1      41.755  30.402  35.627  1.00  0.00     0.029 A 
ATOM     31  N   UNL A   1      41.574  29.660  33.539  1.00  0.00    -0.354 N 
ATOM     32  N   UNL A   1      42.388  28.096  31.199  1.00  0.00    -0.248 NA
ATOM     33  C   UNL A   1      43.909  26.687  30.122  1.00  0.00     0.031 C 
ATOM     34  C   UNL A   1      42.861  29.591  35.350  1.00  0.00     0.029 A 
ATOM     35  C   UNL A   1      42.743  29.121  34.052  1.00  0.00     0.049 A 
ATOM     36  H   UNL A   1      41.230  29.501  32.630  1.00  0.00     0.167 HD
ATOM     37  C   UNL A   1      43.430  27.807  32.066  1.00  0.00     0.074 A 
ATOM     38  C   UNL A   1      44.329  26.916  31.360  1.00  0.00     0.031 C 
ATOM     39  C   UNL A   1      43.629  28.246  33.331  1.00  0.00     0.037 A 
BRANCH  26  40
ATOM     40  C   UNL A   1      39.230  32.035  35.412  1.00  0.00     0.064 A 
ATOM     41  C   UNL A   1      38.421  31.505  36.427  1.00  0.00     0.173 A 
ATOM     42  C   UNL A   1      39.608  33.382  35.502  1.00  0.00     0.173 A 
ATOM     43  F   UNL A   1      38.025  30.225  36.376  1.00  0.00    -0.203 F 
ATOM     44  C   UNL A   1      37.997  32.301  37.489  1.00  0.00     0.198 A 
ATOM     45  C   UNL A   1      39.195  34.169  36.574  1.00  0.00     0.198 A 
ATOM     46  F   UNL A   1      40.383  33.931  34.556  1.00  0.00    -0.203 F 
ATOM     47  F   UNL A   1      37.203  31.783  38.437  1.00  0.00    -0.200 F 
ATOM     48  C   UNL A   1      38.389  33.629  37.564  1.00  0.00     0.200 A 
ATOM     49  F   UNL A   1      39.580  35.451  36.648  1.00  0.00    -0.200 F 
ATOM     50  F   UNL A   1      37.986  34.391  38.591  1.00  0.00    -0.200 F 
ENDBRANCH  26  40
BRANCH  27  51
ATOM     51  C   UNL A   1      42.327  26.593  27.661  1.00  0.00     0.064 A 
ATOM     52  C   UNL A   1      43.248  27.101  26.736  1.00  0.00     0.173 A 
ATOM     53  C   UNL A   1      41.872  25.280  27.485  1.00  0.00     0.173 A 
ATOM     54  F   UNL A   1      43.694  28.360  26.856  1.00  0.00    -0.203 F 
ATOM     55  C   UNL A   1      43.696  26.323  25.671  1.00  0.00     0.198 A 
ATOM     56  C   UNL A   1      42.335  24.496  26.431  1.00  0.00     0.198 A 
ATOM     57  F   UNL A   1      40.991  24.753  28.348  1.00  0.00    -0.203 F 
ATOM     58  F   UNL A   1      44.560  26.838  24.785  1.00  0.00    -0.200 F 
ATOM     59  C   UNL A   1      43.244  25.020  25.523  1.00  0.00     0.200 A 
ATOM     60  F   UNL A   1      41.903  23.235  26.296  1.00  0.00    -0.200 F 
ATOM     61  F   UNL A   1      43.683  24.269  24.503  1.00  0.00    -0.200 F 
ENDBRANCH  27  51
BRANCH  39  62
ATOM     62  C   UNL A   1      44.868  27.775  34.025  1.00  0.00     0.064 A 
ATOM     63  C   UNL A   1      46.060  28.510  33.957  1.00  0.00     0.173 A 
ATOM     64  C   UNL A   1      44.859  26.595  34.783  1.00  0.00     0.173 A 
ATOM     65  F   UNL A   1      46.117  29.636  33.230  1.00  0.00    -0.203 F 
ATOM     66  C   UNL A   1      47.207  28.070  34.610  1.00  0.00     0.198 A 
ATOM     67  C   UNL A   1      46.004  26.166  35.448  1.00  0.00     0.198 A 
ATOM     68  F   UNL A   1      43.741  25.860  34.877  1.00  0.00    -0.203 F 
ATOM     69  F   UNL A   1      48.346  28.769  34.505  1.00  0.00    -0.200 F 
ATOM     70  C   UNL A   1      47.177  26.902  35.358  1.00  0.00     0.200 A 
ATOM     71  F   UNL A   1      45.975  25.040  36.173  1.00  0.00    -0.200 F 
ATOM     72  F   UNL A   1      48.284  26.479  35.985  1.00  0.00    -0.200 F 
ENDBRANCH  39  62
ENDBRANCH  13  14
ENDBRANCH   6   8
ENDBRANCH   3   4
ENDBRANCH   2   3
ENDBRANCH   1   2
BRANCH   1  73
ATOM     73  C   UNL A   1      32.638  25.827  25.638  1.00  0.00     0.116 C 
BRANCH  73  74
ATOM     74  N   UNL A   1      33.117  25.742  24.270  1.00  0.00    -0.354 N 
ATOM     75  C   UNL A   1      33.902  24.788  23.680  1.00  0.00     0.249 C 
ATOM     76  H   UNL A   1      32.836  26.479  23.681  1.00  0.00     0.163 HD
ATOM     77  O   UNL A   1      34.111  24.879  22.469  1.00  0.00    -0.272 OA
BRANCH  75  78
ATOM     78  C   UNL A   1      34.524  23.685  24.552  1.00  0.00     0.207 C 
ATOM     79  C   UNL A   1      35.784  24.206  25.219  1.00  0.00     0.045 C 
ATOM     80  O   UNL A   1      34.935  22.514  23.841  1.00  0.00    -0.363 OA
ATOM     81  C   UNL A   1      36.492  22.933  25.607  1.00  0.00     0.037 C 
ATOM     82  C   UNL A   1      36.086  21.959  24.504  1.00  0.00     0.138 C 
BRANCH  82  83
ATOM     83  C   UNL A   1      35.767  20.537  25.005  1.00  0.00     0.148 C 
BRANCH  83  84
ATOM     84  N   UNL A   1      34.405  20.415  25.519  1.00  0.00    -0.347 N 
ATOM     85  C   UNL A   1      33.349  19.688  25.014  1.00  0.00     0.289 C 
ATOM     86  H   UNL A   1      34.214  20.922  26.340  1.00  0.00     0.164 HD
ATOM     87  O   UNL A   1      32.222  20.106  25.292  1.00  0.00    -0.266 OA
BRANCH  85  88
ATOM     88  C   UNL A   1      33.585  18.486  24.257  1.00  0.00     0.224 A 
ATOM     89  C   UNL A   1      34.390  17.381  24.435  1.00  0.00     0.079 A 
ATOM     90  O   UNL A   1      32.813  18.279  23.148  1.00  0.00    -0.351 OA
ATOM     91  C   UNL A   1      34.075  16.536  23.358  1.00  0.00     0.159 A 
ATOM     92  N   UNL A   1      33.135  17.061  22.571  1.00  0.00    -0.088 NA
ENDBRANCH  85  88
ENDBRANCH  83  84
ENDBRANCH  82  83
ENDBRANCH  75  78
ENDBRANCH  73  74
ENDBRANCH   1  73
TORSDOF 14
ENDMDL
