MODEL 1
REMARK VINA RESULT:     -11.7      0.000      0.000
REMARK SMILES Cn1ccnc1SCC[C@@H]1CCC[C@]1([NH3+])C(=O)NCCCCNC(=O)c1ccc(-c2c3nc(c(-c4c(F)c(F)c(F)c(F)c4F)c4ccc([nH]4)c(-c4c(F)c(F)c(F)c(F)c4F)c4nc(c(-c5c(F)c(F)c(F)c(F)c5F)c5ccc2[nH]5)C=C4)C=C3)cc1
REMARK SMILES IDX 19 1 18 2 16 3 17 4 14 6 10 7 11 8 12 9 13 10 9 11 8 12 7 13
REMARK SMILES IDX 6 14 1 15 2 16 3 17 4 18 5 19 15 20 20 24 21 25 22 26 23 27
REMARK SMILES IDX 24 28 25 30 26 31 27 32 88 33 28 34 87 35 29 36 30 37 31 38
REMARK SMILES IDX 81 39 32 40 86 41 80 42 82 43 33 44 85 45 79 46 78 47 34 49
REMARK SMILES IDX 66 50 46 51 65 52 47 53 50 54 64 55 83 56 48 57 49 58 63 60
REMARK SMILES IDX 84 61 51 62 35 63 36 64 44 65 37 66 38 67 42 68 45 69 39 70
REMARK SMILES IDX 40 71 43 72 41 73 67 74 68 75 76 76 69 77 70 78 74 79 77 80
REMARK SMILES IDX 71 81 72 82 75 83 73 84 52 85 53 86 61 87 54 88 55 89 59 90
REMARK SMILES IDX 62 91 56 92 57 93 60 94 58 95
REMARK H PARENT 18 5 15 21 15 22 15 23 23 29 82 48 50 59
REMARK Flexibility Score: inf
ROOT
ATOM      1  C   UNL A   1      32.597  29.852  25.613  1.00  0.00     0.116 C 
ENDROOT
BRANCH   1   2
ATOM      2  N   UNL A   1      32.704  28.413  25.687  1.00  0.00    -0.351 N 
ATOM      3  C   UNL A   1      32.943  27.490  24.713  1.00  0.00     0.281 C 
ATOM      4  O   UNL A   1      32.981  26.313  25.082  1.00  0.00    -0.268 OA
ATOM      5  H   UNL A   1      32.583  28.036  26.589  1.00  0.00     0.163 HD
BRANCH   3   6
ATOM      6  C   UNL A   1      33.196  27.905  23.216  1.00  0.00     0.176 C 
ATOM      7  C   UNL A   1      31.918  28.171  22.368  1.00  0.00     0.061 C 
ATOM      8  C   UNL A   1      31.347  26.752  22.215  1.00  0.00     0.011 C 
ATOM      9  C   UNL A   1      32.561  25.856  22.007  1.00  0.00     0.008 C 
ATOM     10  C   UNL A   1      33.771  26.676  22.458  1.00  0.00     0.079 C 
BRANCH   7  11
ATOM     11  C   UNL A   1      30.793  29.117  22.816  1.00  0.00     0.022 C 
BRANCH  11  12
ATOM     12  C   UNL A   1      29.546  28.525  23.483  1.00  0.00     0.079 C 
BRANCH  12  13
ATOM     13  S   UNL A   1      27.924  28.816  22.724  1.00  0.00    -0.088 SA
BRANCH  13  14
ATOM     14  C   UNL A   1      28.065  30.340  21.929  1.00  0.00     0.167 A 
ATOM     15  C   UNL A   1      28.434  31.853  23.937  1.00  0.00     0.152 C 
ATOM     16  N   UNL A   1      28.286  31.548  22.537  1.00  0.00    -0.329 N 
ATOM     17  C   UNL A   1      28.331  32.497  21.544  1.00  0.00     0.108 A 
ATOM     18  C   UNL A   1      28.056  31.817  20.383  1.00  0.00     0.132 A 
ATOM     19  N   UNL A   1      27.903  30.481  20.632  1.00  0.00    -0.231 NA
ENDBRANCH  13  14
ENDBRANCH  12  13
ENDBRANCH  11  12
ENDBRANCH   7  11
BRANCH   6  20
ATOM     20  N   UNL A   1      34.221  28.976  23.180  1.00  0.00    -0.345 N 
ATOM     21  H   UNL A   1      33.777  29.879  23.347  1.00  0.00     0.345 HD
ATOM     22  H   UNL A   1      34.673  28.983  22.266  1.00  0.00     0.345 HD
ATOM     23  H   UNL A   1      34.919  28.802  23.903  1.00  0.00     0.345 HD
ENDBRANCH   6  20
ENDBRANCH   3   6
ENDBRANCH   1   2
BRANCH   1  24
ATOM     24  C   UNL A   1      31.817  30.419  26.795  1.00  0.00     0.023 C 
BRANCH  24  25
ATOM     25  C   UNL A   1      31.644  31.931  26.745  1.00  0.00     0.023 C 
BRANCH  25  26
ATOM     26  C   UNL A   1      32.807  32.693  27.356  1.00  0.00     0.116 C 
BRANCH  26  27
ATOM     27  N   UNL A   1      32.484  34.092  27.595  1.00  0.00    -0.352 N 
ATOM     28  C   UNL A   1      32.992  34.938  28.555  1.00  0.00     0.251 C 
ATOM     29  H   UNL A   1      31.812  34.485  26.991  1.00  0.00     0.163 HD
ATOM     30  O   UNL A   1      32.490  36.026  28.766  1.00  0.00    -0.269 OA
BRANCH  28  31
ATOM     31  C   UNL A   1      34.154  34.478  29.343  1.00  0.00     0.039 A 
ATOM     32  C   UNL A   1      33.941  33.856  30.573  1.00  0.00     0.014 A 
ATOM     33  C   UNL A   1      35.444  34.602  28.820  1.00  0.00     0.014 A 
ATOM     34  C   UNL A   1      35.024  33.291  31.247  1.00  0.00     0.010 A 
ATOM     35  C   UNL A   1      36.498  33.945  29.437  1.00  0.00     0.010 A 
ATOM     36  C   UNL A   1      36.302  33.293  30.664  1.00  0.00    -0.014 A 
BRANCH  36  37
ATOM     37  C   UNL A   1      37.461  32.649  31.329  1.00  0.00     0.031 A 
ATOM     38  C   UNL A   1      38.180  31.522  30.638  1.00  0.00     0.074 A 
ATOM     39  C   UNL A   1      37.823  33.031  32.570  1.00  0.00     0.049 A 
ATOM     40  N   UNL A   1      39.151  30.765  31.080  1.00  0.00    -0.248 NA
ATOM     41  C   UNL A   1      37.722  31.175  29.281  1.00  0.00     0.031 C 
ATOM     42  C   UNL A   1      37.170  34.075  33.362  1.00  0.00     0.029 A 
ATOM     43  N   UNL A   1      38.826  32.575  33.388  1.00  0.00    -0.354 N 
ATOM     44  C   UNL A   1      39.407  29.852  30.064  1.00  0.00     0.074 A 
ATOM     45  C   UNL A   1      38.446  30.100  29.014  1.00  0.00     0.031 C 
ATOM     46  C   UNL A   1      37.807  34.200  34.538  1.00  0.00     0.029 A 
ATOM     47  C   UNL A   1      38.884  33.218  34.602  1.00  0.00     0.049 A 
ATOM     48  H   UNL A   1      39.446  31.856  33.130  1.00  0.00     0.167 HD
ATOM     49  C   UNL A   1      40.383  28.917  29.997  1.00  0.00     0.037 A 
ATOM     50  C   UNL A   1      39.709  33.026  35.649  1.00  0.00     0.037 A 
ATOM     51  C   UNL A   1      41.359  28.696  31.030  1.00  0.00     0.049 A 
ATOM     52  C   UNL A   1      40.776  31.966  35.549  1.00  0.00     0.074 A 
ATOM     53  C   UNL A   1      42.414  27.802  31.042  1.00  0.00     0.029 A 
ATOM     54  N   UNL A   1      41.401  29.385  32.232  1.00  0.00    -0.354 N 
ATOM     55  N   UNL A   1      41.049  31.154  34.557  1.00  0.00    -0.248 NA
ATOM     56  C   UNL A   1      41.657  31.802  36.715  1.00  0.00     0.031 C 
ATOM     57  C   UNL A   1      43.070  27.921  32.270  1.00  0.00     0.029 A 
ATOM     58  C   UNL A   1      42.457  28.926  33.000  1.00  0.00     0.049 A 
ATOM     59  H   UNL A   1      40.773  30.095  32.500  1.00  0.00     0.167 HD
ATOM     60  C   UNL A   1      42.151  30.413  34.962  1.00  0.00     0.074 A 
ATOM     61  C   UNL A   1      42.507  30.883  36.284  1.00  0.00     0.031 C 
ATOM     62  C   UNL A   1      42.809  29.428  34.303  1.00  0.00     0.037 A 
BRANCH  49  63
ATOM     63  C   UNL A   1      40.459  28.077  28.755  1.00  0.00     0.064 A 
ATOM     64  C   UNL A   1      41.226  28.475  27.649  1.00  0.00     0.173 A 
ATOM     65  C   UNL A   1      39.802  26.839  28.688  1.00  0.00     0.173 A 
ATOM     66  F   UNL A   1      41.860  29.657  27.657  1.00  0.00    -0.203 F 
ATOM     67  C   UNL A   1      41.318  27.672  26.515  1.00  0.00     0.198 A 
ATOM     68  C   UNL A   1      39.923  26.025  27.565  1.00  0.00     0.198 A 
ATOM     69  F   UNL A   1      39.057  26.412  29.717  1.00  0.00    -0.203 F 
ATOM     70  F   UNL A   1      42.022  28.094  25.455  1.00  0.00    -0.200 F 
ATOM     71  C   UNL A   1      40.675  26.445  26.478  1.00  0.00     0.200 A 
ATOM     72  F   UNL A   1      39.311  24.833  27.534  1.00  0.00    -0.200 F 
ATOM     73  F   UNL A   1      40.777  25.667  25.391  1.00  0.00    -0.200 F 
ENDBRANCH  49  63
BRANCH  50  74
ATOM     74  C   UNL A   1      39.581  33.857  36.876  1.00  0.00     0.064 A 
ATOM     75  C   UNL A   1      38.822  33.416  37.969  1.00  0.00     0.173 A 
ATOM     76  C   UNL A   1      40.174  35.125  36.966  1.00  0.00     0.173 A 
ATOM     77  F   UNL A   1      38.218  32.219  37.925  1.00  0.00    -0.203 F 
ATOM     78  C   UNL A   1      38.626  34.226  39.086  1.00  0.00     0.198 A 
ATOM     79  C   UNL A   1      40.006  35.920  38.098  1.00  0.00     0.198 A 
ATOM     80  F   UNL A   1      40.916  35.595  35.952  1.00  0.00    -0.203 F 
ATOM     81  F   UNL A   1      37.838  33.805  40.086  1.00  0.00    -0.200 F 
ATOM     82  C   UNL A   1      39.220  35.476  39.151  1.00  0.00     0.200 A 
ATOM     83  F   UNL A   1      40.595  37.122  38.163  1.00  0.00    -0.200 F 
ATOM     84  F   UNL A   1      39.025  36.259  40.221  1.00  0.00    -0.200 F 
ENDBRANCH  50  74
BRANCH  62  85
ATOM     85  C   UNL A   1      44.010  28.831  34.975  1.00  0.00     0.064 A 
ATOM     86  C   UNL A   1      45.294  29.371  34.809  1.00  0.00     0.173 A 
ATOM     87  C   UNL A   1      43.866  27.727  35.831  1.00  0.00     0.173 A 
ATOM     88  F   UNL A   1      45.486  30.417  33.992  1.00  0.00    -0.203 F 
ATOM     89  C   UNL A   1      46.392  28.810  35.453  1.00  0.00     0.198 A 
ATOM     90  C   UNL A   1      44.961  27.191  36.499  1.00  0.00     0.198 A 
ATOM     91  F   UNL A   1      42.657  27.180  36.030  1.00  0.00    -0.203 F 
ATOM     92  F   UNL A   1      47.618  29.310  35.240  1.00  0.00    -0.200 F 
ATOM     93  C   UNL A   1      46.226  27.727  36.303  1.00  0.00     0.200 A 
ATOM     94  F   UNL A   1      44.795  26.156  37.333  1.00  0.00    -0.200 F 
ATOM     95  F   UNL A   1      47.284  27.195  36.928  1.00  0.00    -0.200 F 
ENDBRANCH  62  85
ENDBRANCH  36  37
ENDBRANCH  28  31
ENDBRANCH  26  27
ENDBRANCH  25  26
ENDBRANCH  24  25
ENDBRANCH   1  24
TORSDOF 16
ENDMDL
MODEL 2
REMARK VINA RESULT:     -11.6      0.473      7.463
REMARK SMILES Cn1ccnc1SCC[C@@H]1CCC[C@]1([NH3+])C(=O)NCCCCNC(=O)c1ccc(-c2c3nc(c(-c4c(F)c(F)c(F)c(F)c4F)c4ccc([nH]4)c(-c4c(F)c(F)c(F)c(F)c4F)c4nc(c(-c5c(F)c(F)c(F)c(F)c5F)c5ccc2[nH]5)C=C4)C=C3)cc1
REMARK SMILES IDX 19 1 18 2 16 3 17 4 14 6 10 7 11 8 12 9 13 10 9 11 8 12 7 13
REMARK SMILES IDX 6 14 1 15 2 16 3 17 4 18 5 19 15 20 20 24 21 25 22 26 23 27
REMARK SMILES IDX 24 28 25 30 26 31 27 32 88 33 28 34 87 35 29 36 30 37 31 38
REMARK SMILES IDX 81 39 32 40 86 41 80 42 82 43 33 44 85 45 79 46 78 47 34 49
REMARK SMILES IDX 66 50 46 51 65 52 47 53 50 54 64 55 83 56 48 57 49 58 63 60
REMARK SMILES IDX 84 61 51 62 35 63 36 64 44 65 37 66 38 67 42 68 45 69 39 70
REMARK SMILES IDX 40 71 43 72 41 73 67 74 68 75 76 76 69 77 70 78 74 79 77 80
REMARK SMILES IDX 71 81 72 82 75 83 73 84 52 85 53 86 61 87 54 88 55 89 59 90
REMARK SMILES IDX 62 91 56 92 57 93 60 94 58 95
REMARK H PARENT 18 5 15 21 15 22 15 23 23 29 82 48 50 59
REMARK Flexibility Score: inf
ROOT
ATOM      1  C   UNL A   1      32.364  30.022  25.594  1.00  0.00     0.116 C 
ENDROOT
BRANCH   1   2
ATOM      2  N   UNL A   1      32.570  28.594  25.676  1.00  0.00    -0.351 N 
ATOM      3  C   UNL A   1      32.853  27.682  24.702  1.00  0.00     0.281 C 
ATOM      4  O   UNL A   1      32.978  26.513  25.079  1.00  0.00    -0.268 OA
ATOM      5  H   UNL A   1      32.492  28.218  26.582  1.00  0.00     0.163 HD
BRANCH   3   6
ATOM      6  C   UNL A   1      33.047  28.103  23.198  1.00  0.00     0.176 C 
ATOM      7  C   UNL A   1      31.738  28.282  22.377  1.00  0.00     0.061 C 
ATOM      8  C   UNL A   1      31.254  26.828  22.244  1.00  0.00     0.011 C 
ATOM      9  C   UNL A   1      32.518  26.009  22.015  1.00  0.00     0.008 C 
ATOM     10  C   UNL A   1      33.683  26.906  22.436  1.00  0.00     0.079 C 
BRANCH   7  11
ATOM     11  C   UNL A   1      30.565  29.157  22.842  1.00  0.00     0.022 C 
BRANCH  11  12
ATOM     12  C   UNL A   1      29.324  28.482  23.437  1.00  0.00     0.079 C 
BRANCH  12  13
ATOM     13  S   UNL A   1      27.696  28.866  22.732  1.00  0.00    -0.088 SA
BRANCH  13  14
ATOM     14  C   UNL A   1      27.906  30.360  21.897  1.00  0.00     0.167 A 
ATOM     15  C   UNL A   1      28.013  31.958  23.870  1.00  0.00     0.152 C 
ATOM     16  N   UNL A   1      28.036  31.595  22.477  1.00  0.00    -0.329 N 
ATOM     17  C   UNL A   1      28.183  32.505  21.458  1.00  0.00     0.108 A 
ATOM     18  C   UNL A   1      28.057  31.774  20.301  1.00  0.00     0.132 A 
ATOM     19  N   UNL A   1      27.896  30.447  20.586  1.00  0.00    -0.231 NA
ENDBRANCH  13  14
ENDBRANCH  12  13
ENDBRANCH  11  12
ENDBRANCH   7  11
BRANCH   6  20
ATOM     20  N   UNL A   1      34.002  29.236  23.134  1.00  0.00    -0.345 N 
ATOM     21  H   UNL A   1      34.956  28.880  23.192  1.00  0.00     0.345 HD
ATOM     22  H   UNL A   1      33.828  29.871  23.912  1.00  0.00     0.345 HD
ATOM     23  H   UNL A   1      33.878  29.735  22.253  1.00  0.00     0.345 HD
ENDBRANCH   6  20
ENDBRANCH   3   6
ENDBRANCH   1   2
BRANCH   1  24
ATOM     24  C   UNL A   1      31.699  30.566  26.855  1.00  0.00     0.023 C 
BRANCH  24  25
ATOM     25  C   UNL A   1      31.524  32.079  26.850  1.00  0.00     0.023 C 
BRANCH  25  26
ATOM     26  C   UNL A   1      32.782  32.835  27.237  1.00  0.00     0.116 C 
BRANCH  26  27
ATOM     27  N   UNL A   1      32.502  34.213  27.616  1.00  0.00    -0.352 N 
ATOM     28  C   UNL A   1      33.033  34.942  28.656  1.00  0.00     0.251 C 
ATOM     29  H   UNL A   1      31.846  34.685  27.054  1.00  0.00     0.163 HD
ATOM     30  O   UNL A   1      32.565  36.018  28.976  1.00  0.00    -0.269 OA
BRANCH  28  31
ATOM     31  C   UNL A   1      34.177  34.368  29.396  1.00  0.00     0.039 A 
ATOM     32  C   UNL A   1      33.935  33.521  30.476  1.00  0.00     0.014 A 
ATOM     33  C   UNL A   1      35.482  34.617  28.962  1.00  0.00     0.014 A 
ATOM     34  C   UNL A   1      35.006  32.864  31.081  1.00  0.00     0.010 A 
ATOM     35  C   UNL A   1      36.530  33.879  29.492  1.00  0.00     0.010 A 
ATOM     36  C   UNL A   1      36.306  33.005  30.565  1.00  0.00    -0.014 A 
BRANCH  36  37
ATOM     37  C   UNL A   1      37.458  32.273  31.149  1.00  0.00     0.031 A 
ATOM     38  C   UNL A   1      37.966  32.658  32.512  1.00  0.00     0.074 A 
ATOM     39  C   UNL A   1      38.081  31.317  30.432  1.00  0.00     0.049 A 
ATOM     40  N   UNL A   1      39.011  32.213  33.162  1.00  0.00    -0.248 NA
ATOM     41  C   UNL A   1      37.220  33.709  33.226  1.00  0.00     0.031 C 
ATOM     42  C   UNL A   1      37.713  30.894  29.079  1.00  0.00     0.029 A 
ATOM     43  N   UNL A   1      39.165  30.533  30.740  1.00  0.00    -0.354 N 
ATOM     44  C   UNL A   1      39.051  32.936  34.347  1.00  0.00     0.074 A 
ATOM     45  C   UNL A   1      37.972  33.897  34.299  1.00  0.00     0.031 C 
ATOM     46  C   UNL A   1      38.537  29.908  28.686  1.00  0.00     0.029 A 
ATOM     47  C   UNL A   1      39.517  29.660  29.738  1.00  0.00     0.049 A 
ATOM     48  H   UNL A   1      39.644  30.591  31.597  1.00  0.00     0.167 HD
ATOM     49  C   UNL A   1      39.889  32.785  35.399  1.00  0.00     0.037 A 
ATOM     50  C   UNL A   1      40.524  28.767  29.678  1.00  0.00     0.037 A 
ATOM     51  C   UNL A   1      40.939  31.805  35.458  1.00  0.00     0.049 A 
ATOM     52  C   UNL A   1      41.449  28.633  30.860  1.00  0.00     0.074 A 
ATOM     53  C   UNL A   1      41.816  31.542  36.494  1.00  0.00     0.029 A 
ATOM     54  N   UNL A   1      41.247  30.921  34.435  1.00  0.00    -0.354 N 
ATOM     55  N   UNL A   1      41.436  29.278  32.001  1.00  0.00    -0.248 NA
ATOM     56  C   UNL A   1      42.526  27.639  30.747  1.00  0.00     0.031 C 
ATOM     57  C   UNL A   1      42.683  30.526  36.083  1.00  0.00     0.029 A 
ATOM     58  C   UNL A   1      42.312  30.119  34.812  1.00  0.00     0.049 A 
ATOM     59  H   UNL A   1      40.779  30.870  33.570  1.00  0.00     0.167 HD
ATOM     60  C   UNL A   1      42.473  28.743  32.754  1.00  0.00     0.074 A 
ATOM     61  C   UNL A   1      43.084  27.709  31.946  1.00  0.00     0.031 C 
ATOM     62  C   UNL A   1      42.887  29.078  34.000  1.00  0.00     0.037 A 
BRANCH  49  63
ATOM     63  C   UNL A   1      39.688  33.684  36.585  1.00  0.00     0.064 A 
ATOM     64  C   UNL A   1      40.300  34.945  36.658  1.00  0.00     0.173 A 
ATOM     65  C   UNL A   1      38.836  33.306  37.633  1.00  0.00     0.173 A 
ATOM     66  F   UNL A   1      41.136  35.348  35.689  1.00  0.00    -0.203 F 
ATOM     67  C   UNL A   1      40.080  35.786  37.745  1.00  0.00     0.198 A 
ATOM     68  C   UNL A   1      38.594  34.163  38.703  1.00  0.00     0.198 A 
ATOM     69  F   UNL A   1      38.226  32.112  37.611  1.00  0.00    -0.203 F 
ATOM     70  F   UNL A   1      40.709  36.968  37.813  1.00  0.00    -0.200 F 
ATOM     71  C   UNL A   1      39.221  35.398  38.761  1.00  0.00     0.200 A 
ATOM     72  F   UNL A   1      37.753  33.793  39.679  1.00  0.00    -0.200 F 
ATOM     73  F   UNL A   1      38.998  36.215  39.801  1.00  0.00    -0.200 F 
ENDBRANCH  49  63
BRANCH  50  74
ATOM     74  C   UNL A   1      40.710  27.917  28.472  1.00  0.00     0.064 A 
ATOM     75  C   UNL A   1      41.485  28.359  27.390  1.00  0.00     0.173 A 
ATOM     76  C   UNL A   1      40.082  26.668  28.354  1.00  0.00     0.173 A 
ATOM     77  F   UNL A   1      42.090  29.555  27.446  1.00  0.00    -0.203 F 
ATOM     78  C   UNL A   1      41.592  27.606  26.222  1.00  0.00     0.198 A 
ATOM     79  C   UNL A   1      40.219  25.900  27.199  1.00  0.00     0.198 A 
ATOM     80  F   UNL A   1      39.334  26.192  29.360  1.00  0.00    -0.203 F 
ATOM     81  F   UNL A   1      42.283  28.086  25.180  1.00  0.00    -0.200 F 
ATOM     82  C   UNL A   1      40.961  26.375  26.129  1.00  0.00     0.200 A 
ATOM     83  F   UNL A   1      39.619  24.704  27.118  1.00  0.00    -0.200 F 
ATOM     84  F   UNL A   1      41.057  25.655  25.003  1.00  0.00    -0.200 F 
ENDBRANCH  50  74
BRANCH  62  85
ATOM     85  C   UNL A   1      44.018  28.286  34.588  1.00  0.00     0.064 A 
ATOM     86  C   UNL A   1      43.797  27.098  35.299  1.00  0.00     0.173 A 
ATOM     87  C   UNL A   1      45.345  28.704  34.400  1.00  0.00     0.173 A 
ATOM     88  F   UNL A   1      42.546  26.664  35.516  1.00  0.00    -0.203 F 
ATOM     89  C   UNL A   1      44.862  26.372  35.824  1.00  0.00     0.198 A 
ATOM     90  C   UNL A   1      46.408  27.957  34.897  1.00  0.00     0.198 A 
ATOM     91  F   UNL A   1      45.610  29.829  33.719  1.00  0.00    -0.203 F 
ATOM     92  F   UNL A   1      44.625  25.266  36.544  1.00  0.00    -0.200 F 
ATOM     93  C   UNL A   1      46.166  26.796  35.616  1.00  0.00     0.200 A 
ATOM     94  F   UNL A   1      47.667  28.359  34.681  1.00  0.00    -0.200 F 
ATOM     95  F   UNL A   1      47.189  26.090  36.115  1.00  0.00    -0.200 F 
ENDBRANCH  62  85
ENDBRANCH  36  37
ENDBRANCH  28  31
ENDBRANCH  26  27
ENDBRANCH  25  26
ENDBRANCH  24  25
ENDBRANCH   1  24
TORSDOF 16
ENDMDL
MODEL 3
REMARK VINA RESULT:     -11.5      1.831      3.555
REMARK SMILES Cn1ccnc1SCC[C@@H]1CCC[C@]1([NH3+])C(=O)NCCCCNC(=O)c1ccc(-c2c3nc(c(-c4c(F)c(F)c(F)c(F)c4F)c4ccc([nH]4)c(-c4c(F)c(F)c(F)c(F)c4F)c4nc(c(-c5c(F)c(F)c(F)c(F)c5F)c5ccc2[nH]5)C=C4)C=C3)cc1
REMARK SMILES IDX 19 1 18 2 16 3 17 4 14 6 10 7 11 8 12 9 13 10 9 11 8 12 7 13
REMARK SMILES IDX 6 14 1 15 2 16 3 17 4 18 5 19 15 20 20 24 21 25 22 26 23 27
REMARK SMILES IDX 24 28 25 30 26 31 27 32 88 33 28 34 87 35 29 36 30 37 31 38
REMARK SMILES IDX 81 39 32 40 86 41 80 42 82 43 33 44 85 45 79 46 78 47 34 49
REMARK SMILES IDX 66 50 46 51 65 52 47 53 50 54 64 55 83 56 48 57 49 58 63 60
REMARK SMILES IDX 84 61 51 62 35 63 36 64 44 65 37 66 38 67 42 68 45 69 39 70
REMARK SMILES IDX 40 71 43 72 41 73 67 74 68 75 76 76 69 77 70 78 74 79 77 80
REMARK SMILES IDX 71 81 72 82 75 83 73 84 52 85 53 86 61 87 54 88 55 89 59 90
REMARK SMILES IDX 62 91 56 92 57 93 60 94 58 95
REMARK H PARENT 18 5 15 21 15 22 15 23 23 29 82 48 50 59
REMARK Flexibility Score: inf
ROOT
ATOM      1  C   UNL A   1      31.589  30.153  25.220  1.00  0.00     0.116 C 
ENDROOT
BRANCH   1   2
ATOM      2  N   UNL A   1      32.746  29.543  24.608  1.00  0.00    -0.351 N 
ATOM      3  C   UNL A   1      33.063  28.230  24.422  1.00  0.00     0.281 C 
ATOM      4  O   UNL A   1      34.137  28.009  23.856  1.00  0.00    -0.268 OA
ATOM      5  H   UNL A   1      33.417  30.179  24.270  1.00  0.00     0.163 HD
BRANCH   3   6
ATOM      6  C   UNL A   1      32.097  27.070  24.866  1.00  0.00     0.176 C 
ATOM      7  C   UNL A   1      32.342  25.694  24.181  1.00  0.00     0.061 C 
ATOM      8  C   UNL A   1      31.870  25.973  22.745  1.00  0.00     0.011 C 
ATOM      9  C   UNL A   1      30.633  26.849  22.897  1.00  0.00     0.008 C 
ATOM     10  C   UNL A   1      30.673  27.388  24.329  1.00  0.00     0.079 C 
BRANCH   7  11
ATOM     11  C   UNL A   1      33.718  25.012  24.130  1.00  0.00     0.022 C 
BRANCH  11  12
ATOM     12  C   UNL A   1      34.539  24.896  25.419  1.00  0.00     0.079 C 
BRANCH  12  13
ATOM     13  S   UNL A   1      34.224  23.500  26.535  1.00  0.00    -0.088 SA
BRANCH  13  14
ATOM     14  C   UNL A   1      32.522  23.236  26.459  1.00  0.00     0.167 A 
ATOM     15  C   UNL A   1      32.438  21.392  24.712  1.00  0.00     0.152 C 
ATOM     16  N   UNL A   1      31.883  22.320  25.664  1.00  0.00    -0.329 N 
ATOM     17  C   UNL A   1      30.537  22.439  25.913  1.00  0.00     0.108 A 
ATOM     18  C   UNL A   1      30.425  23.483  26.799  1.00  0.00     0.132 A 
ATOM     19  N   UNL A   1      31.660  23.963  27.137  1.00  0.00    -0.231 NA
ENDBRANCH  13  14
ENDBRANCH  12  13
ENDBRANCH  11  12
ENDBRANCH   7  11
BRANCH   6  20
ATOM     20  N   UNL A   1      32.024  27.043  26.347  1.00  0.00    -0.345 N 
ATOM     21  H   UNL A   1      32.617  27.778  26.730  1.00  0.00     0.345 HD
ATOM     22  H   UNL A   1      32.343  26.136  26.686  1.00  0.00     0.345 HD
ATOM     23  H   UNL A   1      31.059  27.196  26.642  1.00  0.00     0.345 HD
ENDBRANCH   6  20
ENDBRANCH   3   6
ENDBRANCH   1   2
BRANCH   1  24
ATOM     24  C   UNL A   1      31.886  30.621  26.642  1.00  0.00     0.023 C 
BRANCH  24  25
ATOM     25  C   UNL A   1      31.600  32.099  26.871  1.00  0.00     0.023 C 
BRANCH  25  26
ATOM     26  C   UNL A   1      32.786  32.866  27.427  1.00  0.00     0.116 C 
BRANCH  26  27
ATOM     27  N   UNL A   1      32.476  34.270  27.658  1.00  0.00    -0.352 N 
ATOM     28  C   UNL A   1      32.983  35.114  28.620  1.00  0.00     0.251 C 
ATOM     29  H   UNL A   1      31.816  34.667  27.045  1.00  0.00     0.163 HD
ATOM     30  O   UNL A   1      32.490  36.208  28.822  1.00  0.00    -0.269 OA
BRANCH  28  31
ATOM     31  C   UNL A   1      34.130  34.643  29.424  1.00  0.00     0.039 A 
ATOM     32  C   UNL A   1      33.900  34.087  30.682  1.00  0.00     0.014 A 
ATOM     33  C   UNL A   1      35.421  34.692  28.890  1.00  0.00     0.014 A 
ATOM     34  C   UNL A   1      34.963  33.510  31.376  1.00  0.00     0.010 A 
ATOM     35  C   UNL A   1      36.451  34.022  29.533  1.00  0.00     0.010 A 
ATOM     36  C   UNL A   1      36.237  33.435  30.788  1.00  0.00    -0.014 A 
BRANCH  36  37
ATOM     37  C   UNL A   1      37.374  32.776  31.477  1.00  0.00     0.031 A 
ATOM     38  C   UNL A   1      38.058  31.605  30.824  1.00  0.00     0.074 A 
ATOM     39  C   UNL A   1      37.744  33.184  32.707  1.00  0.00     0.049 A 
ATOM     40  N   UNL A   1      39.004  30.832  31.293  1.00  0.00    -0.248 NA
ATOM     41  C   UNL A   1      37.593  31.231  29.477  1.00  0.00     0.031 C 
ATOM     42  C   UNL A   1      37.122  34.272  33.464  1.00  0.00     0.029 A 
ATOM     43  N   UNL A   1      38.730  32.722  33.543  1.00  0.00    -0.354 N 
ATOM     44  C   UNL A   1      39.234  29.881  30.307  1.00  0.00     0.074 A 
ATOM     45  C   UNL A   1      38.284  30.126  29.246  1.00  0.00     0.031 C 
ATOM     46  C   UNL A   1      37.760  34.414  34.638  1.00  0.00     0.029 A 
ATOM     47  C   UNL A   1      38.805  33.401  34.736  1.00  0.00     0.049 A 
ATOM     48  H   UNL A   1      39.328  31.976  33.309  1.00  0.00     0.167 HD
ATOM     49  C   UNL A   1      40.180  28.914  30.272  1.00  0.00     0.037 A 
ATOM     50  C   UNL A   1      39.621  33.215  35.792  1.00  0.00     0.037 A 
ATOM     51  C   UNL A   1      41.146  28.695  31.314  1.00  0.00     0.049 A 
ATOM     52  C   UNL A   1      40.654  32.120  35.728  1.00  0.00     0.074 A 
ATOM     53  C   UNL A   1      42.172  27.768  31.358  1.00  0.00     0.029 A 
ATOM     54  N   UNL A   1      41.206  29.419  32.496  1.00  0.00    -0.354 N 
ATOM     55  N   UNL A   1      40.904  31.269  34.763  1.00  0.00    -0.248 NA
ATOM     56  C   UNL A   1      41.526  31.965  36.902  1.00  0.00     0.031 C 
ATOM     57  C   UNL A   1      42.829  27.905  32.584  1.00  0.00     0.029 A 
ATOM     58  C   UNL A   1      42.246  28.951  33.281  1.00  0.00     0.049 A 
ATOM     59  H   UNL A   1      40.600  30.156  32.739  1.00  0.00     0.167 HD
ATOM     60  C   UNL A   1      41.981  30.507  35.195  1.00  0.00     0.074 A 
ATOM     61  C   UNL A   1      42.348  31.006  36.503  1.00  0.00     0.031 C 
ATOM     62  C   UNL A   1      42.609  29.481  34.569  1.00  0.00     0.037 A 
BRANCH  49  63
ATOM     63  C   UNL A   1      40.233  28.034  29.057  1.00  0.00     0.064 A 
ATOM     64  C   UNL A   1      41.007  28.379  27.938  1.00  0.00     0.173 A 
ATOM     65  C   UNL A   1      39.547  26.811  29.029  1.00  0.00     0.173 A 
ATOM     66  F   UNL A   1      41.669  29.545  27.907  1.00  0.00    -0.203 F 
ATOM     67  C   UNL A   1      41.077  27.539  26.829  1.00  0.00     0.198 A 
ATOM     68  C   UNL A   1      39.645  25.960  27.932  1.00  0.00     0.198 A 
ATOM     69  F   UNL A   1      38.794  26.434  30.073  1.00  0.00    -0.203 F 
ATOM     70  F   UNL A   1      41.788  27.910  25.755  1.00  0.00    -0.200 F 
ATOM     71  C   UNL A   1      40.404  26.327  26.831  1.00  0.00     0.200 A 
ATOM     72  F   UNL A   1      39.005  24.782  27.940  1.00  0.00    -0.200 F 
ATOM     73  F   UNL A   1      40.485  25.513  25.769  1.00  0.00    -0.200 F 
ENDBRANCH  49  63
BRANCH  50  74
ATOM     74  C   UNL A   1      39.515  34.087  36.992  1.00  0.00     0.064 A 
ATOM     75  C   UNL A   1      40.180  35.321  37.047  1.00  0.00     0.173 A 
ATOM     76  C   UNL A   1      38.790  33.689  38.125  1.00  0.00     0.173 A 
ATOM     77  F   UNL A   1      40.904  35.738  35.998  1.00  0.00    -0.203 F 
ATOM     78  C   UNL A   1      40.157  36.103  38.201  1.00  0.00     0.198 A 
ATOM     79  C   UNL A   1      38.739  34.488  39.265  1.00  0.00     0.198 A 
ATOM     80  F   UNL A   1      38.129  32.522  38.125  1.00  0.00    -0.203 F 
ATOM     81  F   UNL A   1      40.859  37.243  38.248  1.00  0.00    -0.200 F 
ATOM     82  C   UNL A   1      39.435  35.687  39.308  1.00  0.00     0.200 A 
ATOM     83  F   UNL A   1      38.026  34.090  40.328  1.00  0.00    -0.200 F 
ATOM     84  F   UNL A   1      39.419  36.434  40.420  1.00  0.00    -0.200 F 
ENDBRANCH  50  74
BRANCH  62  85
ATOM     85  C   UNL A   1      43.789  28.869  35.264  1.00  0.00     0.064 A 
ATOM     86  C   UNL A   1      43.644  27.808  36.170  1.00  0.00     0.173 A 
ATOM     87  C   UNL A   1      45.088  29.324  34.985  1.00  0.00     0.173 A 
ATOM     88  F   UNL A   1      42.423  27.346  36.479  1.00  0.00    -0.203 F 
ATOM     89  C   UNL A   1      44.754  27.246  36.793  1.00  0.00     0.198 A 
ATOM     90  C   UNL A   1      46.197  28.737  35.585  1.00  0.00     0.198 A 
ATOM     91  F   UNL A   1      45.280  30.330  34.119  1.00  0.00    -0.203 F 
ATOM     92  F   UNL A   1      44.589  26.267  37.695  1.00  0.00    -0.200 F 
ATOM     93  C   UNL A   1      46.029  27.703  36.495  1.00  0.00     0.200 A 
ATOM     94  F   UNL A   1      47.428  29.168  35.282  1.00  0.00    -0.200 F 
ATOM     95  F   UNL A   1      47.096  27.154  37.089  1.00  0.00    -0.200 F 
ENDBRANCH  62  85
ENDBRANCH  36  37
ENDBRANCH  28  31
ENDBRANCH  26  27
ENDBRANCH  25  26
ENDBRANCH  24  25
ENDBRANCH   1  24
TORSDOF 16
ENDMDL
