MODEL 1
REMARK VINA RESULT:     -11.6      0.000      0.000
REMARK SMILES CC(C)(C)OCC[C@@H]1CCC[C@]1([NH2+]C1CC1)C(=O)NCCCCNC(=O)c1ccc(-c2c3nc(c(-c4c(F)c(F)c(F)c(F)c4F)c4ccc([nH]4)c(-c4c(F)c(F)c(F)c(F)c4F)c4nc(c(-c5c(F)c(F)c(F)c(F)c5F)c5ccc2[nH]5)C=C4)C=C3)cc1
REMARK SMILES IDX 20 1 19 2 17 3 18 4 12 6 8 7 9 8 10 9 11 10 7 11 6 12 5 13
REMARK SMILES IDX 2 14 1 15 3 16 4 17 13 18 14 21 15 22 16 23 21 24 22 25
REMARK SMILES IDX 23 26 24 27 25 28 26 30 27 31 28 32 89 33 29 34 88 35 30 36
REMARK SMILES IDX 31 37 32 38 82 39 33 40 87 41 81 42 83 43 34 44 86 45 80 46
REMARK SMILES IDX 79 47 35 49 67 50 47 51 66 52 48 53 51 54 65 55 84 56 49 57
REMARK SMILES IDX 50 58 64 60 85 61 52 62 36 63 37 64 45 65 38 66 39 67 43 68
REMARK SMILES IDX 46 69 40 70 41 71 44 72 42 73 68 74 69 75 77 76 70 77 71 78
REMARK SMILES IDX 75 79 78 80 72 81 73 82 76 83 74 84 53 85 54 86 62 87 55 88
REMARK SMILES IDX 56 89 60 90 63 91 57 92 58 93 61 94 59 95
REMARK H PARENT 19 5 13 19 13 20 24 29 83 48 51 59
REMARK Flexibility Score: inf
ROOT
ATOM      1  C   UNL A   1      34.005  29.480  27.047  1.00  0.00     0.116 C 
ENDROOT
BRANCH   1   2
ATOM      2  N   UNL A   1      34.311  29.002  25.676  1.00  0.00    -0.351 N 
ATOM      3  C   UNL A   1      33.745  28.285  24.661  1.00  0.00     0.281 C 
ATOM      4  O   UNL A   1      33.926  28.911  23.593  1.00  0.00    -0.268 OA
ATOM      5  H   UNL A   1      35.213  29.298  25.413  1.00  0.00     0.163 HD
BRANCH   3   6
ATOM      6  C   UNL A   1      33.085  26.793  24.558  1.00  0.00     0.178 C 
ATOM      7  C   UNL A   1      31.537  26.586  24.361  1.00  0.00     0.063 C 
ATOM      8  C   UNL A   1      30.955  27.240  25.613  1.00  0.00     0.011 C 
ATOM      9  C   UNL A   1      31.855  26.691  26.724  1.00  0.00     0.008 C 
ATOM     10  C   UNL A   1      33.146  26.229  26.031  1.00  0.00     0.079 C 
BRANCH   7  11
ATOM     11  C   UNL A   1      30.743  26.769  23.046  1.00  0.00     0.039 C 
BRANCH  11  12
ATOM     12  C   UNL A   1      30.782  28.130  22.402  1.00  0.00     0.161 C 
BRANCH  12  13
ATOM     13  O   UNL A   1      29.673  28.733  21.756  1.00  0.00    -0.376 OA
BRANCH  13  14
ATOM     14  C   UNL A   1      28.682  29.574  22.354  1.00  0.00     0.060 C 
ATOM     15  C   UNL A   1      29.435  30.295  23.488  1.00  0.00     0.042 C 
ATOM     16  C   UNL A   1      27.584  28.732  22.999  1.00  0.00     0.042 C 
ATOM     17  C   UNL A   1      28.125  30.729  21.512  1.00  0.00     0.042 C 
ENDBRANCH  13  14
ENDBRANCH  12  13
ENDBRANCH  11  12
ENDBRANCH   7  11
BRANCH   6  18
ATOM     18  N   UNL A   1      33.746  25.814  23.676  1.00  0.00    -0.331 N 
ATOM     19  H   UNL A   1      34.671  26.206  23.502  1.00  0.00     0.347 HD
ATOM     20  H   UNL A   1      33.015  25.724  22.969  1.00  0.00     0.347 HD
BRANCH  18  21
ATOM     21  C   UNL A   1      33.985  24.401  23.930  1.00  0.00     0.183 C 
ATOM     22  C   UNL A   1      34.888  23.473  23.203  1.00  0.00     0.071 C 
ATOM     23  C   UNL A   1      35.271  23.958  24.572  1.00  0.00     0.071 C 
ENDBRANCH  18  21
ENDBRANCH   6  18
ENDBRANCH   3   6
ENDBRANCH   1   2
BRANCH   1  24
ATOM     24  C   UNL A   1      32.564  29.998  27.248  1.00  0.00     0.023 C 
BRANCH  24  25
ATOM     25  C   UNL A   1      32.307  31.456  26.884  1.00  0.00     0.023 C 
BRANCH  25  26
ATOM     26  C   UNL A   1      33.196  32.484  27.577  1.00  0.00     0.116 C 
BRANCH  26  27
ATOM     27  N   UNL A   1      32.619  33.818  27.721  1.00  0.00    -0.352 N 
ATOM     28  C   UNL A   1      33.044  34.829  28.565  1.00  0.00     0.251 C 
ATOM     29  H   UNL A   1      31.841  34.021  27.154  1.00  0.00     0.163 HD
ATOM     30  O   UNL A   1      32.465  35.909  28.626  1.00  0.00    -0.269 OA
BRANCH  28  31
ATOM     31  C   UNL A   1      34.201  34.561  29.444  1.00  0.00     0.039 A 
ATOM     32  C   UNL A   1      33.984  34.062  30.731  1.00  0.00     0.014 A 
ATOM     33  C   UNL A   1      35.493  34.647  28.922  1.00  0.00     0.014 A 
ATOM     34  C   UNL A   1      35.059  33.539  31.454  1.00  0.00     0.010 A 
ATOM     35  C   UNL A   1      36.541  34.038  29.601  1.00  0.00     0.010 A 
ATOM     36  C   UNL A   1      36.335  33.468  30.870  1.00  0.00    -0.014 A 
BRANCH  36  37
ATOM     37  C   UNL A   1      37.477  32.811  31.557  1.00  0.00     0.031 A 
ATOM     38  C   UNL A   1      38.182  31.664  30.887  1.00  0.00     0.074 A 
ATOM     39  C   UNL A   1      37.819  33.178  32.808  1.00  0.00     0.049 A 
ATOM     40  N   UNL A   1      39.120  30.879  31.352  1.00  0.00    -0.248 NA
ATOM     41  C   UNL A   1      37.741  31.329  29.523  1.00  0.00     0.031 C 
ATOM     42  C   UNL A   1      37.172  34.232  33.592  1.00  0.00     0.029 A 
ATOM     43  N   UNL A   1      38.792  32.695  33.649  1.00  0.00    -0.354 N 
ATOM     44  C   UNL A   1      39.358  29.948  30.349  1.00  0.00     0.074 A 
ATOM     45  C   UNL A   1      38.419  30.220  29.283  1.00  0.00     0.031 C 
ATOM     46  C   UNL A   1      37.786  34.338  34.783  1.00  0.00     0.029 A 
ATOM     47  C   UNL A   1      38.843  33.337  34.864  1.00  0.00     0.049 A 
ATOM     48  H   UNL A   1      39.396  31.957  33.405  1.00  0.00     0.167 HD
ATOM     49  C   UNL A   1      40.299  28.976  30.305  1.00  0.00     0.037 A 
ATOM     50  C   UNL A   1      39.655  33.136  35.921  1.00  0.00     0.037 A 
ATOM     51  C   UNL A   1      41.259  28.738  31.348  1.00  0.00     0.049 A 
ATOM     52  C   UNL A   1      40.703  32.057  35.842  1.00  0.00     0.074 A 
ATOM     53  C   UNL A   1      42.293  27.821  31.378  1.00  0.00     0.029 A 
ATOM     54  N   UNL A   1      41.301  29.433  32.549  1.00  0.00    -0.354 N 
ATOM     55  N   UNL A   1      40.964  31.226  34.862  1.00  0.00    -0.248 NA
ATOM     56  C   UNL A   1      41.576  31.892  37.014  1.00  0.00     0.031 C 
ATOM     57  C   UNL A   1      42.941  27.936  32.612  1.00  0.00     0.029 A 
ATOM     58  C   UNL A   1      42.339  28.957  33.332  1.00  0.00     0.049 A 
ATOM     59  H   UNL A   1      40.686  30.158  32.805  1.00  0.00     0.167 HD
ATOM     60  C   UNL A   1      42.045  30.463  35.284  1.00  0.00     0.074 A 
ATOM     61  C   UNL A   1      42.400  30.940  36.604  1.00  0.00     0.031 C 
ATOM     62  C   UNL A   1      42.684  29.457  34.638  1.00  0.00     0.037 A 
BRANCH  49  63
ATOM     63  C   UNL A   1      40.342  28.113  29.076  1.00  0.00     0.064 A 
ATOM     64  C   UNL A   1      39.614  26.915  28.995  1.00  0.00     0.173 A 
ATOM     65  C   UNL A   1      41.110  28.489  27.965  1.00  0.00     0.173 A 
ATOM     66  F   UNL A   1      38.875  26.502  30.036  1.00  0.00    -0.203 F 
ATOM     67  C   UNL A   1      39.682  26.109  27.862  1.00  0.00     0.198 A 
ATOM     68  C   UNL A   1      41.149  27.697  26.820  1.00  0.00     0.198 A 
ATOM     69  F   UNL A   1      41.823  29.625  27.987  1.00  0.00    -0.203 F 
ATOM     70  F   UNL A   1      39.026  24.941  27.833  1.00  0.00    -0.200 F 
ATOM     71  C   UNL A   1      40.444  26.503  26.773  1.00  0.00     0.200 A 
ATOM     72  F   UNL A   1      41.877  28.085  25.763  1.00  0.00    -0.200 F 
ATOM     73  F   UNL A   1      40.507  25.728  25.681  1.00  0.00    -0.200 F 
ENDBRANCH  49  63
BRANCH  50  74
ATOM     74  C   UNL A   1      39.542  33.998  37.129  1.00  0.00     0.064 A 
ATOM     75  C   UNL A   1      40.198  35.236  37.189  1.00  0.00     0.173 A 
ATOM     76  C   UNL A   1      38.791  33.606  38.247  1.00  0.00     0.173 A 
ATOM     77  F   UNL A   1      40.947  35.647  36.154  1.00  0.00    -0.203 F 
ATOM     78  C   UNL A   1      40.126  36.039  38.326  1.00  0.00     0.198 A 
ATOM     79  C   UNL A   1      38.696  34.423  39.373  1.00  0.00     0.198 A 
ATOM     80  F   UNL A   1      38.140  32.434  38.241  1.00  0.00    -0.203 F 
ATOM     81  F   UNL A   1      40.801  37.195  38.371  1.00  0.00    -0.200 F 
ATOM     82  C   UNL A   1      39.370  35.633  39.415  1.00  0.00     0.200 A 
ATOM     83  F   UNL A   1      37.955  34.033  40.419  1.00  0.00    -0.200 F 
ATOM     84  F   UNL A   1      39.298  36.405  40.508  1.00  0.00    -0.200 F 
ENDBRANCH  50  74
BRANCH  62  85
ATOM     85  C   UNL A   1      43.859  28.831  35.330  1.00  0.00     0.064 A 
ATOM     86  C   UNL A   1      45.160  29.325  35.162  1.00  0.00     0.173 A 
ATOM     87  C   UNL A   1      43.669  27.759  36.214  1.00  0.00     0.173 A 
ATOM     88  F   UNL A   1      45.393  30.340  34.316  1.00  0.00    -0.203 F 
ATOM     89  C   UNL A   1      46.233  28.753  35.841  1.00  0.00     0.198 A 
ATOM     90  C   UNL A   1      44.739  27.210  36.913  1.00  0.00     0.198 A 
ATOM     91  F   UNL A   1      42.442  27.255  36.414  1.00  0.00    -0.203 F 
ATOM     92  F   UNL A   1      47.475  29.214  35.634  1.00  0.00    -0.200 F 
ATOM     93  C   UNL A   1      46.021  27.703  36.722  1.00  0.00     0.200 A 
ATOM     94  F   UNL A   1      44.532  26.205  37.776  1.00  0.00    -0.200 F 
ATOM     95  F   UNL A   1      47.055  27.163  37.383  1.00  0.00    -0.200 F 
ENDBRANCH  62  85
ENDBRANCH  36  37
ENDBRANCH  28  31
ENDBRANCH  26  27
ENDBRANCH  25  26
ENDBRANCH  24  25
ENDBRANCH   1  24
TORSDOF 17
ENDMDL
MODEL 2
REMARK VINA RESULT:     -11.4      2.664      8.354
REMARK SMILES CC(C)(C)OCC[C@@H]1CCC[C@]1([NH2+]C1CC1)C(=O)NCCCCNC(=O)c1ccc(-c2c3nc(c(-c4c(F)c(F)c(F)c(F)c4F)c4ccc([nH]4)c(-c4c(F)c(F)c(F)c(F)c4F)c4nc(c(-c5c(F)c(F)c(F)c(F)c5F)c5ccc2[nH]5)C=C4)C=C3)cc1
REMARK SMILES IDX 20 1 19 2 17 3 18 4 12 6 8 7 9 8 10 9 11 10 7 11 6 12 5 13
REMARK SMILES IDX 2 14 1 15 3 16 4 17 13 18 14 21 15 22 16 23 21 24 22 25
REMARK SMILES IDX 23 26 24 27 25 28 26 30 27 31 28 32 89 33 29 34 88 35 30 36
REMARK SMILES IDX 31 37 32 38 82 39 33 40 87 41 81 42 83 43 34 44 86 45 80 46
REMARK SMILES IDX 79 47 35 49 67 50 47 51 66 52 48 53 51 54 65 55 84 56 49 57
REMARK SMILES IDX 50 58 64 60 85 61 52 62 36 63 37 64 45 65 38 66 39 67 43 68
REMARK SMILES IDX 46 69 40 70 41 71 44 72 42 73 68 74 69 75 77 76 70 77 71 78
REMARK SMILES IDX 75 79 78 80 72 81 73 82 76 83 74 84 53 85 54 86 62 87 55 88
REMARK SMILES IDX 56 89 60 90 63 91 57 92 58 93 61 94 59 95
REMARK H PARENT 19 5 13 19 13 20 24 29 83 48 51 59
REMARK Flexibility Score: inf
ROOT
ATOM      1  C   UNL A   1      32.714  27.427  24.002  1.00  0.00     0.116 C 
ENDROOT
BRANCH   1   2
ATOM      2  N   UNL A   1      33.674  26.354  23.646  1.00  0.00    -0.351 N 
ATOM      3  C   UNL A   1      33.814  24.998  23.728  1.00  0.00     0.281 C 
ATOM      4  O   UNL A   1      34.203  24.578  22.616  1.00  0.00    -0.268 OA
ATOM      5  H   UNL A   1      34.465  26.746  23.209  1.00  0.00     0.163 HD
BRANCH   3   6
ATOM      6  C   UNL A   1      33.749  23.924  24.959  1.00  0.00     0.178 C 
ATOM      7  C   UNL A   1      32.901  22.603  24.859  1.00  0.00     0.063 C 
ATOM      8  C   UNL A   1      31.482  23.136  24.664  1.00  0.00     0.011 C 
ATOM      9  C   UNL A   1      31.397  24.246  25.716  1.00  0.00     0.008 C 
ATOM     10  C   UNL A   1      32.848  24.624  26.050  1.00  0.00     0.079 C 
BRANCH   7  11
ATOM     11  C   UNL A   1      33.277  21.323  24.075  1.00  0.00     0.039 C 
BRANCH  11  12
ATOM     12  C   UNL A   1      33.741  20.136  24.877  1.00  0.00     0.161 C 
BRANCH  12  13
ATOM     13  O   UNL A   1      34.173  18.913  24.304  1.00  0.00    -0.376 OA
BRANCH  13  14
ATOM     14  C   UNL A   1      33.347  17.854  23.810  1.00  0.00     0.060 C 
ATOM     15  C   UNL A   1      32.393  17.545  24.980  1.00  0.00     0.042 C 
ATOM     16  C   UNL A   1      34.177  16.600  23.556  1.00  0.00     0.042 C 
ATOM     17  C   UNL A   1      32.390  18.177  22.654  1.00  0.00     0.042 C 
ENDBRANCH  13  14
ENDBRANCH  12  13
ENDBRANCH  11  12
ENDBRANCH   7  11
BRANCH   6  18
ATOM     18  N   UNL A   1      35.021  23.548  25.603  1.00  0.00    -0.331 N 
ATOM     19  H   UNL A   1      34.901  22.569  25.863  1.00  0.00     0.347 HD
ATOM     20  H   UNL A   1      35.093  24.318  26.268  1.00  0.00     0.347 HD
BRANCH  18  21
ATOM     21  C   UNL A   1      36.361  23.617  25.039  1.00  0.00     0.183 C 
ATOM     22  C   UNL A   1      37.649  23.225  25.668  1.00  0.00     0.071 C 
ATOM     23  C   UNL A   1      37.058  22.360  24.592  1.00  0.00     0.071 C 
ENDBRANCH  18  21
ENDBRANCH   6  18
ENDBRANCH   3   6
ENDBRANCH   1   2
BRANCH   1  24
ATOM     24  C   UNL A   1      33.236  28.451  25.034  1.00  0.00     0.023 C 
BRANCH  24  25
ATOM     25  C   UNL A   1      32.204  29.398  25.636  1.00  0.00     0.023 C 
BRANCH  25  26
ATOM     26  C   UNL A   1      32.521  29.933  27.028  1.00  0.00     0.116 C 
BRANCH  26  27
ATOM     27  N   UNL A   1      32.460  31.386  27.172  1.00  0.00    -0.352 N 
ATOM     28  C   UNL A   1      33.481  32.233  27.564  1.00  0.00     0.251 C 
ATOM     29  H   UNL A   1      31.596  31.809  26.967  1.00  0.00     0.163 HD
ATOM     30  O   UNL A   1      33.311  33.443  27.680  1.00  0.00    -0.269 OA
BRANCH  28  31
ATOM     31  C   UNL A   1      34.792  31.636  27.896  1.00  0.00     0.039 A 
ATOM     32  C   UNL A   1      35.903  32.468  28.055  1.00  0.00     0.014 A 
ATOM     33  C   UNL A   1      34.866  30.279  28.213  1.00  0.00     0.014 A 
ATOM     34  C   UNL A   1      37.063  31.957  28.643  1.00  0.00     0.010 A 
ATOM     35  C   UNL A   1      35.982  29.800  28.886  1.00  0.00     0.010 A 
ATOM     36  C   UNL A   1      37.090  30.635  29.119  1.00  0.00    -0.014 A 
BRANCH  36  37
ATOM     37  C   UNL A   1      38.259  30.091  29.858  1.00  0.00     0.031 A 
ATOM     38  C   UNL A   1      38.526  30.556  31.263  1.00  0.00     0.074 A 
ATOM     39  C   UNL A   1      39.124  29.260  29.244  1.00  0.00     0.049 A 
ATOM     40  N   UNL A   1      39.545  30.302  32.043  1.00  0.00    -0.248 NA
ATOM     41  C   UNL A   1      37.532  31.467  31.854  1.00  0.00     0.031 C 
ATOM     42  C   UNL A   1      39.012  28.784  27.864  1.00  0.00     0.029 A 
ATOM     43  N   UNL A   1      40.280  28.674  29.699  1.00  0.00    -0.354 N 
ATOM     44  C   UNL A   1      39.324  31.038  33.199  1.00  0.00     0.074 A 
ATOM     45  C   UNL A   1      38.115  31.804  32.991  1.00  0.00     0.031 C 
ATOM     46  C   UNL A   1      40.036  27.956  27.596  1.00  0.00     0.029 A 
ATOM     47  C   UNL A   1      40.898  27.870  28.770  1.00  0.00     0.049 A 
ATOM     48  H   UNL A   1      40.634  28.817  30.606  1.00  0.00     0.167 HD
ATOM     49  C   UNL A   1      40.043  31.049  34.346  1.00  0.00     0.037 A 
ATOM     50  C   UNL A   1      42.031  27.147  28.860  1.00  0.00     0.037 A 
ATOM     51  C   UNL A   1      41.219  30.251  34.563  1.00  0.00     0.049 A 
ATOM     52  C   UNL A   1      42.807  27.164  30.152  1.00  0.00     0.074 A 
ATOM     53  C   UNL A   1      41.987  30.139  35.708  1.00  0.00     0.029 A 
ATOM     54  N   UNL A   1      41.793  29.422  33.610  1.00  0.00    -0.354 N 
ATOM     55  N   UNL A   1      42.552  27.812  31.262  1.00  0.00    -0.248 NA
ATOM     56  C   UNL A   1      44.025  26.342  30.205  1.00  0.00     0.031 C 
ATOM     57  C   UNL A   1      43.048  29.269  35.436  1.00  0.00     0.029 A 
ATOM     58  C   UNL A   1      42.914  28.803  34.138  1.00  0.00     0.049 A 
ATOM     59  H   UNL A   1      41.454  29.293  32.695  1.00  0.00     0.167 HD
ATOM     60  C   UNL A   1      43.556  27.455  32.153  1.00  0.00     0.074 A 
ATOM     61  C   UNL A   1      44.417  26.522  31.458  1.00  0.00     0.031 C 
ATOM     62  C   UNL A   1      43.748  27.865  33.431  1.00  0.00     0.037 A 
BRANCH  49  63
ATOM     63  C   UNL A   1      39.561  31.938  35.456  1.00  0.00     0.064 A 
ATOM     64  C   UNL A   1      38.625  31.489  36.402  1.00  0.00     0.173 A 
ATOM     65  C   UNL A   1      40.044  33.248  35.584  1.00  0.00     0.173 A 
ATOM     66  F   UNL A   1      38.120  30.249  36.316  1.00  0.00    -0.203 F 
ATOM     67  C   UNL A   1      38.165  32.330  37.411  1.00  0.00     0.198 A 
ATOM     68  C   UNL A   1      39.607  34.076  36.615  1.00  0.00     0.198 A 
ATOM     69  F   UNL A   1      40.942  33.727  34.710  1.00  0.00    -0.203 F 
ATOM     70  F   UNL A   1      37.226  31.898  38.264  1.00  0.00    -0.200 F 
ATOM     71  C   UNL A   1      38.660  33.620  37.521  1.00  0.00     0.200 A 
ATOM     72  F   UNL A   1      40.095  35.319  36.728  1.00  0.00    -0.200 F 
ATOM     73  F   UNL A   1      38.218  34.428  38.495  1.00  0.00    -0.200 F 
ENDBRANCH  49  63
BRANCH  50  74
ATOM     74  C   UNL A   1      42.483  26.312  27.714  1.00  0.00     0.064 A 
ATOM     75  C   UNL A   1      43.453  26.790  26.820  1.00  0.00     0.173 A 
ATOM     76  C   UNL A   1      41.956  25.034  27.479  1.00  0.00     0.173 A 
ATOM     77  F   UNL A   1      43.973  28.015  26.988  1.00  0.00    -0.203 F 
ATOM     78  C   UNL A   1      43.861  26.031  25.724  1.00  0.00     0.198 A 
ATOM     79  C   UNL A   1      42.385  24.265  26.398  1.00  0.00     0.198 A 
ATOM     80  F   UNL A   1      41.028  24.528  28.305  1.00  0.00    -0.203 F 
ATOM     81  F   UNL A   1      44.756  26.532  24.861  1.00  0.00    -0.200 F 
ATOM     82  C   UNL A   1      43.331  24.767  25.518  1.00  0.00     0.200 A 
ATOM     83  F   UNL A   1      41.880  23.039  26.209  1.00  0.00    -0.200 F 
ATOM     84  F   UNL A   1      43.725  24.036  24.466  1.00  0.00    -0.200 F 
ENDBRANCH  50  74
BRANCH  62  85
ATOM     85  C   UNL A   1      44.910  27.277  34.175  1.00  0.00     0.064 A 
ATOM     86  C   UNL A   1      46.162  27.910  34.203  1.00  0.00     0.173 A 
ATOM     87  C   UNL A   1      44.753  26.095  34.914  1.00  0.00     0.173 A 
ATOM     88  F   UNL A   1      46.365  29.035  33.501  1.00  0.00    -0.203 F 
ATOM     89  C   UNL A   1      47.219  27.368  34.928  1.00  0.00     0.198 A 
ATOM     90  C   UNL A   1      45.803  25.573  35.662  1.00  0.00     0.198 A 
ATOM     91  F   UNL A   1      43.573  25.456  34.925  1.00  0.00    -0.203 F 
ATOM     92  F   UNL A   1      48.419  27.966  34.908  1.00  0.00    -0.200 F 
ATOM     93  C   UNL A   1      47.037  26.206  35.664  1.00  0.00     0.200 A 
ATOM     94  F   UNL A   1      45.622  24.458  36.385  1.00  0.00    -0.200 F 
ATOM     95  F   UNL A   1      48.054  25.693  36.371  1.00  0.00    -0.200 F 
ENDBRANCH  62  85
ENDBRANCH  36  37
ENDBRANCH  28  31
ENDBRANCH  26  27
ENDBRANCH  25  26
ENDBRANCH  24  25
ENDBRANCH   1  24
TORSDOF 17
ENDMDL
MODEL 3
REMARK VINA RESULT:     -11.3      6.026     11.506
REMARK SMILES CC(C)(C)OCC[C@@H]1CCC[C@]1([NH2+]C1CC1)C(=O)NCCCCNC(=O)c1ccc(-c2c3nc(c(-c4c(F)c(F)c(F)c(F)c4F)c4ccc([nH]4)c(-c4c(F)c(F)c(F)c(F)c4F)c4nc(c(-c5c(F)c(F)c(F)c(F)c5F)c5ccc2[nH]5)C=C4)C=C3)cc1
REMARK SMILES IDX 20 1 19 2 17 3 18 4 12 6 8 7 9 8 10 9 11 10 7 11 6 12 5 13
REMARK SMILES IDX 2 14 1 15 3 16 4 17 13 18 14 21 15 22 16 23 21 24 22 25
REMARK SMILES IDX 23 26 24 27 25 28 26 30 27 31 28 32 89 33 29 34 88 35 30 36
REMARK SMILES IDX 31 37 32 38 82 39 33 40 87 41 81 42 83 43 34 44 86 45 80 46
REMARK SMILES IDX 79 47 35 49 67 50 47 51 66 52 48 53 51 54 65 55 84 56 49 57
REMARK SMILES IDX 50 58 64 60 85 61 52 62 36 63 37 64 45 65 38 66 39 67 43 68
REMARK SMILES IDX 46 69 40 70 41 71 44 72 42 73 68 74 69 75 77 76 70 77 71 78
REMARK SMILES IDX 75 79 78 80 72 81 73 82 76 83 74 84 53 85 54 86 62 87 55 88
REMARK SMILES IDX 56 89 60 90 63 91 57 92 58 93 61 94 59 95
REMARK H PARENT 19 5 13 19 13 20 24 29 83 48 51 59
REMARK Flexibility Score: inf
ROOT
ATOM      1  C   UNL A   1      36.868  23.239  25.782  1.00  0.00     0.116 C 
ENDROOT
BRANCH   1   2
ATOM      2  N   UNL A   1      35.902  24.259  25.307  1.00  0.00    -0.351 N 
ATOM      3  C   UNL A   1      34.567  24.547  25.356  1.00  0.00     0.281 C 
ATOM      4  O   UNL A   1      34.441  25.758  25.644  1.00  0.00    -0.268 OA
ATOM      5  H   UNL A   1      36.374  24.951  24.789  1.00  0.00     0.163 HD
BRANCH   3   6
ATOM      6  C   UNL A   1      33.213  23.719  24.964  1.00  0.00     0.178 C 
ATOM      7  C   UNL A   1      33.265  22.426  24.070  1.00  0.00     0.063 C 
ATOM      8  C   UNL A   1      33.854  22.952  22.762  1.00  0.00     0.011 C 
ATOM      9  C   UNL A   1      33.054  24.238  22.532  1.00  0.00     0.008 C 
ATOM     10  C   UNL A   1      32.483  24.631  23.902  1.00  0.00     0.079 C 
BRANCH   7  11
ATOM     11  C   UNL A   1      33.714  21.014  24.516  1.00  0.00     0.039 C 
BRANCH  11  12
ATOM     12  C   UNL A   1      32.642  19.967  24.670  1.00  0.00     0.161 C 
BRANCH  12  13
ATOM     13  O   UNL A   1      32.864  18.683  25.228  1.00  0.00    -0.376 OA
BRANCH  13  14
ATOM     14  C   UNL A   1      33.434  17.546  24.572  1.00  0.00     0.060 C 
ATOM     15  C   UNL A   1      32.900  17.638  23.129  1.00  0.00     0.042 C 
ATOM     16  C   UNL A   1      32.894  16.252  25.175  1.00  0.00     0.042 C 
ATOM     17  C   UNL A   1      34.956  17.522  24.382  1.00  0.00     0.042 C 
ENDBRANCH  13  14
ENDBRANCH  12  13
ENDBRANCH  11  12
ENDBRANCH   7  11
BRANCH   6  18
ATOM     18  N   UNL A   1      32.252  23.433  26.045  1.00  0.00    -0.331 N 
ATOM     19  H   UNL A   1      32.391  24.185  26.721  1.00  0.00     0.347 HD
ATOM     20  H   UNL A   1      32.493  22.456  26.212  1.00  0.00     0.347 HD
BRANCH  18  21
ATOM     21  C   UNL A   1      30.808  23.292  25.941  1.00  0.00     0.183 C 
ATOM     22  C   UNL A   1      29.835  22.944  27.009  1.00  0.00     0.071 C 
ATOM     23  C   UNL A   1      29.903  24.356  26.501  1.00  0.00     0.071 C 
ENDBRANCH  18  21
ENDBRANCH   6  18
ENDBRANCH   3   6
ENDBRANCH   1   2
BRANCH   1  24
ATOM     24  C   UNL A   1      37.344  22.242  24.703  1.00  0.00     0.023 C 
BRANCH  24  25
ATOM     25  C   UNL A   1      37.878  20.903  25.201  1.00  0.00     0.023 C 
BRANCH  25  26
ATOM     26  C   UNL A   1      39.265  20.931  25.834  1.00  0.00     0.116 C 
BRANCH  26  27
ATOM     27  N   UNL A   1      39.968  19.650  25.864  1.00  0.00    -0.352 N 
ATOM     28  C   UNL A   1      41.309  19.436  26.125  1.00  0.00     0.251 C 
ATOM     29  H   UNL A   1      39.426  18.850  25.678  1.00  0.00     0.163 HD
ATOM     30  O   UNL A   1      41.804  18.314  26.096  1.00  0.00    -0.269 OA
BRANCH  28  31
ATOM     31  C   UNL A   1      42.162  20.613  26.396  1.00  0.00     0.039 A 
ATOM     32  C   UNL A   1      42.698  21.332  25.325  1.00  0.00     0.014 A 
ATOM     33  C   UNL A   1      42.279  21.087  27.703  1.00  0.00     0.014 A 
ATOM     34  C   UNL A   1      43.255  22.593  25.557  1.00  0.00     0.010 A 
ATOM     35  C   UNL A   1      42.743  22.379  27.916  1.00  0.00     0.010 A 
ATOM     36  C   UNL A   1      43.227  23.151  26.845  1.00  0.00    -0.014 A 
BRANCH  36  37
ATOM     37  C   UNL A   1      43.698  24.535  27.110  1.00  0.00     0.031 A 
ATOM     38  C   UNL A   1      42.728  25.559  27.631  1.00  0.00     0.074 A 
ATOM     39  C   UNL A   1      44.960  24.894  26.802  1.00  0.00     0.049 A 
ATOM     40  N   UNL A   1      42.896  26.843  27.821  1.00  0.00    -0.248 NA
ATOM     41  C   UNL A   1      41.369  25.081  27.937  1.00  0.00     0.031 C 
ATOM     42  C   UNL A   1      45.980  24.011  26.232  1.00  0.00     0.029 A 
ATOM     43  N   UNL A   1      45.600  26.105  26.912  1.00  0.00    -0.354 N 
ATOM     44  C   UNL A   1      41.663  27.323  28.242  1.00  0.00     0.074 A 
ATOM     45  C   UNL A   1      40.739  26.211  28.211  1.00  0.00     0.031 C 
ATOM     46  C   UNL A   1      47.124  24.699  26.075  1.00  0.00     0.029 A 
ATOM     47  C   UNL A   1      46.910  26.080  26.495  1.00  0.00     0.049 A 
ATOM     48  H   UNL A   1      45.161  26.915  27.257  1.00  0.00     0.167 HD
ATOM     49  C   UNL A   1      41.337  28.571  28.654  1.00  0.00     0.037 A 
ATOM     50  C   UNL A   1      47.832  27.063  26.459  1.00  0.00     0.037 A 
ATOM     51  C   UNL A   1      42.270  29.662  28.725  1.00  0.00     0.049 A 
ATOM     52  C   UNL A   1      47.449  28.440  26.935  1.00  0.00     0.074 A 
ATOM     53  C   UNL A   1      42.060  30.949  29.186  1.00  0.00     0.029 A 
ATOM     54  N   UNL A   1      43.597  29.588  28.328  1.00  0.00    -0.354 N 
ATOM     55  N   UNL A   1      46.297  28.866  27.395  1.00  0.00    -0.248 NA
ATOM     56  C   UNL A   1      48.495  29.471  26.894  1.00  0.00     0.031 C 
ATOM     57  C   UNL A   1      43.252  31.665  29.033  1.00  0.00     0.029 A 
ATOM     58  C   UNL A   1      44.217  30.811  28.522  1.00  0.00     0.049 A 
ATOM     59  H   UNL A   1      44.034  28.785  27.963  1.00  0.00     0.167 HD
ATOM     60  C   UNL A   1      46.488  30.202  27.726  1.00  0.00     0.074 A 
ATOM     61  C   UNL A   1      47.871  30.511  27.426  1.00  0.00     0.031 C 
ATOM     62  C   UNL A   1      45.599  31.092  28.230  1.00  0.00     0.037 A 
BRANCH  49  63
ATOM     63  C   UNL A   1      39.916  28.810  29.076  1.00  0.00     0.064 A 
ATOM     64  C   UNL A   1      39.500  28.607  30.401  1.00  0.00     0.173 A 
ATOM     65  C   UNL A   1      38.961  29.257  28.151  1.00  0.00     0.173 A 
ATOM     66  F   UNL A   1      40.370  28.166  31.322  1.00  0.00    -0.203 F 
ATOM     67  C   UNL A   1      38.173  28.806  30.776  1.00  0.00     0.198 A 
ATOM     68  C   UNL A   1      37.642  29.487  28.537  1.00  0.00     0.198 A 
ATOM     69  F   UNL A   1      39.305  29.470  26.872  1.00  0.00    -0.203 F 
ATOM     70  F   UNL A   1      37.789  28.545  32.033  1.00  0.00    -0.200 F 
ATOM     71  C   UNL A   1      37.247  29.252  29.846  1.00  0.00     0.200 A 
ATOM     72  F   UNL A   1      36.751  29.930  27.640  1.00  0.00    -0.200 F 
ATOM     73  F   UNL A   1      35.972  29.446  30.208  1.00  0.00    -0.200 F 
ENDBRANCH  49  63
BRANCH  50  74
ATOM     74  C   UNL A   1      49.216  26.777  25.995  1.00  0.00     0.064 A 
ATOM     75  C   UNL A   1      50.183  26.289  26.887  1.00  0.00     0.173 A 
ATOM     76  C   UNL A   1      49.608  26.991  24.666  1.00  0.00     0.173 A 
ATOM     77  F   UNL A   1      49.865  26.087  28.174  1.00  0.00    -0.203 F 
ATOM     78  C   UNL A   1      51.492  26.047  26.472  1.00  0.00     0.198 A 
ATOM     79  C   UNL A   1      50.910  26.723  24.246  1.00  0.00     0.198 A 
ATOM     80  F   UNL A   1      48.722  27.453  23.771  1.00  0.00    -0.203 F 
ATOM     81  F   UNL A   1      52.405  25.625  27.357  1.00  0.00    -0.200 F 
ATOM     82  C   UNL A   1      51.852  26.259  25.150  1.00  0.00     0.200 A 
ATOM     83  F   UNL A   1      51.251  26.917  22.965  1.00  0.00    -0.200 F 
ATOM     84  F   UNL A   1      53.110  26.025  24.751  1.00  0.00    -0.200 F 
ENDBRANCH  50  74
BRANCH  62  85
ATOM     85  C   UNL A   1      46.101  32.473  28.528  1.00  0.00     0.064 A 
ATOM     86  C   UNL A   1      46.674  32.796  29.767  1.00  0.00     0.173 A 
ATOM     87  C   UNL A   1      46.059  33.470  27.542  1.00  0.00     0.173 A 
ATOM     88  F   UNL A   1      46.725  31.881  30.746  1.00  0.00    -0.203 F 
ATOM     89  C   UNL A   1      47.168  34.075  30.013  1.00  0.00     0.198 A 
ATOM     90  C   UNL A   1      46.580  34.737  27.781  1.00  0.00     0.198 A 
ATOM     91  F   UNL A   1      45.526  33.208  26.338  1.00  0.00    -0.203 F 
ATOM     92  F   UNL A   1      47.674  34.374  31.218  1.00  0.00    -0.200 F 
ATOM     93  C   UNL A   1      47.129  35.041  29.018  1.00  0.00     0.200 A 
ATOM     94  F   UNL A   1      46.555  35.666  26.814  1.00  0.00    -0.200 F 
ATOM     95  F   UNL A   1      47.616  36.267  29.254  1.00  0.00    -0.200 F 
ENDBRANCH  62  85
ENDBRANCH  36  37
ENDBRANCH  28  31
ENDBRANCH  26  27
ENDBRANCH  25  26
ENDBRANCH  24  25
ENDBRANCH   1  24
TORSDOF 17
ENDMDL
