MODEL 1
REMARK VINA RESULT:     -12.9      0.000      0.000
REMARK SMILES Cc1ccc2nc(Cl)c([C@@H]3CC(c4cccs4)=NN3C(=O)CCCC(=O)NCCCCNC(=O)c3ccc(-c4c5nc(c(-c6c(F)c(F)c(F)c(F)c6F)c6ccc([nH]6)c(-c6c(F)c(F)c(F)c(F)c6F)c6nc(c(-c7c(F)c(F)c(F)c(F)c7F)c7ccc4[nH]7)C=C6)C=C5)cc3)cc2c1
REMARK SMILES IDX 28 1 27 2 25 3 26 4 24 6 23 7 22 8 20 9 21 10 19 11 10 12
REMARK SMILES IDX 11 13 12 14 18 15 9 16 1 17 2 18 3 19 100 20 4 21 99 22 5 23
REMARK SMILES IDX 98 24 6 25 7 26 8 27 13 28 14 29 17 30 15 31 16 32 29 33
REMARK SMILES IDX 30 34 31 35 32 36 33 37 34 39 35 40 36 41 97 42 37 43 96 44
REMARK SMILES IDX 38 45 39 46 40 47 90 48 41 49 95 50 89 51 91 52 42 53 94 54
REMARK SMILES IDX 88 55 87 56 43 58 75 59 55 60 74 61 56 62 59 63 73 64 92 65
REMARK SMILES IDX 57 66 58 67 72 69 93 70 60 71 44 72 45 73 53 74 46 75 47 76
REMARK SMILES IDX 51 77 54 78 48 79 49 80 52 81 50 82 76 83 77 84 85 85 78 86
REMARK SMILES IDX 79 87 83 88 86 89 80 90 81 91 84 92 82 93 61 94 62 95 70 96
REMARK SMILES IDX 63 97 64 98 68 99 71 100 65 101 66 102 69 103 67 104
REMARK H PARENT 27 5 32 38 91 57 59 68
REMARK Flexibility Score: inf
ROOT
ATOM      1  C   UNL A   1      30.268  26.662  25.204  1.00  0.00     0.116 C 
ENDROOT
BRANCH   1   2
ATOM      2  N   UNL A   1      30.472  25.711  26.279  1.00  0.00    -0.356 N 
ATOM      3  C   UNL A   1      30.827  24.405  26.315  1.00  0.00     0.220 C 
ATOM      4  O   UNL A   1      31.402  24.028  27.344  1.00  0.00    -0.275 OA
ATOM      5  H   UNL A   1      30.321  26.096  27.172  1.00  0.00     0.163 HD
BRANCH   3   6
ATOM      6  C   UNL A   1      30.674  23.422  25.172  1.00  0.00     0.100 C 
BRANCH   6   7
ATOM      7  C   UNL A   1      30.717  23.897  23.740  1.00  0.00     0.020 C 
BRANCH   7   8
ATOM      8  C   UNL A   1      31.740  23.299  22.800  1.00  0.00     0.103 C 
BRANCH   8   9
ATOM      9  C   UNL A   1      32.281  21.871  22.922  1.00  0.00     0.243 C 
ATOM     10  O   UNL A   1      31.855  21.107  22.032  1.00  0.00    -0.273 OA
BRANCH   9  11
ATOM     11  N   UNL A   1      33.279  21.415  23.799  1.00  0.00    -0.225 N 
ATOM     12  C   UNL A   1      33.749  21.825  25.178  1.00  0.00     0.150 C 
ATOM     13  C   UNL A   1      33.651  20.526  25.992  1.00  0.00     0.092 C 
ATOM     14  C   UNL A   1      33.552  19.535  24.882  1.00  0.00     0.081 C 
ATOM     15  N   UNL A   1      33.417  20.033  23.697  1.00  0.00    -0.173 NA
BRANCH  12  16
ATOM     16  C   UNL A   1      35.136  22.470  25.302  1.00  0.00     0.015 A 
ATOM     17  C   UNL A   1      40.828  20.748  26.993  1.00  0.00     0.044 C 
ATOM     18  C   UNL A   1      39.791  21.726  26.516  1.00  0.00    -0.050 A 
ATOM     19  C   UNL A   1      39.898  23.083  26.817  1.00  0.00     0.005 A 
ATOM     20  C   UNL A   1      38.650  21.271  25.837  1.00  0.00     0.013 A 
ATOM     21  C   UNL A   1      38.863  23.958  26.474  1.00  0.00     0.029 A 
ATOM     22  C   UNL A   1      37.567  22.139  25.583  1.00  0.00     0.001 A 
ATOM     23  C   UNL A   1      37.682  23.501  25.902  1.00  0.00     0.072 A 
ATOM     24  C   UNL A   1      36.291  21.662  25.196  1.00  0.00     0.019 A 
ATOM     25  N   UNL A   1      36.641  24.333  25.795  1.00  0.00    -0.236 NA
ATOM     26  C   UNL A   1      35.410  23.817  25.534  1.00  0.00     0.135 A 
ATOM     27  Cl  UNL A   1      34.240  25.070  25.582  1.00  0.00    -0.062 Cl
ENDBRANCH  12  16
BRANCH  14  28
ATOM     28  C   UNL A   1      33.471  18.122  25.108  1.00  0.00     0.050 A 
ATOM     29  C   UNL A   1      32.514  17.435  25.827  1.00  0.00     0.022 A 
ATOM     30  S   UNL A   1      34.577  17.069  24.342  1.00  0.00    -0.142 S 
ATOM     31  C   UNL A   1      32.667  16.024  25.700  1.00  0.00     0.012 A 
ATOM     32  C   UNL A   1      33.758  15.689  24.929  1.00  0.00     0.065 A 
ENDBRANCH  14  28
ENDBRANCH   9  11
ENDBRANCH   8   9
ENDBRANCH   7   8
ENDBRANCH   6   7
ENDBRANCH   3   6
ENDBRANCH   1   2
BRANCH   1  33
ATOM     33  C   UNL A   1      31.522  27.446  24.821  1.00  0.00     0.023 C 
BRANCH  33  34
ATOM     34  C   UNL A   1      32.198  28.055  26.058  1.00  0.00     0.023 C 
BRANCH  34  35
ATOM     35  C   UNL A   1      33.181  29.188  25.750  1.00  0.00     0.116 C 
BRANCH  35  36
ATOM     36  N   UNL A   1      32.728  30.488  26.198  1.00  0.00    -0.352 N 
ATOM     37  C   UNL A   1      33.328  31.346  27.094  1.00  0.00     0.251 C 
ATOM     38  H   UNL A   1      31.879  30.801  25.811  1.00  0.00     0.163 HD
ATOM     39  O   UNL A   1      32.787  32.394  27.405  1.00  0.00    -0.269 OA
BRANCH  37  40
ATOM     40  C   UNL A   1      34.608  30.964  27.738  1.00  0.00     0.039 A 
ATOM     41  C   UNL A   1      35.583  31.954  27.888  1.00  0.00     0.014 A 
ATOM     42  C   UNL A   1      34.857  29.663  28.186  1.00  0.00     0.014 A 
ATOM     43  C   UNL A   1      36.785  31.657  28.533  1.00  0.00     0.010 A 
ATOM     44  C   UNL A   1      36.039  29.381  28.878  1.00  0.00     0.010 A 
ATOM     45  C   UNL A   1      37.016  30.375  29.058  1.00  0.00    -0.014 A 
BRANCH  45  46
ATOM     46  C   UNL A   1      38.284  30.083  29.781  1.00  0.00     0.031 A 
ATOM     47  C   UNL A   1      38.503  30.598  31.177  1.00  0.00     0.074 A 
ATOM     48  C   UNL A   1      39.245  29.352  29.182  1.00  0.00     0.049 A 
ATOM     49  N   UNL A   1      39.526  30.416  31.977  1.00  0.00    -0.248 NA
ATOM     50  C   UNL A   1      37.441  31.441  31.746  1.00  0.00     0.031 C 
ATOM     51  C   UNL A   1      39.177  28.821  27.820  1.00  0.00     0.029 A 
ATOM     52  N   UNL A   1      40.467  28.925  29.643  1.00  0.00    -0.354 N 
ATOM     53  C   UNL A   1      39.233  31.122  33.135  1.00  0.00     0.074 A 
ATOM     54  C   UNL A   1      37.962  31.780  32.917  1.00  0.00     0.031 C 
ATOM     55  C   UNL A   1      40.291  28.117  27.567  1.00  0.00     0.029 A 
ATOM     56  C   UNL A   1      41.167  28.168  28.734  1.00  0.00     0.049 A 
ATOM     57  H   UNL A   1      40.809  29.140  30.541  1.00  0.00     0.167 HD
ATOM     58  C   UNL A   1      39.944  31.198  34.286  1.00  0.00     0.037 A 
ATOM     59  C   UNL A   1      42.374  27.578  28.832  1.00  0.00     0.037 A 
ATOM     60  C   UNL A   1      41.200  30.531  34.514  1.00  0.00     0.049 A 
ATOM     61  C   UNL A   1      43.149  27.685  30.120  1.00  0.00     0.074 A 
ATOM     62  C   UNL A   1      41.970  30.509  35.664  1.00  0.00     0.029 A 
ATOM     63  N   UNL A   1      41.875  29.773  33.569  1.00  0.00    -0.354 N 
ATOM     64  N   UNL A   1      42.824  28.294  31.234  1.00  0.00    -0.248 NA
ATOM     65  C   UNL A   1      44.454  27.009  30.166  1.00  0.00     0.031 C 
ATOM     66  C   UNL A   1      43.132  29.779  35.401  1.00  0.00     0.029 A 
ATOM     67  C   UNL A   1      43.062  29.298  34.104  1.00  0.00     0.049 A 
ATOM     68  H   UNL A   1      41.557  29.598  32.653  1.00  0.00     0.167 HD
ATOM     69  C   UNL A   1      43.864  28.047  32.121  1.00  0.00     0.074 A 
ATOM     70  C   UNL A   1      44.825  27.222  31.421  1.00  0.00     0.031 C 
ATOM     71  C   UNL A   1      44.006  28.465  33.403  1.00  0.00     0.037 A 
BRANCH  58  72
ATOM     72  C   UNL A   1      39.377  32.036  35.396  1.00  0.00     0.064 A 
ATOM     73  C   UNL A   1      39.632  33.414  35.482  1.00  0.00     0.173 A 
ATOM     74  C   UNL A   1      38.540  31.463  36.365  1.00  0.00     0.173 A 
ATOM     75  F   UNL A   1      40.430  34.010  34.584  1.00  0.00    -0.203 F 
ATOM     76  C   UNL A   1      39.093  34.180  36.513  1.00  0.00     0.198 A 
ATOM     77  C   UNL A   1      37.980  32.237  37.378  1.00  0.00     0.198 A 
ATOM     78  F   UNL A   1      38.257  30.152  36.325  1.00  0.00    -0.203 F 
ATOM     79  F   UNL A   1      39.389  35.484  36.602  1.00  0.00    -0.200 F 
ATOM     80  C   UNL A   1      38.263  33.593  37.456  1.00  0.00     0.200 A 
ATOM     81  F   UNL A   1      37.164  31.672  38.278  1.00  0.00    -0.200 F 
ATOM     82  F   UNL A   1      37.740  34.332  38.444  1.00  0.00    -0.200 F 
ENDBRANCH  58  72
BRANCH  59  83
ATOM     83  C   UNL A   1      42.919  26.803  27.686  1.00  0.00     0.064 A 
ATOM     84  C   UNL A   1      42.746  25.414  27.605  1.00  0.00     0.173 A 
ATOM     85  C   UNL A   1      43.638  27.430  26.659  1.00  0.00     0.173 A 
ATOM     86  F   UNL A   1      42.085  24.765  28.575  1.00  0.00    -0.203 F 
ATOM     87  C   UNL A   1      43.292  24.679  26.554  1.00  0.00     0.198 A 
ATOM     88  C   UNL A   1      44.159  26.699  25.593  1.00  0.00     0.198 A 
ATOM     89  F   UNL A   1      43.830  28.758  26.686  1.00  0.00    -0.203 F 
ATOM     90  F   UNL A   1      43.156  23.346  26.530  1.00  0.00    -0.200 F 
ATOM     91  C   UNL A   1      43.994  25.323  25.547  1.00  0.00     0.200 A 
ATOM     92  F   UNL A   1      44.824  27.326  24.614  1.00  0.00    -0.200 F 
ATOM     93  F   UNL A   1      44.517  24.617  24.536  1.00  0.00    -0.200 F 
ENDBRANCH  59  83
BRANCH  71  94
ATOM     94  C   UNL A   1      45.224  28.002  34.151  1.00  0.00     0.064 A 
ATOM     95  C   UNL A   1      46.412  28.747  34.165  1.00  0.00     0.173 A 
ATOM     96  C   UNL A   1      45.187  26.811  34.894  1.00  0.00     0.173 A 
ATOM     97  F   UNL A   1      46.504  29.884  33.459  1.00  0.00    -0.203 F 
ATOM     98  C   UNL A   1      47.527  28.303  34.873  1.00  0.00     0.198 A 
ATOM     99  C   UNL A   1      46.293  26.387  35.625  1.00  0.00     0.198 A 
ATOM    100  F   UNL A   1      44.074  26.065  34.920  1.00  0.00    -0.203 F 
ATOM    101  F   UNL A   1      48.668  29.006  34.831  1.00  0.00    -0.200 F 
ATOM    102  C   UNL A   1      47.465  27.129  35.607  1.00  0.00     0.200 A 
ATOM    103  F   UNL A   1      46.227  25.259  36.346  1.00  0.00    -0.200 F 
ATOM    104  F   UNL A   1      48.536  26.708  36.292  1.00  0.00    -0.200 F 
ENDBRANCH  71  94
ENDBRANCH  45  46
ENDBRANCH  37  40
ENDBRANCH  35  36
ENDBRANCH  34  35
ENDBRANCH  33  34
ENDBRANCH   1  33
TORSDOF 17
ENDMDL
MODEL 2
REMARK VINA RESULT:     -12.8      1.062      2.240
REMARK SMILES Cc1ccc2nc(Cl)c([C@@H]3CC(c4cccs4)=NN3C(=O)CCCC(=O)NCCCCNC(=O)c3ccc(-c4c5nc(c(-c6c(F)c(F)c(F)c(F)c6F)c6ccc([nH]6)c(-c6c(F)c(F)c(F)c(F)c6F)c6nc(c(-c7c(F)c(F)c(F)c(F)c7F)c7ccc4[nH]7)C=C6)C=C5)cc3)cc2c1
REMARK SMILES IDX 28 1 27 2 25 3 26 4 24 6 23 7 22 8 20 9 21 10 19 11 10 12
REMARK SMILES IDX 11 13 12 14 18 15 9 16 1 17 2 18 3 19 100 20 4 21 99 22 5 23
REMARK SMILES IDX 98 24 6 25 7 26 8 27 13 28 14 29 17 30 15 31 16 32 29 33
REMARK SMILES IDX 30 34 31 35 32 36 33 37 34 39 35 40 36 41 97 42 37 43 96 44
REMARK SMILES IDX 38 45 39 46 40 47 90 48 41 49 95 50 89 51 91 52 42 53 94 54
REMARK SMILES IDX 88 55 87 56 43 58 75 59 55 60 74 61 56 62 59 63 73 64 92 65
REMARK SMILES IDX 57 66 58 67 72 69 93 70 60 71 44 72 45 73 53 74 46 75 47 76
REMARK SMILES IDX 51 77 54 78 48 79 49 80 52 81 50 82 76 83 77 84 85 85 78 86
REMARK SMILES IDX 79 87 83 88 86 89 80 90 81 91 84 92 82 93 61 94 62 95 70 96
REMARK SMILES IDX 63 97 64 98 68 99 71 100 65 101 66 102 69 103 67 104
REMARK H PARENT 27 5 32 38 91 57 59 68
REMARK Flexibility Score: inf
ROOT
ATOM      1  C   UNL A   1      33.580  28.165  22.286  1.00  0.00     0.116 C 
ENDROOT
BRANCH   1   2
ATOM      2  N   UNL A   1      32.150  28.024  22.085  1.00  0.00    -0.356 N 
ATOM      3  C   UNL A   1      31.255  27.058  22.395  1.00  0.00     0.220 C 
ATOM      4  O   UNL A   1      30.088  27.433  22.561  1.00  0.00    -0.275 OA
ATOM      5  H   UNL A   1      31.745  28.795  21.627  1.00  0.00     0.163 HD
BRANCH   3   6
ATOM      6  C   UNL A   1      31.589  25.602  22.656  1.00  0.00     0.100 C 
BRANCH   6   7
ATOM      7  C   UNL A   1      30.530  24.649  23.152  1.00  0.00     0.020 C 
BRANCH   7   8
ATOM      8  C   UNL A   1      30.948  23.457  23.985  1.00  0.00     0.103 C 
BRANCH   8   9
ATOM      9  C   UNL A   1      31.780  22.289  23.448  1.00  0.00     0.243 C 
ATOM     10  O   UNL A   1      31.452  21.940  22.296  1.00  0.00    -0.273 OA
BRANCH   9  11
ATOM     11  N   UNL A   1      32.917  21.714  24.041  1.00  0.00    -0.225 N 
ATOM     12  C   UNL A   1      33.585  21.835  25.394  1.00  0.00     0.150 C 
ATOM     13  C   UNL A   1      33.656  20.384  25.891  1.00  0.00     0.092 C 
ATOM     14  C   UNL A   1      33.415  19.662  24.608  1.00  0.00     0.081 C 
ATOM     15  N   UNL A   1      33.080  20.403  23.603  1.00  0.00    -0.173 NA
BRANCH  12  16
ATOM     16  C   UNL A   1      34.953  22.527  25.460  1.00  0.00     0.015 A 
ATOM     17  C   UNL A   1      40.759  21.008  26.950  1.00  0.00     0.044 C 
ATOM     18  C   UNL A   1      39.672  21.946  26.504  1.00  0.00    -0.050 A 
ATOM     19  C   UNL A   1      39.746  23.309  26.789  1.00  0.00     0.005 A 
ATOM     20  C   UNL A   1      38.523  21.448  25.872  1.00  0.00     0.013 A 
ATOM     21  C   UNL A   1      38.671  24.146  26.479  1.00  0.00     0.029 A 
ATOM     22  C   UNL A   1      37.403  22.277  25.653  1.00  0.00     0.001 A 
ATOM     23  C   UNL A   1      37.485  23.645  25.955  1.00  0.00     0.072 A 
ATOM     24  C   UNL A   1      36.130  21.756  25.317  1.00  0.00     0.019 A 
ATOM     25  N   UNL A   1      36.414  24.442  25.880  1.00  0.00    -0.236 NA
ATOM     26  C   UNL A   1      35.191  23.884  25.670  1.00  0.00     0.135 A 
ATOM     27  Cl  UNL A   1      33.983  25.098  25.753  1.00  0.00    -0.062 Cl
ENDBRANCH  12  16
BRANCH  14  28
ATOM     28  C   UNL A   1      33.414  18.232  24.510  1.00  0.00     0.050 A 
ATOM     29  C   UNL A   1      34.036  17.451  23.558  1.00  0.00     0.022 A 
ATOM     30  S   UNL A   1      32.685  17.292  25.736  1.00  0.00    -0.142 S 
ATOM     31  C   UNL A   1      33.953  16.063  23.873  1.00  0.00     0.012 A 
ATOM     32  C   UNL A   1      33.234  15.837  25.025  1.00  0.00     0.065 A 
ENDBRANCH  14  28
ENDBRANCH   9  11
ENDBRANCH   8   9
ENDBRANCH   7   8
ENDBRANCH   6   7
ENDBRANCH   3   6
ENDBRANCH   1   2
BRANCH   1  33
ATOM     33  C   UNL A   1      33.982  28.423  23.737  1.00  0.00     0.023 C 
BRANCH  33  34
ATOM     34  C   UNL A   1      32.891  29.202  24.487  1.00  0.00     0.023 C 
BRANCH  34  35
ATOM     35  C   UNL A   1      33.220  29.501  25.952  1.00  0.00     0.116 C 
BRANCH  35  36
ATOM     36  N   UNL A   1      32.852  30.838  26.369  1.00  0.00    -0.352 N 
ATOM     37  C   UNL A   1      33.499  31.673  27.253  1.00  0.00     0.251 C 
ATOM     38  H   UNL A   1      32.028  31.198  25.967  1.00  0.00     0.163 HD
ATOM     39  O   UNL A   1      33.027  32.761  27.536  1.00  0.00    -0.269 OA
BRANCH  37  40
ATOM     40  C   UNL A   1      34.745  31.220  27.919  1.00  0.00     0.039 A 
ATOM     41  C   UNL A   1      35.794  32.137  28.031  1.00  0.00     0.014 A 
ATOM     42  C   UNL A   1      34.892  29.923  28.422  1.00  0.00     0.014 A 
ATOM     43  C   UNL A   1      36.968  31.774  28.693  1.00  0.00     0.010 A 
ATOM     44  C   UNL A   1      36.047  29.580  29.131  1.00  0.00     0.010 A 
ATOM     45  C   UNL A   1      37.098  30.502  29.273  1.00  0.00    -0.014 A 
BRANCH  45  46
ATOM     46  C   UNL A   1      38.339  30.143  30.014  1.00  0.00     0.031 A 
ATOM     47  C   UNL A   1      38.543  30.606  31.430  1.00  0.00     0.074 A 
ATOM     48  C   UNL A   1      39.287  29.399  29.412  1.00  0.00     0.049 A 
ATOM     49  N   UNL A   1      39.541  30.363  32.245  1.00  0.00    -0.248 NA
ATOM     50  C   UNL A   1      37.499  31.467  32.003  1.00  0.00     0.031 C 
ATOM     51  C   UNL A   1      39.232  28.914  28.033  1.00  0.00     0.029 A 
ATOM     52  N   UNL A   1      40.483  28.914  29.886  1.00  0.00    -0.354 N 
ATOM     53  C   UNL A   1      39.246  31.042  33.419  1.00  0.00     0.074 A 
ATOM     54  C   UNL A   1      38.004  31.750  33.195  1.00  0.00     0.031 C 
ATOM     55  C   UNL A   1      40.327  28.180  27.780  1.00  0.00     0.029 A 
ATOM     56  C   UNL A   1      41.177  28.163  28.968  1.00  0.00     0.049 A 
ATOM     57  H   UNL A   1      40.812  29.089  30.797  1.00  0.00     0.167 HD
ATOM     58  C   UNL A   1      39.933  31.057  34.587  1.00  0.00     0.037 A 
ATOM     59  C   UNL A   1      42.361  27.528  29.073  1.00  0.00     0.037 A 
ATOM     60  C   UNL A   1      41.160  30.340  34.820  1.00  0.00     0.049 A 
ATOM     61  C   UNL A   1      43.109  27.567  30.379  1.00  0.00     0.074 A 
ATOM     62  C   UNL A   1      41.903  30.254  35.985  1.00  0.00     0.029 A 
ATOM     63  N   UNL A   1      41.830  29.588  33.866  1.00  0.00    -0.354 N 
ATOM     64  N   UNL A   1      42.780  28.151  31.505  1.00  0.00    -0.248 NA
ATOM     65  C   UNL A   1      44.389  26.845  30.432  1.00  0.00     0.031 C 
ATOM     66  C   UNL A   1      43.045  29.492  35.724  1.00  0.00     0.029 A 
ATOM     67  C   UNL A   1      42.988  29.055  34.410  1.00  0.00     0.049 A 
ATOM     68  H   UNL A   1      41.528  29.454  32.939  1.00  0.00     0.167 HD
ATOM     69  C   UNL A   1      43.791  27.840  32.406  1.00  0.00     0.074 A 
ATOM     70  C   UNL A   1      44.739  27.005  31.700  1.00  0.00     0.031 C 
ATOM     71  C   UNL A   1      43.918  28.212  33.704  1.00  0.00     0.037 A 
BRANCH  58  72
ATOM     72  C   UNL A   1      39.371  31.878  35.711  1.00  0.00     0.064 A 
ATOM     73  C   UNL A   1      38.440  31.346  36.617  1.00  0.00     0.173 A 
ATOM     74  C   UNL A   1      39.795  33.201  35.909  1.00  0.00     0.173 A 
ATOM     75  F   UNL A   1      37.997  30.089  36.470  1.00  0.00    -0.203 F 
ATOM     76  C   UNL A   1      37.933  32.117  37.660  1.00  0.00     0.198 A 
ATOM     77  C   UNL A   1      39.307  33.960  36.970  1.00  0.00     0.198 A 
ATOM     78  F   UNL A   1      40.689  33.756  35.077  1.00  0.00    -0.203 F 
ATOM     79  F   UNL A   1      37.009  31.603  38.484  1.00  0.00    -0.200 F 
ATOM     80  C   UNL A   1      38.371  33.420  37.839  1.00  0.00     0.200 A 
ATOM     81  F   UNL A   1      39.744  35.213  37.152  1.00  0.00    -0.200 F 
ATOM     82  F   UNL A   1      37.887  34.159  38.848  1.00  0.00    -0.200 F 
ENDBRANCH  58  72
BRANCH  59  83
ATOM     83  C   UNL A   1      42.905  26.771  27.913  1.00  0.00     0.064 A 
ATOM     84  C   UNL A   1      43.637  27.416  26.908  1.00  0.00     0.173 A 
ATOM     85  C   UNL A   1      42.686  25.392  27.778  1.00  0.00     0.173 A 
ATOM     86  F   UNL A   1      43.853  28.737  26.980  1.00  0.00    -0.203 F 
ATOM     87  C   UNL A   1      44.110  26.716  25.799  1.00  0.00     0.198 A 
ATOM     88  C   UNL A   1      43.184  24.688  26.684  1.00  0.00     0.198 A 
ATOM     89  F   UNL A   1      41.993  24.726  28.714  1.00  0.00    -0.203 F 
ATOM     90  F   UNL A   1      44.763  27.368  24.827  1.00  0.00    -0.200 F 
ATOM     91  C   UNL A   1      43.888  25.352  25.691  1.00  0.00     0.200 A 
ATOM     92  F   UNL A   1      42.979  23.367  26.590  1.00  0.00    -0.200 F 
ATOM     93  F   UNL A   1      44.344  24.679  24.626  1.00  0.00    -0.200 F 
ENDBRANCH  59  83
BRANCH  71  94
ATOM     94  C   UNL A   1      45.102  27.684  34.462  1.00  0.00     0.064 A 
ATOM     95  C   UNL A   1      45.060  26.456  35.139  1.00  0.00     0.173 A 
ATOM     96  C   UNL A   1      46.309  28.401  34.479  1.00  0.00     0.173 A 
ATOM     97  F   UNL A   1      43.927  25.738  35.166  1.00  0.00    -0.203 F 
ATOM     98  C   UNL A   1      46.173  25.980  35.828  1.00  0.00     0.198 A 
ATOM     99  C   UNL A   1      47.428  27.908  35.144  1.00  0.00     0.198 A 
ATOM    100  F   UNL A   1      46.405  29.577  33.843  1.00  0.00    -0.203 F 
ATOM    101  F   UNL A   1      46.094  24.828  36.511  1.00  0.00    -0.200 F 
ATOM    102  C   UNL A   1      47.357  26.702  35.825  1.00  0.00     0.200 A 
ATOM    103  F   UNL A   1      48.576  28.599  35.127  1.00  0.00    -0.200 F 
ATOM    104  F   UNL A   1      48.428  26.239  36.483  1.00  0.00    -0.200 F 
ENDBRANCH  71  94
ENDBRANCH  45  46
ENDBRANCH  37  40
ENDBRANCH  35  36
ENDBRANCH  34  35
ENDBRANCH  33  34
ENDBRANCH   1  33
TORSDOF 17
ENDMDL
MODEL 3
REMARK VINA RESULT:     -12.6      1.393      3.642
REMARK SMILES Cc1ccc2nc(Cl)c([C@@H]3CC(c4cccs4)=NN3C(=O)CCCC(=O)NCCCCNC(=O)c3ccc(-c4c5nc(c(-c6c(F)c(F)c(F)c(F)c6F)c6ccc([nH]6)c(-c6c(F)c(F)c(F)c(F)c6F)c6nc(c(-c7c(F)c(F)c(F)c(F)c7F)c7ccc4[nH]7)C=C6)C=C5)cc3)cc2c1
REMARK SMILES IDX 28 1 27 2 25 3 26 4 24 6 23 7 22 8 20 9 21 10 19 11 10 12
REMARK SMILES IDX 11 13 12 14 18 15 9 16 1 17 2 18 3 19 100 20 4 21 99 22 5 23
REMARK SMILES IDX 98 24 6 25 7 26 8 27 13 28 14 29 17 30 15 31 16 32 29 33
REMARK SMILES IDX 30 34 31 35 32 36 33 37 34 39 35 40 36 41 97 42 37 43 96 44
REMARK SMILES IDX 38 45 39 46 40 47 90 48 41 49 95 50 89 51 91 52 42 53 94 54
REMARK SMILES IDX 88 55 87 56 43 58 75 59 55 60 74 61 56 62 59 63 73 64 92 65
REMARK SMILES IDX 57 66 58 67 72 69 93 70 60 71 44 72 45 73 53 74 46 75 47 76
REMARK SMILES IDX 51 77 54 78 48 79 49 80 52 81 50 82 76 83 77 84 85 85 78 86
REMARK SMILES IDX 79 87 83 88 86 89 80 90 81 91 84 92 82 93 61 94 62 95 70 96
REMARK SMILES IDX 63 97 64 98 68 99 71 100 65 101 66 102 69 103 67 104
REMARK H PARENT 27 5 32 38 91 57 59 68
REMARK Flexibility Score: inf
ROOT
ATOM      1  C   UNL A   1      30.980  28.675  23.233  1.00  0.00     0.116 C 
ENDROOT
BRANCH   1   2
ATOM      2  N   UNL A   1      30.409  27.345  23.332  1.00  0.00    -0.356 N 
ATOM      3  C   UNL A   1      30.894  26.102  23.105  1.00  0.00     0.220 C 
ATOM      4  O   UNL A   1      30.364  25.187  23.748  1.00  0.00    -0.275 OA
ATOM      5  H   UNL A   1      29.471  27.347  23.627  1.00  0.00     0.163 HD
BRANCH   3   6
ATOM      6  C   UNL A   1      32.084  25.771  22.225  1.00  0.00     0.100 C 
BRANCH   6   7
ATOM      7  C   UNL A   1      33.489  26.059  22.694  1.00  0.00     0.020 C 
BRANCH   7   8
ATOM      8  C   UNL A   1      33.748  26.218  24.177  1.00  0.00     0.103 C 
BRANCH   8   9
ATOM      9  C   UNL A   1      33.682  25.066  25.184  1.00  0.00     0.243 C 
ATOM     10  O   UNL A   1      32.835  25.246  26.082  1.00  0.00    -0.273 OA
BRANCH   9  11
ATOM     11  N   UNL A   1      34.339  23.826  25.099  1.00  0.00    -0.225 N 
ATOM     12  C   UNL A   1      34.616  22.846  23.980  1.00  0.00     0.150 C 
ATOM     13  C   UNL A   1      36.141  22.675  24.020  1.00  0.00     0.092 C 
ATOM     14  C   UNL A   1      36.426  23.234  25.374  1.00  0.00     0.081 C 
ATOM     15  N   UNL A   1      35.424  23.794  25.969  1.00  0.00    -0.173 NA
BRANCH  12  16
ATOM     16  C   UNL A   1      33.891  21.493  24.014  1.00  0.00     0.015 A 
ATOM     17  C   UNL A   1      35.347  15.570  25.031  1.00  0.00     0.044 C 
ATOM     18  C   UNL A   1      34.414  16.702  24.703  1.00  0.00    -0.050 A 
ATOM     19  C   UNL A   1      33.296  16.495  23.896  1.00  0.00     0.005 A 
ATOM     20  C   UNL A   1      34.705  18.006  25.134  1.00  0.00     0.013 A 
ATOM     21  C   UNL A   1      32.510  17.581  23.500  1.00  0.00     0.029 A 
ATOM     22  C   UNL A   1      33.969  19.108  24.650  1.00  0.00     0.001 A 
ATOM     23  C   UNL A   1      32.853  18.887  23.828  1.00  0.00     0.072 A 
ATOM     24  C   UNL A   1      34.418  20.442  24.801  1.00  0.00     0.019 A 
ATOM     25  N   UNL A   1      32.202  19.900  23.247  1.00  0.00    -0.236 NA
ATOM     26  C   UNL A   1      32.731  21.151  23.320  1.00  0.00     0.135 A 
ATOM     27  Cl  UNL A   1      31.783  22.232  22.388  1.00  0.00    -0.062 Cl
ENDBRANCH  12  16
BRANCH  14  28
ATOM     28  C   UNL A   1      37.744  23.279  25.934  1.00  0.00     0.050 A 
ATOM     29  C   UNL A   1      38.334  24.318  26.624  1.00  0.00     0.022 A 
ATOM     30  S   UNL A   1      38.736  21.888  25.897  1.00  0.00    -0.142 S 
ATOM     31  C   UNL A   1      39.595  23.943  27.171  1.00  0.00     0.012 A 
ATOM     32  C   UNL A   1      39.939  22.652  26.840  1.00  0.00     0.065 A 
ENDBRANCH  14  28
ENDBRANCH   9  11
ENDBRANCH   8   9
ENDBRANCH   7   8
ENDBRANCH   6   7
ENDBRANCH   3   6
ENDBRANCH   1   2
BRANCH   1  33
ATOM     33  C   UNL A   1      30.991  29.447  24.551  1.00  0.00     0.023 C 
BRANCH  33  34
ATOM     34  C   UNL A   1      31.831  28.723  25.614  1.00  0.00     0.023 C 
BRANCH  34  35
ATOM     35  C   UNL A   1      33.028  29.526  26.130  1.00  0.00     0.116 C 
BRANCH  35  36
ATOM     36  N   UNL A   1      32.707  30.899  26.461  1.00  0.00    -0.352 N 
ATOM     37  C   UNL A   1      33.407  31.778  27.258  1.00  0.00     0.251 C 
ATOM     38  H   UNL A   1      31.877  31.250  26.065  1.00  0.00     0.163 HD
ATOM     39  O   UNL A   1      32.971  32.895  27.478  1.00  0.00    -0.269 OA
BRANCH  37  40
ATOM     40  C   UNL A   1      34.667  31.343  27.908  1.00  0.00     0.039 A 
ATOM     41  C   UNL A   1      35.693  32.283  28.036  1.00  0.00     0.014 A 
ATOM     42  C   UNL A   1      34.849  30.039  28.381  1.00  0.00     0.014 A 
ATOM     43  C   UNL A   1      36.879  31.936  28.685  1.00  0.00     0.010 A 
ATOM     44  C   UNL A   1      36.016  29.710  29.077  1.00  0.00     0.010 A 
ATOM     45  C   UNL A   1      37.044  30.654  29.236  1.00  0.00    -0.014 A 
BRANCH  45  46
ATOM     46  C   UNL A   1      38.297  30.311  29.963  1.00  0.00     0.031 A 
ATOM     47  C   UNL A   1      38.516  30.786  31.373  1.00  0.00     0.074 A 
ATOM     48  C   UNL A   1      39.243  29.569  29.355  1.00  0.00     0.049 A 
ATOM     49  N   UNL A   1      39.527  30.558  32.176  1.00  0.00    -0.248 NA
ATOM     50  C   UNL A   1      37.472  31.644  31.952  1.00  0.00     0.031 C 
ATOM     51  C   UNL A   1      39.174  29.073  27.980  1.00  0.00     0.029 A 
ATOM     52  N   UNL A   1      40.449  29.097  29.816  1.00  0.00    -0.354 N 
ATOM     53  C   UNL A   1      39.241  31.244  33.349  1.00  0.00     0.074 A 
ATOM     54  C   UNL A   1      37.990  31.940  33.135  1.00  0.00     0.031 C 
ATOM     55  C   UNL A   1      40.271  28.345  27.719  1.00  0.00     0.029 A 
ATOM     56  C   UNL A   1      41.137  28.344  28.895  1.00  0.00     0.049 A 
ATOM     57  H   UNL A   1      40.788  29.282  30.722  1.00  0.00     0.167 HD
ATOM     58  C   UNL A   1      39.943  31.273  34.507  1.00  0.00     0.037 A 
ATOM     59  C   UNL A   1      42.327  27.719  28.990  1.00  0.00     0.037 A 
ATOM     60  C   UNL A   1      41.179  30.567  34.731  1.00  0.00     0.049 A 
ATOM     61  C   UNL A   1      43.091  27.774  30.286  1.00  0.00     0.074 A 
ATOM     62  C   UNL A   1      41.937  30.496  35.887  1.00  0.00     0.029 A 
ATOM     63  N   UNL A   1      41.842  29.813  33.774  1.00  0.00    -0.354 N 
ATOM     64  N   UNL A   1      42.773  28.365  31.412  1.00  0.00    -0.248 NA
ATOM     65  C   UNL A   1      44.377  27.062  30.328  1.00  0.00     0.031 C 
ATOM     66  C   UNL A   1      43.081  29.741  35.616  1.00  0.00     0.029 A 
ATOM     67  C   UNL A   1      43.011  29.293  34.307  1.00  0.00     0.049 A 
ATOM     68  H   UNL A   1      41.528  29.669  32.851  1.00  0.00     0.167 HD
ATOM     69  C   UNL A   1      43.797  28.068  32.302  1.00  0.00     0.074 A 
ATOM     70  C   UNL A   1      44.742  27.235  31.591  1.00  0.00     0.031 C 
ATOM     71  C   UNL A   1      43.938  28.452  33.595  1.00  0.00     0.037 A 
BRANCH  58  72
ATOM     72  C   UNL A   1      39.389  32.099  35.633  1.00  0.00     0.064 A 
ATOM     73  C   UNL A   1      38.502  31.556  36.576  1.00  0.00     0.173 A 
ATOM     74  C   UNL A   1      39.777  33.438  35.792  1.00  0.00     0.173 A 
ATOM     75  F   UNL A   1      38.094  30.284  36.466  1.00  0.00    -0.203 F 
ATOM     76  C   UNL A   1      38.002  32.332  37.619  1.00  0.00     0.198 A 
ATOM     77  C   UNL A   1      39.298  34.202  36.853  1.00  0.00     0.198 A 
ATOM     78  F   UNL A   1      40.629  34.003  34.924  1.00  0.00    -0.203 F 
ATOM     79  F   UNL A   1      37.119  31.806  38.480  1.00  0.00    -0.200 F 
ATOM     80  C   UNL A   1      38.405  33.651  37.761  1.00  0.00     0.200 A 
ATOM     81  F   UNL A   1      39.702  35.471  36.999  1.00  0.00    -0.200 F 
ATOM     82  F   UNL A   1      37.928  34.395  38.769  1.00  0.00    -0.200 F 
ENDBRANCH  58  72
BRANCH  59  83
ATOM     83  C   UNL A   1      42.861  26.957  27.830  1.00  0.00     0.064 A 
ATOM     84  C   UNL A   1      42.737  25.562  27.763  1.00  0.00     0.173 A 
ATOM     85  C   UNL A   1      43.522  27.604  26.776  1.00  0.00     0.173 A 
ATOM     86  F   UNL A   1      42.134  24.896  28.758  1.00  0.00    -0.203 F 
ATOM     87  C   UNL A   1      43.275  24.841  26.698  1.00  0.00     0.198 A 
ATOM     88  C   UNL A   1      44.033  26.885  25.697  1.00  0.00     0.198 A 
ATOM     89  F   UNL A   1      43.665  28.938  26.789  1.00  0.00    -0.203 F 
ATOM     90  F   UNL A   1      43.187  23.504  26.685  1.00  0.00    -0.200 F 
ATOM     91  C   UNL A   1      43.918  25.504  25.664  1.00  0.00     0.200 A 
ATOM     92  F   UNL A   1      44.642  27.530  24.693  1.00  0.00    -0.200 F 
ATOM     93  F   UNL A   1      44.433  24.811  24.640  1.00  0.00    -0.200 F 
ENDBRANCH  59  83
BRANCH  71  94
ATOM     94  C   UNL A   1      45.136  27.938  34.342  1.00  0.00     0.064 A 
ATOM     95  C   UNL A   1      45.113  26.714  35.027  1.00  0.00     0.173 A 
ATOM     96  C   UNL A   1      46.337  28.666  34.340  1.00  0.00     0.173 A 
ATOM     97  F   UNL A   1      43.987  25.987  35.072  1.00  0.00    -0.203 F 
ATOM     98  C   UNL A   1      46.239  26.252  35.705  1.00  0.00     0.198 A 
ATOM     99  C   UNL A   1      47.468  28.187  34.994  1.00  0.00     0.198 A 
ATOM    100  F   UNL A   1      46.414  29.839  33.695  1.00  0.00    -0.203 F 
ATOM    101  F   UNL A   1      46.178  25.104  36.396  1.00  0.00    -0.200 F 
ATOM    102  C   UNL A   1      47.416  26.984  35.683  1.00  0.00     0.200 A 
ATOM    103  F   UNL A   1      48.609  28.888  34.959  1.00  0.00    -0.200 F 
ATOM    104  F   UNL A   1      48.499  26.535  36.331  1.00  0.00    -0.200 F 
ENDBRANCH  71  94
ENDBRANCH  45  46
ENDBRANCH  37  40
ENDBRANCH  35  36
ENDBRANCH  34  35
ENDBRANCH  33  34
ENDBRANCH   1  33
TORSDOF 17
ENDMDL
