MODEL 1
REMARK VINA RESULT:     -11.7      0.000      0.000
REMARK SMILES CC[NH2+][C@H](CC(=O)Nc1cc(C)cc(C)c1)C(=O)NCCCCNC(=O)c1ccc(-c2c3nc(c(-c4c(F)c(F)c(F)c(F)c4F)c4ccc([nH]4)c(-c4c(F)c(F)c(F)c(F)c4F)c4nc(c(-c5c(F)c(F)c(F)c(F)c5F)c5ccc2[nH]5)C=C4)C=C3)cc1
REMARK SMILES IDX 21 1 20 2 19 3 17 4 18 5 4 7 3 8 2 11 1 12 5 13 6 14 7 15
REMARK SMILES IDX 8 16 9 18 10 19 16 20 11 21 14 22 12 23 13 24 15 25 22 26
REMARK SMILES IDX 23 27 24 28 25 29 26 31 27 32 28 33 89 34 29 35 88 36 30 37
REMARK SMILES IDX 31 38 32 39 82 40 33 41 87 42 81 43 83 44 34 45 86 46 80 47
REMARK SMILES IDX 79 48 35 50 67 51 47 52 66 53 48 54 51 55 65 56 84 57 49 58
REMARK SMILES IDX 50 59 64 61 85 62 52 63 36 64 37 65 45 66 38 67 39 68 43 69
REMARK SMILES IDX 46 70 40 71 41 72 44 73 42 74 68 75 69 76 77 77 70 78 71 79
REMARK SMILES IDX 75 80 78 81 72 82 73 83 76 84 74 85 53 86 54 87 62 88 55 89
REMARK SMILES IDX 56 90 60 91 63 92 57 93 58 94 61 95 59 96
REMARK H PARENT 19 6 3 9 3 10 8 17 24 30 83 49 51 60
REMARK Flexibility Score: inf
ROOT
ATOM      1  C   UNL A   1      36.616  20.964  25.379  1.00  0.00     0.023 C 
ENDROOT
BRANCH   1   2
ATOM      2  C   UNL A   1      36.523  22.481  25.439  1.00  0.00     0.116 C 
BRANCH   2   3
ATOM      3  N   UNL A   1      36.039  23.082  24.220  1.00  0.00    -0.351 N 
ATOM      4  C   UNL A   1      34.760  23.457  23.935  1.00  0.00     0.278 C 
ATOM      5  O   UNL A   1      34.551  24.055  22.874  1.00  0.00    -0.268 OA
ATOM      6  H   UNL A   1      36.707  23.239  23.515  1.00  0.00     0.163 HD
BRANCH   4   7
ATOM      7  C   UNL A   1      33.603  23.123  24.896  1.00  0.00     0.281 C 
BRANCH   7   8
ATOM      8  N   UNL A   1      32.582  22.290  24.210  1.00  0.00    -0.336 N 
ATOM      9  H   UNL A   1      31.725  22.354  24.759  1.00  0.00     0.346 HD
ATOM     10  H   UNL A   1      32.543  22.674  23.266  1.00  0.00     0.346 HD
BRANCH   8  11
ATOM     11  C   UNL A   1      32.858  20.880  24.007  1.00  0.00     0.257 C 
ATOM     12  C   UNL A   1      33.010  20.221  25.373  1.00  0.00     0.071 C 
ENDBRANCH   8  11
ENDBRANCH   7   8
BRANCH   7  13
ATOM     13  C   UNL A   1      33.204  24.272  25.829  1.00  0.00     0.175 C 
BRANCH  13  14
ATOM     14  C   UNL A   1      31.914  24.058  26.627  1.00  0.00     0.230 C 
ATOM     15  O   UNL A   1      31.700  22.982  27.192  1.00  0.00    -0.274 OA
ATOM     16  N   UNL A   1      31.060  25.108  26.862  1.00  0.00    -0.326 N 
ATOM     17  H   UNL A   1      30.373  24.966  27.552  1.00  0.00     0.169 HD
BRANCH  16  18
ATOM     18  C   UNL A   1      31.053  26.356  26.233  1.00  0.00     0.041 A 
ATOM     19  C   UNL A   1      30.506  26.510  24.963  1.00  0.00     0.029 A 
ATOM     20  C   UNL A   1      31.617  27.454  26.878  1.00  0.00     0.029 A 
ATOM     21  C   UNL A   1      30.709  27.676  24.228  1.00  0.00    -0.049 A 
ATOM     22  C   UNL A   1      31.775  28.661  26.181  1.00  0.00    -0.049 A 
ATOM     23  C   UNL A   1      30.280  27.747  22.793  1.00  0.00     0.044 C 
ATOM     24  C   UNL A   1      31.355  28.750  24.845  1.00  0.00     0.007 A 
ATOM     25  C   UNL A   1      32.440  29.840  26.827  1.00  0.00     0.044 C 
ENDBRANCH  16  18
ENDBRANCH  13  14
ENDBRANCH   7  13
ENDBRANCH   4   7
ENDBRANCH   2   3
ENDBRANCH   1   2
BRANCH   1  26
ATOM     26  C   UNL A   1      37.949  20.414  24.886  1.00  0.00     0.023 C 
BRANCH  26  27
ATOM     27  C   UNL A   1      39.110  20.558  25.862  1.00  0.00     0.116 C 
BRANCH  27  28
ATOM     28  N   UNL A   1      39.972  19.383  25.910  1.00  0.00    -0.352 N 
ATOM     29  C   UNL A   1      41.326  19.291  26.120  1.00  0.00     0.251 C 
ATOM     30  H   UNL A   1      39.513  18.524  25.772  1.00  0.00     0.163 HD
ATOM     31  O   UNL A   1      41.903  18.212  26.010  1.00  0.00    -0.269 OA
BRANCH  29  32
ATOM     32  C   UNL A   1      42.096  20.510  26.429  1.00  0.00     0.039 A 
ATOM     33  C   UNL A   1      42.641  21.247  25.376  1.00  0.00     0.014 A 
ATOM     34  C   UNL A   1      42.220  20.958  27.746  1.00  0.00     0.014 A 
ATOM     35  C   UNL A   1      43.213  22.494  25.634  1.00  0.00     0.010 A 
ATOM     36  C   UNL A   1      42.707  22.236  27.990  1.00  0.00     0.010 A 
ATOM     37  C   UNL A   1      43.192  23.024  26.935  1.00  0.00    -0.014 A 
BRANCH  37  38
ATOM     38  C   UNL A   1      43.626  24.418  27.205  1.00  0.00     0.031 A 
ATOM     39  C   UNL A   1      42.636  25.437  27.692  1.00  0.00     0.074 A 
ATOM     40  C   UNL A   1      44.893  24.784  26.924  1.00  0.00     0.049 A 
ATOM     41  N   UNL A   1      42.804  26.720  27.898  1.00  0.00    -0.248 NA
ATOM     42  C   UNL A   1      41.269  24.962  27.957  1.00  0.00     0.031 C 
ATOM     43  C   UNL A   1      45.928  23.900  26.383  1.00  0.00     0.029 A 
ATOM     44  N   UNL A   1      45.521  25.998  27.036  1.00  0.00    -0.354 N 
ATOM     45  C   UNL A   1      41.564  27.203  28.295  1.00  0.00     0.074 A 
ATOM     46  C   UNL A   1      40.642  26.090  28.258  1.00  0.00     0.031 C 
ATOM     47  C   UNL A   1      47.067  24.596  26.230  1.00  0.00     0.029 A 
ATOM     48  C   UNL A   1      46.832  25.982  26.623  1.00  0.00     0.049 A 
ATOM     49  H   UNL A   1      45.076  26.806  27.382  1.00  0.00     0.167 HD
ATOM     50  C   UNL A   1      41.234  28.459  28.677  1.00  0.00     0.037 A 
ATOM     51  C   UNL A   1      47.739  26.975  26.557  1.00  0.00     0.037 A 
ATOM     52  C   UNL A   1      42.162  29.556  28.748  1.00  0.00     0.049 A 
ATOM     53  C   UNL A   1      47.343  28.358  26.999  1.00  0.00     0.074 A 
ATOM     54  C   UNL A   1      41.942  30.842  29.205  1.00  0.00     0.029 A 
ATOM     55  N   UNL A   1      43.489  29.494  28.349  1.00  0.00    -0.354 N 
ATOM     56  N   UNL A   1      46.190  28.783  27.455  1.00  0.00    -0.248 NA
ATOM     57  C   UNL A   1      48.377  29.400  26.920  1.00  0.00     0.031 C 
ATOM     58  C   UNL A   1      43.123  31.573  29.042  1.00  0.00     0.029 A 
ATOM     59  C   UNL A   1      44.092  30.728  28.525  1.00  0.00     0.049 A 
ATOM     60  H   UNL A   1      43.935  28.692  27.992  1.00  0.00     0.167 HD
ATOM     61  C   UNL A   1      46.365  30.131  27.737  1.00  0.00     0.074 A 
ATOM     62  C   UNL A   1      47.741  30.449  27.420  1.00  0.00     0.031 C 
ATOM     63  C   UNL A   1      45.464  31.026  28.211  1.00  0.00     0.037 A 
BRANCH  50  64
ATOM     64  C   UNL A   1      39.809  28.718  29.066  1.00  0.00     0.064 A 
ATOM     65  C   UNL A   1      39.369  28.560  30.388  1.00  0.00     0.173 A 
ATOM     66  C   UNL A   1      38.888  29.189  28.118  1.00  0.00     0.173 A 
ATOM     67  F   UNL A   1      40.209  28.102  31.328  1.00  0.00    -0.203 F 
ATOM     68  C   UNL A   1      38.054  28.850  30.745  1.00  0.00     0.198 A 
ATOM     69  C   UNL A   1      37.581  29.502  28.484  1.00  0.00     0.198 A 
ATOM     70  F   UNL A   1      39.258  29.360  26.840  1.00  0.00    -0.203 F 
ATOM     71  F   UNL A   1      37.648  28.659  32.008  1.00  0.00    -0.200 F 
ATOM     72  C   UNL A   1      37.165  29.329  29.795  1.00  0.00     0.200 A 
ATOM     73  F   UNL A   1      36.726  29.978  27.568  1.00  0.00    -0.200 F 
ATOM     74  F   UNL A   1      35.904  29.622  30.143  1.00  0.00    -0.200 F 
ENDBRANCH  50  64
BRANCH  51  75
ATOM     75  C   UNL A   1      49.115  26.702  26.064  1.00  0.00     0.064 A 
ATOM     76  C   UNL A   1      50.107  26.222  26.931  1.00  0.00     0.173 A 
ATOM     77  C   UNL A   1      49.473  26.938  24.730  1.00  0.00     0.173 A 
ATOM     78  F   UNL A   1      49.819  26.002  28.222  1.00  0.00    -0.203 F 
ATOM     79  C   UNL A   1      51.412  26.015  26.488  1.00  0.00     0.198 A 
ATOM     80  C   UNL A   1      50.771  26.703  24.280  1.00  0.00     0.198 A 
ATOM     81  F   UNL A   1      48.560  27.395  23.859  1.00  0.00    -0.203 F 
ATOM     82  F   UNL A   1      52.353  25.608  27.349  1.00  0.00    -0.200 F 
ATOM     83  C   UNL A   1      51.741  26.252  25.161  1.00  0.00     0.200 A 
ATOM     84  F   UNL A   1      51.082  26.921  22.995  1.00  0.00    -0.200 F 
ATOM     85  F   UNL A   1      52.997  26.056  24.736  1.00  0.00    -0.200 F 
ENDBRANCH  51  75
BRANCH  63  86
ATOM     86  C   UNL A   1      45.947  32.428  28.438  1.00  0.00     0.064 A 
ATOM     87  C   UNL A   1      45.847  33.408  27.441  1.00  0.00     0.173 A 
ATOM     88  C   UNL A   1      46.482  32.803  29.679  1.00  0.00     0.173 A 
ATOM     89  F   UNL A   1      45.357  33.094  26.232  1.00  0.00    -0.203 F 
ATOM     90  C   UNL A   1      46.286  34.709  27.671  1.00  0.00     0.198 A 
ATOM     91  C   UNL A   1      46.893  34.111  29.916  1.00  0.00     0.198 A 
ATOM     92  F   UNL A   1      46.594  31.903  30.668  1.00  0.00    -0.203 F 
ATOM     93  F   UNL A   1      46.223  35.619  26.689  1.00  0.00    -0.200 F 
ATOM     94  C   UNL A   1      46.801  35.061  28.909  1.00  0.00     0.200 A 
ATOM     95  F   UNL A   1      47.379  34.453  31.117  1.00  0.00    -0.200 F 
ATOM     96  F   UNL A   1      47.218  36.315  29.131  1.00  0.00    -0.200 F 
ENDBRANCH  63  86
ENDBRANCH  37  38
ENDBRANCH  29  32
ENDBRANCH  27  28
ENDBRANCH  26  27
ENDBRANCH   1  26
TORSDOF 16
ENDMDL
MODEL 2
REMARK VINA RESULT:     -11.7      5.747     11.184
REMARK SMILES CC[NH2+][C@H](CC(=O)Nc1cc(C)cc(C)c1)C(=O)NCCCCNC(=O)c1ccc(-c2c3nc(c(-c4c(F)c(F)c(F)c(F)c4F)c4ccc([nH]4)c(-c4c(F)c(F)c(F)c(F)c4F)c4nc(c(-c5c(F)c(F)c(F)c(F)c5F)c5ccc2[nH]5)C=C4)C=C3)cc1
REMARK SMILES IDX 21 1 20 2 19 3 17 4 18 5 4 7 3 8 2 11 1 12 5 13 6 14 7 15
REMARK SMILES IDX 8 16 9 18 10 19 16 20 11 21 14 22 12 23 13 24 15 25 22 26
REMARK SMILES IDX 23 27 24 28 25 29 26 31 27 32 28 33 89 34 29 35 88 36 30 37
REMARK SMILES IDX 31 38 32 39 82 40 33 41 87 42 81 43 83 44 34 45 86 46 80 47
REMARK SMILES IDX 79 48 35 50 67 51 47 52 66 53 48 54 51 55 65 56 84 57 49 58
REMARK SMILES IDX 50 59 64 61 85 62 52 63 36 64 37 65 45 66 38 67 39 68 43 69
REMARK SMILES IDX 46 70 40 71 41 72 44 73 42 74 68 75 69 76 77 77 70 78 71 79
REMARK SMILES IDX 75 80 78 81 72 82 73 83 76 84 74 85 53 86 54 87 62 88 55 89
REMARK SMILES IDX 56 90 60 91 63 92 57 93 58 94 61 95 59 96
REMARK H PARENT 19 6 3 9 3 10 8 17 24 30 83 49 51 60
REMARK Flexibility Score: inf
ROOT
ATOM      1  C   UNL A   1      32.132  30.239  26.677  1.00  0.00     0.023 C 
ENDROOT
BRANCH   1   2
ATOM      2  C   UNL A   1      32.357  29.752  25.254  1.00  0.00     0.116 C 
BRANCH   2   3
ATOM      3  N   UNL A   1      31.186  29.847  24.416  1.00  0.00    -0.351 N 
ATOM      4  C   UNL A   1      30.590  28.844  23.713  1.00  0.00     0.278 C 
ATOM      5  O   UNL A   1      29.528  29.090  23.131  1.00  0.00    -0.268 OA
ATOM      6  H   UNL A   1      30.771  30.736  24.344  1.00  0.00     0.163 HD
BRANCH   4   7
ATOM      7  C   UNL A   1      31.234  27.447  23.623  1.00  0.00     0.281 C 
BRANCH   7   8
ATOM      8  N   UNL A   1      31.618  27.141  22.221  1.00  0.00    -0.336 N 
ATOM      9  H   UNL A   1      30.906  26.513  21.846  1.00  0.00     0.346 HD
ATOM     10  H   UNL A   1      31.691  28.056  21.778  1.00  0.00     0.346 HD
BRANCH   8  11
ATOM     11  C   UNL A   1      32.907  26.523  21.973  1.00  0.00     0.257 C 
ATOM     12  C   UNL A   1      32.731  25.463  20.892  1.00  0.00     0.071 C 
ENDBRANCH   8  11
ENDBRANCH   7   8
BRANCH   7  13
ATOM     13  C   UNL A   1      30.583  26.391  24.524  1.00  0.00     0.175 C 
BRANCH  13  14
ATOM     14  C   UNL A   1      31.199  26.240  25.919  1.00  0.00     0.230 C 
ATOM     15  O   UNL A   1      30.752  26.885  26.871  1.00  0.00    -0.274 OA
ATOM     16  N   UNL A   1      32.141  25.271  26.161  1.00  0.00    -0.326 N 
ATOM     17  H   UNL A   1      32.337  25.080  27.106  1.00  0.00     0.169 HD
BRANCH  16  18
ATOM     18  C   UNL A   1      32.856  24.525  25.220  1.00  0.00     0.041 A 
ATOM     19  C   UNL A   1      32.195  23.710  24.306  1.00  0.00     0.029 A 
ATOM     20  C   UNL A   1      34.247  24.586  25.207  1.00  0.00     0.029 A 
ATOM     21  C   UNL A   1      32.889  22.782  23.534  1.00  0.00    -0.049 A 
ATOM     22  C   UNL A   1      34.972  23.706  24.390  1.00  0.00    -0.049 A 
ATOM     23  C   UNL A   1      32.143  21.782  22.703  1.00  0.00     0.044 C 
ATOM     24  C   UNL A   1      34.285  22.782  23.587  1.00  0.00     0.007 A 
ATOM     25  C   UNL A   1      36.471  23.702  24.405  1.00  0.00     0.044 C 
ENDBRANCH  16  18
ENDBRANCH  13  14
ENDBRANCH   7  13
ENDBRANCH   4   7
ENDBRANCH   2   3
ENDBRANCH   1   2
BRANCH   1  26
ATOM     26  C   UNL A   1      31.789  31.718  26.812  1.00  0.00     0.023 C 
BRANCH  26  27
ATOM     27  C   UNL A   1      32.892  32.589  27.401  1.00  0.00     0.116 C 
BRANCH  27  28
ATOM     28  N   UNL A   1      32.470  33.961  27.655  1.00  0.00    -0.352 N 
ATOM     29  C   UNL A   1      32.967  34.887  28.538  1.00  0.00     0.251 C 
ATOM     30  H   UNL A   1      31.712  34.272  27.109  1.00  0.00     0.163 HD
ATOM     31  O   UNL A   1      32.403  35.967  28.695  1.00  0.00    -0.269 OA
BRANCH  29  32
ATOM     32  C   UNL A   1      34.161  34.557  29.339  1.00  0.00     0.039 A 
ATOM     33  C   UNL A   1      33.989  34.110  30.651  1.00  0.00     0.014 A 
ATOM     34  C   UNL A   1      35.436  34.623  28.775  1.00  0.00     0.014 A 
ATOM     35  C   UNL A   1      35.087  33.621  31.359  1.00  0.00     0.010 A 
ATOM     36  C   UNL A   1      36.511  34.054  29.447  1.00  0.00     0.010 A 
ATOM     37  C   UNL A   1      36.344  33.531  30.739  1.00  0.00    -0.014 A 
BRANCH  37  38
ATOM     38  C   UNL A   1      37.483  32.849  31.403  1.00  0.00     0.031 A 
ATOM     39  C   UNL A   1      38.136  31.662  30.755  1.00  0.00     0.074 A 
ATOM     40  C   UNL A   1      37.867  33.247  32.633  1.00  0.00     0.049 A 
ATOM     41  N   UNL A   1      39.081  30.882  31.219  1.00  0.00    -0.248 NA
ATOM     42  C   UNL A   1      37.644  31.279  29.422  1.00  0.00     0.031 C 
ATOM     43  C   UNL A   1      37.266  34.345  33.394  1.00  0.00     0.029 A 
ATOM     44  N   UNL A   1      38.843  32.764  33.467  1.00  0.00    -0.354 N 
ATOM     45  C   UNL A   1      39.280  29.912  30.247  1.00  0.00     0.074 A 
ATOM     46  C   UNL A   1      38.330  30.169  29.187  1.00  0.00     0.031 C 
ATOM     47  C   UNL A   1      37.899  34.464  34.572  1.00  0.00     0.029 A 
ATOM     48  C   UNL A   1      38.922  33.428  34.668  1.00  0.00     0.049 A 
ATOM     49  H   UNL A   1      39.434  32.013  33.228  1.00  0.00     0.167 HD
ATOM     50  C   UNL A   1      40.191  28.911  30.231  1.00  0.00     0.037 A 
ATOM     51  C   UNL A   1      39.720  33.217  35.731  1.00  0.00     0.037 A 
ATOM     52  C   UNL A   1      41.160  28.680  31.270  1.00  0.00     0.049 A 
ATOM     53  C   UNL A   1      40.729  32.102  35.679  1.00  0.00     0.074 A 
ATOM     54  C   UNL A   1      42.179  27.746  31.305  1.00  0.00     0.029 A 
ATOM     55  N   UNL A   1      41.227  29.392  32.459  1.00  0.00    -0.354 N 
ATOM     56  N   UNL A   1      40.967  31.245  34.717  1.00  0.00    -0.248 NA
ATOM     57  C   UNL A   1      41.585  31.927  36.862  1.00  0.00     0.031 C 
ATOM     58  C   UNL A   1      42.837  27.861  32.534  1.00  0.00     0.029 A 
ATOM     59  C   UNL A   1      42.256  28.898  33.245  1.00  0.00     0.049 A 
ATOM     60  H   UNL A   1      40.632  30.136  32.707  1.00  0.00     0.167 HD
ATOM     61  C   UNL A   1      42.009  30.446  35.166  1.00  0.00     0.074 A 
ATOM     62  C   UNL A   1      42.373  30.933  36.479  1.00  0.00     0.031 C 
ATOM     63  C   UNL A   1      42.608  29.399  34.547  1.00  0.00     0.037 A 
BRANCH  50  64
ATOM     64  C   UNL A   1      40.199  27.992  29.046  1.00  0.00     0.064 A 
ATOM     65  C   UNL A   1      40.938  28.290  27.892  1.00  0.00     0.173 A 
ATOM     66  C   UNL A   1      39.510  26.771  29.088  1.00  0.00     0.173 A 
ATOM     67  F   UNL A   1      41.605  29.450  27.799  1.00  0.00    -0.203 F 
ATOM     68  C   UNL A   1      40.975  27.406  26.817  1.00  0.00     0.198 A 
ATOM     69  C   UNL A   1      39.570  25.878  28.022  1.00  0.00     0.198 A 
ATOM     70  F   UNL A   1      38.791  26.436  30.170  1.00  0.00    -0.203 F 
ATOM     71  F   UNL A   1      41.660  27.727  25.711  1.00  0.00    -0.200 F 
ATOM     72  C   UNL A   1      40.299  26.197  26.887  1.00  0.00     0.200 A 
ATOM     73  F   UNL A   1      38.927  24.704  28.096  1.00  0.00    -0.200 F 
ATOM     74  F   UNL A   1      40.347  25.340  25.857  1.00  0.00    -0.200 F 
ENDBRANCH  50  64
BRANCH  51  75
ATOM     75  C   UNL A   1      39.610  34.083  36.935  1.00  0.00     0.064 A 
ATOM     76  C   UNL A   1      40.312  35.294  37.015  1.00  0.00     0.173 A 
ATOM     77  C   UNL A   1      38.826  33.709  38.035  1.00  0.00     0.173 A 
ATOM     78  F   UNL A   1      41.094  35.683  35.998  1.00  0.00    -0.203 F 
ATOM     79  C   UNL A   1      40.256  36.084  38.162  1.00  0.00     0.198 A 
ATOM     80  C   UNL A   1      38.746  34.515  39.169  1.00  0.00     0.198 A 
ATOM     81  F   UNL A   1      38.132  32.562  38.007  1.00  0.00    -0.203 F 
ATOM     82  F   UNL A   1      40.980  37.209  38.234  1.00  0.00    -0.200 F 
ATOM     83  C   UNL A   1      39.469  35.696  39.236  1.00  0.00     0.200 A 
ATOM     84  F   UNL A   1      37.975  34.142  40.200  1.00  0.00    -0.200 F 
ATOM     85  F   UNL A   1      39.418  36.454  40.339  1.00  0.00    -0.200 F 
ENDBRANCH  51  75
BRANCH  63  86
ATOM     86  C   UNL A   1      43.735  28.727  35.275  1.00  0.00     0.064 A 
ATOM     87  C   UNL A   1      45.068  29.112  35.079  1.00  0.00     0.173 A 
ATOM     88  C   UNL A   1      43.472  27.711  36.207  1.00  0.00     0.173 A 
ATOM     89  F   UNL A   1      45.370  30.068  34.187  1.00  0.00    -0.203 F 
ATOM     90  C   UNL A   1      46.102  28.488  35.772  1.00  0.00     0.198 A 
ATOM     91  C   UNL A   1      44.506  27.110  36.919  1.00  0.00     0.198 A 
ATOM     92  F   UNL A   1      42.213  27.310  36.435  1.00  0.00    -0.203 F 
ATOM     93  F   UNL A   1      47.373  28.841  35.535  1.00  0.00    -0.200 F 
ATOM     94  C   UNL A   1      45.819  27.494  36.696  1.00  0.00     0.200 A 
ATOM     95  F   UNL A   1      44.230  26.158  37.821  1.00  0.00    -0.200 F 
ATOM     96  F   UNL A   1      46.815  26.899  37.367  1.00  0.00    -0.200 F 
ENDBRANCH  63  86
ENDBRANCH  37  38
ENDBRANCH  29  32
ENDBRANCH  27  28
ENDBRANCH  26  27
ENDBRANCH   1  26
TORSDOF 16
ENDMDL
MODEL 3
REMARK VINA RESULT:     -11.6      5.507      9.923
REMARK SMILES CC[NH2+][C@H](CC(=O)Nc1cc(C)cc(C)c1)C(=O)NCCCCNC(=O)c1ccc(-c2c3nc(c(-c4c(F)c(F)c(F)c(F)c4F)c4ccc([nH]4)c(-c4c(F)c(F)c(F)c(F)c4F)c4nc(c(-c5c(F)c(F)c(F)c(F)c5F)c5ccc2[nH]5)C=C4)C=C3)cc1
REMARK SMILES IDX 21 1 20 2 19 3 17 4 18 5 4 7 3 8 2 11 1 12 5 13 6 14 7 15
REMARK SMILES IDX 8 16 9 18 10 19 16 20 11 21 14 22 12 23 13 24 15 25 22 26
REMARK SMILES IDX 23 27 24 28 25 29 26 31 27 32 28 33 89 34 29 35 88 36 30 37
REMARK SMILES IDX 31 38 32 39 82 40 33 41 87 42 81 43 83 44 34 45 86 46 80 47
REMARK SMILES IDX 79 48 35 50 67 51 47 52 66 53 48 54 51 55 65 56 84 57 49 58
REMARK SMILES IDX 50 59 64 61 85 62 52 63 36 64 37 65 45 66 38 67 39 68 43 69
REMARK SMILES IDX 46 70 40 71 41 72 44 73 42 74 68 75 69 76 77 77 70 78 71 79
REMARK SMILES IDX 75 80 78 81 72 82 73 83 76 84 74 85 53 86 54 87 62 88 55 89
REMARK SMILES IDX 56 90 60 91 63 92 57 93 58 94 61 95 59 96
REMARK H PARENT 19 6 3 9 3 10 8 17 24 30 83 49 51 60
REMARK Flexibility Score: inf
ROOT
ATOM      1  C   UNL A   1      31.897  30.279  26.849  1.00  0.00     0.023 C 
ENDROOT
BRANCH   1   2
ATOM      2  C   UNL A   1      32.605  29.697  25.634  1.00  0.00     0.116 C 
BRANCH   2   3
ATOM      3  N   UNL A   1      31.823  29.754  24.423  1.00  0.00    -0.351 N 
ATOM      4  C   UNL A   1      31.469  28.713  23.619  1.00  0.00     0.278 C 
ATOM      5  O   UNL A   1      30.703  28.939  22.676  1.00  0.00    -0.268 OA
ATOM      6  H   UNL A   1      31.510  30.645  24.147  1.00  0.00     0.163 HD
BRANCH   4   7
ATOM      7  C   UNL A   1      32.027  27.297  23.863  1.00  0.00     0.281 C 
BRANCH   7   8
ATOM      8  N   UNL A   1      32.825  26.845  22.694  1.00  0.00    -0.336 N 
ATOM      9  H   UNL A   1      33.080  27.679  22.165  1.00  0.00     0.346 HD
ATOM     10  H   UNL A   1      33.595  26.320  23.108  1.00  0.00     0.346 HD
BRANCH   8  11
ATOM     11  C   UNL A   1      32.222  25.913  21.760  1.00  0.00     0.257 C 
ATOM     12  C   UNL A   1      33.001  24.604  21.818  1.00  0.00     0.071 C 
ENDBRANCH   8  11
ENDBRANCH   7   8
BRANCH   7  13
ATOM     13  C   UNL A   1      31.061  26.352  24.586  1.00  0.00     0.175 C 
BRANCH  13  14
ATOM     14  C   UNL A   1      31.350  26.121  26.073  1.00  0.00     0.230 C 
ATOM     15  O   UNL A   1      30.833  26.843  26.929  1.00  0.00    -0.274 OA
ATOM     16  N   UNL A   1      32.051  25.012  26.480  1.00  0.00    -0.326 N 
ATOM     17  H   UNL A   1      32.018  24.804  27.441  1.00  0.00     0.169 HD
BRANCH  16  18
ATOM     18  C   UNL A   1      32.808  24.145  25.686  1.00  0.00     0.041 A 
ATOM     19  C   UNL A   1      32.227  23.022  25.106  1.00  0.00     0.029 A 
ATOM     20  C   UNL A   1      34.162  24.400  25.488  1.00  0.00     0.029 A 
ATOM     21  C   UNL A   1      33.009  22.026  24.524  1.00  0.00    -0.049 A 
ATOM     22  C   UNL A   1      34.961  23.442  24.847  1.00  0.00    -0.049 A 
ATOM     23  C   UNL A   1      32.383  20.738  24.082  1.00  0.00     0.044 C 
ATOM     24  C   UNL A   1      34.383  22.242  24.405  1.00  0.00     0.007 A 
ATOM     25  C   UNL A   1      36.436  23.660  24.680  1.00  0.00     0.044 C 
ENDBRANCH  16  18
ENDBRANCH  13  14
ENDBRANCH   7  13
ENDBRANCH   4   7
ENDBRANCH   2   3
ENDBRANCH   1   2
BRANCH   1  26
ATOM     26  C   UNL A   1      31.690  31.789  26.819  1.00  0.00     0.023 C 
BRANCH  26  27
ATOM     27  C   UNL A   1      32.869  32.615  27.317  1.00  0.00     0.116 C 
BRANCH  27  28
ATOM     28  N   UNL A   1      32.511  33.989  27.649  1.00  0.00    -0.352 N 
ATOM     29  C   UNL A   1      33.034  34.831  28.598  1.00  0.00     0.251 C 
ATOM     30  H   UNL A   1      31.783  34.372  27.109  1.00  0.00     0.163 HD
ATOM     31  O   UNL A   1      32.521  35.927  28.812  1.00  0.00    -0.269 OA
BRANCH  29  32
ATOM     32  C   UNL A   1      34.190  34.390  29.400  1.00  0.00     0.039 A 
ATOM     33  C   UNL A   1      33.959  33.732  30.610  1.00  0.00     0.014 A 
ATOM     34  C   UNL A   1      35.492  34.566  28.927  1.00  0.00     0.014 A 
ATOM     35  C   UNL A   1      35.029  33.148  31.290  1.00  0.00     0.010 A 
ATOM     36  C   UNL A   1      36.543  33.909  29.557  1.00  0.00     0.010 A 
ATOM     37  C   UNL A   1      36.319  33.178  30.734  1.00  0.00    -0.014 A 
BRANCH  37  38
ATOM     38  C   UNL A   1      37.437  32.412  31.341  1.00  0.00     0.031 A 
ATOM     39  C   UNL A   1      37.961  32.786  32.697  1.00  0.00     0.074 A 
ATOM     40  C   UNL A   1      38.036  31.438  30.626  1.00  0.00     0.049 A 
ATOM     41  N   UNL A   1      38.984  32.296  33.352  1.00  0.00    -0.248 NA
ATOM     42  C   UNL A   1      37.263  33.873  33.402  1.00  0.00     0.031 C 
ATOM     43  C   UNL A   1      37.661  31.029  29.271  1.00  0.00     0.029 A 
ATOM     44  N   UNL A   1      39.100  30.627  30.933  1.00  0.00    -0.354 N 
ATOM     45  C   UNL A   1      39.062  33.025  34.530  1.00  0.00     0.074 A 
ATOM     46  C   UNL A   1      38.015  34.022  34.484  1.00  0.00     0.031 C 
ATOM     47  C   UNL A   1      38.467  30.032  28.872  1.00  0.00     0.029 A 
ATOM     48  C   UNL A   1      39.440  29.758  29.924  1.00  0.00     0.049 A 
ATOM     49  H   UNL A   1      39.574  30.663  31.795  1.00  0.00     0.167 HD
ATOM     50  C   UNL A   1      39.917  32.862  35.566  1.00  0.00     0.037 A 
ATOM     51  C   UNL A   1      40.433  28.852  29.851  1.00  0.00     0.037 A 
ATOM     52  C   UNL A   1      40.935  31.845  35.626  1.00  0.00     0.049 A 
ATOM     53  C   UNL A   1      41.361  28.687  31.024  1.00  0.00     0.074 A 
ATOM     54  C   UNL A   1      41.793  31.545  36.668  1.00  0.00     0.029 A 
ATOM     55  N   UNL A   1      41.231  30.964  34.596  1.00  0.00    -0.354 N 
ATOM     56  N   UNL A   1      41.370  29.324  32.169  1.00  0.00    -0.248 NA
ATOM     57  C   UNL A   1      42.417  27.672  30.895  1.00  0.00     0.031 C 
ATOM     58  C   UNL A   1      42.639  30.511  36.254  1.00  0.00     0.029 A 
ATOM     59  C   UNL A   1      42.277  30.137  34.970  1.00  0.00     0.049 A 
ATOM     60  H   UNL A   1      40.767  30.933  33.728  1.00  0.00     0.167 HD
ATOM     61  C   UNL A   1      42.412  28.776  32.903  1.00  0.00     0.074 A 
ATOM     62  C   UNL A   1      43.001  27.739  32.083  1.00  0.00     0.031 C 
ATOM     63  C   UNL A   1      42.846  29.106  34.144  1.00  0.00     0.037 A 
BRANCH  50  64
ATOM     64  C   UNL A   1      39.785  33.792  36.735  1.00  0.00     0.064 A 
ATOM     65  C   UNL A   1      40.431  35.037  36.758  1.00  0.00     0.173 A 
ATOM     66  C   UNL A   1      38.954  33.463  37.816  1.00  0.00     0.173 A 
ATOM     67  F   UNL A   1      41.245  35.393  35.753  1.00  0.00    -0.203 F 
ATOM     68  C   UNL A   1      40.262  35.911  37.828  1.00  0.00     0.198 A 
ATOM     69  C   UNL A   1      38.767  34.351  38.872  1.00  0.00     0.198 A 
ATOM     70  F   UNL A   1      38.310  32.286  37.841  1.00  0.00    -0.203 F 
ATOM     71  F   UNL A   1      40.917  37.081  37.844  1.00  0.00    -0.200 F 
ATOM     72  C   UNL A   1      39.423  35.572  38.879  1.00  0.00     0.200 A 
ATOM     73  F   UNL A   1      37.945  34.027  39.880  1.00  0.00    -0.200 F 
ATOM     74  F   UNL A   1      39.250  36.421  39.901  1.00  0.00    -0.200 F 
ENDBRANCH  50  64
BRANCH  51  75
ATOM     75  C   UNL A   1      40.599  28.019  28.630  1.00  0.00     0.064 A 
ATOM     76  C   UNL A   1      41.383  28.467  27.557  1.00  0.00     0.173 A 
ATOM     77  C   UNL A   1      39.961  26.779  28.499  1.00  0.00     0.173 A 
ATOM     78  F   UNL A   1      41.995  29.657  27.626  1.00  0.00    -0.203 F 
ATOM     79  C   UNL A   1      41.500  27.716  26.388  1.00  0.00     0.198 A 
ATOM     80  C   UNL A   1      40.101  26.015  27.342  1.00  0.00     0.198 A 
ATOM     81  F   UNL A   1      39.201  26.304  29.498  1.00  0.00    -0.203 F 
ATOM     82  F   UNL A   1      42.211  28.192  25.357  1.00  0.00    -0.200 F 
ATOM     83  C   UNL A   1      40.862  26.489  26.284  1.00  0.00     0.200 A 
ATOM     84  F   UNL A   1      39.494  24.824  27.249  1.00  0.00    -0.200 F 
ATOM     85  F   UNL A   1      40.972  25.769  25.159  1.00  0.00    -0.200 F 
ENDBRANCH  51  75
BRANCH  63  86
ATOM     86  C   UNL A   1      43.998  28.320  34.698  1.00  0.00     0.064 A 
ATOM     87  C   UNL A   1      45.321  28.757  34.551  1.00  0.00     0.173 A 
ATOM     88  C   UNL A   1      43.771  27.136  35.415  1.00  0.00     0.173 A 
ATOM     89  F   UNL A   1      45.591  29.875  33.860  1.00  0.00    -0.203 F 
ATOM     90  C   UNL A   1      46.380  28.025  35.083  1.00  0.00     0.198 A 
ATOM     91  C   UNL A   1      44.828  26.422  35.970  1.00  0.00     0.198 A 
ATOM     92  F   UNL A   1      42.521  26.678  35.588  1.00  0.00    -0.203 F 
ATOM     93  F   UNL A   1      47.640  28.437  34.891  1.00  0.00    -0.200 F 
ATOM     94  C   UNL A   1      46.131  26.863  35.798  1.00  0.00     0.200 A 
ATOM     95  F   UNL A   1      44.586  25.306  36.671  1.00  0.00    -0.200 F 
ATOM     96  F   UNL A   1      47.151  26.163  36.314  1.00  0.00    -0.200 F 
ENDBRANCH  63  86
ENDBRANCH  37  38
ENDBRANCH  29  32
ENDBRANCH  27  28
ENDBRANCH  26  27
ENDBRANCH   1  26
TORSDOF 16
ENDMDL
