MODEL 1
REMARK VINA RESULT:     -12.9      0.000      0.000
REMARK SMILES Cc1ccc(CNc2nc(OCC(=O)NCCCCNC(=O)c3ccc(-c4c5nc(c(-c6c(F)c(F)c(F)c(F)c6F)c6ccc([nH]6)c(-c6c(F)c(F)c(F)c(F)c6F)c6nc(c(-c7c(F)c(F)c(F)c(F)c7F)c7ccc4[nH]7)C=C6)C=C5)cc3)cc(C(F)(F)F)n2)cc1
REMARK SMILES IDX 16 1 15 2 13 3 14 4 12 6 11 7 10 8 8 9 9 10 92 11 87 12
REMARK SMILES IDX 86 13 7 14 6 16 5 17 1 18 2 19 3 20 94 21 4 22 93 23 88 24
REMARK SMILES IDX 89 25 90 26 91 27 17 28 18 29 19 30 20 31 21 32 22 34 23 35
REMARK SMILES IDX 24 36 85 37 25 38 84 39 26 40 27 41 28 42 78 43 29 44 83 45
REMARK SMILES IDX 77 46 79 47 30 48 82 49 76 50 75 51 31 53 63 54 43 55 62 56
REMARK SMILES IDX 44 57 47 58 61 59 80 60 45 61 46 62 60 64 81 65 48 66 32 67
REMARK SMILES IDX 33 68 41 69 34 70 35 71 39 72 42 73 36 74 37 75 40 76 38 77
REMARK SMILES IDX 64 78 65 79 73 80 66 81 67 82 71 83 74 84 68 85 69 86 72 87
REMARK SMILES IDX 70 88 49 89 50 90 58 91 51 92 52 93 56 94 59 95 53 96 54 97
REMARK SMILES IDX 57 98 55 99
REMARK H PARENT 15 5 7 15 20 33 79 52 47 63
REMARK Flexibility Score: inf
ROOT
ATOM      1  C   UNL A   1      35.677  20.821  25.067  1.00  0.00     0.116 C 
ENDROOT
BRANCH   1   2
ATOM      2  N   UNL A   1      35.037  21.176  26.322  1.00  0.00    -0.353 N 
ATOM      3  C   UNL A   1      33.713  21.329  26.606  1.00  0.00     0.258 C 
ATOM      4  O   UNL A   1      33.390  21.645  27.753  1.00  0.00    -0.271 OA
ATOM      5  H   UNL A   1      35.651  21.330  27.077  1.00  0.00     0.163 HD
BRANCH   3   6
ATOM      6  C   UNL A   1      32.652  21.096  25.526  1.00  0.00     0.331 C 
BRANCH   6   7
ATOM      7  O   UNL A   1      31.614  22.051  25.429  1.00  0.00    -0.467 OA
BRANCH   7   8
ATOM      8  C   UNL A   1      31.926  23.307  25.003  1.00  0.00     0.219 A 
ATOM      9  C   UNL A   1      32.098  25.478  25.724  1.00  0.00     0.226 A 
ATOM     10  N   UNL A   1      31.896  24.192  26.009  1.00  0.00    -0.177 NA
ATOM     11  N   UNL A   1      32.343  25.931  24.494  1.00  0.00    -0.208 NA
ATOM     12  C   UNL A   1      32.422  25.022  23.489  1.00  0.00     0.153 A 
ATOM     13  C   UNL A   1      32.222  23.671  23.713  1.00  0.00     0.102 A 
BRANCH   9  14
ATOM     14  N   UNL A   1      31.996  26.336  26.778  1.00  0.00    -0.350 N 
ATOM     15  H   UNL A   1      32.395  26.087  27.643  1.00  0.00     0.164 HD
BRANCH  14  16
ATOM     16  C   UNL A   1      31.318  27.600  26.653  1.00  0.00     0.152 C 
BRANCH  16  17
ATOM     17  C   UNL A   1      32.309  28.713  26.918  1.00  0.00    -0.029 A 
ATOM     18  C   UNL A   1      35.069  31.927  27.762  1.00  0.00     0.044 C 
ATOM     19  C   UNL A   1      34.122  30.807  27.452  1.00  0.00    -0.051 A 
ATOM     20  C   UNL A   1      32.779  31.087  27.179  1.00  0.00     0.004 A 
ATOM     21  C   UNL A   1      34.554  29.474  27.446  1.00  0.00     0.004 A 
ATOM     22  C   UNL A   1      31.885  30.053  26.908  1.00  0.00     0.006 A 
ATOM     23  C   UNL A   1      33.656  28.436  27.180  1.00  0.00     0.006 A 
ENDBRANCH  16  17
ENDBRANCH  14  16
ENDBRANCH   9  14
BRANCH  12  24
ATOM     24  C   UNL A   1      32.740  25.519  22.089  1.00  0.00     0.433 C 
ATOM     25  F   UNL A   1      33.008  24.511  21.211  1.00  0.00    -0.165 F 
ATOM     26  F   UNL A   1      31.723  26.241  21.539  1.00  0.00    -0.165 F 
ATOM     27  F   UNL A   1      33.831  26.340  22.043  1.00  0.00    -0.165 F 
ENDBRANCH  12  24
ENDBRANCH   7   8
ENDBRANCH   6   7
ENDBRANCH   3   6
ENDBRANCH   1   2
BRANCH   1  28
ATOM     28  C   UNL A   1      36.767  21.811  24.632  1.00  0.00     0.023 C 
BRANCH  28  29
ATOM     29  C   UNL A   1      38.153  21.594  25.244  1.00  0.00     0.023 C 
BRANCH  29  30
ATOM     30  C   UNL A   1      38.679  22.747  26.090  1.00  0.00     0.116 C 
BRANCH  30  31
ATOM     31  N   UNL A   1      40.131  22.822  26.187  1.00  0.00    -0.352 N 
ATOM     32  C   UNL A   1      40.942  23.898  26.527  1.00  0.00     0.251 C 
ATOM     33  H   UNL A   1      40.608  21.985  25.982  1.00  0.00     0.163 HD
ATOM     34  O   UNL A   1      42.147  23.789  26.511  1.00  0.00    -0.269 OA
BRANCH  32  35
ATOM     35  C   UNL A   1      40.313  25.148  27.038  1.00  0.00     0.039 A 
ATOM     36  C   UNL A   1      40.522  26.329  26.316  1.00  0.00     0.014 A 
ATOM     37  C   UNL A   1      39.707  25.194  28.290  1.00  0.00     0.014 A 
ATOM     38  C   UNL A   1      40.370  27.558  26.958  1.00  0.00     0.010 A 
ATOM     39  C   UNL A   1      39.646  26.402  28.959  1.00  0.00     0.010 A 
ATOM     40  C   UNL A   1      40.056  27.576  28.318  1.00  0.00    -0.014 A 
BRANCH  40  41
ATOM     41  C   UNL A   1      40.348  28.718  29.180  1.00  0.00     0.031 A 
ATOM     42  C   UNL A   1      39.336  29.739  29.517  1.00  0.00     0.074 A 
ATOM     43  C   UNL A   1      41.559  28.778  29.782  1.00  0.00     0.049 A 
ATOM     44  N   UNL A   1      39.630  30.957  29.839  1.00  0.00    -0.248 NA
ATOM     45  C   UNL A   1      37.902  29.475  29.511  1.00  0.00     0.031 C 
ATOM     46  C   UNL A   1      41.951  29.634  30.898  1.00  0.00     0.029 A 
ATOM     47  N   UNL A   1      42.758  28.172  29.371  1.00  0.00    -0.354 N 
ATOM     48  C   UNL A   1      38.494  31.536  30.352  1.00  0.00     0.074 A 
ATOM     49  C   UNL A   1      37.429  30.599  30.060  1.00  0.00     0.031 C 
ATOM     50  C   UNL A   1      43.288  29.739  30.917  1.00  0.00     0.029 A 
ATOM     51  C   UNL A   1      43.788  29.071  29.730  1.00  0.00     0.049 A 
ATOM     52  H   UNL A   1      42.860  27.300  28.925  1.00  0.00     0.167 HD
ATOM     53  C   UNL A   1      38.587  32.673  31.101  1.00  0.00     0.037 A 
ATOM     54  C   UNL A   1      44.607  29.637  28.799  1.00  0.00     0.037 A 
ATOM     55  C   UNL A   1      39.967  33.121  31.246  1.00  0.00     0.049 A 
ATOM     56  C   UNL A   1      44.598  31.147  28.803  1.00  0.00     0.074 A 
ATOM     57  C   UNL A   1      40.893  32.964  32.265  1.00  0.00     0.029 A 
ATOM     58  N   UNL A   1      40.675  33.576  30.139  1.00  0.00    -0.354 N 
ATOM     59  N   UNL A   1      43.652  31.863  29.337  1.00  0.00    -0.248 NA
ATOM     60  C   UNL A   1      45.619  31.964  28.153  1.00  0.00     0.031 C 
ATOM     61  C   UNL A   1      42.165  33.323  31.768  1.00  0.00     0.029 A 
ATOM     62  C   UNL A   1      42.018  33.693  30.444  1.00  0.00     0.049 A 
ATOM     63  H   UNL A   1      40.277  33.784  29.263  1.00  0.00     0.167 HD
ATOM     64  C   UNL A   1      43.879  33.189  29.075  1.00  0.00     0.074 A 
ATOM     65  C   UNL A   1      45.139  33.203  28.359  1.00  0.00     0.031 C 
ATOM     66  C   UNL A   1      42.984  34.148  29.458  1.00  0.00     0.037 A 
BRANCH  53  67
ATOM     67  C   UNL A   1      37.450  33.182  31.956  1.00  0.00     0.064 A 
ATOM     68  C   UNL A   1      36.399  33.951  31.409  1.00  0.00     0.173 A 
ATOM     69  C   UNL A   1      37.371  32.978  33.345  1.00  0.00     0.173 A 
ATOM     70  F   UNL A   1      36.273  34.134  30.089  1.00  0.00    -0.203 F 
ATOM     71  C   UNL A   1      35.434  34.575  32.201  1.00  0.00     0.198 A 
ATOM     72  C   UNL A   1      36.435  33.643  34.145  1.00  0.00     0.198 A 
ATOM     73  F   UNL A   1      38.185  32.107  33.959  1.00  0.00    -0.203 F 
ATOM     74  F   UNL A   1      34.473  35.311  31.623  1.00  0.00    -0.200 F 
ATOM     75  C   UNL A   1      35.476  34.456  33.574  1.00  0.00     0.200 A 
ATOM     76  F   UNL A   1      36.478  33.499  35.478  1.00  0.00    -0.200 F 
ATOM     77  F   UNL A   1      34.587  35.103  34.339  1.00  0.00    -0.200 F 
ENDBRANCH  53  67
BRANCH  54  78
ATOM     78  C   UNL A   1      44.785  28.809  27.580  1.00  0.00     0.064 A 
ATOM     79  C   UNL A   1      45.672  27.716  27.630  1.00  0.00     0.173 A 
ATOM     80  C   UNL A   1      43.862  28.848  26.528  1.00  0.00     0.173 A 
ATOM     81  F   UNL A   1      46.568  27.626  28.627  1.00  0.00    -0.203 F 
ATOM     82  C   UNL A   1      45.567  26.658  26.731  1.00  0.00     0.198 A 
ATOM     83  C   UNL A   1      43.769  27.791  25.622  1.00  0.00     0.198 A 
ATOM     84  F   UNL A   1      42.977  29.851  26.440  1.00  0.00    -0.203 F 
ATOM     85  F   UNL A   1      46.354  25.581  26.874  1.00  0.00    -0.200 F 
ATOM     86  C   UNL A   1      44.599  26.686  25.743  1.00  0.00     0.200 A 
ATOM     87  F   UNL A   1      42.808  27.800  24.687  1.00  0.00    -0.200 F 
ATOM     88  F   UNL A   1      44.435  25.630  24.934  1.00  0.00    -0.200 F 
ENDBRANCH  54  78
BRANCH  66  89
ATOM     89  C   UNL A   1      42.976  35.602  29.043  1.00  0.00     0.064 A 
ATOM     90  C   UNL A   1      42.261  36.107  27.944  1.00  0.00     0.173 A 
ATOM     91  C   UNL A   1      43.602  36.581  29.856  1.00  0.00     0.173 A 
ATOM     92  F   UNL A   1      41.523  35.308  27.163  1.00  0.00    -0.203 F 
ATOM     93  C   UNL A   1      42.227  37.474  27.645  1.00  0.00     0.198 A 
ATOM     94  C   UNL A   1      43.518  37.947  29.588  1.00  0.00     0.198 A 
ATOM     95  F   UNL A   1      44.294  36.244  30.954  1.00  0.00    -0.203 F 
ATOM     96  F   UNL A   1      41.563  37.898  26.560  1.00  0.00    -0.200 F 
ATOM     97  C   UNL A   1      42.844  38.393  28.472  1.00  0.00     0.200 A 
ATOM     98  F   UNL A   1      44.077  38.826  30.431  1.00  0.00    -0.200 F 
ATOM     99  F   UNL A   1      42.769  39.703  28.207  1.00  0.00    -0.200 F 
ENDBRANCH  66  89
ENDBRANCH  40  41
ENDBRANCH  32  35
ENDBRANCH  30  31
ENDBRANCH  29  30
ENDBRANCH  28  29
ENDBRANCH   1  28
TORSDOF 17
ENDMDL
MODEL 2
REMARK VINA RESULT:     -12.7      2.212      2.879
REMARK SMILES Cc1ccc(CNc2nc(OCC(=O)NCCCCNC(=O)c3ccc(-c4c5nc(c(-c6c(F)c(F)c(F)c(F)c6F)c6ccc([nH]6)c(-c6c(F)c(F)c(F)c(F)c6F)c6nc(c(-c7c(F)c(F)c(F)c(F)c7F)c7ccc4[nH]7)C=C6)C=C5)cc3)cc(C(F)(F)F)n2)cc1
REMARK SMILES IDX 16 1 15 2 13 3 14 4 12 6 11 7 10 8 8 9 9 10 92 11 87 12
REMARK SMILES IDX 86 13 7 14 6 16 5 17 1 18 2 19 3 20 94 21 4 22 93 23 88 24
REMARK SMILES IDX 89 25 90 26 91 27 17 28 18 29 19 30 20 31 21 32 22 34 23 35
REMARK SMILES IDX 24 36 85 37 25 38 84 39 26 40 27 41 28 42 78 43 29 44 83 45
REMARK SMILES IDX 77 46 79 47 30 48 82 49 76 50 75 51 31 53 63 54 43 55 62 56
REMARK SMILES IDX 44 57 47 58 61 59 80 60 45 61 46 62 60 64 81 65 48 66 32 67
REMARK SMILES IDX 33 68 41 69 34 70 35 71 39 72 42 73 36 74 37 75 40 76 38 77
REMARK SMILES IDX 64 78 65 79 73 80 66 81 67 82 71 83 74 84 68 85 69 86 72 87
REMARK SMILES IDX 70 88 49 89 50 90 58 91 51 92 52 93 56 94 59 95 53 96 54 97
REMARK SMILES IDX 57 98 55 99
REMARK H PARENT 15 5 7 15 20 33 79 52 47 63
REMARK Flexibility Score: inf
ROOT
ATOM      1  C   UNL A   1      36.252  22.128  25.238  1.00  0.00     0.116 C 
ENDROOT
BRANCH   1   2
ATOM      2  N   UNL A   1      35.878  22.949  24.099  1.00  0.00    -0.353 N 
ATOM      3  C   UNL A   1      34.652  23.425  23.740  1.00  0.00     0.258 C 
ATOM      4  O   UNL A   1      34.563  24.105  22.715  1.00  0.00    -0.271 OA
ATOM      5  H   UNL A   1      36.619  23.196  23.499  1.00  0.00     0.163 HD
BRANCH   3   6
ATOM      6  C   UNL A   1      33.418  23.131  24.599  1.00  0.00     0.331 C 
BRANCH   6   7
ATOM      7  O   UNL A   1      33.335  23.787  25.849  1.00  0.00    -0.467 OA
BRANCH   7   8
ATOM      8  C   UNL A   1      32.840  25.056  25.883  1.00  0.00     0.219 A 
ATOM      9  C   UNL A   1      30.958  26.283  25.424  1.00  0.00     0.226 A 
ATOM     10  N   UNL A   1      31.551  25.094  25.520  1.00  0.00    -0.177 NA
ATOM     11  N   UNL A   1      31.572  27.438  25.685  1.00  0.00    -0.208 NA
ATOM     12  C   UNL A   1      32.864  27.386  26.100  1.00  0.00     0.153 A 
ATOM     13  C   UNL A   1      33.542  26.186  26.220  1.00  0.00     0.102 A 
BRANCH   9  14
ATOM     14  N   UNL A   1      29.664  26.261  24.994  1.00  0.00    -0.350 N 
ATOM     15  H   UNL A   1      28.936  26.237  25.656  1.00  0.00     0.164 HD
BRANCH  14  16
ATOM     16  C   UNL A   1      29.341  26.274  23.591  1.00  0.00     0.152 C 
BRANCH  16  17
ATOM     17  C   UNL A   1      29.048  27.698  23.171  1.00  0.00    -0.029 A 
ATOM     18  C   UNL A   1      28.174  31.785  22.079  1.00  0.00     0.044 C 
ATOM     19  C   UNL A   1      28.482  30.362  22.437  1.00  0.00    -0.051 A 
ATOM     20  C   UNL A   1      27.478  29.548  22.973  1.00  0.00     0.004 A 
ATOM     21  C   UNL A   1      29.766  29.832  22.262  1.00  0.00     0.004 A 
ATOM     22  C   UNL A   1      27.756  28.229  23.328  1.00  0.00     0.006 A 
ATOM     23  C   UNL A   1      30.047  28.512  22.624  1.00  0.00     0.006 A 
ENDBRANCH  16  17
ENDBRANCH  14  16
ENDBRANCH   9  14
BRANCH  12  24
ATOM     24  C   UNL A   1      33.565  28.691  26.439  1.00  0.00     0.433 C 
ATOM     25  F   UNL A   1      34.011  28.741  27.726  1.00  0.00    -0.165 F 
ATOM     26  F   UNL A   1      34.653  28.928  25.652  1.00  0.00    -0.165 F 
ATOM     27  F   UNL A   1      32.766  29.788  26.289  1.00  0.00    -0.165 F 
ENDBRANCH  12  24
ENDBRANCH   7   8
ENDBRANCH   6   7
ENDBRANCH   3   6
ENDBRANCH   1   2
BRANCH   1  28
ATOM     28  C   UNL A   1      37.217  20.989  24.883  1.00  0.00     0.023 C 
BRANCH  28  29
ATOM     29  C   UNL A   1      38.636  21.113  25.445  1.00  0.00     0.023 C 
BRANCH  29  30
ATOM     30  C   UNL A   1      39.009  22.494  25.971  1.00  0.00     0.116 C 
BRANCH  30  31
ATOM     31  N   UNL A   1      40.393  22.630  26.406  1.00  0.00    -0.352 N 
ATOM     32  C   UNL A   1      41.082  23.761  26.826  1.00  0.00     0.251 C 
ATOM     33  H   UNL A   1      40.917  21.796  26.401  1.00  0.00     0.163 HD
ATOM     34  O   UNL A   1      42.257  23.694  27.110  1.00  0.00    -0.269 OA
BRANCH  32  35
ATOM     35  C   UNL A   1      40.331  25.027  27.051  1.00  0.00     0.039 A 
ATOM     36  C   UNL A   1      40.749  26.169  26.356  1.00  0.00     0.014 A 
ATOM     37  C   UNL A   1      39.378  25.135  28.060  1.00  0.00     0.014 A 
ATOM     38  C   UNL A   1      40.413  27.429  26.850  1.00  0.00     0.010 A 
ATOM     39  C   UNL A   1      39.121  26.377  28.607  1.00  0.00     0.010 A 
ATOM     40  C   UNL A   1      39.706  27.519  28.050  1.00  0.00    -0.014 A 
BRANCH  40  41
ATOM     41  C   UNL A   1      39.728  28.713  28.891  1.00  0.00     0.031 A 
ATOM     42  C   UNL A   1      38.716  29.782  28.780  1.00  0.00     0.074 A 
ATOM     43  C   UNL A   1      40.645  28.785  29.884  1.00  0.00     0.049 A 
ATOM     44  N   UNL A   1      38.938  31.012  29.115  1.00  0.00    -0.248 NA
ATOM     45  C   UNL A   1      37.368  29.557  28.273  1.00  0.00     0.031 C 
ATOM     46  C   UNL A   1      40.655  29.709  31.015  1.00  0.00     0.029 A 
ATOM     47  N   UNL A   1      41.879  28.119  29.970  1.00  0.00    -0.354 N 
ATOM     48  C   UNL A   1      37.724  31.657  29.149  1.00  0.00     0.074 A 
ATOM     49  C   UNL A   1      36.788  30.730  28.548  1.00  0.00     0.031 C 
ATOM     50  C   UNL A   1      41.900  29.779  31.509  1.00  0.00     0.029 A 
ATOM     51  C   UNL A   1      42.757  29.013  30.623  1.00  0.00     0.049 A 
ATOM     52  H   UNL A   1      42.090  27.214  29.642  1.00  0.00     0.167 HD
ATOM     53  C   UNL A   1      37.600  32.843  29.813  1.00  0.00     0.037 A 
ATOM     54  C   UNL A   1      43.882  29.489  30.018  1.00  0.00     0.037 A 
ATOM     55  C   UNL A   1      38.858  33.263  30.420  1.00  0.00     0.049 A 
ATOM     56  C   UNL A   1      43.950  30.994  29.931  1.00  0.00     0.074 A 
ATOM     57  C   UNL A   1      39.349  33.156  31.712  1.00  0.00     0.029 A 
ATOM     58  N   UNL A   1      39.938  33.617  29.618  1.00  0.00    -0.354 N 
ATOM     59  N   UNL A   1      42.913  31.772  30.045  1.00  0.00    -0.248 NA
ATOM     60  C   UNL A   1      45.176  31.735  29.646  1.00  0.00     0.031 C 
ATOM     61  C   UNL A   1      40.731  33.445  31.687  1.00  0.00     0.029 A 
ATOM     62  C   UNL A   1      41.087  33.720  30.380  1.00  0.00     0.049 A 
ATOM     63  H   UNL A   1      39.891  33.771  28.647  1.00  0.00     0.167 HD
ATOM     64  C   UNL A   1      43.286  33.069  29.805  1.00  0.00     0.074 A 
ATOM     65  C   UNL A   1      44.718  32.998  29.593  1.00  0.00     0.031 C 
ATOM     66  C   UNL A   1      42.364  34.077  29.783  1.00  0.00     0.037 A 
BRANCH  53  67
ATOM     67  C   UNL A   1      36.260  33.443  30.170  1.00  0.00     0.064 A 
ATOM     68  C   UNL A   1      35.439  34.051  29.195  1.00  0.00     0.173 A 
ATOM     69  C   UNL A   1      35.753  33.487  31.481  1.00  0.00     0.173 A 
ATOM     70  F   UNL A   1      35.730  33.990  27.890  1.00  0.00    -0.203 F 
ATOM     71  C   UNL A   1      34.283  34.762  29.524  1.00  0.00     0.198 A 
ATOM     72  C   UNL A   1      34.623  34.240  31.818  1.00  0.00     0.198 A 
ATOM     73  F   UNL A   1      36.327  32.779  32.464  1.00  0.00    -0.203 F 
ATOM     74  F   UNL A   1      33.557  35.336  28.554  1.00  0.00    -0.200 F 
ATOM     75  C   UNL A   1      33.897  34.891  30.841  1.00  0.00     0.200 A 
ATOM     76  F   UNL A   1      34.250  34.339  33.102  1.00  0.00    -0.200 F 
ATOM     77  F   UNL A   1      32.822  35.623  31.164  1.00  0.00    -0.200 F 
ENDBRANCH  53  67
BRANCH  54  78
ATOM     78  C   UNL A   1      44.443  28.569  28.996  1.00  0.00     0.064 A 
ATOM     79  C   UNL A   1      45.175  27.446  29.427  1.00  0.00     0.173 A 
ATOM     80  C   UNL A   1      43.977  28.573  27.676  1.00  0.00     0.173 A 
ATOM     81  F   UNL A   1      45.632  27.389  30.689  1.00  0.00    -0.203 F 
ATOM     82  C   UNL A   1      45.340  26.332  28.608  1.00  0.00     0.198 A 
ATOM     83  C   UNL A   1      44.155  27.459  26.855  1.00  0.00     0.198 A 
ATOM     84  F   UNL A   1      43.254  29.603  27.215  1.00  0.00    -0.203 F 
ATOM     85  F   UNL A   1      45.946  25.236  29.087  1.00  0.00    -0.200 F 
ATOM     86  C   UNL A   1      44.808  26.331  27.330  1.00  0.00     0.200 A 
ATOM     87  F   UNL A   1      43.609  27.442  25.630  1.00  0.00    -0.200 F 
ATOM     88  F   UNL A   1      44.885  25.228  26.572  1.00  0.00    -0.200 F 
ENDBRANCH  54  78
BRANCH  66  89
ATOM     89  C   UNL A   1      42.579  35.497  29.309  1.00  0.00     0.064 A 
ATOM     90  C   UNL A   1      41.979  36.048  28.164  1.00  0.00     0.173 A 
ATOM     91  C   UNL A   1      43.314  36.412  30.104  1.00  0.00     0.173 A 
ATOM     92  F   UNL A   1      41.157  35.328  27.390  1.00  0.00    -0.203 F 
ATOM     93  C   UNL A   1      42.152  37.390  27.809  1.00  0.00     0.198 A 
ATOM     94  C   UNL A   1      43.437  37.762  29.777  1.00  0.00     0.198 A 
ATOM     95  F   UNL A   1      43.917  36.030  31.240  1.00  0.00    -0.203 F 
ATOM     96  F   UNL A   1      41.590  37.854  26.684  1.00  0.00    -0.200 F 
ATOM     97  C   UNL A   1      42.869  38.248  28.620  1.00  0.00     0.200 A 
ATOM     98  F   UNL A   1      44.091  38.590  30.604  1.00  0.00    -0.200 F 
ATOM     99  F   UNL A   1      42.994  39.542  28.299  1.00  0.00    -0.200 F 
ENDBRANCH  66  89
ENDBRANCH  40  41
ENDBRANCH  32  35
ENDBRANCH  30  31
ENDBRANCH  29  30
ENDBRANCH  28  29
ENDBRANCH   1  28
TORSDOF 17
ENDMDL
MODEL 3
REMARK VINA RESULT:     -12.5      3.941     10.232
REMARK SMILES Cc1ccc(CNc2nc(OCC(=O)NCCCCNC(=O)c3ccc(-c4c5nc(c(-c6c(F)c(F)c(F)c(F)c6F)c6ccc([nH]6)c(-c6c(F)c(F)c(F)c(F)c6F)c6nc(c(-c7c(F)c(F)c(F)c(F)c7F)c7ccc4[nH]7)C=C6)C=C5)cc3)cc(C(F)(F)F)n2)cc1
REMARK SMILES IDX 16 1 15 2 13 3 14 4 12 6 11 7 10 8 8 9 9 10 92 11 87 12
REMARK SMILES IDX 86 13 7 14 6 16 5 17 1 18 2 19 3 20 94 21 4 22 93 23 88 24
REMARK SMILES IDX 89 25 90 26 91 27 17 28 18 29 19 30 20 31 21 32 22 34 23 35
REMARK SMILES IDX 24 36 85 37 25 38 84 39 26 40 27 41 28 42 78 43 29 44 83 45
REMARK SMILES IDX 77 46 79 47 30 48 82 49 76 50 75 51 31 53 63 54 43 55 62 56
REMARK SMILES IDX 44 57 47 58 61 59 80 60 45 61 46 62 60 64 81 65 48 66 32 67
REMARK SMILES IDX 33 68 41 69 34 70 35 71 39 72 42 73 36 74 37 75 40 76 38 77
REMARK SMILES IDX 64 78 65 79 73 80 66 81 67 82 71 83 74 84 68 85 69 86 72 87
REMARK SMILES IDX 70 88 49 89 50 90 58 91 51 92 52 93 56 94 59 95 53 96 54 97
REMARK SMILES IDX 57 98 55 99
REMARK H PARENT 15 5 7 15 20 33 79 52 47 63
REMARK Flexibility Score: inf
ROOT
ATOM      1  C   UNL A   1      31.801  27.769  25.440  1.00  0.00     0.116 C 
ENDROOT
BRANCH   1   2
ATOM      2  N   UNL A   1      31.386  26.697  26.329  1.00  0.00    -0.353 N 
ATOM      3  C   UNL A   1      31.551  25.351  26.198  1.00  0.00     0.258 C 
ATOM      4  O   UNL A   1      31.107  24.615  27.082  1.00  0.00    -0.271 OA
ATOM      5  H   UNL A   1      30.916  26.987  27.144  1.00  0.00     0.163 HD
BRANCH   3   6
ATOM      6  C   UNL A   1      32.286  24.769  24.986  1.00  0.00     0.331 C 
BRANCH   6   7
ATOM      7  O   UNL A   1      31.834  23.521  24.498  1.00  0.00    -0.467 OA
BRANCH   7   8
ATOM      8  C   UNL A   1      32.661  22.444  24.609  1.00  0.00     0.219 A 
ATOM      9  C   UNL A   1      34.873  21.841  24.554  1.00  0.00     0.226 A 
ATOM     10  N   UNL A   1      33.951  22.802  24.545  1.00  0.00    -0.177 NA
ATOM     11  N   UNL A   1      34.583  20.542  24.639  1.00  0.00    -0.208 NA
ATOM     12  C   UNL A   1      33.277  20.191  24.754  1.00  0.00     0.153 A 
ATOM     13  C   UNL A   1      32.267  21.137  24.750  1.00  0.00     0.102 A 
BRANCH   9  14
ATOM     14  N   UNL A   1      36.163  22.263  24.427  1.00  0.00    -0.350 N 
ATOM     15  H   UNL A   1      36.590  22.247  23.540  1.00  0.00     0.164 HD
BRANCH  14  16
ATOM     16  C   UNL A   1      36.913  22.732  25.563  1.00  0.00     0.152 C 
BRANCH  16  17
ATOM     17  C   UNL A   1      38.126  21.845  25.746  1.00  0.00    -0.029 A 
ATOM     18  C   UNL A   1      41.587  19.293  26.156  1.00  0.00     0.044 C 
ATOM     19  C   UNL A   1      40.384  20.180  26.035  1.00  0.00    -0.051 A 
ATOM     20  C   UNL A   1      39.208  19.682  25.466  1.00  0.00     0.004 A 
ATOM     21  C   UNL A   1      40.421  21.512  26.467  1.00  0.00     0.004 A 
ATOM     22  C   UNL A   1      38.088  20.503  25.331  1.00  0.00     0.006 A 
ATOM     23  C   UNL A   1      39.301  22.337  26.325  1.00  0.00     0.006 A 
ENDBRANCH  16  17
ENDBRANCH  14  16
ENDBRANCH   9  14
BRANCH  12  24
ATOM     24  C   UNL A   1      32.935  18.717  24.891  1.00  0.00     0.433 C 
ATOM     25  F   UNL A   1      32.014  18.294  23.979  1.00  0.00    -0.165 F 
ATOM     26  F   UNL A   1      34.020  17.905  24.739  1.00  0.00    -0.165 F 
ATOM     27  F   UNL A   1      32.412  18.396  26.111  1.00  0.00    -0.165 F 
ENDBRANCH  12  24
ENDBRANCH   7   8
ENDBRANCH   6   7
ENDBRANCH   3   6
ENDBRANCH   1   2
BRANCH   1  28
ATOM     28  C   UNL A   1      33.268  28.182  25.621  1.00  0.00     0.023 C 
BRANCH  28  29
ATOM     29  C   UNL A   1      33.504  29.584  26.190  1.00  0.00     0.023 C 
BRANCH  29  30
ATOM     30  C   UNL A   1      33.823  29.637  27.679  1.00  0.00     0.116 C 
BRANCH  30  31
ATOM     31  N   UNL A   1      34.533  30.834  28.111  1.00  0.00    -0.352 N 
ATOM     32  C   UNL A   1      35.854  30.981  28.519  1.00  0.00     0.251 C 
ATOM     33  H   UNL A   1      33.998  31.661  28.113  1.00  0.00     0.163 HD
ATOM     34  O   UNL A   1      36.264  32.057  28.891  1.00  0.00    -0.269 OA
BRANCH  32  35
ATOM     35  C   UNL A   1      36.792  29.835  28.368  1.00  0.00     0.039 A 
ATOM     36  C   UNL A   1      36.991  29.001  29.475  1.00  0.00     0.014 A 
ATOM     37  C   UNL A   1      37.600  29.703  27.243  1.00  0.00     0.014 A 
ATOM     38  C   UNL A   1      38.153  28.234  29.552  1.00  0.00     0.010 A 
ATOM     39  C   UNL A   1      38.796  29.020  27.353  1.00  0.00     0.010 A 
ATOM     40  C   UNL A   1      39.109  28.351  28.542  1.00  0.00    -0.014 A 
BRANCH  40  41
ATOM     41  C   UNL A   1      40.514  28.007  28.742  1.00  0.00     0.031 A 
ATOM     42  C   UNL A   1      41.113  26.768  28.207  1.00  0.00     0.074 A 
ATOM     43  C   UNL A   1      41.321  28.913  29.341  1.00  0.00     0.049 A 
ATOM     44  N   UNL A   1      42.145  26.190  28.730  1.00  0.00    -0.248 NA
ATOM     45  C   UNL A   1      40.590  26.068  27.039  1.00  0.00     0.031 C 
ATOM     46  C   UNL A   1      42.781  28.920  29.366  1.00  0.00     0.029 A 
ATOM     47  N   UNL A   1      40.955  29.949  30.218  1.00  0.00    -0.354 N 
ATOM     48  C   UNL A   1      42.591  25.247  27.834  1.00  0.00     0.074 A 
ATOM     49  C   UNL A   1      41.549  25.159  26.832  1.00  0.00     0.031 C 
ATOM     50  C   UNL A   1      43.196  29.678  30.391  1.00  0.00     0.029 A 
ATOM     51  C   UNL A   1      42.017  30.065  31.143  1.00  0.00     0.049 A 
ATOM     52  H   UNL A   1      40.128  30.483  30.193  1.00  0.00     0.167 HD
ATOM     53  C   UNL A   1      43.855  24.745  27.944  1.00  0.00     0.037 A 
ATOM     54  C   UNL A   1      41.836  29.857  32.478  1.00  0.00     0.037 A 
ATOM     55  C   UNL A   1      44.578  25.328  29.069  1.00  0.00     0.049 A 
ATOM     56  C   UNL A   1      42.716  28.779  33.062  1.00  0.00     0.074 A 
ATOM     57  C   UNL A   1      45.509  26.353  29.146  1.00  0.00     0.029 A 
ATOM     58  N   UNL A   1      44.168  25.072  30.372  1.00  0.00    -0.354 N 
ATOM     59  N   UNL A   1      43.305  27.863  32.350  1.00  0.00    -0.248 NA
ATOM     60  C   UNL A   1      42.950  28.611  34.494  1.00  0.00     0.031 C 
ATOM     61  C   UNL A   1      45.657  26.717  30.502  1.00  0.00     0.029 A 
ATOM     62  C   UNL A   1      44.813  25.921  31.253  1.00  0.00     0.049 A 
ATOM     63  H   UNL A   1      43.512  24.386  30.631  1.00  0.00     0.167 HD
ATOM     64  C   UNL A   1      43.934  26.971  33.181  1.00  0.00     0.074 A 
ATOM     65  C   UNL A   1      43.709  27.501  34.511  1.00  0.00     0.031 C 
ATOM     66  C   UNL A   1      44.561  25.864  32.684  1.00  0.00     0.037 A 
BRANCH  53  67
ATOM     67  C   UNL A   1      44.524  23.967  26.835  1.00  0.00     0.064 A 
ATOM     68  C   UNL A   1      44.294  22.584  26.660  1.00  0.00     0.173 A 
ATOM     69  C   UNL A   1      45.447  24.531  25.938  1.00  0.00     0.173 A 
ATOM     70  F   UNL A   1      43.360  21.930  27.361  1.00  0.00    -0.203 F 
ATOM     71  C   UNL A   1      45.026  21.810  25.758  1.00  0.00     0.198 A 
ATOM     72  C   UNL A   1      46.216  23.749  25.069  1.00  0.00     0.198 A 
ATOM     73  F   UNL A   1      45.607  25.860  25.861  1.00  0.00    -0.203 F 
ATOM     74  F   UNL A   1      44.776  20.496  25.653  1.00  0.00    -0.200 F 
ATOM     75  C   UNL A   1      46.017  22.385  24.991  1.00  0.00     0.200 A 
ATOM     76  F   UNL A   1      47.162  24.327  24.315  1.00  0.00    -0.200 F 
ATOM     77  F   UNL A   1      46.761  21.632  24.169  1.00  0.00    -0.200 F 
ENDBRANCH  53  67
BRANCH  54  78
ATOM     78  C   UNL A   1      40.457  30.149  32.944  1.00  0.00     0.064 A 
ATOM     79  C   UNL A   1      40.062  31.494  33.081  1.00  0.00     0.173 A 
ATOM     80  C   UNL A   1      39.450  29.177  32.904  1.00  0.00     0.173 A 
ATOM     81  F   UNL A   1      40.989  32.465  33.112  1.00  0.00    -0.203 F 
ATOM     82  C   UNL A   1      38.718  31.858  33.069  1.00  0.00     0.198 A 
ATOM     83  C   UNL A   1      38.105  29.546  32.905  1.00  0.00     0.198 A 
ATOM     84  F   UNL A   1      39.763  27.883  32.752  1.00  0.00    -0.203 F 
ATOM     85  F   UNL A   1      38.378  33.155  33.089  1.00  0.00    -0.200 F 
ATOM     86  C   UNL A   1      37.741  30.884  32.956  1.00  0.00     0.200 A 
ATOM     87  F   UNL A   1      37.158  28.607  32.759  1.00  0.00    -0.200 F 
ATOM     88  F   UNL A   1      36.452  31.235  32.852  1.00  0.00    -0.200 F 
ENDBRANCH  54  78
BRANCH  66  89
ATOM     89  C   UNL A   1      45.086  24.685  33.472  1.00  0.00     0.064 A 
ATOM     90  C   UNL A   1      44.399  23.470  33.630  1.00  0.00     0.173 A 
ATOM     91  C   UNL A   1      46.404  24.704  33.993  1.00  0.00     0.173 A 
ATOM     92  F   UNL A   1      43.194  23.272  33.081  1.00  0.00    -0.203 F 
ATOM     93  C   UNL A   1      44.960  22.383  34.309  1.00  0.00     0.198 A 
ATOM     94  C   UNL A   1      46.982  23.599  34.618  1.00  0.00     0.198 A 
ATOM     95  F   UNL A   1      47.187  25.789  33.889  1.00  0.00    -0.203 F 
ATOM     96  F   UNL A   1      44.245  21.260  34.466  1.00  0.00    -0.200 F 
ATOM     97  C   UNL A   1      46.254  22.442  34.791  1.00  0.00     0.200 A 
ATOM     98  F   UNL A   1      48.256  23.659  35.031  1.00  0.00    -0.200 F 
ATOM     99  F   UNL A   1      46.802  21.383  35.399  1.00  0.00    -0.200 F 
ENDBRANCH  66  89
ENDBRANCH  40  41
ENDBRANCH  32  35
ENDBRANCH  30  31
ENDBRANCH  29  30
ENDBRANCH  28  29
ENDBRANCH   1  28
TORSDOF 17
ENDMDL
