MODEL 1
REMARK VINA RESULT:     -13.5      0.000      0.000
REMARK SMILES O=C(NCCCCNC(=O)c1sccc1S(=O)(=O)Nc1ccc(Cn2cncn2)cc1)c1ccc(-c2c3nc(c(-c4c(F)c(F)c(F)c(F)c4F)c4ccc([nH]4)c(-c4c(F)c(F)c(F)c(F)c4F)c4nc(c(-c5c(F)c(F)c(F)c(F)c5F)c5ccc2[nH]5)C=C4)C=C3)cc1
REMARK SMILES IDX 7 1 6 2 5 3 4 4 3 5 1 6 2 7 32 9 33 10 94 11 34 12 93 13
REMARK SMILES IDX 35 14 36 15 37 16 87 17 38 18 92 19 86 20 88 21 39 22 91 23
REMARK SMILES IDX 85 24 84 25 40 27 72 28 52 29 71 30 53 31 56 32 70 33 89 34
REMARK SMILES IDX 54 35 55 36 69 38 90 39 57 40 41 41 42 42 50 43 43 44 44 45
REMARK SMILES IDX 48 46 51 47 45 48 46 49 49 50 47 51 73 52 74 53 82 54 75 55
REMARK SMILES IDX 76 56 80 57 83 58 77 59 78 60 81 61 79 62 58 63 59 64 67 65
REMARK SMILES IDX 60 66 61 67 65 68 68 69 62 70 63 71 66 72 64 73 8 74 9 75
REMARK SMILES IDX 10 77 11 78 12 79 15 80 13 81 14 82 16 83 17 84 18 85 19 86
REMARK SMILES IDX 20 88 21 89 31 90 22 91 30 92 23 93 24 94 25 95 26 96 29 97
REMARK SMILES IDX 27 98 28 99
REMARK H PARENT 3 8 88 26 56 37 8 76 19 87
REMARK Flexibility Score: inf
ROOT
ATOM      1  C   UNL A   1      32.455  27.043  26.586  1.00  0.00     0.116 C 
ENDROOT
BRANCH   1   2
ATOM      2  C   UNL A   1      31.708  28.238  25.995  1.00  0.00     0.023 C 
BRANCH   2   3
ATOM      3  C   UNL A   1      31.889  29.564  26.747  1.00  0.00     0.023 C 
BRANCH   3   4
ATOM      4  C   UNL A   1      33.303  30.144  26.718  1.00  0.00     0.116 C 
BRANCH   4   5
ATOM      5  N   UNL A   1      33.527  31.297  27.558  1.00  0.00    -0.352 N 
ATOM      6  O   UNL A   1      34.485  32.926  28.704  1.00  0.00    -0.269 OA
ATOM      7  C   UNL A   1      34.605  31.792  28.237  1.00  0.00     0.251 C 
ATOM      8  H   UNL A   1      32.722  31.853  27.666  1.00  0.00     0.163 HD
BRANCH   7   9
ATOM      9  C   UNL A   1      35.861  31.043  28.502  1.00  0.00     0.039 A 
ATOM     10  C   UNL A   1      36.004  29.656  28.473  1.00  0.00     0.014 A 
ATOM     11  C   UNL A   1      36.992  31.831  28.791  1.00  0.00     0.014 A 
ATOM     12  C   UNL A   1      37.227  29.070  28.795  1.00  0.00     0.010 A 
ATOM     13  C   UNL A   1      38.223  31.251  29.089  1.00  0.00     0.010 A 
ATOM     14  C   UNL A   1      38.336  29.864  29.109  1.00  0.00    -0.014 A 
BRANCH  14  15
ATOM     15  C   UNL A   1      39.632  29.201  29.265  1.00  0.00     0.031 A 
ATOM     16  C   UNL A   1      40.073  28.999  30.677  1.00  0.00     0.074 A 
ATOM     17  C   UNL A   1      40.348  28.643  28.269  1.00  0.00     0.049 A 
ATOM     18  N   UNL A   1      41.153  29.424  31.248  1.00  0.00    -0.248 NA
ATOM     19  C   UNL A   1      39.163  28.277  31.578  1.00  0.00     0.031 C 
ATOM     20  C   UNL A   1      39.945  28.431  26.880  1.00  0.00     0.029 A 
ATOM     21  N   UNL A   1      41.580  28.051  28.334  1.00  0.00    -0.354 N 
ATOM     22  C   UNL A   1      41.142  28.900  32.542  1.00  0.00     0.074 A 
ATOM     23  C   UNL A   1      39.848  28.294  32.722  1.00  0.00     0.031 C 
ATOM     24  C   UNL A   1      40.823  27.588  26.289  1.00  0.00     0.029 A 
ATOM     25  C   UNL A   1      41.911  27.306  27.212  1.00  0.00     0.049 A 
ATOM     26  H   UNL A   1      42.178  28.146  29.110  1.00  0.00     0.167 HD
ATOM     27  C   UNL A   1      42.271  28.846  33.301  1.00  0.00     0.037 A 
ATOM     28  C   UNL A   1      42.974  26.476  27.071  1.00  0.00     0.037 A 
ATOM     29  C   UNL A   1      43.271  29.766  32.827  1.00  0.00     0.049 A 
ATOM     30  C   UNL A   1      43.977  26.828  28.102  1.00  0.00     0.074 A 
ATOM     31  C   UNL A   1      43.332  31.133  32.641  1.00  0.00     0.029 A 
ATOM     32  N   UNL A   1      44.365  29.262  32.171  1.00  0.00    -0.354 N 
ATOM     33  N   UNL A   1      44.712  27.902  28.085  1.00  0.00    -0.248 NA
ATOM     34  C   UNL A   1      43.938  26.118  29.371  1.00  0.00     0.031 C 
ATOM     35  C   UNL A   1      44.158  31.318  31.494  1.00  0.00     0.029 A 
ATOM     36  C   UNL A   1      44.574  30.054  31.075  1.00  0.00     0.049 A 
ATOM     37  H   UNL A   1      44.897  28.478  32.437  1.00  0.00     0.167 HD
ATOM     38  C   UNL A   1      44.863  28.240  29.419  1.00  0.00     0.074 A 
ATOM     39  C   UNL A   1      44.486  27.043  30.160  1.00  0.00     0.031 C 
ATOM     40  C   UNL A   1      45.002  29.543  29.797  1.00  0.00     0.037 A 
BRANCH  27  41
ATOM     41  C   UNL A   1      42.611  27.721  34.258  1.00  0.00     0.064 A 
ATOM     42  C   UNL A   1      43.161  26.527  33.742  1.00  0.00     0.173 A 
ATOM     43  C   UNL A   1      42.127  27.640  35.581  1.00  0.00     0.173 A 
ATOM     44  F   UNL A   1      43.652  26.480  32.495  1.00  0.00    -0.203 F 
ATOM     45  C   UNL A   1      43.119  25.323  34.453  1.00  0.00     0.198 A 
ATOM     46  C   UNL A   1      42.138  26.450  36.307  1.00  0.00     0.198 A 
ATOM     47  F   UNL A   1      41.524  28.670  36.184  1.00  0.00    -0.203 F 
ATOM     48  F   UNL A   1      43.514  24.189  33.861  1.00  0.00    -0.200 F 
ATOM     49  C   UNL A   1      42.596  25.284  35.731  1.00  0.00     0.200 A 
ATOM     50  F   UNL A   1      41.618  26.427  37.543  1.00  0.00    -0.200 F 
ATOM     51  F   UNL A   1      42.486  24.120  36.385  1.00  0.00    -0.200 F 
ENDBRANCH  27  41
BRANCH  28  52
ATOM     52  C   UNL A   1      43.115  25.255  26.245  1.00  0.00     0.064 A 
ATOM     53  C   UNL A   1      44.210  25.088  25.379  1.00  0.00     0.173 A 
ATOM     54  C   UNL A   1      42.335  24.110  26.495  1.00  0.00     0.173 A 
ATOM     55  F   UNL A   1      45.029  26.117  25.117  1.00  0.00    -0.203 F 
ATOM     56  C   UNL A   1      44.525  23.844  24.824  1.00  0.00     0.198 A 
ATOM     57  C   UNL A   1      42.644  22.871  25.931  1.00  0.00     0.198 A 
ATOM     58  F   UNL A   1      41.317  24.149  27.366  1.00  0.00    -0.203 F 
ATOM     59  F   UNL A   1      45.618  23.710  24.061  1.00  0.00    -0.200 F 
ATOM     60  C   UNL A   1      43.747  22.734  25.110  1.00  0.00     0.200 A 
ATOM     61  F   UNL A   1      41.902  21.798  26.242  1.00  0.00    -0.200 F 
ATOM     62  F   UNL A   1      44.085  21.529  24.631  1.00  0.00    -0.200 F 
ENDBRANCH  28  52
BRANCH  40  63
ATOM     63  C   UNL A   1      45.365  30.548  28.745  1.00  0.00     0.064 A 
ATOM     64  C   UNL A   1      44.444  31.140  27.864  1.00  0.00     0.173 A 
ATOM     65  C   UNL A   1      46.687  31.015  28.712  1.00  0.00     0.173 A 
ATOM     66  F   UNL A   1      43.141  30.829  27.912  1.00  0.00    -0.203 F 
ATOM     67  C   UNL A   1      44.848  32.112  26.951  1.00  0.00     0.198 A 
ATOM     68  C   UNL A   1      47.077  32.016  27.829  1.00  0.00     0.198 A 
ATOM     69  F   UNL A   1      47.596  30.527  29.570  1.00  0.00    -0.203 F 
ATOM     70  F   UNL A   1      43.957  32.648  26.103  1.00  0.00    -0.200 F 
ATOM     71  C   UNL A   1      46.161  32.554  26.938  1.00  0.00     0.200 A 
ATOM     72  F   UNL A   1      48.335  32.478  27.856  1.00  0.00    -0.200 F 
ATOM     73  F   UNL A   1      46.538  33.518  26.087  1.00  0.00    -0.200 F 
ENDBRANCH  40  63
ENDBRANCH  14  15
ENDBRANCH   7   9
ENDBRANCH   4   5
ENDBRANCH   3   4
ENDBRANCH   2   3
ENDBRANCH   1   2
BRANCH   1  74
ATOM     74  N   UNL A   1      31.584  25.900  26.734  1.00  0.00    -0.351 N 
ATOM     75  C   UNL A   1      31.735  24.610  26.305  1.00  0.00     0.262 C 
ATOM     76  H   UNL A   1      30.747  26.078  27.221  1.00  0.00     0.163 HD
ATOM     77  O   UNL A   1      30.728  23.901  26.382  1.00  0.00    -0.268 OA
BRANCH  75  78
ATOM     78  C   UNL A   1      32.979  24.158  25.724  1.00  0.00     0.112 A 
ATOM     79  S   UNL A   1      33.951  23.211  26.807  1.00  0.00    -0.137 S 
ATOM     80  C   UNL A   1      33.630  24.343  24.515  1.00  0.00     0.111 A 
ATOM     81  C   UNL A   1      35.161  22.957  25.645  1.00  0.00     0.067 A 
ATOM     82  C   UNL A   1      34.868  23.599  24.469  1.00  0.00     0.035 A 
BRANCH  80  83
ATOM     83  S   UNL A   1      33.200  25.268  23.108  1.00  0.00     0.263 S 
ATOM     84  O   UNL A   1      33.590  26.608  23.468  1.00  0.00    -0.201 OA
ATOM     85  O   UNL A   1      33.903  24.558  22.049  1.00  0.00    -0.201 OA
BRANCH  83  86
ATOM     86  N   UNL A   1      31.627  25.347  22.590  1.00  0.00    -0.280 N 
ATOM     87  H   UNL A   1      31.325  24.640  21.975  1.00  0.00     0.180 HD
BRANCH  86  88
ATOM     88  C   UNL A   1      30.686  26.329  22.948  1.00  0.00     0.049 A 
ATOM     89  C   UNL A   1      30.877  27.590  22.383  1.00  0.00     0.027 A 
ATOM     90  C   UNL A   1      29.578  26.085  23.744  1.00  0.00     0.027 A 
ATOM     91  C   UNL A   1      29.851  28.526  22.399  1.00  0.00     0.008 A 
ATOM     92  C   UNL A   1      28.558  27.041  23.797  1.00  0.00     0.008 A 
ATOM     93  C   UNL A   1      28.652  28.231  23.055  1.00  0.00    -0.026 A 
BRANCH  93  94
ATOM     94  C   UNL A   1      27.435  29.103  22.859  1.00  0.00     0.181 C 
BRANCH  94  95
ATOM     95  N   UNL A   1      27.779  30.496  22.669  1.00  0.00    -0.249 N 
ATOM     96  C   UNL A   1      28.109  31.408  23.625  1.00  0.00     0.220 A 
ATOM     97  N   UNL A   1      27.870  31.032  21.438  1.00  0.00    -0.160 NA
ATOM     98  N   UNL A   1      28.382  32.560  23.056  1.00  0.00    -0.224 NA
ATOM     99  C   UNL A   1      28.228  32.286  21.727  1.00  0.00     0.246 A 
ENDBRANCH  94  95
ENDBRANCH  93  94
ENDBRANCH  86  88
ENDBRANCH  83  86
ENDBRANCH  80  83
ENDBRANCH  75  78
ENDBRANCH   1  74
TORSDOF 16
ENDMDL
MODEL 2
REMARK VINA RESULT:     -13.4      2.370      4.805
REMARK SMILES O=C(NCCCCNC(=O)c1sccc1S(=O)(=O)Nc1ccc(Cn2cncn2)cc1)c1ccc(-c2c3nc(c(-c4c(F)c(F)c(F)c(F)c4F)c4ccc([nH]4)c(-c4c(F)c(F)c(F)c(F)c4F)c4nc(c(-c5c(F)c(F)c(F)c(F)c5F)c5ccc2[nH]5)C=C4)C=C3)cc1
REMARK SMILES IDX 7 1 6 2 5 3 4 4 3 5 1 6 2 7 32 9 33 10 94 11 34 12 93 13
REMARK SMILES IDX 35 14 36 15 37 16 87 17 38 18 92 19 86 20 88 21 39 22 91 23
REMARK SMILES IDX 85 24 84 25 40 27 72 28 52 29 71 30 53 31 56 32 70 33 89 34
REMARK SMILES IDX 54 35 55 36 69 38 90 39 57 40 41 41 42 42 50 43 43 44 44 45
REMARK SMILES IDX 48 46 51 47 45 48 46 49 49 50 47 51 73 52 74 53 82 54 75 55
REMARK SMILES IDX 76 56 80 57 83 58 77 59 78 60 81 61 79 62 58 63 59 64 67 65
REMARK SMILES IDX 60 66 61 67 65 68 68 69 62 70 63 71 66 72 64 73 8 74 9 75
REMARK SMILES IDX 10 77 11 78 12 79 15 80 13 81 14 82 16 83 17 84 18 85 19 86
REMARK SMILES IDX 20 88 21 89 31 90 22 91 30 92 23 93 24 94 25 95 26 96 29 97
REMARK SMILES IDX 27 98 28 99
REMARK H PARENT 3 8 88 26 56 37 8 76 19 87
REMARK Flexibility Score: inf
ROOT
ATOM      1  C   UNL A   1      32.386  30.224  25.842  1.00  0.00     0.116 C 
ENDROOT
BRANCH   1   2
ATOM      2  C   UNL A   1      32.977  29.890  27.212  1.00  0.00     0.023 C 
BRANCH   2   3
ATOM      3  C   UNL A   1      34.379  30.456  27.477  1.00  0.00     0.023 C 
BRANCH   3   4
ATOM      4  C   UNL A   1      34.417  31.903  27.967  1.00  0.00     0.116 C 
BRANCH   4   5
ATOM      5  N   UNL A   1      34.339  32.085  29.398  1.00  0.00    -0.352 N 
ATOM      6  O   UNL A   1      34.861  32.355  31.528  1.00  0.00    -0.269 OA
ATOM      7  C   UNL A   1      35.212  31.909  30.435  1.00  0.00     0.251 C 
ATOM      8  H   UNL A   1      33.458  32.411  29.693  1.00  0.00     0.163 HD
BRANCH   7   9
ATOM      9  C   UNL A   1      36.498  31.170  30.348  1.00  0.00     0.039 A 
ATOM     10  C   UNL A   1      37.755  31.741  30.152  1.00  0.00     0.014 A 
ATOM     11  C   UNL A   1      36.409  29.772  30.493  1.00  0.00     0.014 A 
ATOM     12  C   UNL A   1      38.883  30.932  30.034  1.00  0.00     0.010 A 
ATOM     13  C   UNL A   1      37.536  28.960  30.400  1.00  0.00     0.010 A 
ATOM     14  C   UNL A   1      38.776  29.540  30.151  1.00  0.00    -0.014 A 
BRANCH  14  15
ATOM     15  C   UNL A   1      40.013  28.759  30.193  1.00  0.00     0.031 A 
ATOM     16  C   UNL A   1      40.608  28.588  31.552  1.00  0.00     0.074 A 
ATOM     17  C   UNL A   1      40.542  28.080  29.156  1.00  0.00     0.049 A 
ATOM     18  N   UNL A   1      41.787  28.931  31.960  1.00  0.00    -0.248 NA
ATOM     19  C   UNL A   1      39.756  28.008  32.600  1.00  0.00     0.031 C 
ATOM     20  C   UNL A   1      39.950  27.837  27.842  1.00  0.00     0.029 A 
ATOM     21  N   UNL A   1      41.712  27.371  29.110  1.00  0.00    -0.354 N 
ATOM     22  C   UNL A   1      41.890  28.479  33.276  1.00  0.00     0.074 A 
ATOM     23  C   UNL A   1      40.579  28.016  33.650  1.00  0.00     0.031 C 
ATOM     24  C   UNL A   1      40.663  26.881  27.205  1.00  0.00     0.029 A 
ATOM     25  C   UNL A   1      41.828  26.539  28.006  1.00  0.00     0.049 A 
ATOM     26  H   UNL A   1      42.410  27.446  29.800  1.00  0.00     0.167 HD
ATOM     27  C   UNL A   1      43.096  28.351  33.896  1.00  0.00     0.037 A 
ATOM     28  C   UNL A   1      42.782  25.600  27.792  1.00  0.00     0.037 A 
ATOM     29  C   UNL A   1      44.110  29.139  33.247  1.00  0.00     0.049 A 
ATOM     30  C   UNL A   1      43.936  25.902  28.670  1.00  0.00     0.074 A 
ATOM     31  C   UNL A   1      44.274  30.482  32.967  1.00  0.00     0.029 A 
ATOM     32  N   UNL A   1      45.060  28.493  32.498  1.00  0.00    -0.354 N 
ATOM     33  N   UNL A   1      44.760  26.895  28.496  1.00  0.00    -0.248 NA
ATOM     34  C   UNL A   1      43.990  25.267  29.977  1.00  0.00     0.031 C 
ATOM     35  C   UNL A   1      44.963  30.522  31.719  1.00  0.00     0.029 A 
ATOM     36  C   UNL A   1      45.203  29.203  31.336  1.00  0.00     0.049 A 
ATOM     37  H   UNL A   1      45.546  27.675  32.747  1.00  0.00     0.167 HD
ATOM     38  C   UNL A   1      45.109  27.285  29.777  1.00  0.00     0.074 A 
ATOM     39  C   UNL A   1      44.718  26.172  30.634  1.00  0.00     0.031 C 
ATOM     40  C   UNL A   1      45.416  28.584  30.051  1.00  0.00     0.037 A 
BRANCH  27  41
ATOM     41  C   UNL A   1      43.447  27.249  34.875  1.00  0.00     0.064 A 
ATOM     42  C   UNL A   1      43.869  27.599  36.177  1.00  0.00     0.173 A 
ATOM     43  C   UNL A   1      43.702  25.913  34.499  1.00  0.00     0.173 A 
ATOM     44  F   UNL A   1      43.682  28.842  36.647  1.00  0.00    -0.203 F 
ATOM     45  C   UNL A   1      44.590  26.716  36.987  1.00  0.00     0.198 A 
ATOM     46  C   UNL A   1      44.372  25.018  35.332  1.00  0.00     0.198 A 
ATOM     47  F   UNL A   1      43.416  25.450  33.277  1.00  0.00    -0.203 F 
ATOM     48  F   UNL A   1      45.097  27.146  38.150  1.00  0.00    -0.200 F 
ATOM     49  C   UNL A   1      44.851  25.430  36.558  1.00  0.00     0.200 A 
ATOM     50  F   UNL A   1      44.626  23.776  34.896  1.00  0.00    -0.200 F 
ATOM     51  F   UNL A   1      45.605  24.606  37.297  1.00  0.00    -0.200 F 
ENDBRANCH  27  41
BRANCH  28  52
ATOM     52  C   UNL A   1      42.702  24.330  27.035  1.00  0.00     0.064 A 
ATOM     53  C   UNL A   1      43.219  24.229  25.731  1.00  0.00     0.173 A 
ATOM     54  C   UNL A   1      42.376  23.118  27.673  1.00  0.00     0.173 A 
ATOM     55  F   UNL A   1      43.594  25.331  25.065  1.00  0.00    -0.203 F 
ATOM     56  C   UNL A   1      43.429  22.990  25.117  1.00  0.00     0.198 A 
ATOM     57  C   UNL A   1      42.575  21.883  27.055  1.00  0.00     0.198 A 
ATOM     58  F   UNL A   1      41.950  23.105  28.944  1.00  0.00    -0.203 F 
ATOM     59  F   UNL A   1      43.990  22.933  23.901  1.00  0.00    -0.200 F 
ATOM     60  C   UNL A   1      43.116  21.818  25.785  1.00  0.00     0.200 A 
ATOM     61  F   UNL A   1      42.298  20.755  27.724  1.00  0.00    -0.200 F 
ATOM     62  F   UNL A   1      43.376  20.629  25.223  1.00  0.00    -0.200 F 
ENDBRANCH  28  52
BRANCH  40  63
ATOM     63  C   UNL A   1      45.736  29.491  28.901  1.00  0.00     0.064 A 
ATOM     64  C   UNL A   1      44.771  30.152  28.121  1.00  0.00     0.173 A 
ATOM     65  C   UNL A   1      47.084  29.794  28.658  1.00  0.00     0.173 A 
ATOM     66  F   UNL A   1      43.462  30.002  28.365  1.00  0.00    -0.203 F 
ATOM     67  C   UNL A   1      45.147  31.027  27.104  1.00  0.00     0.198 A 
ATOM     68  C   UNL A   1      47.454  30.701  27.671  1.00  0.00     0.198 A 
ATOM     69  F   UNL A   1      48.045  29.237  29.411  1.00  0.00    -0.203 F 
ATOM     70  F   UNL A   1      44.210  31.629  26.355  1.00  0.00    -0.200 F 
ATOM     71  C   UNL A   1      46.487  31.307  26.884  1.00  0.00     0.200 A 
ATOM     72  F   UNL A   1      48.746  31.009  27.498  1.00  0.00    -0.200 F 
ATOM     73  F   UNL A   1      46.845  32.180  25.933  1.00  0.00    -0.200 F 
ENDBRANCH  40  63
ENDBRANCH  14  15
ENDBRANCH   7   9
ENDBRANCH   4   5
ENDBRANCH   3   4
ENDBRANCH   2   3
ENDBRANCH   1   2
BRANCH   1  74
ATOM     74  N   UNL A   1      33.174  29.649  24.776  1.00  0.00    -0.351 N 
ATOM     75  C   UNL A   1      32.944  28.547  24.000  1.00  0.00     0.262 C 
ATOM     76  H   UNL A   1      34.012  30.127  24.576  1.00  0.00     0.163 HD
ATOM     77  O   UNL A   1      33.899  28.168  23.315  1.00  0.00    -0.268 OA
BRANCH  75  78
ATOM     78  C   UNL A   1      31.684  27.842  24.061  1.00  0.00     0.112 A 
ATOM     79  S   UNL A   1      30.545  28.340  22.848  1.00  0.00    -0.137 S 
ATOM     80  C   UNL A   1      31.123  26.890  24.897  1.00  0.00     0.111 A 
ATOM     81  C   UNL A   1      29.374  27.224  23.358  1.00  0.00     0.067 A 
ATOM     82  C   UNL A   1      29.805  26.507  24.445  1.00  0.00     0.035 A 
BRANCH  80  83
ATOM     83  S   UNL A   1      31.738  26.108  26.322  1.00  0.00     0.263 S 
ATOM     84  O   UNL A   1      33.125  25.887  25.999  1.00  0.00    -0.201 OA
ATOM     85  O   UNL A   1      31.368  27.048  27.370  1.00  0.00    -0.201 OA
BRANCH  83  86
ATOM     86  N   UNL A   1      31.123  24.652  26.825  1.00  0.00    -0.280 N 
ATOM     87  H   UNL A   1      30.293  24.678  27.355  1.00  0.00     0.180 HD
BRANCH  86  88
ATOM     88  C   UNL A   1      31.677  23.386  26.566  1.00  0.00     0.049 A 
ATOM     89  C   UNL A   1      31.282  22.780  25.374  1.00  0.00     0.027 A 
ATOM     90  C   UNL A   1      32.622  22.775  27.376  1.00  0.00     0.027 A 
ATOM     91  C   UNL A   1      31.999  21.705  24.865  1.00  0.00     0.008 A 
ATOM     92  C   UNL A   1      33.321  21.668  26.886  1.00  0.00     0.008 A 
ATOM     93  C   UNL A   1      33.072  21.179  25.591  1.00  0.00    -0.026 A 
BRANCH  93  94
ATOM     94  C   UNL A   1      34.031  20.205  24.949  1.00  0.00     0.181 C 
BRANCH  94  95
ATOM     95  N   UNL A   1      33.474  18.873  24.841  1.00  0.00    -0.249 N 
ATOM     96  C   UNL A   1      33.754  17.929  23.901  1.00  0.00     0.220 A 
ATOM     97  N   UNL A   1      32.618  18.396  25.764  1.00  0.00    -0.160 NA
ATOM     98  N   UNL A   1      33.069  16.839  24.156  1.00  0.00    -0.224 NA
ATOM     99  C   UNL A   1      32.394  17.165  25.299  1.00  0.00     0.246 A 
ENDBRANCH  94  95
ENDBRANCH  93  94
ENDBRANCH  86  88
ENDBRANCH  83  86
ENDBRANCH  80  83
ENDBRANCH  75  78
ENDBRANCH   1  74
TORSDOF 16
ENDMDL
MODEL 3
REMARK VINA RESULT:     -13.3      3.576      8.999
REMARK SMILES O=C(NCCCCNC(=O)c1sccc1S(=O)(=O)Nc1ccc(Cn2cncn2)cc1)c1ccc(-c2c3nc(c(-c4c(F)c(F)c(F)c(F)c4F)c4ccc([nH]4)c(-c4c(F)c(F)c(F)c(F)c4F)c4nc(c(-c5c(F)c(F)c(F)c(F)c5F)c5ccc2[nH]5)C=C4)C=C3)cc1
REMARK SMILES IDX 7 1 6 2 5 3 4 4 3 5 1 6 2 7 32 9 33 10 94 11 34 12 93 13
REMARK SMILES IDX 35 14 36 15 37 16 87 17 38 18 92 19 86 20 88 21 39 22 91 23
REMARK SMILES IDX 85 24 84 25 40 27 72 28 52 29 71 30 53 31 56 32 70 33 89 34
REMARK SMILES IDX 54 35 55 36 69 38 90 39 57 40 41 41 42 42 50 43 43 44 44 45
REMARK SMILES IDX 48 46 51 47 45 48 46 49 49 50 47 51 73 52 74 53 82 54 75 55
REMARK SMILES IDX 76 56 80 57 83 58 77 59 78 60 81 61 79 62 58 63 59 64 67 65
REMARK SMILES IDX 60 66 61 67 65 68 68 69 62 70 63 71 66 72 64 73 8 74 9 75
REMARK SMILES IDX 10 77 11 78 12 79 15 80 13 81 14 82 16 83 17 84 18 85 19 86
REMARK SMILES IDX 20 88 21 89 31 90 22 91 30 92 23 93 24 94 25 95 26 96 29 97
REMARK SMILES IDX 27 98 28 99
REMARK H PARENT 3 8 88 26 56 37 8 76 19 87
REMARK Flexibility Score: inf
ROOT
ATOM      1  C   UNL A   1      35.411  24.422  25.039  1.00  0.00     0.116 C 
ENDROOT
BRANCH   1   2
ATOM      2  C   UNL A   1      35.536  22.940  24.689  1.00  0.00     0.023 C 
BRANCH   2   3
ATOM      3  C   UNL A   1      36.973  22.418  24.548  1.00  0.00     0.023 C 
BRANCH   3   4
ATOM      4  C   UNL A   1      37.710  22.170  25.863  1.00  0.00     0.116 C 
BRANCH   4   5
ATOM      5  N   UNL A   1      39.093  21.767  25.744  1.00  0.00    -0.352 N 
ATOM      6  O   UNL A   1      41.266  21.540  26.071  1.00  0.00    -0.269 OA
ATOM      7  C   UNL A   1      40.278  22.263  26.209  1.00  0.00     0.251 C 
ATOM      8  H   UNL A   1      39.206  20.950  25.207  1.00  0.00     0.163 HD
BRANCH   7   9
ATOM      9  C   UNL A   1      40.463  23.616  26.794  1.00  0.00     0.039 A 
ATOM     10  C   UNL A   1      39.778  24.770  26.412  1.00  0.00     0.014 A 
ATOM     11  C   UNL A   1      41.410  23.709  27.831  1.00  0.00     0.014 A 
ATOM     12  C   UNL A   1      40.082  25.995  27.003  1.00  0.00     0.010 A 
ATOM     13  C   UNL A   1      41.701  24.926  28.443  1.00  0.00     0.010 A 
ATOM     14  C   UNL A   1      41.047  26.077  28.014  1.00  0.00    -0.014 A 
BRANCH  14  15
ATOM     15  C   UNL A   1      41.198  27.353  28.715  1.00  0.00     0.031 A 
ATOM     16  C   UNL A   1      42.395  28.154  28.322  1.00  0.00     0.074 A 
ATOM     17  C   UNL A   1      40.285  27.902  29.541  1.00  0.00     0.049 A 
ATOM     18  N   UNL A   1      43.362  28.573  29.073  1.00  0.00    -0.248 NA
ATOM     19  C   UNL A   1      42.558  28.480  26.898  1.00  0.00     0.031 C 
ATOM     20  C   UNL A   1      38.917  27.455  29.796  1.00  0.00     0.029 A 
ATOM     21  N   UNL A   1      40.377  29.061  30.263  1.00  0.00    -0.354 N 
ATOM     22  C   UNL A   1      44.184  29.346  28.253  1.00  0.00     0.074 A 
ATOM     23  C   UNL A   1      43.701  29.166  26.908  1.00  0.00     0.031 C 
ATOM     24  C   UNL A   1      38.247  28.431  30.451  1.00  0.00     0.029 A 
ATOM     25  C   UNL A   1      39.167  29.510  30.771  1.00  0.00     0.049 A 
ATOM     26  H   UNL A   1      41.228  29.534  30.408  1.00  0.00     0.167 HD
ATOM     27  C   UNL A   1      45.089  30.223  28.770  1.00  0.00     0.037 A 
ATOM     28  C   UNL A   1      38.928  30.706  31.364  1.00  0.00     0.037 A 
ATOM     29  C   UNL A   1      45.402  29.912  30.140  1.00  0.00     0.049 A 
ATOM     30  C   UNL A   1      40.223  31.271  31.809  1.00  0.00     0.074 A 
ATOM     31  C   UNL A   1      45.924  28.816  30.799  1.00  0.00     0.029 A 
ATOM     32  N   UNL A   1      44.899  30.721  31.125  1.00  0.00    -0.354 N 
ATOM     33  N   UNL A   1      40.922  30.822  32.811  1.00  0.00    -0.248 NA
ATOM     34  C   UNL A   1      40.928  32.168  30.907  1.00  0.00     0.031 C 
ATOM     35  C   UNL A   1      45.274  28.798  32.068  1.00  0.00     0.029 A 
ATOM     36  C   UNL A   1      44.423  29.901  32.112  1.00  0.00     0.049 A 
ATOM     37  H   UNL A   1      44.882  31.705  31.123  1.00  0.00     0.167 HD
ATOM     38  C   UNL A   1      42.238  31.017  32.430  1.00  0.00     0.074 A 
ATOM     39  C   UNL A   1      42.179  31.964  31.323  1.00  0.00     0.031 C 
ATOM     40  C   UNL A   1      43.221  30.176  32.860  1.00  0.00     0.037 A 
BRANCH  27  41
ATOM     41  C   UNL A   1      45.433  31.566  28.158  1.00  0.00     0.064 A 
ATOM     42  C   UNL A   1      44.389  32.466  27.852  1.00  0.00     0.173 A 
ATOM     43  C   UNL A   1      46.679  31.865  27.569  1.00  0.00     0.173 A 
ATOM     44  F   UNL A   1      43.158  32.284  28.353  1.00  0.00    -0.203 F 
ATOM     45  C   UNL A   1      44.554  33.510  26.938  1.00  0.00     0.198 A 
ATOM     46  C   UNL A   1      46.854  32.943  26.701  1.00  0.00     0.198 A 
ATOM     47  F   UNL A   1      47.747  31.074  27.716  1.00  0.00    -0.203 F 
ATOM     48  F   UNL A   1      43.494  34.241  26.567  1.00  0.00    -0.200 F 
ATOM     49  C   UNL A   1      45.784  33.740  26.353  1.00  0.00     0.200 A 
ATOM     50  F   UNL A   1      48.052  33.145  26.134  1.00  0.00    -0.200 F 
ATOM     51  F   UNL A   1      45.927  34.692  25.422  1.00  0.00    -0.200 F 
ENDBRANCH  27  41
BRANCH  28  52
ATOM     52  C   UNL A   1      37.684  31.509  31.400  1.00  0.00     0.064 A 
ATOM     53  C   UNL A   1      36.966  31.680  32.596  1.00  0.00     0.173 A 
ATOM     54  C   UNL A   1      37.331  32.355  30.331  1.00  0.00     0.173 A 
ATOM     55  F   UNL A   1      37.264  30.944  33.676  1.00  0.00    -0.203 F 
ATOM     56  C   UNL A   1      35.977  32.661  32.725  1.00  0.00     0.198 A 
ATOM     57  C   UNL A   1      36.336  33.325  30.458  1.00  0.00     0.198 A 
ATOM     58  F   UNL A   1      38.010  32.322  29.176  1.00  0.00    -0.203 F 
ATOM     59  F   UNL A   1      35.364  32.841  33.903  1.00  0.00    -0.200 F 
ATOM     60  C   UNL A   1      35.671  33.489  31.658  1.00  0.00     0.200 A 
ATOM     61  F   UNL A   1      36.072  34.143  29.429  1.00  0.00    -0.200 F 
ATOM     62  F   UNL A   1      34.769  34.471  31.800  1.00  0.00    -0.200 F 
ENDBRANCH  28  52
BRANCH  40  63
ATOM     63  C   UNL A   1      42.925  29.285  34.030  1.00  0.00     0.064 A 
ATOM     64  C   UNL A   1      42.194  28.087  33.948  1.00  0.00     0.173 A 
ATOM     65  C   UNL A   1      43.511  29.604  35.263  1.00  0.00     0.173 A 
ATOM     66  F   UNL A   1      41.698  27.657  32.780  1.00  0.00    -0.203 F 
ATOM     67  C   UNL A   1      42.010  27.281  35.070  1.00  0.00     0.198 A 
ATOM     68  C   UNL A   1      43.362  28.775  36.370  1.00  0.00     0.198 A 
ATOM     69  F   UNL A   1      44.269  30.706  35.384  1.00  0.00    -0.203 F 
ATOM     70  F   UNL A   1      41.289  26.154  34.975  1.00  0.00    -0.200 F 
ATOM     71  C   UNL A   1      42.599  27.621  36.277  1.00  0.00     0.200 A 
ATOM     72  F   UNL A   1      43.977  29.080  37.520  1.00  0.00    -0.200 F 
ATOM     73  F   UNL A   1      42.455  26.824  37.344  1.00  0.00    -0.200 F 
ENDBRANCH  40  63
ENDBRANCH  14  15
ENDBRANCH   7   9
ENDBRANCH   4   5
ENDBRANCH   3   4
ENDBRANCH   2   3
ENDBRANCH   1   2
BRANCH   1  74
ATOM     74  N   UNL A   1      34.165  24.697  25.719  1.00  0.00    -0.351 N 
ATOM     75  C   UNL A   1      33.250  25.694  25.521  1.00  0.00     0.262 C 
ATOM     76  H   UNL A   1      33.941  24.067  26.442  1.00  0.00     0.163 HD
ATOM     77  O   UNL A   1      32.390  25.810  26.399  1.00  0.00    -0.268 OA
BRANCH  75  78
ATOM     78  C   UNL A   1      33.357  26.592  24.394  1.00  0.00     0.112 A 
ATOM     79  S   UNL A   1      33.720  28.231  24.841  1.00  0.00    -0.137 S 
ATOM     80  C   UNL A   1      33.181  26.485  23.024  1.00  0.00     0.111 A 
ATOM     81  C   UNL A   1      33.757  28.759  23.229  1.00  0.00     0.067 A 
ATOM     82  C   UNL A   1      33.467  27.737  22.361  1.00  0.00     0.035 A 
BRANCH  80  83
ATOM     83  S   UNL A   1      32.715  25.141  22.027  1.00  0.00     0.263 S 
ATOM     84  O   UNL A   1      32.310  25.773  20.797  1.00  0.00    -0.201 OA
ATOM     85  O   UNL A   1      33.907  24.304  22.065  1.00  0.00    -0.201 OA
BRANCH  83  86
ATOM     86  N   UNL A   1      31.480  24.133  22.481  1.00  0.00    -0.280 N 
ATOM     87  H   UNL A   1      30.581  24.350  22.145  1.00  0.00     0.180 HD
BRANCH  86  88
ATOM     88  C   UNL A   1      31.598  22.998  23.304  1.00  0.00     0.049 A 
ATOM     89  C   UNL A   1      32.112  21.854  22.694  1.00  0.00     0.027 A 
ATOM     90  C   UNL A   1      31.311  22.992  24.660  1.00  0.00     0.027 A 
ATOM     91  C   UNL A   1      32.572  20.796  23.466  1.00  0.00     0.008 A 
ATOM     92  C   UNL A   1      31.737  21.912  25.439  1.00  0.00     0.008 A 
ATOM     93  C   UNL A   1      32.447  20.846  24.858  1.00  0.00    -0.026 A 
BRANCH  93  94
ATOM     94  C   UNL A   1      33.176  19.853  25.731  1.00  0.00     0.181 C 
BRANCH  94  95
ATOM     95  N   UNL A   1      33.214  18.529  25.147  1.00  0.00    -0.249 N 
ATOM     96  C   UNL A   1      34.213  17.977  24.405  1.00  0.00     0.220 A 
ATOM     97  N   UNL A   1      32.222  17.644  25.356  1.00  0.00    -0.160 NA
ATOM     98  N   UNL A   1      33.889  16.747  24.078  1.00  0.00    -0.224 NA
ATOM     99  C   UNL A   1      32.673  16.584  24.680  1.00  0.00     0.246 A 
ENDBRANCH  94  95
ENDBRANCH  93  94
ENDBRANCH  86  88
ENDBRANCH  83  86
ENDBRANCH  80  83
ENDBRANCH  75  78
ENDBRANCH   1  74
TORSDOF 16
ENDMDL
