MODEL 1
REMARK VINA RESULT:     -12.6      0.000      0.000
REMARK SMILES O=C(NCCCCNC(=O)[C@H]1[C@@H](C(=O)n2cc(Cl)cn2)[C@H]2CC[C@@H]1O2)c1ccc(-c2c3nc(c(-c4c(F)c(F)c(F)c(F)c4F)c4ccc([nH]4)c(-c4c(F)c(F)c(F)c(F)c4F)c4nc(c(-c5c(F)c(F)c(F)c(F)c5F)c5ccc2[nH]5)C=C4)C=C3)cc1
REMARK SMILES IDX 5 1 4 2 3 3 1 4 2 5 26 7 27 8 88 9 28 10 87 11 29 12 30 13
REMARK SMILES IDX 31 14 81 15 32 16 86 17 80 18 82 19 33 20 85 21 79 22 78 23
REMARK SMILES IDX 34 25 66 26 46 27 65 28 47 29 50 30 64 31 83 32 48 33 49 34
REMARK SMILES IDX 63 36 84 37 51 38 35 39 36 40 44 41 37 42 38 43 42 44 45 45
REMARK SMILES IDX 39 46 40 47 43 48 41 49 67 50 68 51 76 52 69 53 70 54 74 55
REMARK SMILES IDX 77 56 71 57 72 58 75 59 73 60 52 61 53 62 61 63 54 64 55 65
REMARK SMILES IDX 59 66 62 67 56 68 57 69 60 70 58 71 6 72 7 73 8 74 9 75
REMARK SMILES IDX 10 77 11 78 12 79 24 80 21 81 23 82 25 83 22 84 13 85 14 86
REMARK SMILES IDX 15 87 16 88 20 89 17 90 19 91 18 92
REMARK H PARENT 3 6 82 24 50 35 8 76
REMARK Flexibility Score: inf
ROOT
ATOM      1  C   UNL A   1      38.347  21.806  25.734  1.00  0.00     0.023 C 
ENDROOT
BRANCH   1   2
ATOM      2  C   UNL A   1      39.646  21.365  26.410  1.00  0.00     0.116 C 
BRANCH   2   3
ATOM      3  N   UNL A   1      40.842  21.658  25.649  1.00  0.00    -0.352 N 
ATOM      4  O   UNL A   1      42.755  22.538  24.968  1.00  0.00    -0.269 OA
ATOM      5  C   UNL A   1      41.770  22.660  25.698  1.00  0.00     0.251 C 
ATOM      6  H   UNL A   1      41.025  20.994  24.946  1.00  0.00     0.163 HD
BRANCH   5   7
ATOM      7  C   UNL A   1      41.620  23.902  26.498  1.00  0.00     0.039 A 
ATOM      8  C   UNL A   1      40.917  25.044  26.103  1.00  0.00     0.014 A 
ATOM      9  C   UNL A   1      42.288  23.915  27.735  1.00  0.00     0.014 A 
ATOM     10  C   UNL A   1      40.990  26.214  26.845  1.00  0.00     0.010 A 
ATOM     11  C   UNL A   1      42.330  25.067  28.503  1.00  0.00     0.010 A 
ATOM     12  C   UNL A   1      41.729  26.231  28.023  1.00  0.00    -0.014 A 
BRANCH  12  13
ATOM     13  C   UNL A   1      41.787  27.475  28.783  1.00  0.00     0.031 A 
ATOM     14  C   UNL A   1      42.941  28.381  28.477  1.00  0.00     0.074 A 
ATOM     15  C   UNL A   1      40.746  27.838  29.558  1.00  0.00     0.049 A 
ATOM     16  N   UNL A   1      43.698  29.052  29.289  1.00  0.00    -0.248 NA
ATOM     17  C   UNL A   1      43.330  28.515  27.060  1.00  0.00     0.031 C 
ATOM     18  C   UNL A   1      39.454  27.155  29.700  1.00  0.00     0.029 A 
ATOM     19  N   UNL A   1      40.565  28.981  30.273  1.00  0.00    -0.354 N 
ATOM     20  C   UNL A   1      44.553  29.809  28.484  1.00  0.00     0.074 A 
ATOM     21  C   UNL A   1      44.350  29.368  27.131  1.00  0.00     0.031 C 
ATOM     22  C   UNL A   1      38.556  28.012  30.231  1.00  0.00     0.029 A 
ATOM     23  C   UNL A   1      39.238  29.248  30.571  1.00  0.00     0.049 A 
ATOM     24  H   UNL A   1      41.307  29.564  30.552  1.00  0.00     0.167 HD
ATOM     25  C   UNL A   1      45.243  30.887  28.951  1.00  0.00     0.037 A 
ATOM     26  C   UNL A   1      38.722  30.440  30.955  1.00  0.00     0.037 A 
ATOM     27  C   UNL A   1      45.443  30.823  30.370  1.00  0.00     0.049 A 
ATOM     28  C   UNL A   1      39.845  31.288  31.424  1.00  0.00     0.074 A 
ATOM     29  C   UNL A   1      46.113  29.961  31.215  1.00  0.00     0.029 A 
ATOM     30  N   UNL A   1      44.663  31.597  31.189  1.00  0.00    -0.354 N 
ATOM     31  N   UNL A   1      40.545  31.051  32.497  1.00  0.00    -0.248 NA
ATOM     32  C   UNL A   1      40.475  32.166  30.448  1.00  0.00     0.031 C 
ATOM     33  C   UNL A   1      45.320  29.916  32.399  1.00  0.00     0.029 A 
ATOM     34  C   UNL A   1      44.242  30.779  32.205  1.00  0.00     0.049 A 
ATOM     35  H   UNL A   1      44.446  32.550  31.070  1.00  0.00     0.167 HD
ATOM     36  C   UNL A   1      41.842  31.409  32.163  1.00  0.00     0.074 A 
ATOM     37  C   UNL A   1      41.723  32.165  30.920  1.00  0.00     0.031 C 
ATOM     38  C   UNL A   1      42.918  30.827  32.770  1.00  0.00     0.037 A 
BRANCH  25  39
ATOM     39  C   UNL A   1      45.455  32.156  28.159  1.00  0.00     0.064 A 
ATOM     40  C   UNL A   1      44.343  32.921  27.757  1.00  0.00     0.173 A 
ATOM     41  C   UNL A   1      46.675  32.473  27.523  1.00  0.00     0.173 A 
ATOM     42  F   UNL A   1      43.130  32.695  28.283  1.00  0.00    -0.203 F 
ATOM     43  C   UNL A   1      44.432  33.872  26.735  1.00  0.00     0.198 A 
ATOM     44  C   UNL A   1      46.771  33.457  26.540  1.00  0.00     0.198 A 
ATOM     45  F   UNL A   1      47.794  31.772  27.743  1.00  0.00    -0.203 F 
ATOM     46  F   UNL A   1      43.323  34.485  26.298  1.00  0.00    -0.200 F 
ATOM     47  C   UNL A   1      45.643  34.133  26.122  1.00  0.00     0.200 A 
ATOM     48  F   UNL A   1      47.951  33.683  25.947  1.00  0.00    -0.200 F 
ATOM     49  F   UNL A   1      45.719  34.992  25.098  1.00  0.00    -0.200 F 
ENDBRANCH  25  39
BRANCH  26  50
ATOM     50  C   UNL A   1      37.398  30.991  30.578  1.00  0.00     0.064 A 
ATOM     51  C   UNL A   1      36.456  31.358  31.549  1.00  0.00     0.173 A 
ATOM     52  C   UNL A   1      37.124  31.394  29.254  1.00  0.00     0.173 A 
ATOM     53  F   UNL A   1      36.672  31.066  32.839  1.00  0.00    -0.203 F 
ATOM     54  C   UNL A   1      35.307  32.082  31.215  1.00  0.00     0.198 A 
ATOM     55  C   UNL A   1      35.972  32.104  28.920  1.00  0.00     0.198 A 
ATOM     56  F   UNL A   1      38.012  31.185  28.271  1.00  0.00    -0.203 F 
ATOM     57  F   UNL A   1      34.451  32.460  32.175  1.00  0.00    -0.200 F 
ATOM     58  C   UNL A   1      35.067  32.457  29.902  1.00  0.00     0.200 A 
ATOM     59  F   UNL A   1      35.775  32.492  27.651  1.00  0.00    -0.200 F 
ATOM     60  F   UNL A   1      33.990  33.191  29.589  1.00  0.00    -0.200 F 
ENDBRANCH  26  50
BRANCH  38  61
ATOM     61  C   UNL A   1      42.657  29.936  33.951  1.00  0.00     0.064 A 
ATOM     62  C   UNL A   1      42.278  28.588  33.826  1.00  0.00     0.173 A 
ATOM     63  C   UNL A   1      42.965  30.403  35.234  1.00  0.00     0.173 A 
ATOM     64  F   UNL A   1      42.083  28.037  32.623  1.00  0.00    -0.203 F 
ATOM     65  C   UNL A   1      42.166  27.760  34.941  1.00  0.00     0.198 A 
ATOM     66  C   UNL A   1      42.886  29.564  36.342  1.00  0.00     0.198 A 
ATOM     67  F   UNL A   1      43.400  31.661  35.404  1.00  0.00    -0.203 F 
ATOM     68  F   UNL A   1      41.798  26.479  34.792  1.00  0.00    -0.200 F 
ATOM     69  C   UNL A   1      42.478  28.248  36.198  1.00  0.00     0.200 A 
ATOM     70  F   UNL A   1      43.244  30.022  37.550  1.00  0.00    -0.200 F 
ATOM     71  F   UNL A   1      42.418  27.439  37.265  1.00  0.00    -0.200 F 
ENDBRANCH  38  61
ENDBRANCH  12  13
ENDBRANCH   5   7
ENDBRANCH   2   3
ENDBRANCH   1   2
BRANCH   1  72
ATOM     72  C   UNL A   1      37.707  20.749  24.824  1.00  0.00     0.023 C 
BRANCH  72  73
ATOM     73  C   UNL A   1      36.204  20.562  25.023  1.00  0.00     0.116 C 
BRANCH  73  74
ATOM     74  N   UNL A   1      35.625  21.632  25.821  1.00  0.00    -0.356 N 
ATOM     75  C   UNL A   1      34.647  22.526  25.514  1.00  0.00     0.226 C 
ATOM     76  H   UNL A   1      36.000  21.723  26.727  1.00  0.00     0.163 HD
ATOM     77  O   UNL A   1      34.157  23.182  26.429  1.00  0.00    -0.275 OA
BRANCH  75  78
ATOM     78  C   UNL A   1      34.132  22.609  24.100  1.00  0.00     0.122 C 
ATOM     79  C   UNL A   1      32.978  21.670  23.679  1.00  0.00     0.125 C 
ATOM     80  C   UNL A   1      33.572  23.978  23.698  1.00  0.00     0.132 C 
ATOM     81  C   UNL A   1      31.998  22.657  23.002  1.00  0.00     0.132 C 
ATOM     82  C   UNL A   1      32.377  24.414  24.544  1.00  0.00     0.035 C 
ATOM     83  O   UNL A   1      32.939  23.615  22.442  1.00  0.00    -0.373 OA
ATOM     84  C   UNL A   1      31.243  23.605  23.930  1.00  0.00     0.035 C 
BRANCH  79  85
ATOM     85  C   UNL A   1      32.265  20.784  24.685  1.00  0.00     0.253 C 
ATOM     86  O   UNL A   1      31.431  21.162  25.500  1.00  0.00    -0.272 OA
BRANCH  85  87
ATOM     87  N   UNL A   1      32.493  19.399  24.526  1.00  0.00    -0.206 N 
ATOM     88  C   UNL A   1      32.832  18.442  25.463  1.00  0.00     0.138 A 
ATOM     89  N   UNL A   1      32.487  18.871  23.265  1.00  0.00    -0.172 NA
ATOM     90  C   UNL A   1      33.052  17.274  24.775  1.00  0.00     0.079 A 
ATOM     91  C   UNL A   1      32.853  17.600  23.428  1.00  0.00     0.156 A 
ATOM     92  Cl  UNL A   1      33.469  15.757  25.390  1.00  0.00    -0.081 Cl
ENDBRANCH  85  87
ENDBRANCH  79  85
ENDBRANCH  75  78
ENDBRANCH  73  74
ENDBRANCH  72  73
ENDBRANCH   1  72
TORSDOF 13
ENDMDL
MODEL 2
REMARK VINA RESULT:     -12.5      4.226      9.054
REMARK SMILES O=C(NCCCCNC(=O)[C@H]1[C@@H](C(=O)n2cc(Cl)cn2)[C@H]2CC[C@@H]1O2)c1ccc(-c2c3nc(c(-c4c(F)c(F)c(F)c(F)c4F)c4ccc([nH]4)c(-c4c(F)c(F)c(F)c(F)c4F)c4nc(c(-c5c(F)c(F)c(F)c(F)c5F)c5ccc2[nH]5)C=C4)C=C3)cc1
REMARK SMILES IDX 5 1 4 2 3 3 1 4 2 5 26 7 27 8 88 9 28 10 87 11 29 12 30 13
REMARK SMILES IDX 31 14 81 15 32 16 86 17 80 18 82 19 33 20 85 21 79 22 78 23
REMARK SMILES IDX 34 25 66 26 46 27 65 28 47 29 50 30 64 31 83 32 48 33 49 34
REMARK SMILES IDX 63 36 84 37 51 38 35 39 36 40 44 41 37 42 38 43 42 44 45 45
REMARK SMILES IDX 39 46 40 47 43 48 41 49 67 50 68 51 76 52 69 53 70 54 74 55
REMARK SMILES IDX 77 56 71 57 72 58 75 59 73 60 52 61 53 62 61 63 54 64 55 65
REMARK SMILES IDX 59 66 62 67 56 68 57 69 60 70 58 71 6 72 7 73 8 74 9 75
REMARK SMILES IDX 10 77 11 78 12 79 24 80 21 81 23 82 25 83 22 84 13 85 14 86
REMARK SMILES IDX 15 87 16 88 20 89 17 90 19 91 18 92
REMARK H PARENT 3 6 82 24 50 35 8 76
REMARK Flexibility Score: inf
ROOT
ATOM      1  C   UNL A   1      34.416  30.403  27.306  1.00  0.00     0.023 C 
ENDROOT
BRANCH   1   2
ATOM      2  C   UNL A   1      34.642  31.829  27.812  1.00  0.00     0.116 C 
BRANCH   2   3
ATOM      3  N   UNL A   1      34.293  32.029  29.202  1.00  0.00    -0.352 N 
ATOM      4  O   UNL A   1      34.408  32.326  31.393  1.00  0.00    -0.269 OA
ATOM      5  C   UNL A   1      34.999  31.973  30.371  1.00  0.00     0.251 C 
ATOM      6  H   UNL A   1      33.344  32.253  29.334  1.00  0.00     0.163 HD
BRANCH   5   7
ATOM      7  C   UNL A   1      36.380  31.439  30.490  1.00  0.00     0.039 A 
ATOM      8  C   UNL A   1      37.548  32.206  30.520  1.00  0.00     0.014 A 
ATOM      9  C   UNL A   1      36.491  30.038  30.533  1.00  0.00     0.014 A 
ATOM     10  C   UNL A   1      38.796  31.601  30.452  1.00  0.00     0.010 A 
ATOM     11  C   UNL A   1      37.734  29.427  30.508  1.00  0.00     0.010 A 
ATOM     12  C   UNL A   1      38.880  30.214  30.407  1.00  0.00    -0.014 A 
BRANCH  12  13
ATOM     13  C   UNL A   1      40.205  29.606  30.336  1.00  0.00     0.031 A 
ATOM     14  C   UNL A   1      40.936  29.465  31.637  1.00  0.00     0.074 A 
ATOM     15  C   UNL A   1      40.625  29.042  29.186  1.00  0.00     0.049 A 
ATOM     16  N   UNL A   1      42.184  29.691  31.908  1.00  0.00    -0.248 NA
ATOM     17  C   UNL A   1      40.141  29.055  32.810  1.00  0.00     0.031 C 
ATOM     18  C   UNL A   1      39.867  28.880  27.939  1.00  0.00     0.029 A 
ATOM     19  N   UNL A   1      41.773  28.359  28.933  1.00  0.00    -0.354 N 
ATOM     20  C   UNL A   1      42.365  29.308  33.240  1.00  0.00     0.074 A 
ATOM     21  C   UNL A   1      41.062  29.019  33.772  1.00  0.00     0.031 C 
ATOM     22  C   UNL A   1      40.465  27.940  27.176  1.00  0.00     0.029 A 
ATOM     23  C   UNL A   1      41.697  27.530  27.825  1.00  0.00     0.049 A 
ATOM     24  H   UNL A   1      42.583  28.445  29.487  1.00  0.00     0.167 HD
ATOM     25  C   UNL A   1      43.594  29.068  33.776  1.00  0.00     0.037 A 
ATOM     26  C   UNL A   1      42.527  26.501  27.530  1.00  0.00     0.037 A 
ATOM     27  C   UNL A   1      44.635  29.754  33.065  1.00  0.00     0.049 A 
ATOM     28  C   UNL A   1      43.764  26.673  28.330  1.00  0.00     0.074 A 
ATOM     29  C   UNL A   1      44.936  31.082  32.834  1.00  0.00     0.029 A 
ATOM     30  N   UNL A   1      45.427  29.048  32.198  1.00  0.00    -0.354 N 
ATOM     31  N   UNL A   1      44.622  27.640  28.156  1.00  0.00    -0.248 NA
ATOM     32  C   UNL A   1      43.822  26.012  29.626  1.00  0.00     0.031 C 
ATOM     33  C   UNL A   1      45.482  31.111  31.518  1.00  0.00     0.029 A 
ATOM     34  C   UNL A   1      45.506  29.797  31.052  1.00  0.00     0.049 A 
ATOM     35  H   UNL A   1      45.853  28.176  32.363  1.00  0.00     0.167 HD
ATOM     36  C   UNL A   1      45.044  27.974  29.434  1.00  0.00     0.074 A 
ATOM     37  C   UNL A   1      44.583  26.885  30.288  1.00  0.00     0.031 C 
ATOM     38  C   UNL A   1      45.487  29.232  29.727  1.00  0.00     0.037 A 
BRANCH  25  39
ATOM     39  C   UNL A   1      43.881  27.951  34.752  1.00  0.00     0.064 A 
ATOM     40  C   UNL A   1      43.508  26.631  34.431  1.00  0.00     0.173 A 
ATOM     41  C   UNL A   1      44.219  28.177  36.104  1.00  0.00     0.173 A 
ATOM     42  F   UNL A   1      43.151  26.306  33.180  1.00  0.00    -0.203 F 
ATOM     43  C   UNL A   1      43.402  25.636  35.408  1.00  0.00     0.198 A 
ATOM     44  C   UNL A   1      44.161  27.169  37.066  1.00  0.00     0.198 A 
ATOM     45  F   UNL A   1      44.510  29.398  36.569  1.00  0.00    -0.203 F 
ATOM     46  F   UNL A   1      42.921  24.429  35.078  1.00  0.00    -0.200 F 
ATOM     47  C   UNL A   1      43.720  25.908  36.725  1.00  0.00     0.200 A 
ATOM     48  F   UNL A   1      44.458  27.458  38.340  1.00  0.00    -0.200 F 
ATOM     49  F   UNL A   1      43.554  24.977  37.674  1.00  0.00    -0.200 F 
ENDBRANCH  25  39
BRANCH  26  50
ATOM     50  C   UNL A   1      42.145  25.213  26.903  1.00  0.00     0.064 A 
ATOM     51  C   UNL A   1      42.871  24.680  25.829  1.00  0.00     0.173 A 
ATOM     52  C   UNL A   1      41.198  24.358  27.505  1.00  0.00     0.173 A 
ATOM     53  F   UNL A   1      43.833  25.406  25.241  1.00  0.00    -0.203 F 
ATOM     54  C   UNL A   1      42.661  23.370  25.383  1.00  0.00     0.198 A 
ATOM     55  C   UNL A   1      40.979  23.059  27.052  1.00  0.00     0.198 A 
ATOM     56  F   UNL A   1      40.528  24.736  28.604  1.00  0.00    -0.203 F 
ATOM     57  F   UNL A   1      43.407  22.875  24.385  1.00  0.00    -0.200 F 
ATOM     58  C   UNL A   1      41.717  22.560  25.996  1.00  0.00     0.200 A 
ATOM     59  F   UNL A   1      40.090  22.277  27.680  1.00  0.00    -0.200 F 
ATOM     60  F   UNL A   1      41.548  21.292  25.598  1.00  0.00    -0.200 F 
ENDBRANCH  26  50
BRANCH  38  61
ATOM     61  C   UNL A   1      45.692  30.186  28.586  1.00  0.00     0.064 A 
ATOM     62  C   UNL A   1      44.656  30.959  28.034  1.00  0.00     0.173 A 
ATOM     63  C   UNL A   1      46.996  30.455  28.153  1.00  0.00     0.173 A 
ATOM     64  F   UNL A   1      43.401  30.844  28.482  1.00  0.00    -0.203 F 
ATOM     65  C   UNL A   1      44.908  31.922  27.061  1.00  0.00     0.198 A 
ATOM     66  C   UNL A   1      47.250  31.442  27.205  1.00  0.00     0.198 A 
ATOM     67  F   UNL A   1      48.033  29.796  28.695  1.00  0.00    -0.203 F 
ATOM     68  F   UNL A   1      43.898  32.642  26.550  1.00  0.00    -0.200 F 
ATOM     69  C   UNL A   1      46.207  32.168  26.652  1.00  0.00     0.200 A 
ATOM     70  F   UNL A   1      48.514  31.717  26.853  1.00  0.00    -0.200 F 
ATOM     71  F   UNL A   1      46.457  33.128  25.751  1.00  0.00    -0.200 F 
ENDBRANCH  38  61
ENDBRANCH  12  13
ENDBRANCH   5   7
ENDBRANCH   2   3
ENDBRANCH   1   2
BRANCH   1  72
ATOM     72  C   UNL A   1      32.943  29.983  27.210  1.00  0.00     0.023 C 
BRANCH  72  73
ATOM     73  C   UNL A   1      32.324  30.143  25.823  1.00  0.00     0.116 C 
BRANCH  73  74
ATOM     74  N   UNL A   1      33.211  29.666  24.774  1.00  0.00    -0.356 N 
ATOM     75  C   UNL A   1      33.264  28.458  24.151  1.00  0.00     0.226 C 
ATOM     76  H   UNL A   1      33.878  30.321  24.466  1.00  0.00     0.163 HD
ATOM     77  O   UNL A   1      33.941  28.365  23.130  1.00  0.00    -0.275 OA
BRANCH  75  78
ATOM     78  C   UNL A   1      32.424  27.318  24.665  1.00  0.00     0.122 C 
ATOM     79  C   UNL A   1      31.149  26.929  23.880  1.00  0.00     0.125 C 
ATOM     80  C   UNL A   1      33.149  25.971  24.751  1.00  0.00     0.132 C 
ATOM     81  C   UNL A   1      31.312  25.396  23.750  1.00  0.00     0.132 C 
ATOM     82  C   UNL A   1      33.654  25.467  23.398  1.00  0.00     0.035 C 
ATOM     83  O   UNL A   1      32.010  25.103  24.992  1.00  0.00    -0.373 OA
ATOM     84  C   UNL A   1      32.381  24.909  22.775  1.00  0.00     0.035 C 
BRANCH  79  85
ATOM     85  C   UNL A   1      30.811  27.566  22.543  1.00  0.00     0.253 C 
ATOM     86  O   UNL A   1      31.047  27.077  21.444  1.00  0.00    -0.272 OA
BRANCH  85  87
ATOM     87  N   UNL A   1      30.022  28.735  22.623  1.00  0.00    -0.206 N 
ATOM     88  C   UNL A   1      29.048  29.087  23.536  1.00  0.00     0.138 A 
ATOM     89  N   UNL A   1      30.117  29.663  21.623  1.00  0.00    -0.172 NA
ATOM     90  C   UNL A   1      28.505  30.271  23.099  1.00  0.00     0.079 A 
ATOM     91  C   UNL A   1      29.179  30.565  21.908  1.00  0.00     0.156 A 
ATOM     92  Cl  UNL A   1      27.291  31.198  23.821  1.00  0.00    -0.081 Cl
ENDBRANCH  85  87
ENDBRANCH  79  85
ENDBRANCH  75  78
ENDBRANCH  73  74
ENDBRANCH  72  73
ENDBRANCH   1  72
TORSDOF 13
ENDMDL
MODEL 3
REMARK VINA RESULT:     -12.5      4.314      9.166
REMARK SMILES O=C(NCCCCNC(=O)[C@H]1[C@@H](C(=O)n2cc(Cl)cn2)[C@H]2CC[C@@H]1O2)c1ccc(-c2c3nc(c(-c4c(F)c(F)c(F)c(F)c4F)c4ccc([nH]4)c(-c4c(F)c(F)c(F)c(F)c4F)c4nc(c(-c5c(F)c(F)c(F)c(F)c5F)c5ccc2[nH]5)C=C4)C=C3)cc1
REMARK SMILES IDX 5 1 4 2 3 3 1 4 2 5 26 7 27 8 88 9 28 10 87 11 29 12 30 13
REMARK SMILES IDX 31 14 81 15 32 16 86 17 80 18 82 19 33 20 85 21 79 22 78 23
REMARK SMILES IDX 34 25 66 26 46 27 65 28 47 29 50 30 64 31 83 32 48 33 49 34
REMARK SMILES IDX 63 36 84 37 51 38 35 39 36 40 44 41 37 42 38 43 42 44 45 45
REMARK SMILES IDX 39 46 40 47 43 48 41 49 67 50 68 51 76 52 69 53 70 54 74 55
REMARK SMILES IDX 77 56 71 57 72 58 75 59 73 60 52 61 53 62 61 63 54 64 55 65
REMARK SMILES IDX 59 66 62 67 56 68 57 69 60 70 58 71 6 72 7 73 8 74 9 75
REMARK SMILES IDX 10 77 11 78 12 79 24 80 21 81 23 82 25 83 22 84 13 85 14 86
REMARK SMILES IDX 15 87 16 88 20 89 17 90 19 91 18 92
REMARK H PARENT 3 6 82 24 50 35 8 76
REMARK Flexibility Score: inf
ROOT
ATOM      1  C   UNL A   1      33.347  29.853  27.252  1.00  0.00     0.023 C 
ENDROOT
BRANCH   1   2
ATOM      2  C   UNL A   1      34.381  30.963  27.445  1.00  0.00     0.116 C 
BRANCH   2   3
ATOM      3  N   UNL A   1      34.436  31.497  28.789  1.00  0.00    -0.352 N 
ATOM      4  O   UNL A   1      35.153  32.183  30.768  1.00  0.00    -0.269 OA
ATOM      5  C   UNL A   1      35.400  31.523  29.758  1.00  0.00     0.251 C 
ATOM      6  H   UNL A   1      33.599  31.936  29.065  1.00  0.00     0.163 HD
BRANCH   5   7
ATOM      7  C   UNL A   1      36.665  30.745  29.701  1.00  0.00     0.039 A 
ATOM      8  C   UNL A   1      36.766  29.353  29.764  1.00  0.00     0.014 A 
ATOM      9  C   UNL A   1      37.844  31.505  29.616  1.00  0.00     0.014 A 
ATOM     10  C   UNL A   1      38.004  28.736  29.885  1.00  0.00     0.010 A 
ATOM     11  C   UNL A   1      39.085  30.893  29.693  1.00  0.00     0.010 A 
ATOM     12  C   UNL A   1      39.157  29.515  29.887  1.00  0.00    -0.014 A 
BRANCH  12  13
ATOM     13  C   UNL A   1      40.444  28.840  30.014  1.00  0.00     0.031 A 
ATOM     14  C   UNL A   1      40.976  28.692  31.407  1.00  0.00     0.074 A 
ATOM     15  C   UNL A   1      40.991  28.229  28.944  1.00  0.00     0.049 A 
ATOM     16  N   UNL A   1      42.184  28.861  31.849  1.00  0.00    -0.248 NA
ATOM     17  C   UNL A   1      40.004  28.350  32.463  1.00  0.00     0.031 C 
ATOM     18  C   UNL A   1      40.408  28.076  27.606  1.00  0.00     0.029 A 
ATOM     19  N   UNL A   1      42.126  27.483  28.868  1.00  0.00    -0.354 N 
ATOM     20  C   UNL A   1      42.156  28.501  33.199  1.00  0.00     0.074 A 
ATOM     21  C   UNL A   1      40.777  28.290  33.546  1.00  0.00     0.031 C 
ATOM     22  C   UNL A   1      41.056  27.090  26.950  1.00  0.00     0.029 A 
ATOM     23  C   UNL A   1      42.162  26.634  27.773  1.00  0.00     0.049 A 
ATOM     24  H   UNL A   1      42.853  27.541  29.529  1.00  0.00     0.167 HD
ATOM     25  C   UNL A   1      43.283  28.212  33.907  1.00  0.00     0.037 A 
ATOM     26  C   UNL A   1      42.969  25.558  27.615  1.00  0.00     0.037 A 
ATOM     27  C   UNL A   1      44.448  28.828  33.340  1.00  0.00     0.049 A 
ATOM     28  C   UNL A   1      44.088  25.686  28.579  1.00  0.00     0.074 A 
ATOM     29  C   UNL A   1      44.848  30.133  33.133  1.00  0.00     0.029 A 
ATOM     30  N   UNL A   1      45.315  28.064  32.605  1.00  0.00    -0.354 N 
ATOM     31  N   UNL A   1      45.012  26.604  28.513  1.00  0.00    -0.248 NA
ATOM     32  C   UNL A   1      43.929  25.053  29.881  1.00  0.00     0.031 C 
ATOM     33  C   UNL A   1      45.575  30.105  31.907  1.00  0.00     0.029 A 
ATOM     34  C   UNL A   1      45.595  28.781  31.470  1.00  0.00     0.049 A 
ATOM     35  H   UNL A   1      45.668  27.175  32.843  1.00  0.00     0.167 HD
ATOM     36  C   UNL A   1      45.269  26.946  29.832  1.00  0.00     0.074 A 
ATOM     37  C   UNL A   1      44.634  25.902  30.630  1.00  0.00     0.031 C 
ATOM     38  C   UNL A   1      45.732  28.187  30.165  1.00  0.00     0.037 A 
BRANCH  25  39
ATOM     39  C   UNL A   1      43.370  27.105  34.931  1.00  0.00     0.064 A 
ATOM     40  C   UNL A   1      43.623  27.420  36.281  1.00  0.00     0.173 A 
ATOM     41  C   UNL A   1      43.523  25.744  34.585  1.00  0.00     0.173 A 
ATOM     42  F   UNL A   1      43.524  28.684  36.717  1.00  0.00    -0.203 F 
ATOM     43  C   UNL A   1      44.077  26.460  37.191  1.00  0.00     0.198 A 
ATOM     44  C   UNL A   1      43.926  24.780  35.507  1.00  0.00     0.198 A 
ATOM     45  F   UNL A   1      43.398  25.314  33.323  1.00  0.00    -0.203 F 
ATOM     46  F   UNL A   1      44.427  26.832  38.430  1.00  0.00    -0.200 F 
ATOM     47  C   UNL A   1      44.236  25.143  36.801  1.00  0.00     0.200 A 
ATOM     48  F   UNL A   1      44.091  23.512  35.106  1.00  0.00    -0.200 F 
ATOM     49  F   UNL A   1      44.736  24.236  37.651  1.00  0.00    -0.200 F 
ENDBRANCH  25  39
BRANCH  26  50
ATOM     50  C   UNL A   1      42.612  24.276  26.961  1.00  0.00     0.064 A 
ATOM     51  C   UNL A   1      43.409  23.725  25.948  1.00  0.00     0.173 A 
ATOM     52  C   UNL A   1      41.602  23.443  27.486  1.00  0.00     0.173 A 
ATOM     53  F   UNL A   1      44.429  24.430  25.437  1.00  0.00    -0.203 F 
ATOM     54  C   UNL A   1      43.208  22.419  25.488  1.00  0.00     0.198 A 
ATOM     55  C   UNL A   1      41.393  22.147  27.018  1.00  0.00     0.198 A 
ATOM     56  F   UNL A   1      40.855  23.837  28.528  1.00  0.00    -0.203 F 
ATOM     57  F   UNL A   1      44.020  21.906  24.553  1.00  0.00    -0.200 F 
ATOM     58  C   UNL A   1      42.202  21.631  26.025  1.00  0.00     0.200 A 
ATOM     59  F   UNL A   1      40.440  21.385  27.575  1.00  0.00    -0.200 F 
ATOM     60  F   UNL A   1      42.038  20.365  25.616  1.00  0.00    -0.200 F 
ENDBRANCH  26  50
BRANCH  38  61
ATOM     61  C   UNL A   1      46.146  29.103  29.049  1.00  0.00     0.064 A 
ATOM     62  C   UNL A   1      45.250  29.961  28.388  1.00  0.00     0.173 A 
ATOM     63  C   UNL A   1      47.507  29.243  28.757  1.00  0.00     0.173 A 
ATOM     64  F   UNL A   1      43.950  29.970  28.699  1.00  0.00    -0.203 F 
ATOM     65  C   UNL A   1      45.694  30.884  27.444  1.00  0.00     0.198 A 
ATOM     66  C   UNL A   1      47.952  30.190  27.839  1.00  0.00     0.198 A 
ATOM     67  F   UNL A   1      48.415  28.498  29.409  1.00  0.00    -0.203 F 
ATOM     68  F   UNL A   1      44.815  31.688  26.826  1.00  0.00    -0.200 F 
ATOM     69  C   UNL A   1      47.046  31.003  27.175  1.00  0.00     0.200 A 
ATOM     70  F   UNL A   1      49.266  30.342  27.623  1.00  0.00    -0.200 F 
ATOM     71  F   UNL A   1      47.479  31.924  26.303  1.00  0.00    -0.200 F 
ENDBRANCH  38  61
ENDBRANCH  12  13
ENDBRANCH   5   7
ENDBRANCH   2   3
ENDBRANCH   1   2
BRANCH   1  72
ATOM     72  C   UNL A   1      31.967  30.337  26.790  1.00  0.00     0.023 C 
BRANCH  72  73
ATOM     73  C   UNL A   1      31.590  29.925  25.368  1.00  0.00     0.116 C 
BRANCH  73  74
ATOM     74  N   UNL A   1      32.758  29.564  24.580  1.00  0.00    -0.356 N 
ATOM     75  C   UNL A   1      33.179  28.347  24.141  1.00  0.00     0.226 C 
ATOM     76  H   UNL A   1      33.335  30.319  24.323  1.00  0.00     0.163 HD
ATOM     77  O   UNL A   1      34.065  28.315  23.290  1.00  0.00    -0.275 OA
BRANCH  75  78
ATOM     78  C   UNL A   1      32.487  27.100  24.628  1.00  0.00     0.122 C 
ATOM     79  C   UNL A   1      31.307  26.541  23.801  1.00  0.00     0.125 C 
ATOM     80  C   UNL A   1      33.389  25.866  24.743  1.00  0.00     0.132 C 
ATOM     81  C   UNL A   1      31.686  25.046  23.680  1.00  0.00     0.132 C 
ATOM     82  C   UNL A   1      34.005  25.441  23.410  1.00  0.00     0.035 C 
ATOM     83  O   UNL A   1      32.373  24.849  24.946  1.00  0.00    -0.373 OA
ATOM     84  C   UNL A   1      32.845  24.714  22.744  1.00  0.00     0.035 C 
BRANCH  79  85
ATOM     85  C   UNL A   1      30.931  27.128  22.451  1.00  0.00     0.253 C 
ATOM     86  O   UNL A   1      31.091  26.577  21.368  1.00  0.00    -0.272 OA
BRANCH  85  87
ATOM     87  N   UNL A   1      30.198  28.334  22.510  1.00  0.00    -0.206 N 
ATOM     88  C   UNL A   1      29.006  28.618  23.148  1.00  0.00     0.138 A 
ATOM     89  N   UNL A   1      30.624  29.400  21.768  1.00  0.00    -0.172 NA
ATOM     90  C   UNL A   1      28.664  29.900  22.797  1.00  0.00     0.079 A 
ATOM     91  C   UNL A   1      29.677  30.324  21.927  1.00  0.00     0.156 A 
ATOM     92  Cl  UNL A   1      27.323  30.801  23.290  1.00  0.00    -0.081 Cl
ENDBRANCH  85  87
ENDBRANCH  79  85
ENDBRANCH  75  78
ENDBRANCH  73  74
ENDBRANCH  72  73
ENDBRANCH   1  72
TORSDOF 13
ENDMDL
