MODEL 1
REMARK VINA RESULT:     -11.5      0.000      0.000
REMARK SMILES CC(C)OCCS(=O)(=O)N1CCC[C@H](C(=O)NCCCCNC(=O)c2ccc(-c3c4nc(c(-c5c(F)c(F)c(F)c(F)c5F)c5ccc([nH]5)c(-c5c(F)c(F)c(F)c(F)c5F)c5nc(c(-c6c(F)c(F)c(F)c(F)c6F)c6ccc3[nH]6)C=C5)C=C4)cc2)C1
REMARK SMILES IDX 18 1 17 2 15 3 16 4 14 6 10 7 11 8 88 9 12 10 13 11 7 12
REMARK SMILES IDX 8 13 9 14 6 15 5 16 4 17 2 18 1 19 3 20 19 21 20 22 21 23
REMARK SMILES IDX 22 24 23 25 24 27 25 28 26 29 87 30 27 31 86 32 28 33 29 34
REMARK SMILES IDX 30 35 80 36 31 37 85 38 79 39 81 40 32 41 84 42 78 43 77 44
REMARK SMILES IDX 33 46 65 47 45 48 64 49 46 50 49 51 63 52 82 53 47 54 48 55
REMARK SMILES IDX 62 57 83 58 50 59 34 60 35 61 43 62 36 63 37 64 41 65 44 66
REMARK SMILES IDX 38 67 39 68 42 69 40 70 66 71 67 72 75 73 68 74 69 75 73 76
REMARK SMILES IDX 76 77 70 78 71 79 74 80 72 81 51 82 52 83 60 84 53 85 54 86
REMARK SMILES IDX 58 87 61 88 55 89 56 90 59 91 57 92
REMARK H PARENT 17 5 22 26 81 45 49 56
REMARK Flexibility Score: inf
ROOT
ATOM      1  C   UNL A   1      32.161  29.695  25.072  1.00  0.00     0.116 C 
ENDROOT
BRANCH   1   2
ATOM      2  N   UNL A   1      33.178  29.384  24.092  1.00  0.00    -0.356 N 
ATOM      3  C   UNL A   1      33.385  28.308  23.295  1.00  0.00     0.224 C 
ATOM      4  O   UNL A   1      34.285  28.430  22.455  1.00  0.00    -0.275 OA
ATOM      5  H   UNL A   1      33.852  30.093  23.981  1.00  0.00     0.163 HD
BRANCH   3   6
ATOM      6  C   UNL A   1      32.665  26.964  23.413  1.00  0.00     0.093 C 
ATOM      7  N   UNL A   1      34.030  24.883  22.725  1.00  0.00    -0.201 NA
ATOM      8  C   UNL A   1      32.975  24.628  21.694  1.00  0.00     0.102 C 
ATOM      9  C   UNL A   1      33.489  25.756  23.840  1.00  0.00     0.115 C 
ATOM     10  C   UNL A   1      32.331  25.904  21.163  1.00  0.00     0.018 C 
ATOM     11  C   UNL A   1      31.693  26.705  22.271  1.00  0.00     0.016 C 
BRANCH   7  12
ATOM     12  S   UNL A   1      34.796  23.477  23.423  1.00  0.00     0.216 S 
ATOM     13  O   UNL A   1      36.033  23.268  22.703  1.00  0.00    -0.212 OA
ATOM     14  O   UNL A   1      33.781  22.440  23.421  1.00  0.00    -0.212 OA
BRANCH  12  15
ATOM     15  C   UNL A   1      35.116  23.805  25.170  1.00  0.00     0.182 C 
BRANCH  15  16
ATOM     16  C   UNL A   1      36.586  23.936  25.550  1.00  0.00     0.178 C 
BRANCH  16  17
ATOM     17  O   UNL A   1      37.169  22.787  26.167  1.00  0.00    -0.378 OA
BRANCH  17  18
ATOM     18  C   UNL A   1      38.100  21.998  25.428  1.00  0.00     0.112 C 
ATOM     19  C   UNL A   1      39.426  21.774  26.149  1.00  0.00     0.038 C 
ATOM     20  C   UNL A   1      37.387  20.757  24.893  1.00  0.00     0.038 C 
ENDBRANCH  17  18
ENDBRANCH  16  17
ENDBRANCH  15  16
ENDBRANCH  12  15
ENDBRANCH   7  12
ENDBRANCH   3   6
ENDBRANCH   1   2
BRANCH   1  21
ATOM     21  C   UNL A   1      32.744  30.231  26.382  1.00  0.00     0.023 C 
BRANCH  21  22
ATOM     22  C   UNL A   1      32.121  31.535  26.864  1.00  0.00     0.023 C 
BRANCH  22  23
ATOM     23  C   UNL A   1      33.102  32.517  27.489  1.00  0.00     0.116 C 
BRANCH  23  24
ATOM     24  N   UNL A   1      32.573  33.860  27.679  1.00  0.00    -0.352 N 
ATOM     25  C   UNL A   1      33.028  34.832  28.552  1.00  0.00     0.251 C 
ATOM     26  H   UNL A   1      31.800  34.105  27.123  1.00  0.00     0.163 HD
ATOM     27  O   UNL A   1      32.457  35.901  28.662  1.00  0.00    -0.269 OA
BRANCH  25  28
ATOM     28  C   UNL A   1      34.201  34.513  29.400  1.00  0.00     0.039 A 
ATOM     29  C   UNL A   1      33.988  33.999  30.680  1.00  0.00     0.014 A 
ATOM     30  C   UNL A   1      35.492  34.595  28.873  1.00  0.00     0.014 A 
ATOM     31  C   UNL A   1      35.066  33.473  31.395  1.00  0.00     0.010 A 
ATOM     32  C   UNL A   1      36.542  33.980  29.543  1.00  0.00     0.010 A 
ATOM     33  C   UNL A   1      36.341  33.405  30.808  1.00  0.00    -0.014 A 
BRANCH  33  34
ATOM     34  C   UNL A   1      37.478  32.736  31.493  1.00  0.00     0.031 A 
ATOM     35  C   UNL A   1      38.152  31.557  30.850  1.00  0.00     0.074 A 
ATOM     36  C   UNL A   1      37.850  33.134  32.726  1.00  0.00     0.049 A 
ATOM     37  N   UNL A   1      39.095  30.781  31.322  1.00  0.00    -0.248 NA
ATOM     38  C   UNL A   1      37.675  31.173  29.511  1.00  0.00     0.031 C 
ATOM     39  C   UNL A   1      37.233  34.219  33.492  1.00  0.00     0.029 A 
ATOM     40  N   UNL A   1      38.833  32.660  33.562  1.00  0.00    -0.354 N 
ATOM     41  C   UNL A   1      39.306  29.812  30.350  1.00  0.00     0.074 A 
ATOM     42  C   UNL A   1      38.351  30.055  29.291  1.00  0.00     0.031 C 
ATOM     43  C   UNL A   1      37.867  34.345  34.669  1.00  0.00     0.029 A 
ATOM     44  C   UNL A   1      38.911  33.329  34.761  1.00  0.00     0.049 A 
ATOM     45  H   UNL A   1      39.427  31.912  33.325  1.00  0.00     0.167 HD
ATOM     46  C   UNL A   1      40.234  28.826  30.325  1.00  0.00     0.037 A 
ATOM     47  C   UNL A   1      39.728  33.141  35.815  1.00  0.00     0.037 A 
ATOM     48  C   UNL A   1      41.210  28.610  31.358  1.00  0.00     0.049 A 
ATOM     49  C   UNL A   1      40.768  32.054  35.753  1.00  0.00     0.074 A 
ATOM     50  C   UNL A   1      42.236  27.681  31.396  1.00  0.00     0.029 A 
ATOM     51  N   UNL A   1      41.283  29.336  32.538  1.00  0.00    -0.354 N 
ATOM     52  N   UNL A   1      41.004  31.190  34.797  1.00  0.00    -0.248 NA
ATOM     53  C   UNL A   1      41.661  31.924  36.913  1.00  0.00     0.031 C 
ATOM     54  C   UNL A   1      42.904  27.818  32.616  1.00  0.00     0.029 A 
ATOM     55  C   UNL A   1      42.328  28.865  33.317  1.00  0.00     0.049 A 
ATOM     56  H   UNL A   1      40.682  30.076  32.784  1.00  0.00     0.167 HD
ATOM     57  C   UNL A   1      42.085  30.432  35.226  1.00  0.00     0.074 A 
ATOM     58  C   UNL A   1      42.470  30.949  36.522  1.00  0.00     0.031 C 
ATOM     59  C   UNL A   1      42.703  29.399  34.601  1.00  0.00     0.037 A 
BRANCH  46  60
ATOM     60  C   UNL A   1      40.248  27.917  29.131  1.00  0.00     0.064 A 
ATOM     61  C   UNL A   1      39.513  26.721  29.109  1.00  0.00     0.173 A 
ATOM     62  C   UNL A   1      40.977  28.259  27.982  1.00  0.00     0.173 A 
ATOM     63  F   UNL A   1      38.810  26.341  30.186  1.00  0.00    -0.203 F 
ATOM     64  C   UNL A   1      39.533  25.888  27.994  1.00  0.00     0.198 A 
ATOM     65  C   UNL A   1      40.968  27.439  26.857  1.00  0.00     0.198 A 
ATOM     66  F   UNL A   1      41.694  29.393  27.947  1.00  0.00    -0.203 F 
ATOM     67  F   UNL A   1      38.865  24.726  28.017  1.00  0.00    -0.200 F 
ATOM     68  C   UNL A   1      40.252  26.251  26.866  1.00  0.00     0.200 A 
ATOM     69  F   UNL A   1      41.654  27.798  25.763  1.00  0.00    -0.200 F 
ATOM     70  F   UNL A   1      40.263  25.453  25.791  1.00  0.00    -0.200 F 
ENDBRANCH  46  60
BRANCH  47  71
ATOM     71  C   UNL A   1      39.616  34.019  37.009  1.00  0.00     0.064 A 
ATOM     72  C   UNL A   1      38.842  33.640  38.114  1.00  0.00     0.173 A 
ATOM     73  C   UNL A   1      40.275  35.256  37.071  1.00  0.00     0.173 A 
ATOM     74  F   UNL A   1      38.176  32.476  38.095  1.00  0.00    -0.203 F 
ATOM     75  C   UNL A   1      38.714  34.471  39.226  1.00  0.00     0.198 A 
ATOM     76  C   UNL A   1      40.171  36.074  38.194  1.00  0.00     0.198 A 
ATOM     77  F   UNL A   1      41.033  35.664  36.042  1.00  0.00    -0.203 F 
ATOM     78  F   UNL A   1      37.932  34.102  40.249  1.00  0.00    -0.200 F 
ATOM     79  C   UNL A   1      39.384  35.685  39.268  1.00  0.00     0.200 A 
ATOM     80  F   UNL A   1      40.831  37.239  38.236  1.00  0.00    -0.200 F 
ATOM     81  F   UNL A   1      39.265  36.481  40.338  1.00  0.00    -0.200 F 
ENDBRANCH  47  71
BRANCH  59  82
ATOM     82  C   UNL A   1      43.881  28.778  35.294  1.00  0.00     0.064 A 
ATOM     83  C   UNL A   1      43.727  27.731  36.214  1.00  0.00     0.173 A 
ATOM     84  C   UNL A   1      45.184  29.204  34.994  1.00  0.00     0.173 A 
ATOM     85  F   UNL A   1      42.501  27.298  36.544  1.00  0.00    -0.203 F 
ATOM     86  C   UNL A   1      44.834  27.148  36.825  1.00  0.00     0.198 A 
ATOM     87  C   UNL A   1      46.289  28.599  35.584  1.00  0.00     0.198 A 
ATOM     88  F   UNL A   1      45.385  30.197  34.114  1.00  0.00    -0.203 F 
ATOM     89  F   UNL A   1      44.661  26.178  37.733  1.00  0.00    -0.200 F 
ATOM     90  C   UNL A   1      46.113  27.576  36.503  1.00  0.00     0.200 A 
ATOM     91  F   UNL A   1      47.525  29.004  35.262  1.00  0.00    -0.200 F 
ATOM     92  F   UNL A   1      47.177  27.006  37.086  1.00  0.00    -0.200 F 
ENDBRANCH  59  82
ENDBRANCH  33  34
ENDBRANCH  25  28
ENDBRANCH  23  24
ENDBRANCH  22  23
ENDBRANCH  21  22
ENDBRANCH   1  21
TORSDOF 16
ENDMDL
MODEL 2
REMARK VINA RESULT:     -11.4      1.527      7.672
REMARK SMILES CC(C)OCCS(=O)(=O)N1CCC[C@H](C(=O)NCCCCNC(=O)c2ccc(-c3c4nc(c(-c5c(F)c(F)c(F)c(F)c5F)c5ccc([nH]5)c(-c5c(F)c(F)c(F)c(F)c5F)c5nc(c(-c6c(F)c(F)c(F)c(F)c6F)c6ccc3[nH]6)C=C5)C=C4)cc2)C1
REMARK SMILES IDX 18 1 17 2 15 3 16 4 14 6 10 7 11 8 88 9 12 10 13 11 7 12
REMARK SMILES IDX 8 13 9 14 6 15 5 16 4 17 2 18 1 19 3 20 19 21 20 22 21 23
REMARK SMILES IDX 22 24 23 25 24 27 25 28 26 29 87 30 27 31 86 32 28 33 29 34
REMARK SMILES IDX 30 35 80 36 31 37 85 38 79 39 81 40 32 41 84 42 78 43 77 44
REMARK SMILES IDX 33 46 65 47 45 48 64 49 46 50 49 51 63 52 82 53 47 54 48 55
REMARK SMILES IDX 62 57 83 58 50 59 34 60 35 61 43 62 36 63 37 64 41 65 44 66
REMARK SMILES IDX 38 67 39 68 42 69 40 70 66 71 67 72 75 73 68 74 69 75 73 76
REMARK SMILES IDX 76 77 70 78 71 79 74 80 72 81 51 82 52 83 60 84 53 85 54 86
REMARK SMILES IDX 58 87 61 88 55 89 56 90 59 91 57 92
REMARK H PARENT 17 5 22 26 81 45 49 56
REMARK Flexibility Score: inf
ROOT
ATOM      1  C   UNL A   1      33.545  30.078  26.516  1.00  0.00     0.116 C 
ENDROOT
BRANCH   1   2
ATOM      2  N   UNL A   1      33.635  29.298  25.302  1.00  0.00    -0.356 N 
ATOM      3  C   UNL A   1      33.403  27.991  25.032  1.00  0.00     0.224 C 
ATOM      4  O   UNL A   1      33.438  27.678  23.835  1.00  0.00    -0.275 OA
ATOM      5  H   UNL A   1      33.921  29.819  24.517  1.00  0.00     0.163 HD
BRANCH   3   6
ATOM      6  C   UNL A   1      33.190  26.893  26.075  1.00  0.00     0.093 C 
ATOM      7  N   UNL A   1      32.740  24.524  25.151  1.00  0.00    -0.201 NA
ATOM      8  C   UNL A   1      31.433  24.574  25.877  1.00  0.00     0.102 C 
ATOM      9  C   UNL A   1      33.727  25.503  25.756  1.00  0.00     0.115 C 
ATOM     10  C   UNL A   1      30.855  25.981  25.981  1.00  0.00     0.018 C 
ATOM     11  C   UNL A   1      31.800  26.917  26.693  1.00  0.00     0.016 C 
BRANCH   7  12
ATOM     12  S   UNL A   1      33.501  22.958  25.017  1.00  0.00     0.216 S 
ATOM     13  O   UNL A   1      34.443  22.850  26.109  1.00  0.00    -0.212 OA
ATOM     14  O   UNL A   1      33.977  22.872  23.649  1.00  0.00    -0.212 OA
BRANCH  12  15
ATOM     15  C   UNL A   1      32.223  21.686  25.141  1.00  0.00     0.182 C 
BRANCH  15  16
ATOM     16  C   UNL A   1      32.434  20.464  24.254  1.00  0.00     0.178 C 
BRANCH  16  17
ATOM     17  O   UNL A   1      33.604  19.692  24.535  1.00  0.00    -0.378 OA
BRANCH  17  18
ATOM     18  C   UNL A   1      33.535  18.270  24.442  1.00  0.00     0.112 C 
ATOM     19  C   UNL A   1      34.899  17.594  24.334  1.00  0.00     0.038 C 
ATOM     20  C   UNL A   1      32.589  17.745  25.520  1.00  0.00     0.038 C 
ENDBRANCH  17  18
ENDBRANCH  16  17
ENDBRANCH  15  16
ENDBRANCH  12  15
ENDBRANCH   7  12
ENDBRANCH   3   6
ENDBRANCH   1   2
BRANCH   1  21
ATOM     21  C   UNL A   1      32.102  30.417  26.898  1.00  0.00     0.023 C 
BRANCH  21  22
ATOM     22  C   UNL A   1      31.770  31.904  26.857  1.00  0.00     0.023 C 
BRANCH  22  23
ATOM     23  C   UNL A   1      32.859  32.814  27.406  1.00  0.00     0.116 C 
BRANCH  23  24
ATOM     24  N   UNL A   1      32.421  34.171  27.700  1.00  0.00    -0.352 N 
ATOM     25  C   UNL A   1      32.965  35.056  28.613  1.00  0.00     0.251 C 
ATOM     26  H   UNL A   1      31.644  34.496  27.191  1.00  0.00     0.163 HD
ATOM     27  O   UNL A   1      32.464  36.148  28.811  1.00  0.00    -0.269 OA
BRANCH  25  28
ATOM     28  C   UNL A   1      34.145  34.615  29.393  1.00  0.00     0.039 A 
ATOM     29  C   UNL A   1      33.948  34.049  30.653  1.00  0.00     0.014 A 
ATOM     30  C   UNL A   1      35.418  34.641  28.817  1.00  0.00     0.014 A 
ATOM     31  C   UNL A   1      35.014  33.415  31.294  1.00  0.00     0.010 A 
ATOM     32  C   UNL A   1      36.448  33.922  29.410  1.00  0.00     0.010 A 
ATOM     33  C   UNL A   1      36.258  33.295  30.651  1.00  0.00    -0.014 A 
BRANCH  33  34
ATOM     34  C   UNL A   1      37.372  32.516  31.252  1.00  0.00     0.031 A 
ATOM     35  C   UNL A   1      37.885  32.875  32.619  1.00  0.00     0.074 A 
ATOM     36  C   UNL A   1      37.976  31.544  30.541  1.00  0.00     0.049 A 
ATOM     37  N   UNL A   1      38.903  32.383  33.279  1.00  0.00    -0.248 NA
ATOM     38  C   UNL A   1      37.183  33.961  33.324  1.00  0.00     0.031 C 
ATOM     39  C   UNL A   1      37.622  31.143  29.177  1.00  0.00     0.029 A 
ATOM     40  N   UNL A   1      39.029  30.721  30.862  1.00  0.00    -0.354 N 
ATOM     41  C   UNL A   1      38.973  33.111  34.459  1.00  0.00     0.074 A 
ATOM     42  C   UNL A   1      37.939  34.120  34.399  1.00  0.00     0.031 C 
ATOM     43  C   UNL A   1      38.423  30.137  28.791  1.00  0.00     0.029 A 
ATOM     44  C   UNL A   1      39.371  29.843  29.861  1.00  0.00     0.049 A 
ATOM     45  H   UNL A   1      39.495  30.756  31.728  1.00  0.00     0.167 HD
ATOM     46  C   UNL A   1      39.803  32.934  35.514  1.00  0.00     0.037 A 
ATOM     47  C   UNL A   1      40.342  28.910  29.810  1.00  0.00     0.037 A 
ATOM     48  C   UNL A   1      40.804  31.904  35.591  1.00  0.00     0.049 A 
ATOM     49  C   UNL A   1      41.236  28.716  31.005  1.00  0.00     0.074 A 
ATOM     50  C   UNL A   1      41.649  31.599  36.643  1.00  0.00     0.029 A 
ATOM     51  N   UNL A   1      41.091  31.006  34.573  1.00  0.00    -0.354 N 
ATOM     52  N   UNL A   1      41.245  29.364  32.145  1.00  0.00    -0.248 NA
ATOM     53  C   UNL A   1      42.248  27.654  30.911  1.00  0.00     0.031 C 
ATOM     54  C   UNL A   1      42.476  30.544  36.247  1.00  0.00     0.029 A 
ATOM     55  C   UNL A   1      42.112  30.157  34.967  1.00  0.00     0.049 A 
ATOM     56  H   UNL A   1      40.636  30.978  33.700  1.00  0.00     0.167 HD
ATOM     57  C   UNL A   1      42.242  28.774  32.911  1.00  0.00     0.074 A 
ATOM     58  C   UNL A   1      42.805  27.705  32.114  1.00  0.00     0.031 C 
ATOM     59  C   UNL A   1      42.654  29.092  34.163  1.00  0.00     0.037 A 
BRANCH  46  60
ATOM     60  C   UNL A   1      39.650  33.866  36.680  1.00  0.00     0.064 A 
ATOM     61  C   UNL A   1      38.863  33.530  37.792  1.00  0.00     0.173 A 
ATOM     62  C   UNL A   1      40.324  35.096  36.703  1.00  0.00     0.173 A 
ATOM     63  F   UNL A   1      38.187  32.371  37.815  1.00  0.00    -0.203 F 
ATOM     64  C   UNL A   1      38.732  34.402  38.869  1.00  0.00     0.198 A 
ATOM     65  C   UNL A   1      40.216  35.953  37.796  1.00  0.00     0.198 A 
ATOM     66  F   UNL A   1      41.093  35.467  35.668  1.00  0.00    -0.203 F 
ATOM     67  F   UNL A   1      37.933  34.081  39.896  1.00  0.00    -0.200 F 
ATOM     68  C   UNL A   1      39.415  35.609  38.874  1.00  0.00     0.200 A 
ATOM     69  F   UNL A   1      40.888  37.113  37.805  1.00  0.00    -0.200 F 
ATOM     70  F   UNL A   1      39.295  36.444  39.914  1.00  0.00    -0.200 F 
ENDBRANCH  46  60
BRANCH  47  71
ATOM     71  C   UNL A   1      40.502  28.068  28.596  1.00  0.00     0.064 A 
ATOM     72  C   UNL A   1      41.288  28.498  27.518  1.00  0.00     0.173 A 
ATOM     73  C   UNL A   1      39.872  26.820  28.484  1.00  0.00     0.173 A 
ATOM     74  F   UNL A   1      41.894  29.694  27.567  1.00  0.00    -0.203 F 
ATOM     75  C   UNL A   1      41.421  27.723  26.367  1.00  0.00     0.198 A 
ATOM     76  C   UNL A   1      40.029  26.032  27.346  1.00  0.00     0.198 A 
ATOM     77  F   UNL A   1      39.113  26.358  29.490  1.00  0.00    -0.203 F 
ATOM     78  F   UNL A   1      42.143  28.180  25.334  1.00  0.00    -0.200 F 
ATOM     79  C   UNL A   1      40.796  26.488  26.284  1.00  0.00     0.200 A 
ATOM     80  F   UNL A   1      39.435  24.833  27.275  1.00  0.00    -0.200 F 
ATOM     81  F   UNL A   1      40.929  25.740  25.180  1.00  0.00    -0.200 F 
ENDBRANCH  47  71
BRANCH  59  82
ATOM     82  C   UNL A   1      43.744  28.253  34.764  1.00  0.00     0.064 A 
ATOM     83  C   UNL A   1      45.094  28.622  34.668  1.00  0.00     0.173 A 
ATOM     84  C   UNL A   1      43.428  27.095  35.490  1.00  0.00     0.173 A 
ATOM     85  F   UNL A   1      45.448  29.714  33.974  1.00  0.00    -0.203 F 
ATOM     86  C   UNL A   1      46.089  27.847  35.258  1.00  0.00     0.198 A 
ATOM     87  C   UNL A   1      44.423  26.340  36.103  1.00  0.00     0.198 A 
ATOM     88  F   UNL A   1      42.151  26.705  35.618  1.00  0.00    -0.203 F 
ATOM     89  F   UNL A   1      47.376  28.193  35.116  1.00  0.00    -0.200 F 
ATOM     90  C   UNL A   1      45.753  26.712  35.981  1.00  0.00     0.200 A 
ATOM     91  F   UNL A   1      44.096  25.252  36.814  1.00  0.00    -0.200 F 
ATOM     92  F   UNL A   1      46.712  25.974  36.555  1.00  0.00    -0.200 F 
ENDBRANCH  59  82
ENDBRANCH  33  34
ENDBRANCH  25  28
ENDBRANCH  23  24
ENDBRANCH  22  23
ENDBRANCH  21  22
ENDBRANCH   1  21
TORSDOF 16
ENDMDL
MODEL 3
REMARK VINA RESULT:     -11.4      1.265      2.083
REMARK SMILES CC(C)OCCS(=O)(=O)N1CCC[C@H](C(=O)NCCCCNC(=O)c2ccc(-c3c4nc(c(-c5c(F)c(F)c(F)c(F)c5F)c5ccc([nH]5)c(-c5c(F)c(F)c(F)c(F)c5F)c5nc(c(-c6c(F)c(F)c(F)c(F)c6F)c6ccc3[nH]6)C=C5)C=C4)cc2)C1
REMARK SMILES IDX 18 1 17 2 15 3 16 4 14 6 10 7 11 8 88 9 12 10 13 11 7 12
REMARK SMILES IDX 8 13 9 14 6 15 5 16 4 17 2 18 1 19 3 20 19 21 20 22 21 23
REMARK SMILES IDX 22 24 23 25 24 27 25 28 26 29 87 30 27 31 86 32 28 33 29 34
REMARK SMILES IDX 30 35 80 36 31 37 85 38 79 39 81 40 32 41 84 42 78 43 77 44
REMARK SMILES IDX 33 46 65 47 45 48 64 49 46 50 49 51 63 52 82 53 47 54 48 55
REMARK SMILES IDX 62 57 83 58 50 59 34 60 35 61 43 62 36 63 37 64 41 65 44 66
REMARK SMILES IDX 38 67 39 68 42 69 40 70 66 71 67 72 75 73 68 74 69 75 73 76
REMARK SMILES IDX 76 77 70 78 71 79 74 80 72 81 51 82 52 83 60 84 53 85 54 86
REMARK SMILES IDX 58 87 61 88 55 89 56 90 59 91 57 92
REMARK H PARENT 17 5 22 26 81 45 49 56
REMARK Flexibility Score: inf
ROOT
ATOM      1  C   UNL A   1      33.752  29.485  26.860  1.00  0.00     0.116 C 
ENDROOT
BRANCH   1   2
ATOM      2  N   UNL A   1      33.985  29.296  25.445  1.00  0.00    -0.356 N 
ATOM      3  C   UNL A   1      33.682  28.289  24.592  1.00  0.00     0.224 C 
ATOM      4  O   UNL A   1      33.902  28.517  23.395  1.00  0.00    -0.275 OA
ATOM      5  H   UNL A   1      34.457  30.048  25.017  1.00  0.00     0.163 HD
BRANCH   3   6
ATOM      6  C   UNL A   1      33.181  26.902  24.997  1.00  0.00     0.093 C 
ATOM      7  N   UNL A   1      32.926  25.185  23.086  1.00  0.00    -0.201 NA
ATOM      8  C   UNL A   1      31.477  25.108  23.453  1.00  0.00     0.102 C 
ATOM      9  C   UNL A   1      33.747  25.700  24.251  1.00  0.00     0.115 C 
ATOM     10  C   UNL A   1      30.927  26.417  24.009  1.00  0.00     0.018 C 
ATOM     11  C   UNL A   1      31.680  26.856  25.240  1.00  0.00     0.016 C 
BRANCH   7  12
ATOM     12  S   UNL A   1      33.656  23.720  22.478  1.00  0.00     0.216 S 
ATOM     13  O   UNL A   1      35.006  23.674  22.994  1.00  0.00    -0.212 OA
ATOM     14  O   UNL A   1      33.438  23.743  21.043  1.00  0.00    -0.212 OA
BRANCH  12  15
ATOM     15  C   UNL A   1      32.692  22.310  23.066  1.00  0.00     0.182 C 
BRANCH  15  16
ATOM     16  C   UNL A   1      32.825  22.007  24.554  1.00  0.00     0.178 C 
BRANCH  16  17
ATOM     17  O   UNL A   1      31.604  22.014  25.297  1.00  0.00    -0.378 OA
BRANCH  17  18
ATOM     18  C   UNL A   1      31.571  22.656  26.571  1.00  0.00     0.112 C 
ATOM     19  C   UNL A   1      32.861  23.389  26.925  1.00  0.00     0.038 C 
ATOM     20  C   UNL A   1      30.271  23.449  26.695  1.00  0.00     0.038 C 
ENDBRANCH  17  18
ENDBRANCH  16  17
ENDBRANCH  15  16
ENDBRANCH  12  15
ENDBRANCH   7  12
ENDBRANCH   3   6
ENDBRANCH   1   2
BRANCH   1  21
ATOM     21  C   UNL A   1      32.339  29.987  27.167  1.00  0.00     0.023 C 
BRANCH  21  22
ATOM     22  C   UNL A   1      32.099  31.450  26.818  1.00  0.00     0.023 C 
BRANCH  22  23
ATOM     23  C   UNL A   1      33.067  32.428  27.470  1.00  0.00     0.116 C 
BRANCH  23  24
ATOM     24  N   UNL A   1      32.543  33.775  27.639  1.00  0.00    -0.352 N 
ATOM     25  C   UNL A   1      33.001  34.759  28.496  1.00  0.00     0.251 C 
ATOM     26  H   UNL A   1      31.770  34.014  27.079  1.00  0.00     0.163 HD
ATOM     27  O   UNL A   1      32.433  35.832  28.589  1.00  0.00    -0.269 OA
BRANCH  25  28
ATOM     28  C   UNL A   1      34.173  34.450  29.348  1.00  0.00     0.039 A 
ATOM     29  C   UNL A   1      33.960  33.919  30.621  1.00  0.00     0.014 A 
ATOM     30  C   UNL A   1      35.466  34.560  28.832  1.00  0.00     0.014 A 
ATOM     31  C   UNL A   1      35.041  33.403  31.338  1.00  0.00     0.010 A 
ATOM     32  C   UNL A   1      36.522  33.955  29.503  1.00  0.00     0.010 A 
ATOM     33  C   UNL A   1      36.321  33.363  30.760  1.00  0.00    -0.014 A 
BRANCH  33  34
ATOM     34  C   UNL A   1      37.464  32.705  31.446  1.00  0.00     0.031 A 
ATOM     35  C   UNL A   1      38.167  31.549  30.791  1.00  0.00     0.074 A 
ATOM     36  C   UNL A   1      37.817  33.091  32.689  1.00  0.00     0.049 A 
ATOM     37  N   UNL A   1      39.121  30.784  31.260  1.00  0.00    -0.248 NA
ATOM     38  C   UNL A   1      37.711  31.177  29.441  1.00  0.00     0.031 C 
ATOM     39  C   UNL A   1      37.172  34.152  33.465  1.00  0.00     0.029 A 
ATOM     40  N   UNL A   1      38.801  32.623  33.527  1.00  0.00    -0.354 N 
ATOM     41  C   UNL A   1      39.359  29.835  30.276  1.00  0.00     0.074 A 
ATOM     42  C   UNL A   1      38.410  30.077  29.212  1.00  0.00     0.031 C 
ATOM     43  C   UNL A   1      37.792  34.272  34.650  1.00  0.00     0.029 A 
ATOM     44  C   UNL A   1      38.854  33.275  34.736  1.00  0.00     0.049 A 
ATOM     45  H   UNL A   1      39.411  31.890  33.284  1.00  0.00     0.167 HD
ATOM     46  C   UNL A   1      40.306  28.868  30.245  1.00  0.00     0.037 A 
ATOM     47  C   UNL A   1      39.664  33.086  35.796  1.00  0.00     0.037 A 
ATOM     48  C   UNL A   1      41.277  28.654  31.284  1.00  0.00     0.049 A 
ATOM     49  C   UNL A   1      40.726  32.021  35.727  1.00  0.00     0.074 A 
ATOM     50  C   UNL A   1      42.320  27.745  31.317  1.00  0.00     0.029 A 
ATOM     51  N   UNL A   1      41.325  29.363  32.476  1.00  0.00    -0.354 N 
ATOM     52  N   UNL A   1      40.988  31.177  34.760  1.00  0.00    -0.248 NA
ATOM     53  C   UNL A   1      41.610  31.890  36.893  1.00  0.00     0.031 C 
ATOM     54  C   UNL A   1      42.974  27.876  32.546  1.00  0.00     0.029 A 
ATOM     55  C   UNL A   1      42.371  28.901  33.258  1.00  0.00     0.049 A 
ATOM     56  H   UNL A   1      40.707  30.087  32.727  1.00  0.00     0.167 HD
ATOM     57  C   UNL A   1      42.079  30.432  35.188  1.00  0.00     0.074 A 
ATOM     58  C   UNL A   1      42.442  30.937  36.495  1.00  0.00     0.031 C 
ATOM     59  C   UNL A   1      42.723  29.421  34.554  1.00  0.00     0.037 A 
BRANCH  46  60
ATOM     60  C   UNL A   1      40.349  27.978  29.037  1.00  0.00     0.064 A 
ATOM     61  C   UNL A   1      39.623  26.779  28.982  1.00  0.00     0.173 A 
ATOM     62  C   UNL A   1      41.099  28.342  27.909  1.00  0.00     0.173 A 
ATOM     63  F   UNL A   1      38.901  26.377  30.039  1.00  0.00    -0.203 F 
ATOM     64  C   UNL A   1      39.669  25.963  27.854  1.00  0.00     0.198 A 
ATOM     65  C   UNL A   1      41.117  27.540  26.771  1.00  0.00     0.198 A 
ATOM     66  F   UNL A   1      41.809  29.481  27.906  1.00  0.00    -0.203 F 
ATOM     67  F   UNL A   1      39.008  24.797  27.846  1.00  0.00    -0.200 F 
ATOM     68  C   UNL A   1      40.409  26.348  26.747  1.00  0.00     0.200 A 
ATOM     69  F   UNL A   1      41.823  27.920  25.696  1.00  0.00    -0.200 F 
ATOM     70  F   UNL A   1      40.446  25.567  25.660  1.00  0.00    -0.200 F 
ENDBRANCH  46  60
BRANCH  47  71
ATOM     71  C   UNL A   1      39.524  33.944  37.002  1.00  0.00     0.064 A 
ATOM     72  C   UNL A   1      38.797  33.506  38.117  1.00  0.00     0.173 A 
ATOM     73  C   UNL A   1      40.109  35.217  37.065  1.00  0.00     0.173 A 
ATOM     74  F   UNL A   1      38.201  32.305  38.098  1.00  0.00    -0.203 F 
ATOM     75  C   UNL A   1      38.642  34.316  39.241  1.00  0.00     0.198 A 
ATOM     76  C   UNL A   1      39.978  36.015  38.199  1.00  0.00     0.198 A 
ATOM     77  F   UNL A   1      40.820  35.681  36.027  1.00  0.00    -0.203 F 
ATOM     78  F   UNL A   1      37.904  33.890  40.275  1.00  0.00    -0.200 F 
ATOM     79  C   UNL A   1      39.238  35.568  39.284  1.00  0.00     0.200 A 
ATOM     80  F   UNL A   1      40.567  37.218  38.243  1.00  0.00    -0.200 F 
ATOM     81  F   UNL A   1      39.093  36.344  40.366  1.00  0.00    -0.200 F 
ENDBRANCH  47  71
BRANCH  59  82
ATOM     82  C   UNL A   1      43.906  28.813  35.249  1.00  0.00     0.064 A 
ATOM     83  C   UNL A   1      45.209  29.286  35.036  1.00  0.00     0.173 A 
ATOM     84  C   UNL A   1      43.726  27.778  36.179  1.00  0.00     0.173 A 
ATOM     85  F   UNL A   1      45.434  30.265  34.147  1.00  0.00    -0.203 F 
ATOM     86  C   UNL A   1      46.291  28.729  35.712  1.00  0.00     0.198 A 
ATOM     87  C   UNL A   1      44.806  27.244  36.875  1.00  0.00     0.198 A 
ATOM     88  F   UNL A   1      42.498  27.296  36.425  1.00  0.00    -0.203 F 
ATOM     89  F   UNL A   1      47.532  29.167  35.461  1.00  0.00    -0.200 F 
ATOM     90  C   UNL A   1      46.087  27.715  36.637  1.00  0.00     0.200 A 
ATOM     91  F   UNL A   1      44.606  26.275  37.778  1.00  0.00    -0.200 F 
ATOM     92  F   UNL A   1      47.130  27.187  37.293  1.00  0.00    -0.200 F 
ENDBRANCH  59  82
ENDBRANCH  33  34
ENDBRANCH  25  28
ENDBRANCH  23  24
ENDBRANCH  22  23
ENDBRANCH  21  22
ENDBRANCH   1  21
TORSDOF 16
ENDMDL
