MODEL 1
REMARK VINA RESULT:     -13.2      0.000      0.000
REMARK SMILES Cc1csc(CNC(=O)NC[C@H]2CC[C@@H](C(=O)NCCCCNC(=O)c3ccc(-c4c5nc(c(-c6c(F)c(F)c(F)c(F)c6F)c6ccc([nH]6)c(-c6c(F)c(F)c(F)c(F)c6F)c6nc(c(-c7c(F)c(F)c(F)c(F)c7F)c7ccc4[nH]7)C=C6)C=C5)cc3)CC2)n1
REMARK SMILES IDX 19 1 18 2 16 3 17 4 15 6 12 7 13 8 90 9 14 10 89 11 11 12
REMARK SMILES IDX 10 13 7 14 8 15 9 17 6 19 5 20 1 21 2 22 3 23 91 24 4 25
REMARK SMILES IDX 20 26 21 27 22 28 23 29 24 30 25 32 26 33 27 34 88 35 28 36
REMARK SMILES IDX 87 37 29 38 30 39 31 40 81 41 32 42 86 43 80 44 82 45 33 46
REMARK SMILES IDX 85 47 79 48 78 49 34 51 66 52 46 53 65 54 47 55 50 56 64 57
REMARK SMILES IDX 83 58 48 59 49 60 63 62 84 63 51 64 35 65 36 66 44 67 37 68
REMARK SMILES IDX 38 69 42 70 45 71 39 72 40 73 43 74 41 75 67 76 68 77 76 78
REMARK SMILES IDX 69 79 70 80 74 81 77 82 71 83 72 84 75 85 73 86 52 87 53 88
REMARK SMILES IDX 61 89 54 90 55 91 59 92 62 93 56 94 57 95 60 96 58 97
REMARK H PARENT 18 5 7 16 10 18 23 31 82 50 50 61
REMARK Flexibility Score: inf
ROOT
ATOM      1  C   UNL A   1      31.537  29.226  25.442  1.00  0.00     0.116 C 
ENDROOT
BRANCH   1   2
ATOM      2  N   UNL A   1      30.823  30.029  24.478  1.00  0.00    -0.356 N 
ATOM      3  C   UNL A   1      30.015  29.714  23.436  1.00  0.00     0.223 C 
ATOM      4  O   UNL A   1      29.405  30.668  22.934  1.00  0.00    -0.275 OA
ATOM      5  H   UNL A   1      30.946  30.997  24.603  1.00  0.00     0.163 HD
BRANCH   3   6
ATOM      6  C   UNL A   1      29.828  28.311  22.834  1.00  0.00     0.078 C 
ATOM      7  C   UNL A   1      30.453  25.767  24.346  1.00  0.00     0.008 C 
ATOM      8  C   UNL A   1      29.072  26.441  24.473  1.00  0.00     0.006 C 
ATOM      9  C   UNL A   1      31.551  26.597  23.664  1.00  0.00     0.006 C 
ATOM     10  C   UNL A   1      28.702  27.443  23.387  1.00  0.00     0.014 C 
ATOM     11  C   UNL A   1      31.106  27.531  22.557  1.00  0.00     0.014 C 
BRANCH   7  12
ATOM     12  C   UNL A   1      30.958  25.326  25.742  1.00  0.00     0.121 C 
BRANCH  12  13
ATOM     13  N   UNL A   1      30.029  24.437  26.402  1.00  0.00    -0.338 N 
ATOM     14  N   UNL A   1      31.060  22.320  26.352  1.00  0.00    -0.332 N 
ATOM     15  C   UNL A   1      30.186  23.190  26.862  1.00  0.00     0.315 C 
ATOM     16  H   UNL A   1      31.248  21.564  26.954  1.00  0.00     0.165 HD
ATOM     17  O   UNL A   1      29.470  22.826  27.797  1.00  0.00    -0.249 OA
ATOM     18  H   UNL A   1      29.128  24.813  26.536  1.00  0.00     0.165 HD
BRANCH  14  19
ATOM     19  C   UNL A   1      31.791  22.249  25.102  1.00  0.00     0.185 C 
BRANCH  19  20
ATOM     20  C   UNL A   1      32.573  20.966  25.038  1.00  0.00     0.112 A 
ATOM     21  C   UNL A   1      32.645  17.390  24.589  1.00  0.00     0.067 C 
ATOM     22  C   UNL A   1      33.043  18.809  24.780  1.00  0.00     0.049 A 
ATOM     23  C   UNL A   1      34.326  19.317  24.743  1.00  0.00     0.090 A 
ATOM     24  N   UNL A   1      32.055  19.754  25.003  1.00  0.00    -0.245 NA
ATOM     25  S   UNL A   1      34.293  21.017  24.954  1.00  0.00    -0.125 S 
ENDBRANCH  19  20
ENDBRANCH  14  19
ENDBRANCH  12  13
ENDBRANCH   7  12
ENDBRANCH   3   6
ENDBRANCH   1   2
BRANCH   1  26
ATOM     26  C   UNL A   1      32.134  30.035  26.593  1.00  0.00     0.023 C 
BRANCH  26  27
ATOM     27  C   UNL A   1      31.848  31.531  26.548  1.00  0.00     0.023 C 
BRANCH  27  28
ATOM     28  C   UNL A   1      32.855  32.410  27.283  1.00  0.00     0.116 C 
BRANCH  28  29
ATOM     29  N   UNL A   1      32.415  33.769  27.569  1.00  0.00    -0.352 N 
ATOM     30  C   UNL A   1      33.013  34.673  28.423  1.00  0.00     0.251 C 
ATOM     31  H   UNL A   1      31.603  34.075  27.103  1.00  0.00     0.163 HD
ATOM     32  O   UNL A   1      32.580  35.805  28.578  1.00  0.00    -0.269 OA
BRANCH  30  33
ATOM     33  C   UNL A   1      34.163  34.219  29.226  1.00  0.00     0.039 A 
ATOM     34  C   UNL A   1      33.917  33.425  30.347  1.00  0.00     0.014 A 
ATOM     35  C   UNL A   1      35.467  34.470  28.795  1.00  0.00     0.014 A 
ATOM     36  C   UNL A   1      34.983  32.792  30.983  1.00  0.00     0.010 A 
ATOM     37  C   UNL A   1      36.519  33.778  29.381  1.00  0.00     0.010 A 
ATOM     38  C   UNL A   1      36.284  32.921  30.469  1.00  0.00    -0.014 A 
BRANCH  38  39
ATOM     39  C   UNL A   1      37.418  32.159  31.043  1.00  0.00     0.031 A 
ATOM     40  C   UNL A   1      37.917  32.498  32.417  1.00  0.00     0.074 A 
ATOM     41  C   UNL A   1      38.042  31.223  30.301  1.00  0.00     0.049 A 
ATOM     42  N   UNL A   1      38.971  32.049  33.049  1.00  0.00    -0.248 NA
ATOM     43  C   UNL A   1      37.145  33.500  33.168  1.00  0.00     0.031 C 
ATOM     44  C   UNL A   1      37.676  30.836  28.937  1.00  0.00     0.029 A 
ATOM     45  N   UNL A   1      39.128  30.434  30.588  1.00  0.00    -0.354 N 
ATOM     46  C   UNL A   1      38.998  32.727  34.259  1.00  0.00     0.074 A 
ATOM     47  C   UNL A   1      37.886  33.652  34.256  1.00  0.00     0.031 C 
ATOM     48  C   UNL A   1      38.510  29.871  28.514  1.00  0.00     0.029 A 
ATOM     49  C   UNL A   1      39.489  29.596  29.561  1.00  0.00     0.049 A 
ATOM     50  H   UNL A   1      39.604  30.466  31.450  1.00  0.00     0.167 HD
ATOM     51  C   UNL A   1      39.860  32.574  35.292  1.00  0.00     0.037 A 
ATOM     52  C   UNL A   1      40.500  28.712  29.475  1.00  0.00     0.037 A 
ATOM     53  C   UNL A   1      40.944  31.630  35.307  1.00  0.00     0.049 A 
ATOM     54  C   UNL A   1      41.430  28.549  30.648  1.00  0.00     0.074 A 
ATOM     55  C   UNL A   1      41.863  31.386  36.311  1.00  0.00     0.029 A 
ATOM     56  N   UNL A   1      41.243  30.761  34.268  1.00  0.00    -0.354 N 
ATOM     57  N   UNL A   1      41.429  29.176  31.799  1.00  0.00    -0.248 NA
ATOM     58  C   UNL A   1      42.499  27.549  30.511  1.00  0.00     0.031 C 
ATOM     59  C   UNL A   1      42.729  30.376  35.875  1.00  0.00     0.029 A 
ATOM     60  C   UNL A   1      42.329  29.974  34.612  1.00  0.00     0.049 A 
ATOM     61  H   UNL A   1      40.756  30.712  33.415  1.00  0.00     0.167 HD
ATOM     62  C   UNL A   1      42.472  28.629  32.532  1.00  0.00     0.074 A 
ATOM     63  C   UNL A   1      43.078  27.610  31.701  1.00  0.00     0.031 C 
ATOM     64  C   UNL A   1      42.895  28.946  33.779  1.00  0.00     0.037 A 
BRANCH  51  65
ATOM     65  C   UNL A   1      39.646  33.435  36.499  1.00  0.00     0.064 A 
ATOM     66  C   UNL A   1      40.291  34.673  36.631  1.00  0.00     0.173 A 
ATOM     67  C   UNL A   1      38.769  33.035  37.517  1.00  0.00     0.173 A 
ATOM     68  F   UNL A   1      41.153  35.089  35.691  1.00  0.00    -0.203 F 
ATOM     69  C   UNL A   1      40.081  35.473  37.751  1.00  0.00     0.198 A 
ATOM     70  C   UNL A   1      38.542  33.850  38.624  1.00  0.00     0.198 A 
ATOM     71  F   UNL A   1      38.127  31.860  37.436  1.00  0.00    -0.203 F 
ATOM     72  F   UNL A   1      40.739  36.633  37.876  1.00  0.00    -0.200 F 
ATOM     73  C   UNL A   1      39.201  35.064  38.742  1.00  0.00     0.200 A 
ATOM     74  F   UNL A   1      37.686  33.459  39.578  1.00  0.00    -0.200 F 
ATOM     75  F   UNL A   1      38.995  35.838  39.816  1.00  0.00    -0.200 F 
ENDBRANCH  51  65
BRANCH  52  76
ATOM     76  C   UNL A   1      40.681  27.892  28.250  1.00  0.00     0.064 A 
ATOM     77  C   UNL A   1      40.094  26.623  28.145  1.00  0.00     0.173 A 
ATOM     78  C   UNL A   1      41.463  28.341  27.177  1.00  0.00     0.173 A 
ATOM     79  F   UNL A   1      39.355  26.143  29.155  1.00  0.00    -0.203 F 
ATOM     80  C   UNL A   1      40.307  25.821  27.025  1.00  0.00     0.198 A 
ATOM     81  C   UNL A   1      41.655  27.548  26.047  1.00  0.00     0.198 A 
ATOM     82  F   UNL A   1      42.041  29.550  27.226  1.00  0.00    -0.203 F 
ATOM     83  F   UNL A   1      39.778  24.592  26.975  1.00  0.00    -0.200 F 
ATOM     84  C   UNL A   1      41.085  26.286  25.976  1.00  0.00     0.200 A 
ATOM     85  F   UNL A   1      42.399  28.004  25.030  1.00  0.00    -0.200 F 
ATOM     86  F   UNL A   1      41.296  25.512  24.902  1.00  0.00    -0.200 F 
ENDBRANCH  52  76
BRANCH  64  87
ATOM     87  C   UNL A   1      44.034  28.149  34.338  1.00  0.00     0.064 A 
ATOM     88  C   UNL A   1      45.354  28.615  34.276  1.00  0.00     0.173 A 
ATOM     89  C   UNL A   1      43.792  26.927  34.980  1.00  0.00     0.173 A 
ATOM     90  F   UNL A   1      45.634  29.773  33.656  1.00  0.00    -0.203 F 
ATOM     91  C   UNL A   1      46.398  27.873  34.822  1.00  0.00     0.198 A 
ATOM     92  C   UNL A   1      44.835  26.199  35.545  1.00  0.00     0.198 A 
ATOM     93  F   UNL A   1      42.544  26.443  35.068  1.00  0.00    -0.203 F 
ATOM     94  F   UNL A   1      47.658  28.318  34.719  1.00  0.00    -0.200 F 
ATOM     95  C   UNL A   1      46.137  26.670  35.461  1.00  0.00     0.200 A 
ATOM     96  F   UNL A   1      44.581  25.041  36.170  1.00  0.00    -0.200 F 
ATOM     97  F   UNL A   1      47.143  25.960  35.990  1.00  0.00    -0.200 F 
ENDBRANCH  64  87
ENDBRANCH  38  39
ENDBRANCH  30  33
ENDBRANCH  28  29
ENDBRANCH  27  28
ENDBRANCH  26  27
ENDBRANCH   1  26
TORSDOF 15
ENDMDL
MODEL 2
REMARK VINA RESULT:     -13.2      2.242      3.319
REMARK SMILES Cc1csc(CNC(=O)NC[C@H]2CC[C@@H](C(=O)NCCCCNC(=O)c3ccc(-c4c5nc(c(-c6c(F)c(F)c(F)c(F)c6F)c6ccc([nH]6)c(-c6c(F)c(F)c(F)c(F)c6F)c6nc(c(-c7c(F)c(F)c(F)c(F)c7F)c7ccc4[nH]7)C=C6)C=C5)cc3)CC2)n1
REMARK SMILES IDX 19 1 18 2 16 3 17 4 15 6 12 7 13 8 90 9 14 10 89 11 11 12
REMARK SMILES IDX 10 13 7 14 8 15 9 17 6 19 5 20 1 21 2 22 3 23 91 24 4 25
REMARK SMILES IDX 20 26 21 27 22 28 23 29 24 30 25 32 26 33 27 34 88 35 28 36
REMARK SMILES IDX 87 37 29 38 30 39 31 40 81 41 32 42 86 43 80 44 82 45 33 46
REMARK SMILES IDX 85 47 79 48 78 49 34 51 66 52 46 53 65 54 47 55 50 56 64 57
REMARK SMILES IDX 83 58 48 59 49 60 63 62 84 63 51 64 35 65 36 66 44 67 37 68
REMARK SMILES IDX 38 69 42 70 45 71 39 72 40 73 43 74 41 75 67 76 68 77 76 78
REMARK SMILES IDX 69 79 70 80 74 81 77 82 71 83 72 84 75 85 73 86 52 87 53 88
REMARK SMILES IDX 61 89 54 90 55 91 59 92 62 93 56 94 57 95 60 96 58 97
REMARK H PARENT 18 5 7 16 10 18 23 31 82 50 50 61
REMARK Flexibility Score: inf
ROOT
ATOM      1  C   UNL A   1      34.663  31.596  28.406  1.00  0.00     0.116 C 
ENDROOT
BRANCH   1   2
ATOM      2  N   UNL A   1      33.572  31.509  27.465  1.00  0.00    -0.356 N 
ATOM      3  C   UNL A   1      32.806  30.476  27.037  1.00  0.00     0.223 C 
ATOM      4  O   UNL A   1      31.818  30.796  26.361  1.00  0.00    -0.275 OA
ATOM      5  H   UNL A   1      33.338  32.371  27.052  1.00  0.00     0.163 HD
BRANCH   3   6
ATOM      6  C   UNL A   1      33.079  28.985  27.298  1.00  0.00     0.078 C 
ATOM      7  C   UNL A   1      32.291  26.796  25.365  1.00  0.00     0.008 C 
ATOM      8  C   UNL A   1      33.640  27.530  25.219  1.00  0.00     0.006 C 
ATOM      9  C   UNL A   1      31.281  27.425  26.335  1.00  0.00     0.006 C 
ATOM     10  C   UNL A   1      34.134  28.293  26.442  1.00  0.00     0.014 C 
ATOM     11  C   UNL A   1      31.853  28.120  27.555  1.00  0.00     0.014 C 
BRANCH   7  12
ATOM     12  C   UNL A   1      31.620  26.642  23.979  1.00  0.00     0.121 C 
BRANCH  12  13
ATOM     13  N   UNL A   1      32.590  26.512  22.914  1.00  0.00    -0.338 N 
ATOM     14  N   UNL A   1      32.294  24.333  22.072  1.00  0.00    -0.332 N 
ATOM     15  C   UNL A   1      32.714  25.593  21.949  1.00  0.00     0.315 C 
ATOM     16  H   UNL A   1      32.205  23.869  21.208  1.00  0.00     0.165 HD
ATOM     17  O   UNL A   1      33.262  25.931  20.899  1.00  0.00    -0.249 OA
ATOM     18  H   UNL A   1      33.275  27.220  22.896  1.00  0.00     0.165 HD
BRANCH  14  19
ATOM     19  C   UNL A   1      31.938  23.500  23.204  1.00  0.00     0.185 C 
BRANCH  19  20
ATOM     20  C   UNL A   1      33.182  23.058  23.925  1.00  0.00     0.112 A 
ATOM     21  C   UNL A   1      36.159  23.889  25.780  1.00  0.00     0.067 C 
ATOM     22  C   UNL A   1      35.059  23.146  25.114  1.00  0.00     0.049 A 
ATOM     23  C   UNL A   1      34.819  21.789  25.184  1.00  0.00     0.090 A 
ATOM     24  N   UNL A   1      34.146  23.853  24.347  1.00  0.00    -0.245 NA
ATOM     25  S   UNL A   1      33.403  21.392  24.305  1.00  0.00    -0.125 S 
ENDBRANCH  19  20
ENDBRANCH  14  19
ENDBRANCH  12  13
ENDBRANCH   7  12
ENDBRANCH   3   6
ENDBRANCH   1   2
BRANCH   1  26
ATOM     26  C   UNL A   1      34.641  32.869  29.254  1.00  0.00     0.023 C 
BRANCH  26  27
ATOM     27  C   UNL A   1      33.588  33.893  28.855  1.00  0.00     0.023 C 
BRANCH  27  28
ATOM     28  C   UNL A   1      33.778  35.288  29.443  1.00  0.00     0.116 C 
BRANCH  28  29
ATOM     29  N   UNL A   1      32.713  35.753  30.321  1.00  0.00    -0.352 N 
ATOM     30  C   UNL A   1      32.702  35.727  31.700  1.00  0.00     0.251 C 
ATOM     31  H   UNL A   1      31.914  36.128  29.882  1.00  0.00     0.163 HD
ATOM     32  O   UNL A   1      31.767  36.166  32.352  1.00  0.00    -0.269 OA
BRANCH  30  33
ATOM     33  C   UNL A   1      33.826  35.072  32.394  1.00  0.00     0.039 A 
ATOM     34  C   UNL A   1      33.648  33.768  32.861  1.00  0.00     0.014 A 
ATOM     35  C   UNL A   1      35.073  35.696  32.461  1.00  0.00     0.014 A 
ATOM     36  C   UNL A   1      34.754  33.046  33.306  1.00  0.00     0.010 A 
ATOM     37  C   UNL A   1      36.184  34.950  32.832  1.00  0.00     0.010 A 
ATOM     38  C   UNL A   1      36.037  33.614  33.241  1.00  0.00    -0.014 A 
BRANCH  38  39
ATOM     39  C   UNL A   1      37.246  32.828  33.584  1.00  0.00     0.031 A 
ATOM     40  C   UNL A   1      37.968  33.105  34.869  1.00  0.00     0.074 A 
ATOM     41  C   UNL A   1      37.731  31.927  32.707  1.00  0.00     0.049 A 
ATOM     42  N   UNL A   1      39.110  32.630  35.296  1.00  0.00    -0.248 NA
ATOM     43  C   UNL A   1      37.338  34.072  35.782  1.00  0.00     0.031 C 
ATOM     44  C   UNL A   1      37.141  31.602  31.407  1.00  0.00     0.029 A 
ATOM     45  N   UNL A   1      38.844  31.127  32.773  1.00  0.00    -0.354 N 
ATOM     46  C   UNL A   1      39.342  33.253  36.514  1.00  0.00     0.074 A 
ATOM     47  C   UNL A   1      38.251  34.176  36.738  1.00  0.00     0.031 C 
ATOM     48  C   UNL A   1      37.886  30.658  30.808  1.00  0.00     0.029 A 
ATOM     49  C   UNL A   1      39.024  30.337  31.665  1.00  0.00     0.049 A 
ATOM     50  H   UNL A   1      39.458  31.121  33.545  1.00  0.00     0.167 HD
ATOM     51  C   UNL A   1      40.363  33.054  37.381  1.00  0.00     0.037 A 
ATOM     52  C   UNL A   1      40.001  29.459  31.372  1.00  0.00     0.037 A 
ATOM     53  C   UNL A   1      41.428  32.112  37.173  1.00  0.00     0.049 A 
ATOM     54  C   UNL A   1      41.113  29.244  32.365  1.00  0.00     0.074 A 
ATOM     55  C   UNL A   1      42.500  31.823  37.998  1.00  0.00     0.029 A 
ATOM     56  N   UNL A   1      41.544  31.290  36.061  1.00  0.00    -0.354 N 
ATOM     57  N   UNL A   1      41.307  29.819  33.527  1.00  0.00    -0.248 NA
ATOM     58  C   UNL A   1      42.137  28.252  32.007  1.00  0.00     0.031 C 
ATOM     59  C   UNL A   1      43.275  30.835  37.380  1.00  0.00     0.029 A 
ATOM     60  C   UNL A   1      42.667  30.489  36.184  1.00  0.00     0.049 A 
ATOM     61  H   UNL A   1      40.922  31.279  35.299  1.00  0.00     0.167 HD
ATOM     62  C   UNL A   1      42.454  29.241  34.051  1.00  0.00     0.074 A 
ATOM     63  C   UNL A   1      42.907  28.261  33.086  1.00  0.00     0.031 C 
ATOM     64  C   UNL A   1      43.081  29.501  35.223  1.00  0.00     0.037 A 
BRANCH  51  65
ATOM     65  C   UNL A   1      40.358  33.859  38.644  1.00  0.00     0.064 A 
ATOM     66  C   UNL A   1      39.630  33.443  39.768  1.00  0.00     0.173 A 
ATOM     67  C   UNL A   1      41.109  35.038  38.743  1.00  0.00     0.173 A 
ATOM     68  F   UNL A   1      38.882  32.331  39.713  1.00  0.00    -0.203 F 
ATOM     69  C   UNL A   1      39.636  34.191  40.942  1.00  0.00     0.198 A 
ATOM     70  C   UNL A   1      41.134  35.771  39.928  1.00  0.00     0.198 A 
ATOM     71  F   UNL A   1      41.823  35.477  37.696  1.00  0.00    -0.203 F 
ATOM     72  F   UNL A   1      38.900  33.797  41.989  1.00  0.00    -0.200 F 
ATOM     73  C   UNL A   1      40.394  35.350  41.023  1.00  0.00     0.200 A 
ATOM     74  F   UNL A   1      41.872  36.886  40.009  1.00  0.00    -0.200 F 
ATOM     75  F   UNL A   1      40.405  36.066  42.155  1.00  0.00    -0.200 F 
ENDBRANCH  51  65
BRANCH  52  76
ATOM     76  C   UNL A   1      39.971  28.695  30.099  1.00  0.00     0.064 A 
ATOM     77  C   UNL A   1      39.380  27.425  30.040  1.00  0.00     0.173 A 
ATOM     78  C   UNL A   1      40.553  29.199  28.928  1.00  0.00     0.173 A 
ATOM     79  F   UNL A   1      38.829  26.892  31.140  1.00  0.00    -0.203 F 
ATOM     80  C   UNL A   1      39.399  26.675  28.865  1.00  0.00     0.198 A 
ATOM     81  C   UNL A   1      40.550  28.459  27.747  1.00  0.00     0.198 A 
ATOM     82  F   UNL A   1      41.126  30.412  28.930  1.00  0.00    -0.203 F 
ATOM     83  F   UNL A   1      38.875  25.443  28.852  1.00  0.00    -0.200 F 
ATOM     84  C   UNL A   1      39.982  27.194  27.719  1.00  0.00     0.200 A 
ATOM     85  F   UNL A   1      41.104  28.968  26.638  1.00  0.00    -0.200 F 
ATOM     86  F   UNL A   1      40.006  26.471  26.591  1.00  0.00    -0.200 F 
ENDBRANCH  52  76
BRANCH  64  87
ATOM     87  C   UNL A   1      44.291  28.681  35.549  1.00  0.00     0.064 A 
ATOM     88  C   UNL A   1      45.575  29.082  35.155  1.00  0.00     0.173 A 
ATOM     89  C   UNL A   1      44.166  27.504  36.300  1.00  0.00     0.173 A 
ATOM     90  F   UNL A   1      45.740  30.194  34.421  1.00  0.00    -0.203 F 
ATOM     91  C   UNL A   1      46.692  28.321  35.487  1.00  0.00     0.198 A 
ATOM     92  C   UNL A   1      45.287  26.758  36.649  1.00  0.00     0.198 A 
ATOM     93  F   UNL A   1      42.957  27.083  36.702  1.00  0.00    -0.203 F 
ATOM     94  F   UNL A   1      47.908  28.701  35.069  1.00  0.00    -0.200 F 
ATOM     95  C   UNL A   1      46.548  27.163  36.238  1.00  0.00     0.200 A 
ATOM     96  F   UNL A   1      45.148  25.644  37.382  1.00  0.00    -0.200 F 
ATOM     97  F   UNL A   1      47.626  26.435  36.561  1.00  0.00    -0.200 F 
ENDBRANCH  64  87
ENDBRANCH  38  39
ENDBRANCH  30  33
ENDBRANCH  28  29
ENDBRANCH  27  28
ENDBRANCH  26  27
ENDBRANCH   1  26
TORSDOF 15
ENDMDL
MODEL 3
REMARK VINA RESULT:     -13.1      2.822      4.753
REMARK SMILES Cc1csc(CNC(=O)NC[C@H]2CC[C@@H](C(=O)NCCCCNC(=O)c3ccc(-c4c5nc(c(-c6c(F)c(F)c(F)c(F)c6F)c6ccc([nH]6)c(-c6c(F)c(F)c(F)c(F)c6F)c6nc(c(-c7c(F)c(F)c(F)c(F)c7F)c7ccc4[nH]7)C=C6)C=C5)cc3)CC2)n1
REMARK SMILES IDX 19 1 18 2 16 3 17 4 15 6 12 7 13 8 90 9 14 10 89 11 11 12
REMARK SMILES IDX 10 13 7 14 8 15 9 17 6 19 5 20 1 21 2 22 3 23 91 24 4 25
REMARK SMILES IDX 20 26 21 27 22 28 23 29 24 30 25 32 26 33 27 34 88 35 28 36
REMARK SMILES IDX 87 37 29 38 30 39 31 40 81 41 32 42 86 43 80 44 82 45 33 46
REMARK SMILES IDX 85 47 79 48 78 49 34 51 66 52 46 53 65 54 47 55 50 56 64 57
REMARK SMILES IDX 83 58 48 59 49 60 63 62 84 63 51 64 35 65 36 66 44 67 37 68
REMARK SMILES IDX 38 69 42 70 45 71 39 72 40 73 43 74 41 75 67 76 68 77 76 78
REMARK SMILES IDX 69 79 70 80 74 81 77 82 71 83 72 84 75 85 73 86 52 87 53 88
REMARK SMILES IDX 61 89 54 90 55 91 59 92 62 93 56 94 57 95 60 96 58 97
REMARK H PARENT 18 5 7 16 10 18 23 31 82 50 50 61
REMARK Flexibility Score: inf
ROOT
ATOM      1  C   UNL A   1      34.594  31.763  28.317  1.00  0.00     0.116 C 
ENDROOT
BRANCH   1   2
ATOM      2  N   UNL A   1      33.536  31.569  27.355  1.00  0.00    -0.356 N 
ATOM      3  C   UNL A   1      32.846  30.474  26.954  1.00  0.00     0.223 C 
ATOM      4  O   UNL A   1      31.858  30.703  26.243  1.00  0.00    -0.275 OA
ATOM      5  H   UNL A   1      33.260  32.397  26.900  1.00  0.00     0.163 HD
BRANCH   3   6
ATOM      6  C   UNL A   1      33.203  29.014  27.285  1.00  0.00     0.078 C 
ATOM      7  C   UNL A   1      32.344  26.673  25.574  1.00  0.00     0.008 C 
ATOM      8  C   UNL A   1      33.643  27.444  25.262  1.00  0.00     0.006 C 
ATOM      9  C   UNL A   1      31.396  27.329  26.589  1.00  0.00     0.006 C 
ATOM     10  C   UNL A   1      34.209  28.305  26.383  1.00  0.00     0.014 C 
ATOM     11  C   UNL A   1      32.042  28.124  27.705  1.00  0.00     0.014 C 
BRANCH   7  12
ATOM     12  C   UNL A   1      31.562  26.401  24.267  1.00  0.00     0.121 C 
BRANCH  12  13
ATOM     13  N   UNL A   1      30.139  26.288  24.495  1.00  0.00    -0.338 N 
ATOM     14  N   UNL A   1      29.172  28.026  23.232  1.00  0.00    -0.332 N 
ATOM     15  C   UNL A   1      29.103  26.852  23.862  1.00  0.00     0.315 C 
ATOM     16  H   UNL A   1      28.432  28.170  22.601  1.00  0.00     0.165 HD
ATOM     17  O   UNL A   1      28.025  26.256  23.879  1.00  0.00    -0.249 OA
ATOM     18  H   UNL A   1      29.890  25.697  25.243  1.00  0.00     0.165 HD
BRANCH  14  19
ATOM     19  C   UNL A   1      30.106  29.135  23.279  1.00  0.00     0.185 C 
BRANCH  19  20
ATOM     20  C   UNL A   1      29.446  30.382  22.757  1.00  0.00     0.112 A 
ATOM     21  C   UNL A   1      27.885  32.168  20.042  1.00  0.00     0.067 C 
ATOM     22  C   UNL A   1      28.409  31.785  21.379  1.00  0.00     0.049 A 
ATOM     23  C   UNL A   1      28.216  32.462  22.566  1.00  0.00     0.090 A 
ATOM     24  N   UNL A   1      29.160  30.626  21.493  1.00  0.00    -0.245 NA
ATOM     25  S   UNL A   1      28.955  31.614  23.858  1.00  0.00    -0.125 S 
ENDBRANCH  19  20
ENDBRANCH  14  19
ENDBRANCH  12  13
ENDBRANCH   7  12
ENDBRANCH   3   6
ENDBRANCH   1   2
BRANCH   1  26
ATOM     26  C   UNL A   1      34.352  32.935  29.268  1.00  0.00     0.023 C 
BRANCH  26  27
ATOM     27  C   UNL A   1      33.614  34.120  28.659  1.00  0.00     0.023 C 
BRANCH  27  28
ATOM     28  C   UNL A   1      33.765  35.439  29.410  1.00  0.00     0.116 C 
BRANCH  28  29
ATOM     29  N   UNL A   1      32.651  35.804  30.274  1.00  0.00    -0.352 N 
ATOM     30  C   UNL A   1      32.599  35.704  31.649  1.00  0.00     0.251 C 
ATOM     31  H   UNL A   1      31.849  36.162  29.828  1.00  0.00     0.163 HD
ATOM     32  O   UNL A   1      31.622  36.062  32.290  1.00  0.00    -0.269 OA
BRANCH  30  33
ATOM     33  C   UNL A   1      33.732  35.070  32.346  1.00  0.00     0.039 A 
ATOM     34  C   UNL A   1      33.558  33.783  32.861  1.00  0.00     0.014 A 
ATOM     35  C   UNL A   1      34.982  35.690  32.370  1.00  0.00     0.014 A 
ATOM     36  C   UNL A   1      34.668  33.072  33.312  1.00  0.00     0.010 A 
ATOM     37  C   UNL A   1      36.097  34.953  32.747  1.00  0.00     0.010 A 
ATOM     38  C   UNL A   1      35.952  33.633  33.205  1.00  0.00    -0.014 A 
BRANCH  38  39
ATOM     39  C   UNL A   1      37.164  32.855  33.554  1.00  0.00     0.031 A 
ATOM     40  C   UNL A   1      37.873  33.130  34.847  1.00  0.00     0.074 A 
ATOM     41  C   UNL A   1      37.664  31.962  32.677  1.00  0.00     0.049 A 
ATOM     42  N   UNL A   1      39.015  32.662  35.282  1.00  0.00    -0.248 NA
ATOM     43  C   UNL A   1      37.228  34.088  35.760  1.00  0.00     0.031 C 
ATOM     44  C   UNL A   1      37.087  31.639  31.370  1.00  0.00     0.029 A 
ATOM     45  N   UNL A   1      38.782  31.170  32.749  1.00  0.00    -0.354 N 
ATOM     46  C   UNL A   1      39.232  33.280  36.505  1.00  0.00     0.074 A 
ATOM     47  C   UNL A   1      38.131  34.193  36.723  1.00  0.00     0.031 C 
ATOM     48  C   UNL A   1      37.845  30.703  30.774  1.00  0.00     0.029 A 
ATOM     49  C   UNL A   1      38.978  30.387  31.638  1.00  0.00     0.049 A 
ATOM     50  H   UNL A   1      39.389  31.164  33.526  1.00  0.00     0.167 HD
ATOM     51  C   UNL A   1      40.246  33.084  37.379  1.00  0.00     0.037 A 
ATOM     52  C   UNL A   1      39.964  29.518  31.349  1.00  0.00     0.037 A 
ATOM     53  C   UNL A   1      41.321  32.152  37.176  1.00  0.00     0.049 A 
ATOM     54  C   UNL A   1      41.068  29.306  32.351  1.00  0.00     0.074 A 
ATOM     55  C   UNL A   1      42.388  31.867  38.009  1.00  0.00     0.029 A 
ATOM     56  N   UNL A   1      41.453  31.337  36.061  1.00  0.00    -0.354 N 
ATOM     57  N   UNL A   1      41.248  29.876  33.517  1.00  0.00    -0.248 NA
ATOM     58  C   UNL A   1      42.104  28.324  31.997  1.00  0.00     0.031 C 
ATOM     59  C   UNL A   1      43.176  30.888  37.392  1.00  0.00     0.029 A 
ATOM     60  C   UNL A   1      42.580  30.544  36.189  1.00  0.00     0.049 A 
ATOM     61  H   UNL A   1      40.837  31.325  35.294  1.00  0.00     0.167 HD
ATOM     62  C   UNL A   1      42.396  29.304  34.048  1.00  0.00     0.074 A 
ATOM     63  C   UNL A   1      42.864  28.333  33.083  1.00  0.00     0.031 C 
ATOM     64  C   UNL A   1      43.010  29.564  35.227  1.00  0.00     0.037 A 
BRANCH  51  65
ATOM     65  C   UNL A   1      40.225  33.883  38.646  1.00  0.00     0.064 A 
ATOM     66  C   UNL A   1      39.505  33.446  39.768  1.00  0.00     0.173 A 
ATOM     67  C   UNL A   1      40.951  35.077  38.752  1.00  0.00     0.173 A 
ATOM     68  F   UNL A   1      38.781  32.319  39.708  1.00  0.00    -0.203 F 
ATOM     69  C   UNL A   1      39.496  34.189  40.945  1.00  0.00     0.198 A 
ATOM     70  C   UNL A   1      40.960  35.805  39.940  1.00  0.00     0.198 A 
ATOM     71  F   UNL A   1      41.656  35.536  37.707  1.00  0.00    -0.203 F 
ATOM     72  F   UNL A   1      38.768  33.774  41.991  1.00  0.00    -0.200 F 
ATOM     73  C   UNL A   1      40.229  35.363  41.033  1.00  0.00     0.200 A 
ATOM     74  F   UNL A   1      41.675  36.934  40.027  1.00  0.00    -0.200 F 
ATOM     75  F   UNL A   1      40.225  36.073  42.169  1.00  0.00    -0.200 F 
ENDBRANCH  51  65
BRANCH  52  76
ATOM     76  C   UNL A   1      39.951  28.761  30.072  1.00  0.00     0.064 A 
ATOM     77  C   UNL A   1      39.380  27.481  30.005  1.00  0.00     0.173 A 
ATOM     78  C   UNL A   1      40.529  29.280  28.906  1.00  0.00     0.173 A 
ATOM     79  F   UNL A   1      38.835  26.934  31.100  1.00  0.00    -0.203 F 
ATOM     80  C   UNL A   1      39.416  26.738  28.826  1.00  0.00     0.198 A 
ATOM     81  C   UNL A   1      40.541  28.546  27.721  1.00  0.00     0.198 A 
ATOM     82  F   UNL A   1      41.081  30.502  28.917  1.00  0.00    -0.203 F 
ATOM     83  F   UNL A   1      38.912  25.497  28.804  1.00  0.00    -0.200 F 
ATOM     84  C   UNL A   1      39.994  27.272  27.685  1.00  0.00     0.200 A 
ATOM     85  F   UNL A   1      41.091  29.070  26.617  1.00  0.00    -0.200 F 
ATOM     86  F   UNL A   1      40.034  26.555  26.553  1.00  0.00    -0.200 F 
ENDBRANCH  52  76
BRANCH  64  87
ATOM     87  C   UNL A   1      44.224  28.751  35.559  1.00  0.00     0.064 A 
ATOM     88  C   UNL A   1      44.129  27.552  36.278  1.00  0.00     0.173 A 
ATOM     89  C   UNL A   1      45.490  29.159  35.115  1.00  0.00     0.173 A 
ATOM     90  F   UNL A   1      42.939  27.131  36.736  1.00  0.00    -0.203 F 
ATOM     91  C   UNL A   1      45.264  26.796  36.557  1.00  0.00     0.198 A 
ATOM     92  C   UNL A   1      46.619  28.389  35.377  1.00  0.00     0.198 A 
ATOM     93  F   UNL A   1      45.628  30.298  34.420  1.00  0.00    -0.203 F 
ATOM     94  F   UNL A   1      45.157  25.671  37.278  1.00  0.00    -0.200 F 
ATOM     95  C   UNL A   1      46.506  27.213  36.101  1.00  0.00     0.200 A 
ATOM     96  F   UNL A   1      47.818  28.788  34.928  1.00  0.00    -0.200 F 
ATOM     97  F   UNL A   1      47.598  26.481  36.367  1.00  0.00    -0.200 F 
ENDBRANCH  64  87
ENDBRANCH  38  39
ENDBRANCH  30  33
ENDBRANCH  28  29
ENDBRANCH  27  28
ENDBRANCH  26  27
ENDBRANCH   1  26
TORSDOF 15
ENDMDL
