MODEL 1
REMARK VINA RESULT:     -11.3      0.000      0.000
REMARK SMILES C[NH+](C)[C@H]1COC[C@]1(C)C(=O)NCCCCNC(=O)c1ccc(-c2c3nc(c(-c4c(F)c(F)c(F)c(F)c4F)c4ccc([nH]4)c(-c4c(F)c(F)c(F)c(F)c4F)c4nc(c(-c5c(F)c(F)c(F)c(F)c5F)c5ccc2[nH]5)C=C4)C=C3)cc1
REMARK SMILES IDX 15 1 14 2 13 3 12 4 10 5 11 6 8 8 4 9 5 10 6 11 7 12 9 13
REMARK SMILES IDX 2 14 1 15 3 16 16 18 17 19 18 20 19 22 20 23 21 24 82 25
REMARK SMILES IDX 22 26 81 27 23 28 24 29 25 30 75 31 26 32 80 33 74 34 76 35
REMARK SMILES IDX 27 36 79 37 73 38 72 39 28 41 60 42 40 43 59 44 41 45 44 46
REMARK SMILES IDX 58 47 77 48 42 49 43 50 57 52 78 53 45 54 29 55 30 56 38 57
REMARK SMILES IDX 31 58 32 59 36 60 39 61 33 62 34 63 37 64 35 65 61 66 62 67
REMARK SMILES IDX 70 68 63 69 64 70 68 71 71 72 65 73 66 74 69 75 67 76 46 77
REMARK SMILES IDX 47 78 55 79 48 80 49 81 53 82 56 83 50 84 51 85 54 86 52 87
REMARK H PARENT 12 7 2 17 17 21 76 40 44 51
REMARK Flexibility Score: inf
ROOT
ATOM      1  C   UNL A   1      31.620  31.867  26.650  1.00  0.00     0.023 C 
ENDROOT
BRANCH   1   2
ATOM      2  C   UNL A   1      31.824  30.356  26.569  1.00  0.00     0.023 C 
BRANCH   2   3
ATOM      3  C   UNL A   1      31.484  29.741  25.212  1.00  0.00     0.116 C 
BRANCH   3   4
ATOM      4  N   UNL A   1      32.641  29.704  24.333  1.00  0.00    -0.355 N 
ATOM      5  C   UNL A   1      33.052  28.768  23.423  1.00  0.00     0.234 C 
ATOM      6  O   UNL A   1      34.098  29.016  22.821  1.00  0.00    -0.274 OA
ATOM      7  H   UNL A   1      33.231  30.489  24.404  1.00  0.00     0.163 HD
BRANCH   5   8
ATOM      8  C   UNL A   1      32.197  27.513  23.137  1.00  0.00     0.123 C 
ATOM      9  C   UNL A   1      32.215  26.610  24.395  1.00  0.00     0.227 C 
ATOM     10  C   UNL A   1      33.540  25.839  24.178  1.00  0.00     0.226 C 
ATOM     11  O   UNL A   1      33.776  25.728  22.774  1.00  0.00    -0.374 OA
ATOM     12  C   UNL A   1      32.893  26.626  22.096  1.00  0.00     0.183 C 
ATOM     13  C   UNL A   1      30.885  28.044  22.539  1.00  0.00     0.031 C 
BRANCH   9  14
ATOM     14  N   UNL A   1      31.176  25.615  24.749  1.00  0.00    -0.334 N 
ATOM     15  C   UNL A   1      30.162  25.976  25.719  1.00  0.00     0.332 C 
ATOM     16  C   UNL A   1      31.769  24.317  25.085  1.00  0.00     0.332 C 
ATOM     17  H   UNL A   1      30.642  25.568  23.882  1.00  0.00     0.347 HD
ENDBRANCH   9  14
ENDBRANCH   5   8
ENDBRANCH   3   4
ENDBRANCH   2   3
ENDBRANCH   1   2
BRANCH   1  18
ATOM     18  C   UNL A   1      32.772  32.636  27.285  1.00  0.00     0.116 C 
BRANCH  18  19
ATOM     19  N   UNL A   1      32.428  34.012  27.610  1.00  0.00    -0.352 N 
ATOM     20  C   UNL A   1      32.974  34.833  28.567  1.00  0.00     0.251 C 
ATOM     21  H   UNL A   1      31.706  34.409  27.072  1.00  0.00     0.163 HD
ATOM     22  O   UNL A   1      32.476  35.930  28.803  1.00  0.00    -0.269 OA
BRANCH  20  23
ATOM     23  C   UNL A   1      34.145  34.367  29.337  1.00  0.00     0.039 A 
ATOM     24  C   UNL A   1      33.936  33.698  30.544  1.00  0.00     0.014 A 
ATOM     25  C   UNL A   1      35.440  34.560  28.849  1.00  0.00     0.014 A 
ATOM     26  C   UNL A   1      35.026  33.157  31.228  1.00  0.00     0.010 A 
ATOM     27  C   UNL A   1      36.514  33.953  29.490  1.00  0.00     0.010 A 
ATOM     28  C   UNL A   1      36.319  33.246  30.685  1.00  0.00    -0.014 A 
BRANCH  28  29
ATOM     29  C   UNL A   1      37.479  32.606  31.353  1.00  0.00     0.031 A 
ATOM     30  C   UNL A   1      38.196  31.465  30.688  1.00  0.00     0.074 A 
ATOM     31  C   UNL A   1      37.843  33.007  32.587  1.00  0.00     0.049 A 
ATOM     32  N   UNL A   1      39.181  30.730  31.139  1.00  0.00    -0.248 NA
ATOM     33  C   UNL A   1      37.722  31.079  29.350  1.00  0.00     0.031 C 
ATOM     34  C   UNL A   1      37.193  34.068  33.358  1.00  0.00     0.029 A 
ATOM     35  N   UNL A   1      38.842  32.560  33.415  1.00  0.00    -0.354 N 
ATOM     36  C   UNL A   1      39.433  29.790  30.149  1.00  0.00     0.074 A 
ATOM     37  C   UNL A   1      38.462  30.009  29.099  1.00  0.00     0.031 C 
ATOM     38  C   UNL A   1      37.824  34.206  34.535  1.00  0.00     0.029 A 
ATOM     39  C   UNL A   1      38.897  33.220  34.619  1.00  0.00     0.049 A 
ATOM     40  H   UNL A   1      39.461  31.834  33.170  1.00  0.00     0.167 HD
ATOM     41  C   UNL A   1      40.403  28.846  30.108  1.00  0.00     0.037 A 
ATOM     42  C   UNL A   1      39.717  33.043  35.673  1.00  0.00     0.037 A 
ATOM     43  C   UNL A   1      41.383  28.647  31.143  1.00  0.00     0.049 A 
ATOM     44  C   UNL A   1      40.784  31.985  35.602  1.00  0.00     0.074 A 
ATOM     45  C   UNL A   1      42.444  27.759  31.169  1.00  0.00     0.029 A 
ATOM     46  N   UNL A   1      41.421  29.350  32.339  1.00  0.00    -0.354 N 
ATOM     47  N   UNL A   1      41.059  31.149  34.630  1.00  0.00    -0.248 NA
ATOM     48  C   UNL A   1      41.661  31.851  36.773  1.00  0.00     0.031 C 
ATOM     49  C   UNL A   1      43.095  27.892  32.400  1.00  0.00     0.029 A 
ATOM     50  C   UNL A   1      42.473  28.900  33.119  1.00  0.00     0.049 A 
ATOM     51  H   UNL A   1      40.792  30.063  32.595  1.00  0.00     0.167 HD
ATOM     52  C   UNL A   1      42.155  30.413  35.059  1.00  0.00     0.074 A 
ATOM     53  C   UNL A   1      42.504  30.910  36.373  1.00  0.00     0.031 C 
ATOM     54  C   UNL A   1      42.813  29.414  34.422  1.00  0.00     0.037 A 
BRANCH  41  55
ATOM     55  C   UNL A   1      40.456  27.958  28.898  1.00  0.00     0.064 A 
ATOM     56  C   UNL A   1      41.237  28.285  27.779  1.00  0.00     0.173 A 
ATOM     57  C   UNL A   1      39.743  26.749  28.870  1.00  0.00     0.173 A 
ATOM     58  F   UNL A   1      41.928  29.435  27.751  1.00  0.00    -0.203 F 
ATOM     59  C   UNL A   1      41.279  27.450  26.665  1.00  0.00     0.198 A 
ATOM     60  C   UNL A   1      39.813  25.902  27.767  1.00  0.00     0.198 A 
ATOM     61  F   UNL A   1      38.984  26.386  29.915  1.00  0.00    -0.203 F 
ATOM     62  F   UNL A   1      41.991  27.809  25.588  1.00  0.00    -0.200 F 
ATOM     63  C   UNL A   1      40.574  26.257  26.663  1.00  0.00     0.200 A 
ATOM     64  F   UNL A   1      39.141  24.743  27.771  1.00  0.00    -0.200 F 
ATOM     65  F   UNL A   1      40.620  25.451  25.593  1.00  0.00    -0.200 F 
ENDBRANCH  41  55
BRANCH  42  66
ATOM     66  C   UNL A   1      39.579  33.907  36.874  1.00  0.00     0.064 A 
ATOM     67  C   UNL A   1      38.824  33.487  37.978  1.00  0.00     0.173 A 
ATOM     68  C   UNL A   1      40.187  35.169  36.942  1.00  0.00     0.173 A 
ATOM     69  F   UNL A   1      38.206  32.297  37.952  1.00  0.00    -0.203 F 
ATOM     70  C   UNL A   1      38.664  34.304  39.095  1.00  0.00     0.198 A 
ATOM     71  C   UNL A   1      40.051  35.973  38.072  1.00  0.00     0.198 A 
ATOM     72  F   UNL A   1      40.925  35.616  35.915  1.00  0.00    -0.203 F 
ATOM     73  F   UNL A   1      37.898  33.898  40.116  1.00  0.00    -0.200 F 
ATOM     74  C   UNL A   1      39.282  35.545  39.143  1.00  0.00     0.200 A 
ATOM     75  F   UNL A   1      40.662  37.165  38.120  1.00  0.00    -0.200 F 
ATOM     76  F   UNL A   1      39.130  36.330  40.219  1.00  0.00    -0.200 F 
ENDBRANCH  42  66
BRANCH  54  77
ATOM     77  C   UNL A   1      44.002  28.818  35.118  1.00  0.00     0.064 A 
ATOM     78  C   UNL A   1      43.870  27.752  36.020  1.00  0.00     0.173 A 
ATOM     79  C   UNL A   1      45.294  29.298  34.851  1.00  0.00     0.173 A 
ATOM     80  F   UNL A   1      42.656  27.267  36.321  1.00  0.00    -0.203 F 
ATOM     81  C   UNL A   1      44.986  27.204  36.647  1.00  0.00     0.198 A 
ATOM     82  C   UNL A   1      46.409  28.727  35.456  1.00  0.00     0.198 A 
ATOM     83  F   UNL A   1      45.474  30.311  33.992  1.00  0.00    -0.203 F 
ATOM     84  F   UNL A   1      44.833  26.218  37.541  1.00  0.00    -0.200 F 
ATOM     85  C   UNL A   1      46.254  27.687  36.360  1.00  0.00     0.200 A 
ATOM     86  F   UNL A   1      47.635  29.185  35.166  1.00  0.00    -0.200 F 
ATOM     87  F   UNL A   1      47.327  27.153  36.958  1.00  0.00    -0.200 F 
ENDBRANCH  54  77
ENDBRANCH  28  29
ENDBRANCH  20  23
ENDBRANCH  18  19
ENDBRANCH   1  18
TORSDOF 12
ENDMDL
MODEL 2
REMARK VINA RESULT:     -11.3      0.128      1.664
REMARK SMILES C[NH+](C)[C@H]1COC[C@]1(C)C(=O)NCCCCNC(=O)c1ccc(-c2c3nc(c(-c4c(F)c(F)c(F)c(F)c4F)c4ccc([nH]4)c(-c4c(F)c(F)c(F)c(F)c4F)c4nc(c(-c5c(F)c(F)c(F)c(F)c5F)c5ccc2[nH]5)C=C4)C=C3)cc1
REMARK SMILES IDX 15 1 14 2 13 3 12 4 10 5 11 6 8 8 4 9 5 10 6 11 7 12 9 13
REMARK SMILES IDX 2 14 1 15 3 16 16 18 17 19 18 20 19 22 20 23 21 24 82 25
REMARK SMILES IDX 22 26 81 27 23 28 24 29 25 30 75 31 26 32 80 33 74 34 76 35
REMARK SMILES IDX 27 36 79 37 73 38 72 39 28 41 60 42 40 43 59 44 41 45 44 46
REMARK SMILES IDX 58 47 77 48 42 49 43 50 57 52 78 53 45 54 29 55 30 56 38 57
REMARK SMILES IDX 31 58 32 59 36 60 39 61 33 62 34 63 37 64 35 65 61 66 62 67
REMARK SMILES IDX 70 68 63 69 64 70 68 71 71 72 65 73 66 74 69 75 67 76 46 77
REMARK SMILES IDX 47 78 55 79 48 80 49 81 53 82 56 83 50 84 51 85 54 86 52 87
REMARK H PARENT 12 7 2 17 17 21 76 40 44 51
REMARK Flexibility Score: inf
ROOT
ATOM      1  C   UNL A   1      31.661  31.863  26.581  1.00  0.00     0.023 C 
ENDROOT
BRANCH   1   2
ATOM      2  C   UNL A   1      31.838  30.348  26.517  1.00  0.00     0.023 C 
BRANCH   2   3
ATOM      3  C   UNL A   1      31.462  29.720  25.176  1.00  0.00     0.116 C 
BRANCH   3   4
ATOM      4  N   UNL A   1      32.598  29.668  24.270  1.00  0.00    -0.355 N 
ATOM      5  C   UNL A   1      33.015  28.693  23.404  1.00  0.00     0.234 C 
ATOM      6  O   UNL A   1      34.037  28.938  22.760  1.00  0.00    -0.274 OA
ATOM      7  H   UNL A   1      33.164  30.473  24.279  1.00  0.00     0.163 HD
BRANCH   5   8
ATOM      8  C   UNL A   1      32.194  27.398  23.212  1.00  0.00     0.123 C 
ATOM      9  C   UNL A   1      32.285  26.563  24.513  1.00  0.00     0.227 C 
ATOM     10  C   UNL A   1      33.627  25.825  24.290  1.00  0.00     0.226 C 
ATOM     11  O   UNL A   1      33.819  25.648  22.886  1.00  0.00    -0.374 OA
ATOM     12  C   UNL A   1      32.884  26.481  22.194  1.00  0.00     0.183 C 
ATOM     13  C   UNL A   1      30.845  27.856  22.635  1.00  0.00     0.031 C 
BRANCH   9  14
ATOM     14  N   UNL A   1      31.293  25.556  24.955  1.00  0.00    -0.334 N 
ATOM     15  C   UNL A   1      30.157  25.989  25.744  1.00  0.00     0.332 C 
ATOM     16  C   UNL A   1      31.943  24.401  25.582  1.00  0.00     0.332 C 
ATOM     17  H   UNL A   1      30.858  25.303  24.068  1.00  0.00     0.347 HD
ENDBRANCH   9  14
ENDBRANCH   5   8
ENDBRANCH   3   4
ENDBRANCH   2   3
ENDBRANCH   1   2
BRANCH   1  18
ATOM     18  C   UNL A   1      32.780  32.609  27.298  1.00  0.00     0.116 C 
BRANCH  18  19
ATOM     19  N   UNL A   1      32.435  33.987  27.613  1.00  0.00    -0.352 N 
ATOM     20  C   UNL A   1      32.985  34.818  28.559  1.00  0.00     0.251 C 
ATOM     21  H   UNL A   1      31.709  34.378  27.075  1.00  0.00     0.163 HD
ATOM     22  O   UNL A   1      32.487  35.916  28.788  1.00  0.00    -0.269 OA
BRANCH  20  23
ATOM     23  C   UNL A   1      34.161  34.361  29.326  1.00  0.00     0.039 A 
ATOM     24  C   UNL A   1      33.962  33.728  30.555  1.00  0.00     0.014 A 
ATOM     25  C   UNL A   1      35.451  34.526  28.816  1.00  0.00     0.014 A 
ATOM     26  C   UNL A   1      35.055  33.195  31.239  1.00  0.00     0.010 A 
ATOM     27  C   UNL A   1      36.528  33.926  29.459  1.00  0.00     0.010 A 
ATOM     28  C   UNL A   1      36.341  33.255  30.677  1.00  0.00    -0.014 A 
BRANCH  28  29
ATOM     29  C   UNL A   1      37.504  32.622  31.347  1.00  0.00     0.031 A 
ATOM     30  C   UNL A   1      38.238  31.495  30.677  1.00  0.00     0.074 A 
ATOM     31  C   UNL A   1      37.854  33.015  32.587  1.00  0.00     0.049 A 
ATOM     32  N   UNL A   1      39.228  30.766  31.128  1.00  0.00    -0.248 NA
ATOM     33  C   UNL A   1      37.779  31.116  29.331  1.00  0.00     0.031 C 
ATOM     34  C   UNL A   1      37.187  34.061  33.364  1.00  0.00     0.029 A 
ATOM     35  N   UNL A   1      38.852  32.571  33.419  1.00  0.00    -0.354 N 
ATOM     36  C   UNL A   1      39.498  29.839  30.131  1.00  0.00     0.074 A 
ATOM     37  C   UNL A   1      38.532  30.057  29.076  1.00  0.00     0.031 C 
ATOM     38  C   UNL A   1      37.808  34.195  34.547  1.00  0.00     0.029 A 
ATOM     39  C   UNL A   1      38.891  33.220  34.629  1.00  0.00     0.049 A 
ATOM     40  H   UNL A   1      39.481  31.854  33.171  1.00  0.00     0.167 HD
ATOM     41  C   UNL A   1      40.479  28.906  30.088  1.00  0.00     0.037 A 
ATOM     42  C   UNL A   1      39.705  33.042  35.687  1.00  0.00     0.037 A 
ATOM     43  C   UNL A   1      41.453  28.708  31.128  1.00  0.00     0.049 A 
ATOM     44  C   UNL A   1      40.785  31.996  35.614  1.00  0.00     0.074 A 
ATOM     45  C   UNL A   1      42.523  27.832  31.154  1.00  0.00     0.029 A 
ATOM     46  N   UNL A   1      41.474  29.400  32.331  1.00  0.00    -0.354 N 
ATOM     47  N   UNL A   1      41.076  31.173  34.637  1.00  0.00    -0.248 NA
ATOM     48  C   UNL A   1      41.654  31.861  36.791  1.00  0.00     0.031 C 
ATOM     49  C   UNL A   1      43.164  27.960  32.391  1.00  0.00     0.029 A 
ATOM     50  C   UNL A   1      42.526  28.954  33.115  1.00  0.00     0.049 A 
ATOM     51  H   UNL A   1      40.835  30.103  32.590  1.00  0.00     0.167 HD
ATOM     52  C   UNL A   1      42.177  30.445  35.066  1.00  0.00     0.074 A 
ATOM     53  C   UNL A   1      42.511  30.934  36.388  1.00  0.00     0.031 C 
ATOM     54  C   UNL A   1      42.850  29.459  34.424  1.00  0.00     0.037 A 
BRANCH  41  55
ATOM     55  C   UNL A   1      40.550  28.030  28.870  1.00  0.00     0.064 A 
ATOM     56  C   UNL A   1      39.824  26.832  28.783  1.00  0.00     0.173 A 
ATOM     57  C   UNL A   1      41.326  28.408  27.765  1.00  0.00     0.173 A 
ATOM     58  F   UNL A   1      39.075  26.420  29.817  1.00  0.00    -0.203 F 
ATOM     59  C   UNL A   1      39.895  26.031  27.647  1.00  0.00     0.198 A 
ATOM     60  C   UNL A   1      41.372  27.619  26.618  1.00  0.00     0.198 A 
ATOM     61  F   UNL A   1      42.037  29.545  27.793  1.00  0.00    -0.203 F 
ATOM     62  F   UNL A   1      39.234  24.866  27.607  1.00  0.00    -0.200 F 
ATOM     63  C   UNL A   1      40.663  26.429  26.563  1.00  0.00     0.200 A 
ATOM     64  F   UNL A   1      42.104  28.011  25.566  1.00  0.00    -0.200 F 
ATOM     65  F   UNL A   1      40.727  25.659  25.467  1.00  0.00    -0.200 F 
ENDBRANCH  41  55
BRANCH  42  66
ATOM     66  C   UNL A   1      39.549  33.893  36.895  1.00  0.00     0.064 A 
ATOM     67  C   UNL A   1      38.810  33.444  37.999  1.00  0.00     0.173 A 
ATOM     68  C   UNL A   1      40.122  35.170  36.970  1.00  0.00     0.173 A 
ATOM     69  F   UNL A   1      38.225  32.237  37.967  1.00  0.00    -0.203 F 
ATOM     70  C   UNL A   1      38.633  34.248  39.123  1.00  0.00     0.198 A 
ATOM     71  C   UNL A   1      39.969  35.962  38.107  1.00  0.00     0.198 A 
ATOM     72  F   UNL A   1      40.843  35.645  35.944  1.00  0.00    -0.203 F 
ATOM     73  F   UNL A   1      37.883  33.813  40.144  1.00  0.00    -0.200 F 
ATOM     74  C   UNL A   1      39.217  35.505  39.178  1.00  0.00     0.200 A 
ATOM     75  F   UNL A   1      40.547  37.169  38.162  1.00  0.00    -0.200 F 
ATOM     76  F   UNL A   1      39.049  36.277  40.260  1.00  0.00    -0.200 F 
ENDBRANCH  42  66
BRANCH  54  77
ATOM     77  C   UNL A   1      44.041  28.870  35.124  1.00  0.00     0.064 A 
ATOM     78  C   UNL A   1      45.333  29.381  34.938  1.00  0.00     0.173 A 
ATOM     79  C   UNL A   1      43.879  27.802  36.021  1.00  0.00     0.173 A 
ATOM     80  F   UNL A   1      45.543  30.391  34.079  1.00  0.00    -0.203 F 
ATOM     81  C   UNL A   1      46.424  28.830  35.606  1.00  0.00     0.198 A 
ATOM     82  C   UNL A   1      44.966  27.275  36.711  1.00  0.00     0.198 A 
ATOM     83  F   UNL A   1      42.663  27.282  36.240  1.00  0.00    -0.203 F 
ATOM     84  F   UNL A   1      47.656  29.302  35.376  1.00  0.00    -0.200 F 
ATOM     85  C   UNL A   1      46.239  27.783  36.496  1.00  0.00     0.200 A 
ATOM     86  F   UNL A   1      44.784  26.272  37.581  1.00  0.00    -0.200 F 
ATOM     87  F   UNL A   1      47.288  27.258  37.143  1.00  0.00    -0.200 F 
ENDBRANCH  54  77
ENDBRANCH  28  29
ENDBRANCH  20  23
ENDBRANCH  18  19
ENDBRANCH   1  18
TORSDOF 12
ENDMDL
MODEL 3
REMARK VINA RESULT:     -11.2      0.714      1.468
REMARK SMILES C[NH+](C)[C@H]1COC[C@]1(C)C(=O)NCCCCNC(=O)c1ccc(-c2c3nc(c(-c4c(F)c(F)c(F)c(F)c4F)c4ccc([nH]4)c(-c4c(F)c(F)c(F)c(F)c4F)c4nc(c(-c5c(F)c(F)c(F)c(F)c5F)c5ccc2[nH]5)C=C4)C=C3)cc1
REMARK SMILES IDX 15 1 14 2 13 3 12 4 10 5 11 6 8 8 4 9 5 10 6 11 7 12 9 13
REMARK SMILES IDX 2 14 1 15 3 16 16 18 17 19 18 20 19 22 20 23 21 24 82 25
REMARK SMILES IDX 22 26 81 27 23 28 24 29 25 30 75 31 26 32 80 33 74 34 76 35
REMARK SMILES IDX 27 36 79 37 73 38 72 39 28 41 60 42 40 43 59 44 41 45 44 46
REMARK SMILES IDX 58 47 77 48 42 49 43 50 57 52 78 53 45 54 29 55 30 56 38 57
REMARK SMILES IDX 31 58 32 59 36 60 39 61 33 62 34 63 37 64 35 65 61 66 62 67
REMARK SMILES IDX 70 68 63 69 64 70 68 71 71 72 65 73 66 74 69 75 67 76 46 77
REMARK SMILES IDX 47 78 55 79 48 80 49 81 53 82 56 83 50 84 51 85 54 86 52 87
REMARK H PARENT 12 7 2 17 17 21 76 40 44 51
REMARK Flexibility Score: inf
ROOT
ATOM      1  C   UNL A   1      31.619  31.846  26.608  1.00  0.00     0.023 C 
ENDROOT
BRANCH   1   2
ATOM      2  C   UNL A   1      31.735  30.324  26.679  1.00  0.00     0.023 C 
BRANCH   2   3
ATOM      3  C   UNL A   1      32.502  29.691  25.519  1.00  0.00     0.116 C 
BRANCH   3   4
ATOM      4  N   UNL A   1      31.806  29.865  24.255  1.00  0.00    -0.355 N 
ATOM      5  C   UNL A   1      31.319  28.950  23.361  1.00  0.00     0.234 C 
ATOM      6  O   UNL A   1      30.772  29.408  22.356  1.00  0.00    -0.274 OA
ATOM      7  H   UNL A   1      31.659  30.803  23.997  1.00  0.00     0.163 HD
BRANCH   5   8
ATOM      8  C   UNL A   1      31.401  27.435  23.655  1.00  0.00     0.123 C 
ATOM      9  C   UNL A   1      32.889  27.054  23.853  1.00  0.00     0.227 C 
ATOM     10  C   UNL A   1      33.337  26.862  22.384  1.00  0.00     0.226 C 
ATOM     11  O   UNL A   1      32.211  26.429  21.619  1.00  0.00    -0.374 OA
ATOM     12  C   UNL A   1      31.030  26.633  22.400  1.00  0.00     0.183 C 
ATOM     13  C   UNL A   1      30.345  27.175  24.741  1.00  0.00     0.031 C 
BRANCH   9  14
ATOM     14  N   UNL A   1      33.378  25.886  24.622  1.00  0.00    -0.334 N 
ATOM     15  C   UNL A   1      33.932  26.099  25.945  1.00  0.00     0.332 C 
ATOM     16  C   UNL A   1      34.276  25.052  23.818  1.00  0.00     0.332 C 
ATOM     17  H   UNL A   1      32.504  25.402  24.828  1.00  0.00     0.347 HD
ENDBRANCH   9  14
ENDBRANCH   5   8
ENDBRANCH   3   4
ENDBRANCH   2   3
ENDBRANCH   1   2
BRANCH   1  18
ATOM     18  C   UNL A   1      32.763  32.606  27.266  1.00  0.00     0.116 C 
BRANCH  18  19
ATOM     19  N   UNL A   1      32.424  33.986  27.580  1.00  0.00    -0.352 N 
ATOM     20  C   UNL A   1      32.976  34.814  28.527  1.00  0.00     0.251 C 
ATOM     21  H   UNL A   1      31.701  34.380  27.041  1.00  0.00     0.163 HD
ATOM     22  O   UNL A   1      32.483  35.914  28.755  1.00  0.00    -0.269 OA
BRANCH  20  23
ATOM     23  C   UNL A   1      34.149  34.352  29.297  1.00  0.00     0.039 A 
ATOM     24  C   UNL A   1      33.943  33.693  30.510  1.00  0.00     0.014 A 
ATOM     25  C   UNL A   1      35.442  34.539  28.803  1.00  0.00     0.014 A 
ATOM     26  C   UNL A   1      35.035  33.155  31.195  1.00  0.00     0.010 A 
ATOM     27  C   UNL A   1      36.518  33.935  29.445  1.00  0.00     0.010 A 
ATOM     28  C   UNL A   1      36.325  33.238  30.647  1.00  0.00    -0.014 A 
BRANCH  28  29
ATOM     29  C   UNL A   1      37.487  32.601  31.315  1.00  0.00     0.031 A 
ATOM     30  C   UNL A   1      38.208  31.463  30.651  1.00  0.00     0.074 A 
ATOM     31  C   UNL A   1      37.847  33.002  32.550  1.00  0.00     0.049 A 
ATOM     32  N   UNL A   1      39.196  30.730  31.102  1.00  0.00    -0.248 NA
ATOM     33  C   UNL A   1      37.739  31.077  29.311  1.00  0.00     0.031 C 
ATOM     34  C   UNL A   1      37.193  34.060  33.322  1.00  0.00     0.029 A 
ATOM     35  N   UNL A   1      38.847  32.557  33.380  1.00  0.00    -0.354 N 
ATOM     36  C   UNL A   1      39.452  29.792  30.111  1.00  0.00     0.074 A 
ATOM     37  C   UNL A   1      38.482  30.010  29.060  1.00  0.00     0.031 C 
ATOM     38  C   UNL A   1      37.821  34.198  34.500  1.00  0.00     0.029 A 
ATOM     39  C   UNL A   1      38.898  33.215  34.584  1.00  0.00     0.049 A 
ATOM     40  H   UNL A   1      39.469  31.834  33.135  1.00  0.00     0.167 HD
ATOM     41  C   UNL A   1      40.426  28.852  30.070  1.00  0.00     0.037 A 
ATOM     42  C   UNL A   1      39.717  33.040  35.639  1.00  0.00     0.037 A 
ATOM     43  C   UNL A   1      41.404  28.655  31.107  1.00  0.00     0.049 A 
ATOM     44  C   UNL A   1      40.788  31.986  35.568  1.00  0.00     0.074 A 
ATOM     45  C   UNL A   1      42.468  27.771  31.133  1.00  0.00     0.029 A 
ATOM     46  N   UNL A   1      41.438  29.357  32.303  1.00  0.00    -0.354 N 
ATOM     47  N   UNL A   1      41.067  31.152  34.596  1.00  0.00    -0.248 NA
ATOM     48  C   UNL A   1      41.663  31.854  36.741  1.00  0.00     0.031 C 
ATOM     49  C   UNL A   1      43.117  27.905  32.366  1.00  0.00     0.029 A 
ATOM     50  C   UNL A   1      42.491  28.909  33.085  1.00  0.00     0.049 A 
ATOM     51  H   UNL A   1      40.806  30.067  32.560  1.00  0.00     0.167 HD
ATOM     52  C   UNL A   1      42.164  30.419  35.026  1.00  0.00     0.074 A 
ATOM     53  C   UNL A   1      42.510  30.916  36.341  1.00  0.00     0.031 C 
ATOM     54  C   UNL A   1      42.827  29.423  34.388  1.00  0.00     0.037 A 
BRANCH  41  55
ATOM     55  C   UNL A   1      40.483  27.966  28.860  1.00  0.00     0.064 A 
ATOM     56  C   UNL A   1      41.256  28.301  27.738  1.00  0.00     0.173 A 
ATOM     57  C   UNL A   1      39.784  26.750  28.833  1.00  0.00     0.173 A 
ATOM     58  F   UNL A   1      41.935  29.459  27.708  1.00  0.00    -0.203 F 
ATOM     59  C   UNL A   1      41.304  27.469  26.623  1.00  0.00     0.198 A 
ATOM     60  C   UNL A   1      39.858  25.904  27.729  1.00  0.00     0.198 A 
ATOM     61  F   UNL A   1      39.032  26.377  29.880  1.00  0.00    -0.203 F 
ATOM     62  F   UNL A   1      42.008  27.836  25.543  1.00  0.00    -0.200 F 
ATOM     63  C   UNL A   1      40.611  26.268  26.623  1.00  0.00     0.200 A 
ATOM     64  F   UNL A   1      39.198  24.738  27.734  1.00  0.00    -0.200 F 
ATOM     65  F   UNL A   1      40.662  25.464  25.551  1.00  0.00    -0.200 F 
ENDBRANCH  41  55
BRANCH  42  66
ATOM     66  C   UNL A   1      39.574  33.902  36.841  1.00  0.00     0.064 A 
ATOM     67  C   UNL A   1      40.207  35.151  36.908  1.00  0.00     0.173 A 
ATOM     68  C   UNL A   1      38.814  33.496  37.948  1.00  0.00     0.173 A 
ATOM     69  F   UNL A   1      40.962  35.575  35.884  1.00  0.00    -0.203 F 
ATOM     70  C   UNL A   1      40.104  35.951  38.045  1.00  0.00     0.198 A 
ATOM     71  C   UNL A   1      38.688  34.310  39.071  1.00  0.00     0.198 A 
ATOM     72  F   UNL A   1      38.184  32.313  37.931  1.00  0.00    -0.203 F 
ATOM     73  F   UNL A   1      40.759  37.119  38.101  1.00  0.00    -0.200 F 
ATOM     74  C   UNL A   1      39.340  35.532  39.123  1.00  0.00     0.200 A 
ATOM     75  F   UNL A   1      37.936  33.908  40.105  1.00  0.00    -0.200 F 
ATOM     76  F   UNL A   1      39.239  36.303  40.215  1.00  0.00    -0.200 F 
ENDBRANCH  42  66
BRANCH  54  77
ATOM     77  C   UNL A   1      44.017  28.830  35.086  1.00  0.00     0.064 A 
ATOM     78  C   UNL A   1      43.894  27.731  35.948  1.00  0.00     0.173 A 
ATOM     79  C   UNL A   1      45.302  29.347  34.859  1.00  0.00     0.173 A 
ATOM     80  F   UNL A   1      42.686  27.209  36.211  1.00  0.00    -0.203 F 
ATOM     81  C   UNL A   1      45.011  27.187  36.577  1.00  0.00     0.198 A 
ATOM     82  C   UNL A   1      46.419  28.781  35.464  1.00  0.00     0.198 A 
ATOM     83  F   UNL A   1      45.474  30.394  34.038  1.00  0.00    -0.203 F 
ATOM     84  F   UNL A   1      44.864  26.168  37.435  1.00  0.00    -0.200 F 
ATOM     85  C   UNL A   1      46.272  27.707  36.330  1.00  0.00     0.200 A 
ATOM     86  F   UNL A   1      47.639  29.276  35.213  1.00  0.00    -0.200 F 
ATOM     87  F   UNL A   1      47.347  27.178  36.930  1.00  0.00    -0.200 F 
ENDBRANCH  54  77
ENDBRANCH  28  29
ENDBRANCH  20  23
ENDBRANCH  18  19
ENDBRANCH   1  18
TORSDOF 12
ENDMDL
